REMARK  11 active torsions:
REMARK  status: ('A' for Active; 'I' for Inactive)
REMARK    1  A    between atoms: C2_2  and  C4_4 
REMARK    2  A    between atoms: C4_4  and  O1_5 
REMARK    3  A    between atoms: O1_5  and  C5_6 
REMARK    4  A    between atoms: C6_9  and  C10_15 
REMARK    5  A    between atoms: C8_11  and  C9_12 
REMARK       I    between atoms: C10_15  and  N2_17 
REMARK    6  A    between atoms: N2_17  and  C11_18 
REMARK    7  A    between atoms: C17_26  and  C19_29 
REMARK       I    between atoms: C19_29  and  N4_31 
REMARK    8  A    between atoms: N4_31  and  C20_32 
REMARK    9  A    between atoms: C20_32  and  C21_33 
REMARK   10  A    between atoms: C21_33  and  C22_34 
REMARK   11  A    between atoms: C26_38  and  C28_40 
ROOT
HETATM    1  C11 UNL     1      10.500   0.000   0.000  1.00  0.00     0.080 A 
HETATM    2  C12 UNL     1      12.000   0.000   0.000  1.00  0.00     0.048 A 
HETATM    3  C13 UNL     1      12.750  -1.299   0.000  1.00  0.00     0.006 A 
HETATM    4  C14 UNL     1      12.000  -2.598   0.000  1.00  0.00     0.000 A 
HETATM    5  C15 UNL     1      14.250  -1.299   0.000  1.00  0.00     0.000 C 
HETATM    6  C16 UNL     1       9.750  -1.299   0.000  1.00  0.00     0.113 A 
HETATM    7  O6  UNL     1      10.500  -2.598   0.000  1.00  0.00     0.000 OA
HETATM    8  N3  UNL     1       8.250  -1.299   0.000  1.00  0.00    -0.243 NA
HETATM    9  C17 UNL     1       7.500  -2.598   0.000  1.00  0.00     0.114 A 
HETATM   10  C18 UNL     1       8.250  -3.897   0.000  1.00  0.00     0.118 A 
HETATM   11  S1  UNL     1       9.750  -3.897   0.000  1.00  0.00    -0.075 SA
ENDROOT
BRANCH   1  12
HETATM   12  N2  UNL     1       9.750   1.299   0.000  1.00  0.00    -0.222 NA
HETATM   13  C10 UNL     1      10.500   2.598   0.000  1.00  0.00     0.226 C 
HETATM   14  O5  UNL     1      12.000   2.598   0.000  1.00  0.00    -0.168 OA
BRANCH  13  15
HETATM   15  C6  UNL     1       9.750   3.897   0.000  1.00  0.00     0.110 A 
HETATM   16  N1  UNL     1       8.250   3.897   0.000  1.00  0.00    -0.201 NA
HETATM   17  C5  UNL     1       7.500   5.196   0.000  1.00  0.00     0.290 A 
HETATM   18  O2  UNL     1       8.250   6.495   0.000  1.00  0.00    -0.287 OA
HETATM   19  C8  UNL     1       9.750   6.495   0.000  1.00  0.00     0.217 A 
HETATM   20  C7  UNL     1      10.500   5.196   0.000  1.00  0.00     0.091 A 
BRANCH  17  21
HETATM   21  O1  UNL     1       6.000   5.196   0.000  1.00  0.00    -0.296 OA
BRANCH  21  22
HETATM   22  C4  UNL     1       5.250   6.495   0.000  1.00  0.00     0.152 C 
BRANCH  22  23
HETATM   23  C2  UNL     1       3.750   6.495   0.000  1.00  0.00     0.030 C 
HETATM   24  C1  UNL     1       3.000   7.794   0.000  1.00  0.00     0.003 C 
HETATM   25  C3  UNL     1       3.000   5.196   0.000  1.00  0.00     0.003 C 
ENDBRANCH  22  23
ENDBRANCH  21  22
ENDBRANCH  17  21
BRANCH  19  26
HETATM   26  C9  UNL     1      10.500   7.794   0.000  1.00  0.00     0.215 C 
HETATM   27  O3  UNL     1      12.000   7.794   0.000  1.00  0.00    -0.646 OA
HETATM   28  O4  UNL     1       9.750   9.093   0.000  1.00  0.00    -0.646 OA
ENDBRANCH  19  26
ENDBRANCH  13  15
ENDBRANCH   1  12
BRANCH   9  29
HETATM   29  C19 UNL     1       6.000  -2.598   0.000  1.00  0.00     0.223 C 
HETATM   30  O7  UNL     1       5.250  -3.897   0.000  1.00  0.00    -0.168 OA
HETATM   31  N4  UNL     1       5.250  -1.299   0.000  1.00  0.00    -0.245 NA
BRANCH  31  32
HETATM   32  C20 UNL     1       3.750  -1.299   0.000  1.00  0.00     0.128 C 
BRANCH  32  33
HETATM   33  C21 UNL     1       3.000   0.000   0.000  1.00  0.00     0.026 C 
BRANCH  33  34
HETATM   34  C22 UNL     1       1.500   0.000   0.000  1.00  0.00     0.003 A 
HETATM   35  C23 UNL     1       0.750  -1.299   0.000  1.00  0.00     0.000 A 
HETATM   36  C24 UNL     1      -0.750  -1.299   0.000  1.00  0.00     0.001 A 
HETATM   37  C25 UNL     1      -1.500   0.000   0.000  1.00  0.00     0.011 A 
HETATM   38  C26 UNL     1      -0.750   1.299   0.000  1.00  0.00     0.087 A 
HETATM   39  C27 UNL     1       0.750   1.299   0.000  1.00  0.00     0.011 A 
BRANCH  38  40
HETATM   40  C28 UNL     1      -1.500   2.598   0.000  1.00  0.00     0.185 C 
HETATM   41  O8  UNL     1      -3.000   2.598   0.000  1.00  0.00    -0.647 OA
HETATM   42  O9  UNL     1      -0.750   3.897   0.000  1.00  0.00    -0.647 OA
ENDBRANCH  38  40
ENDBRANCH  33  34
ENDBRANCH  32  33
ENDBRANCH  31  32
ENDBRANCH   9  29
TORSDOF 11
