REMARK  9 active torsions:
REMARK  status: ('A' for Active; 'I' for Inactive)
REMARK    1  A    between atoms: C6_7  and  C7_9 
REMARK    2  A    between atoms: C7_9  and  N2_10 
REMARK    3  A    between atoms: C7_9  and  C19_24 
REMARK       I    between atoms: N2_10  and  C8_11 
REMARK    4  A    between atoms: C8_11  and  C9_13 
REMARK    5  A    between atoms: C9_13  and  N3_14 
REMARK    6  A    between atoms: C29_36  and  C30_37 
REMARK    7  A    between atoms: C31_40  and  C36_45 
REMARK       I    between atoms: C36_45  and  N6_47 
REMARK    8  A    between atoms: N6_47  and  S1_48 
REMARK    9  A    between atoms: S1_48  and  N7_51 
ROOT
HETATM    1  C1  UNL     1      -9.750  -2.397   0.000  1.00  0.00    -0.097 A 
HETATM    2  C2  UNL     1      -9.750  -3.897   0.000  1.00  0.00     0.155 A 
HETATM    3  C3  UNL     1      -9.750  -5.397   0.000  1.00  0.00     0.013 C 
HETATM    4  C4  UNL     1     -11.250  -3.897   0.000  1.00  0.00     0.033 C 
HETATM    5  C5  UNL     1      -8.250  -3.897   0.000  1.00  0.00     0.126 A 
HETATM    6  N1  UNL     1      -7.500  -5.196   0.000  1.00  0.00    -0.219 NA
HETATM    7  C6  UNL     1      -8.250  -6.495   0.000  1.00  0.00     0.208 C 
HETATM    8  O1  UNL     1      -9.750  -6.495   0.000  1.00  0.00    -0.249 OA
HETATM    9  C25 UNL     1      -7.500  -2.598   0.000  1.00  0.00     0.214 A 
HETATM   10  O3  UNL     1      -6.000  -2.598   0.000  1.00  0.00    -0.169 OA
HETATM   11  N4  UNL     1      -8.250  -1.299   0.000  1.00  0.00    -0.283 N 
HETATM   12  C26 UNL     1      -9.742  -1.142   0.000  1.00  0.00     0.074 A 
HETATM   13  C27 UNL     1     -10.054   0.325   0.000  1.00  0.00     0.046 A 
HETATM   14  C28 UNL     1      -8.755   1.075   0.000  1.00  0.00     0.054 A 
HETATM   15  C29 UNL     1      -7.640   0.071   0.000  1.00  0.00     0.085 A 
HETATM   16  C41 UNL     1     -11.545   0.168   0.000  1.00  0.00     0.006 A 
HETATM   17  C42 UNL     1     -11.650  -1.328   0.000  1.00  0.00     0.000 C 
HETATM   18  C43 UNL     1     -13.001   0.531   0.000  1.00  0.00     0.000 C 
HETATM   19  C44 UNL     1     -10.935   1.538   0.000  1.00  0.00     0.006 A 
HETATM   20  C45 UNL     1      -9.991   2.704   0.000  1.00  0.00     0.000 A 
HETATM   21  C46 UNL     1     -11.157   3.648   0.000  1.00  0.00     0.000 A 
HETATM   22  C47 UNL     1     -12.101   2.482   0.000  1.00  0.00     0.000 A 
ENDROOT
BRANCH   7  23
HETATM   23  C7  UNL     1      -7.500  -7.794   0.000  1.00  0.00     0.117 C 
BRANCH  23  24
HETATM   24  N2  UNL     1      -8.250  -9.093   0.000  1.00  0.00    -0.219 NA
HETATM   25  C8  UNL     1      -9.750  -9.093   0.000  1.00  0.00     0.212 C 
HETATM   26  O2  UNL     1     -10.500  -7.794   0.000  1.00  0.00    -0.172 OA
BRANCH  25  27
HETATM   27  C9  UNL     1     -10.500 -10.392   0.000  1.00  0.00     0.173 C 
BRANCH  27  28
HETATM   28  N3  UNL     1     -12.000 -10.392   0.000  1.00  0.00    -0.358 N 
HETATM   29  C10 UNL     1     -12.750 -11.691   0.000  1.00  0.00     0.102 A 
HETATM   30  C11 UNL     1     -14.250 -11.691   0.000  1.00  0.00     0.045 A 
HETATM   31  C12 UNL     1     -15.000 -10.392   0.000  1.00  0.00    -0.048 A 
HETATM   32  C13 UNL     1     -16.500 -10.392   0.000  1.00  0.00     0.021 A 
HETATM   33  C17 UNL     1     -14.250  -9.093   0.000  1.00  0.00    -0.030 A 
HETATM   34  C14 UNL     1     -17.250  -9.093   0.000  1.00  0.00     0.005 A 
HETATM   35  C15 UNL     1     -16.500  -7.794   0.000  1.00  0.00     0.005 A 
HETATM   36  C16 UNL     1     -15.000  -7.794   0.000  1.00  0.00     0.023 A 
HETATM   37  C18 UNL     1     -12.750  -9.093   0.000  1.00  0.00     0.120 A 
ENDBRANCH  27  28
ENDBRANCH  25  27
ENDBRANCH  23  24
BRANCH  23  38
HETATM   38  C19 UNL     1      -6.000  -7.794   0.000  1.00  0.00    -0.023 A 
HETATM   39  C20 UNL     1      -5.250  -6.495   0.000  1.00  0.00     0.024 A 
HETATM   40  C21 UNL     1      -3.750  -6.495   0.000  1.00  0.00     0.004 A 
HETATM   41  C22 UNL     1      -3.000  -7.794   0.000  1.00  0.00     0.001 A 
HETATM   42  C23 UNL     1      -3.750  -9.093   0.000  1.00  0.00     0.004 A 
HETATM   43  C24 UNL     1      -5.250  -9.093   0.000  1.00  0.00     0.024 A 
ENDBRANCH  23  38
ENDBRANCH   7  23
BRANCH  15  44
HETATM   44  C30 UNL     1      -6.173   0.383   0.000  1.00  0.00     0.191 A 
HETATM   45  O4  UNL     1      -5.709   1.810   0.000  1.00  0.00    -0.294 OA
HETATM   46  C34 UNL     1      -4.549   2.352   0.000  1.00  0.00     0.074 A 
HETATM   47  C33 UNL     1      -3.754   1.079   0.000  1.00  0.00     0.005 A 
HETATM   48  C35 UNL     1      -3.845   3.676   0.000  1.00  0.00     0.058 C 
HETATM   49  C31 UNL     1      -3.702  -0.420   0.000  1.00  0.00     0.167 A 
HETATM   50  C32 UNL     1      -2.430   0.375   0.000  1.00  0.00     0.060 A 
HETATM   51  N5  UNL     1      -5.169  -0.732   0.000  1.00  0.00    -0.239 NA
BRANCH  49  52
HETATM   52  C36 UNL     1      -3.140  -1.810   0.000  1.00  0.00     0.226 C 
HETATM   53  O5  UNL     1      -4.063  -2.993   0.000  1.00  0.00    -0.171 OA
HETATM   54  N6  UNL     1      -1.654  -2.019   0.000  1.00  0.00    -0.119 NA
BRANCH  54  55
HETATM   55  S1  UNL     1      -1.093  -3.410   0.000  1.00  0.00     0.346 S 
HETATM   56  O6  UNL     1       0.298  -2.848   0.000  1.00  0.00    -0.180 OA
HETATM   57  O7  UNL     1      -2.483  -3.972   0.000  1.00  0.00    -0.180 OA
BRANCH  55  58
HETATM   58  N7  UNL     1      -0.531  -4.801   0.000  1.00  0.00    -0.260 N 
HETATM   59  C37 UNL     1      -1.325  -6.073   0.000  1.00  0.00     0.115 A 
HETATM   60  C38 UNL     1      -0.361  -7.222   0.000  1.00  0.00     0.027 A 
HETATM   61  C39 UNL     1       1.030  -6.660   0.000  1.00  0.00     0.027 A 
HETATM   62  C40 UNL     1       0.925  -5.164   0.000  1.00  0.00     0.115 A 
ENDBRANCH  55  58
ENDBRANCH  54  55
ENDBRANCH  49  52
ENDBRANCH  15  44
TORSDOF 9
