REMARK  13 active torsions:
REMARK  status: ('A' for Active; 'I' for Inactive)
REMARK    1  A    between atoms: C2_2  and  C3_3 
REMARK    2  A    between atoms: C3_3  and  C4_4 
REMARK    3  A    between atoms: C4_4  and  N1_5 
REMARK    4  A    between atoms: C4_4  and  C32_43 
REMARK       I    between atoms: N1_5  and  C5_6 
REMARK    5  A    between atoms: C5_6  and  C6_8 
REMARK    6  A    between atoms: C8_10  and  O5_35 
REMARK    7  A    between atoms: C11_15  and  N3_16 
REMARK       I    between atoms: N3_16  and  C12_17 
REMARK    8  A    between atoms: C12_17  and  C13_19 
REMARK    9  A    between atoms: C13_19  and  N4_20 
REMARK   10  A    between atoms: C13_19  and  C19_29 
REMARK       I    between atoms: N4_20  and  C14_21 
REMARK   11  A    between atoms: C14_21  and  C15_23 
REMARK   12  A    between atoms: O5_35  and  C25_36 
REMARK   13  A    between atoms: C25_36  and  C26_37 
ROOT
HETATM    1  C6  UNL     1       8.382  -6.410   0.000  1.00  0.00     0.093 A 
HETATM    2  C7  UNL     1       9.808  -5.946   0.000  1.00  0.00     0.100 A 
HETATM    3  C8  UNL     1       9.808  -4.446   0.000  1.00  0.00     0.094 A 
HETATM    4  C9  UNL     1       8.382  -3.983   0.000  1.00  0.00     0.084 A 
HETATM    5  N2  UNL     1       7.500  -5.196   0.000  1.00  0.00    -0.283 N 
HETATM    6  C10 UNL     1       6.000  -5.196   0.000  1.00  0.00     0.216 A 
HETATM    7  O2  UNL     1       5.250  -6.495   0.000  1.00  0.00    -0.169 OA
HETATM    8  C11 UNL     1       5.250  -3.897   0.000  1.00  0.00     0.122 A 
HETATM    9  C22 UNL     1       6.000  -2.598   0.000  1.00  0.00     0.001 A 
HETATM   10  C23 UNL     1       7.500  -2.598   0.000  1.00  0.00     0.017 A 
HETATM   11  C24 UNL     1       5.250  -1.299   0.000  1.00  0.00     0.033 C 
ENDROOT
BRANCH   8  12
HETATM   12  N3  UNL     1       3.750  -3.897   0.000  1.00  0.00    -0.215 NA
HETATM   13  C12 UNL     1       3.000  -5.196   0.000  1.00  0.00     0.230 C 
HETATM   14  O3  UNL     1       3.750  -6.495   0.000  1.00  0.00    -0.168 OA
BRANCH  13  15
HETATM   15  C13 UNL     1       1.500  -5.196   0.000  1.00  0.00     0.119 C 
BRANCH  15  16
HETATM   16  N4  UNL     1       0.750  -6.495   0.000  1.00  0.00    -0.216 NA
HETATM   17  C14 UNL     1       1.500  -7.794   0.000  1.00  0.00     0.228 C 
HETATM   18  O4  UNL     1       3.000  -7.794   0.000  1.00  0.00    -0.168 OA
BRANCH  17  19
HETATM   19  C15 UNL     1       0.750  -9.093   0.000  1.00  0.00     0.121 A 
HETATM   20  C16 UNL     1       1.500 -10.392   0.000  1.00  0.00     0.169 A 
HETATM   21  N5  UNL     1       0.750 -11.691   0.000  1.00  0.00    -0.287 NA
HETATM   22  C17 UNL     1      -0.750 -11.691   0.000  1.00  0.00     0.146 A 
HETATM   23  C18 UNL     1      -1.500 -10.392   0.000  1.00  0.00     0.151 A 
HETATM   24  N6  UNL     1      -0.750  -9.093   0.000  1.00  0.00    -0.267 NA
ENDBRANCH  17  19
ENDBRANCH  15  16
BRANCH  15  25
HETATM   25  C19 UNL     1       0.750  -3.897   0.000  1.00  0.00    -0.022 C 
HETATM   26  C20 UNL     1       1.500  -2.598   0.000  1.00  0.00     0.028 C 
HETATM   27  C21 UNL     1      -0.750  -3.897   0.000  1.00  0.00     0.028 C 
ENDBRANCH  15  25
ENDBRANCH  13  15
ENDBRANCH   8  12
BRANCH   1  28
HETATM   28  C5  UNL     1       7.918  -7.836   0.000  1.00  0.00     0.225 C 
HETATM   29  N1  UNL     1       8.922  -8.951   0.000  1.00  0.00    -0.225 NA
HETATM   30  O1  UNL     1       6.451  -8.148   0.000  1.00  0.00    -0.168 OA
BRANCH  29  31
HETATM   31  C4  UNL     1       8.458 -10.378   0.000  1.00  0.00     0.072 C 
BRANCH  31  32
HETATM   32  C3  UNL     1       9.462 -11.492   0.000  1.00  0.00     0.044 C 
BRANCH  32  33
HETATM   33  C2  UNL     1       8.998 -12.919   0.000  1.00  0.00     0.006 C 
HETATM   34  C1  UNL     1      10.002 -14.034   0.000  1.00  0.00     0.000 C 
ENDBRANCH  32  33
ENDBRANCH  31  32
BRANCH  31  35
HETATM   35  C32 UNL     1       6.991 -10.689   0.000  1.00  0.00     0.223 C 
HETATM   36  O6  UNL     1       6.528 -12.116   0.000  1.00  0.00    -0.214 OA
ENDBRANCH  31  35
ENDBRANCH  29  31
ENDBRANCH   1  28
BRANCH   3  37
HETATM   37  O5  UNL     1      11.022  -3.564   0.000  1.00  0.00    -0.333 OA
BRANCH  37  38
HETATM   38  C25 UNL     1      12.392  -4.175   0.000  1.00  0.00     0.148 C 
BRANCH  38  39
HETATM   39  C26 UNL     1      13.606  -3.293   0.000  1.00  0.00     0.030 A 
HETATM   40  C27 UNL     1      14.976  -3.903   0.000  1.00  0.00     0.003 A 
HETATM   41  C28 UNL     1      16.189  -3.021   0.000  1.00  0.00     0.000 A 
HETATM   42  C29 UNL     1      16.033  -1.530   0.000  1.00  0.00     0.000 A 
HETATM   43  C30 UNL     1      14.662  -0.919   0.000  1.00  0.00     0.000 A 
HETATM   44  C31 UNL     1      13.449  -1.801   0.000  1.00  0.00     0.003 A 
ENDBRANCH  38  39
ENDBRANCH  37  38
ENDBRANCH   3  37
TORSDOF 13
