REMARK  5 active torsions:
REMARK  status: ('A' for Active; 'I' for Inactive)
REMARK    1  A    between atoms: C2_2  and  N1_4 
REMARK    2  A    between atoms: C4_5  and  C5_6 
REMARK    3  A    between atoms: C5_6  and  C6_7 
REMARK    4  A    between atoms: C16_20  and  C19_23 
REMARK       I    between atoms: C19_23  and  N5_25 
REMARK    5  A    between atoms: N5_25  and  C20_26 
ROOT
HETATM    1  N1  UNL     1      -1.214  -2.726   0.000  1.00  0.00    -0.305 N 
HETATM    2  C4  UNL     1      -0.000  -3.607   0.000  1.00  0.00     0.127 A 
HETATM    3  N4  UNL     1       1.214  -2.726   0.000  1.00  0.00    -0.235 NA
HETATM    4  C13 UNL     1       0.750  -1.299   0.000  1.00  0.00     0.073 A 
HETATM    5  C14 UNL     1       1.500   0.000   0.000  1.00  0.00     0.051 A 
HETATM    6  C15 UNL     1       0.750   1.299   0.000  1.00  0.00     0.032 A 
HETATM    7  C16 UNL     1      -0.750   1.299   0.000  1.00  0.00     0.006 A 
HETATM    8  C17 UNL     1      -1.500   0.000   0.000  1.00  0.00     0.071 A 
HETATM    9  C18 UNL     1      -0.750  -1.299   0.000  1.00  0.00     0.059 A 
ENDROOT
BRANCH   7  10
HETATM   10  C19 UNL     1      -1.500   2.598   0.000  1.00  0.00     0.205 C 
HETATM   11  O1  UNL     1      -3.000   2.598   0.000  1.00  0.00    -0.170 OA
HETATM   12  N5  UNL     1      -0.750   3.897   0.000  1.00  0.00    -0.220 NA
BRANCH  12  13
HETATM   13  C20 UNL     1      -1.500   5.196   0.000  1.00  0.00     0.126 A 
HETATM   14  C21 UNL     1      -0.750   6.495   0.000  1.00  0.00     0.171 A 
HETATM   15  P1  UNL     1      -1.500   7.794   0.000  1.00  0.00     0.299 P 
HETATM   16  O2  UNL     1      -2.250   9.093   0.000  1.00  0.00    -0.644 OA
HETATM   17  O3  UNL     1      -0.201   8.544   0.000  1.00  0.00    -0.644 OA
HETATM   18  O4  UNL     1      -2.799   7.044   0.000  1.00  0.00    -0.140 OA
HETATM   19  O5  UNL     1      -3.750   6.495   0.000  1.00  0.00    -0.158 OA
HETATM   20  C22 UNL     1      -3.000   5.196   0.000  1.00  0.00     0.275 A 
HETATM   21  O6  UNL     1      -3.750   3.897   0.000  1.00  0.00    -0.159 OA
ENDBRANCH  12  13
ENDBRANCH   7  10
BRANCH   1  22
HETATM   22  C2  UNL     1      -2.640  -3.189   0.000  1.00  0.00     0.021 C 
HETATM   23  C1  UNL     1      -3.755  -2.186   0.000  1.00  0.00     0.046 C 
HETATM   24  C3  UNL     1      -2.952  -4.656   0.000  1.00  0.00     0.046 C 
ENDBRANCH   1  22
BRANCH   2  25
HETATM   25  C5  UNL     1      -0.000  -5.107   0.000  1.00  0.00     0.114 C 
BRANCH  25  26
HETATM   26  C6  UNL     1       1.299  -5.857   0.000  1.00  0.00     0.212 A 
HETATM   27  N2  UNL     1       2.669  -5.247   0.000  1.00  0.00    -0.251 NA
HETATM   28  C7  UNL     1       3.673  -6.362   0.000  1.00  0.00     0.069 A 
HETATM   29  C8  UNL     1       5.173  -6.362   0.000  1.00  0.00     0.047 A 
HETATM   30  C12 UNL     1       2.923  -7.661   0.000  1.00  0.00     0.069 A 
HETATM   31  C9  UNL     1       5.923  -7.661   0.000  1.00  0.00     0.007 A 
HETATM   32  C10 UNL     1       5.173  -8.960   0.000  1.00  0.00     0.007 A 
HETATM   33  C11 UNL     1       3.673  -8.960   0.000  1.00  0.00     0.047 A 
HETATM   34  N3  UNL     1       1.456  -7.349   0.000  1.00  0.00    -0.251 NA
ENDBRANCH  25  26
ENDBRANCH   2  25
TORSDOF 5
