REMARK  14 active torsions:
REMARK  status: ('A' for Active; 'I' for Inactive)
REMARK    1  A    between atoms: C2_2  and  C4_4 
REMARK    2  A    between atoms: C4_4  and  O1_5 
REMARK    3  A    between atoms: O1_5  and  C5_6 
REMARK    4  A    between atoms: C6_9  and  C10_13 
REMARK       I    between atoms: C10_13  and  N2_15 
REMARK    5  A    between atoms: N2_15  and  C11_16 
REMARK    6  A    between atoms: C16_21  and  N3_23 
REMARK    7  A    between atoms: N3_23  and  C17_24 
REMARK    8  A    between atoms: C17_24  and  C18_25 
REMARK    9  A    between atoms: C17_24  and  C20_29 
REMARK   10  A    between atoms: C18_25  and  C19_26 
REMARK       I    between atoms: C20_29  and  N4_31 
REMARK   11  A    between atoms: N4_31  and  C21_32 
REMARK   12  A    between atoms: C21_32  and  C22_33 
REMARK   13  A    between atoms: C22_33  and  C23_34 
REMARK   14  A    between atoms: C26_37  and  C29_41 
ROOT
HETATM    1  C11 UNL     1      10.500   0.000   0.000  1.00  0.00     0.102 A 
HETATM    2  C12 UNL     1      12.000   0.000   0.000  1.00  0.00     0.052 A 
HETATM    3  C13 UNL     1      12.750  -1.299   0.000  1.00  0.00     0.036 A 
HETATM    4  C14 UNL     1      14.250  -1.299   0.000  1.00  0.00     0.003 C 
HETATM    5  C15 UNL     1      12.000  -2.598   0.000  1.00  0.00     0.151 A 
HETATM    6  C16 UNL     1       9.750  -1.299   0.000  1.00  0.00     0.192 A 
HETATM    7  O4  UNL     1      10.500  -2.598   0.000  1.00  0.00    -0.314 OA
ENDROOT
BRANCH   6   8
HETATM    8  N3  UNL     1       8.250  -1.299   0.000  1.00  0.00    -0.222 NA
BRANCH   8   9
HETATM    9  C17 UNL     1       7.500  -2.598   0.000  1.00  0.00     0.114 C 
BRANCH   9  10
HETATM   10  C18 UNL     1       8.250  -3.897   0.000  1.00  0.00     0.137 C 
BRANCH  10  11
HETATM   11  C19 UNL     1       7.500  -5.196   0.000  1.00  0.00     0.262 C 
HETATM   12  F1  UNL     1       8.250  -6.495   0.000  1.00  0.00    -0.176 F 
HETATM   13  F2  UNL     1       6.000  -5.196   0.000  1.00  0.00    -0.176 F 
ENDBRANCH  10  11
ENDBRANCH   9  10
BRANCH   9  14
HETATM   14  C20 UNL     1       6.000  -2.598   0.000  1.00  0.00     0.223 C 
HETATM   15  O5  UNL     1       5.250  -3.897   0.000  1.00  0.00    -0.168 OA
HETATM   16  N4  UNL     1       5.250  -1.299   0.000  1.00  0.00    -0.245 NA
BRANCH  16  17
HETATM   17  C21 UNL     1       3.750  -1.299   0.000  1.00  0.00     0.132 C 
BRANCH  17  18
HETATM   18  C22 UNL     1       3.000   0.000   0.000  1.00  0.00     0.049 C 
BRANCH  18  19
HETATM   19  C23 UNL     1       1.500   0.000   0.000  1.00  0.00    -0.036 A 
HETATM   20  C24 UNL     1       0.750  -1.299   0.000  1.00  0.00     0.023 A 
HETATM   21  C25 UNL     1      -0.750  -1.299   0.000  1.00  0.00     0.015 A 
HETATM   22  C26 UNL     1      -1.500   0.000   0.000  1.00  0.00     0.093 A 
HETATM   23  C27 UNL     1      -0.750   1.299   0.000  1.00  0.00     0.048 A 
HETATM   24  C28 UNL     1       0.750   1.299   0.000  1.00  0.00     0.028 A 
HETATM   25 CL1  UNL     1       1.500   2.598   0.000  1.00  0.00    -0.088 Cl
BRANCH  22  26
HETATM   26  C29 UNL     1      -3.000   0.000   0.000  1.00  0.00     0.185 C 
HETATM   27  O6  UNL     1      -3.750  -1.299   0.000  1.00  0.00    -0.647 OA
HETATM   28  O7  UNL     1      -3.750   1.299   0.000  1.00  0.00    -0.647 OA
ENDBRANCH  22  26
ENDBRANCH  18  19
ENDBRANCH  17  18
ENDBRANCH  16  17
ENDBRANCH   9  14
ENDBRANCH   8   9
ENDBRANCH   6   8
BRANCH   1  29
HETATM   29  N2  UNL     1       9.750   1.299   0.000  1.00  0.00    -0.220 NA
HETATM   30  C10 UNL     1      10.500   2.598   0.000  1.00  0.00     0.230 C 
HETATM   31  O3  UNL     1      12.000   2.598   0.000  1.00  0.00    -0.168 OA
BRANCH  30  32
HETATM   32  C6  UNL     1       9.750   3.897   0.000  1.00  0.00     0.123 A 
HETATM   33  N1  UNL     1       8.250   3.897   0.000  1.00  0.00    -0.198 NA
HETATM   34  C5  UNL     1       7.500   5.196   0.000  1.00  0.00     0.290 A 
HETATM   35  O2  UNL     1       8.250   6.495   0.000  1.00  0.00    -0.291 OA
HETATM   36  C8  UNL     1       9.750   6.495   0.000  1.00  0.00     0.176 A 
HETATM   37  C7  UNL     1      10.500   5.196   0.000  1.00  0.00     0.007 A 
HETATM   38  C9  UNL     1      12.000   5.196   0.000  1.00  0.00     0.031 C 
BRANCH  34  39
HETATM   39  O1  UNL     1       6.000   5.196   0.000  1.00  0.00    -0.296 OA
BRANCH  39  40
HETATM   40  C4  UNL     1       5.250   6.495   0.000  1.00  0.00     0.152 C 
BRANCH  40  41
HETATM   41  C2  UNL     1       3.750   6.495   0.000  1.00  0.00     0.030 C 
HETATM   42  C1  UNL     1       3.000   7.794   0.000  1.00  0.00     0.003 C 
HETATM   43  C3  UNL     1       3.000   5.196   0.000  1.00  0.00     0.003 C 
ENDBRANCH  40  41
ENDBRANCH  39  40
ENDBRANCH  34  39
ENDBRANCH  30  32
ENDBRANCH   1  29
TORSDOF 14
