REMARK  9 active torsions:
REMARK  status: ('A' for Active; 'I' for Inactive)
REMARK    1  A    between atoms: C2_2  and  N1_5 
REMARK    2  A    between atoms: N1_5  and  C5_6 
REMARK    3  A    between atoms: C6_9  and  C7_10 
REMARK       I    between atoms: C7_10  and  N3_12 
REMARK    4  A    between atoms: C11_16  and  C12_17 
REMARK       I    between atoms: C12_17  and  N4_19 
REMARK    5  A    between atoms: N4_19  and  C13_20 
REMARK    6  A    between atoms: C13_20  and  C14_21 
REMARK    7  A    between atoms: C13_20  and  C19_28 
REMARK    8  A    between atoms: C14_21  and  C15_22 
REMARK    9  A    between atoms: C19_28  and  C20_30 
ROOT
HETATM    1  C7  UNL     1      -4.241   0.000   0.000  1.00  0.00     0.209 C 
HETATM    2  O2  UNL     1      -4.991   1.299   0.000  1.00  0.00    -0.170 OA
HETATM    3  N3  UNL     1      -2.741   0.000   0.000  1.00  0.00    -0.306 N 
HETATM    4  C8  UNL     1      -1.860  -1.214   0.000  1.00  0.00     0.108 A 
HETATM    5  C9  UNL     1      -0.433  -0.750   0.000  1.00  0.00     0.029 A 
HETATM    6  C10 UNL     1      -0.433   0.750   0.000  1.00  0.00     0.044 A 
HETATM    7  C11 UNL     1      -1.860   1.214   0.000  1.00  0.00     0.082 A 
HETATM    8  C21 UNL     1       0.866   0.000   0.000  1.00  0.00     0.007 A 
HETATM    9  C22 UNL     1       1.830   1.149   0.000  1.00  0.00     0.001 C 
HETATM   10  C23 UNL     1       1.830  -1.149   0.000  1.00  0.00     0.001 C 
ENDROOT
BRANCH   7  11
HETATM   11  C12 UNL     1      -2.323   2.640   0.000  1.00  0.00     0.224 C 
HETATM   12  O3  UNL     1      -3.790   2.952   0.000  1.00  0.00    -0.168 OA
HETATM   13  N4  UNL     1      -1.319   3.755   0.000  1.00  0.00    -0.221 NA
BRANCH  13  14
HETATM   14  C13 UNL     1      -1.783   5.181   0.000  1.00  0.00     0.090 C 
BRANCH  14  15
HETATM   15  C14 UNL     1      -0.779   6.296   0.000  1.00  0.00     0.049 C 
BRANCH  15  16
HETATM   16  C15 UNL     1       0.688   5.984   0.000  1.00  0.00     0.017 A 
HETATM   17  C16 UNL     1       1.946   6.801   0.000  1.00  0.00     0.067 A 
HETATM   18  C17 UNL     1       2.763   5.543   0.000  1.00  0.00     0.264 A 
HETATM   19  F1  UNL     1       3.580   4.285   0.000  1.00  0.00    -0.204 F 
HETATM   20  F2  UNL     1       4.021   6.360   0.000  1.00  0.00    -0.204 F 
HETATM   21  C18 UNL     1       1.505   4.726   0.000  1.00  0.00     0.067 A 
ENDBRANCH  15  16
ENDBRANCH  14  15
BRANCH  14  22
HETATM   22  C19 UNL     1      -3.250   5.493   0.000  1.00  0.00     0.183 C 
HETATM   23  O4  UNL     1      -4.254   4.379   0.000  1.00  0.00    -0.186 OA
BRANCH  22  24
HETATM   24  C20 UNL     1      -3.714   6.920   0.000  1.00  0.00     0.227 C 
HETATM   25  O5  UNL     1      -2.710   8.035   0.000  1.00  0.00    -0.173 OA
HETATM   26  N5  UNL     1      -5.181   7.232   0.000  1.00  0.00    -0.069 NA
ENDBRANCH  22  24
ENDBRANCH  14  22
ENDBRANCH  13  14
ENDBRANCH   7  11
BRANCH   1  27
HETATM   27  C6  UNL     1      -4.991  -1.299   0.000  1.00  0.00     0.116 A 
HETATM   28  N2  UNL     1      -4.241  -2.598   0.000  1.00  0.00    -0.205 NA
HETATM   29  C5  UNL     1      -4.991  -3.897   0.000  1.00  0.00     0.277 A 
HETATM   30  O1  UNL     1      -6.491  -3.897   0.000  1.00  0.00    -0.236 OA
HETATM   31  C25 UNL     1      -6.491  -2.799   0.000  1.00  0.00     0.002 A 
HETATM   32  C24 UNL     1      -6.491  -1.299   0.000  1.00  0.00     0.108 A 
HETATM   33  C26 UNL     1      -6.491   0.201   0.000  1.00  0.00     0.021 C 
HETATM   34  C27 UNL     1      -7.991  -1.299   0.000  1.00  0.00     0.021 C 
BRANCH  29  35
HETATM   35  N1  UNL     1      -4.241  -5.196   0.000  1.00  0.00    -0.235 NA
BRANCH  35  36
HETATM   36  C2  UNL     1      -4.991  -6.495   0.000  1.00  0.00     0.088 C 
HETATM   37  C1  UNL     1      -3.692  -7.245   0.000  1.00  0.00     0.025 C 
HETATM   38  C3  UNL     1      -6.290  -5.745   0.000  1.00  0.00     0.025 C 
HETATM   39  C4  UNL     1      -5.741  -7.794   0.000  1.00  0.00     0.025 C 
ENDBRANCH  35  36
ENDBRANCH  29  35
ENDBRANCH   1  27
TORSDOF 9
