REMARK  4 active torsions:
REMARK  status: ('A' for Active; 'I' for Inactive)
REMARK    1  A    between atoms: C6_7  and  C7_8 
REMARK    2  A    between atoms: C7_8  and  C8_9 
REMARK    3  A    between atoms: C18_22  and  C21_25 
REMARK       I    between atoms: C21_25  and  N5_27 
REMARK    4  A    between atoms: N5_27  and  C22_28 
ROOT
HETATM    1  C1  UNL     1      -4.758  -3.300   0.000  1.00  0.00     0.014 C 
HETATM    2  C2  UNL     1      -3.755  -2.186   0.000  1.00  0.00     0.068 A 
HETATM    3  C3  UNL     1      -2.751  -1.071   0.000  1.00  0.00    -0.127 A 
HETATM    4  C4  UNL     1      -4.870  -1.182   0.000  1.00  0.00     0.014 C 
HETATM    5  C5  UNL     1      -2.640  -3.189   0.000  1.00  0.00     0.119 A 
HETATM    6  N1  UNL     1      -1.214  -2.726   0.000  1.00  0.00    -0.314 N 
HETATM    7  C6  UNL     1      -0.000  -3.607   0.000  1.00  0.00     0.124 A 
HETATM    8  N4  UNL     1       1.214  -2.726   0.000  1.00  0.00    -0.235 NA
HETATM    9  C15 UNL     1       0.750  -1.299   0.000  1.00  0.00     0.077 A 
HETATM   10  C16 UNL     1       1.500   0.000   0.000  1.00  0.00     0.052 A 
HETATM   11  C17 UNL     1       0.750   1.299   0.000  1.00  0.00     0.037 A 
HETATM   12  C18 UNL     1      -0.750   1.299   0.000  1.00  0.00     0.030 A 
HETATM   13  C19 UNL     1      -1.500   0.000   0.000  1.00  0.00     0.046 A 
HETATM   14  C20 UNL     1      -0.750  -1.299   0.000  1.00  0.00     0.081 A 
ENDROOT
BRANCH  12  15
HETATM   15  C21 UNL     1      -1.500   2.598   0.000  1.00  0.00     0.209 C 
HETATM   16  O1  UNL     1      -3.000   2.598   0.000  1.00  0.00    -0.170 OA
HETATM   17  N5  UNL     1      -0.750   3.897   0.000  1.00  0.00    -0.220 NA
BRANCH  17  18
HETATM   18  C22 UNL     1      -1.500   5.196   0.000  1.00  0.00     0.126 A 
HETATM   19  C23 UNL     1      -0.750   6.495   0.000  1.00  0.00     0.171 A 
HETATM   20  P1  UNL     1      -1.500   7.794   0.000  1.00  0.00     0.299 P 
HETATM   21  O2  UNL     1      -2.250   9.093   0.000  1.00  0.00    -0.644 OA
HETATM   22  O3  UNL     1      -0.201   8.544   0.000  1.00  0.00    -0.644 OA
HETATM   23  O4  UNL     1      -2.799   7.044   0.000  1.00  0.00    -0.140 OA
HETATM   24  O5  UNL     1      -3.750   6.495   0.000  1.00  0.00    -0.158 OA
HETATM   25  C24 UNL     1      -3.000   5.196   0.000  1.00  0.00     0.275 A 
HETATM   26  O6  UNL     1      -3.750   3.897   0.000  1.00  0.00    -0.159 OA
ENDBRANCH  17  18
ENDBRANCH  12  15
BRANCH   7  27
HETATM   27  C7  UNL     1      -0.000  -5.107   0.000  1.00  0.00     0.113 C 
BRANCH  27  28
HETATM   28  C8  UNL     1      -1.299  -5.857   0.000  1.00  0.00     0.212 A 
HETATM   29  N2  UNL     1      -2.669  -5.247   0.000  1.00  0.00    -0.251 NA
HETATM   30  C9  UNL     1      -3.673  -6.362   0.000  1.00  0.00     0.069 A 
HETATM   31  C10 UNL     1      -5.173  -6.362   0.000  1.00  0.00     0.047 A 
HETATM   32  C14 UNL     1      -2.923  -7.661   0.000  1.00  0.00     0.069 A 
HETATM   33  C11 UNL     1      -5.923  -7.661   0.000  1.00  0.00     0.007 A 
HETATM   34  C12 UNL     1      -5.173  -8.960   0.000  1.00  0.00     0.007 A 
HETATM   35  C13 UNL     1      -3.673  -8.960   0.000  1.00  0.00     0.047 A 
HETATM   36  N3  UNL     1      -1.456  -7.349   0.000  1.00  0.00    -0.251 NA
ENDBRANCH  27  28
ENDBRANCH   7  27
TORSDOF 4
