REMARK  4 active torsions:
REMARK  status: ('A' for Active; 'I' for Inactive)
REMARK    1  A    between atoms: C2_2  and  C4_4 
REMARK    2  A    between atoms: C4_4  and  C5_5 
REMARK    3  A    between atoms: C11_16  and  O5_18 
REMARK    4  A    between atoms: O5_18  and  C12_19 
ROOT
HETATM    1  C5  UNL     1      10.500   0.000   0.000  1.00  0.00     0.103 A 
HETATM    2  N1  UNL     1       9.750   1.299   0.000  1.00  0.00    -0.220 NA
HETATM    3  C6  UNL     1       8.250   1.299   0.000  1.00  0.00     0.227 A 
HETATM    4  O1  UNL     1       7.500   0.000   0.000  1.00  0.00    -0.168 OA
HETATM    5  C7  UNL     1       7.500   2.598   0.000  1.00  0.00     0.113 A 
HETATM    6  C8  UNL     1       6.000   2.598   0.000  1.00  0.00     0.106 A 
HETATM    7  C9  UNL     1       5.250   3.897   0.000  1.00  0.00     0.137 A 
HETATM    8  C10 UNL     1       3.750   3.897   0.000  1.00  0.00     0.263 A 
HETATM    9  O2  UNL     1       3.000   2.598   0.000  1.00  0.00    -0.222 OA
HETATM   10  O3  UNL     1       3.000   5.196   0.000  1.00  0.00    -0.160 OA
HETATM   11  N2  UNL     1       8.250   3.897   0.000  1.00  0.00    -0.201 NA
HETATM   12  C11 UNL     1       7.500   5.196   0.000  1.00  0.00     0.293 A 
HETATM   13  O4  UNL     1       6.000   5.196   0.000  1.00  0.00    -0.270 OA
HETATM   14  C16 UNL     1       9.750  -1.299   0.000  1.00  0.00     0.203 A 
HETATM   15  O6  UNL     1      10.500  -2.598   0.000  1.00  0.00    -0.256 OA
HETATM   16  N3  UNL     1       8.250  -1.299   0.000  1.00  0.00    -0.220 NA
HETATM   17  C17 UNL     1       7.500  -2.598   0.000  1.00  0.00     0.118 A 
HETATM   18  C18 UNL     1       8.250  -3.897   0.000  1.00  0.00     0.137 A 
HETATM   19  S1  UNL     1       9.750  -3.897   0.000  1.00  0.00     0.019 SA
HETATM   20  C19 UNL     1       6.000  -2.598   0.000  1.00  0.00     0.223 A 
HETATM   21  O7  UNL     1       5.250  -3.897   0.000  1.00  0.00    -0.168 OA
HETATM   22  N4  UNL     1       5.250  -1.299   0.000  1.00  0.00    -0.245 NA
HETATM   23  C20 UNL     1       3.750  -1.299   0.000  1.00  0.00     0.132 A 
HETATM   24  C21 UNL     1       3.000   0.000   0.000  1.00  0.00     0.049 A 
HETATM   25  C22 UNL     1       1.500   0.000   0.000  1.00  0.00    -0.035 A 
HETATM   26  C23 UNL     1       0.750  -1.299   0.000  1.00  0.00     0.023 A 
HETATM   27  C24 UNL     1      -0.750  -1.299   0.000  1.00  0.00     0.005 A 
HETATM   28  C25 UNL     1      -1.500   0.000   0.000  1.00  0.00     0.006 A 
HETATM   29  C26 UNL     1      -0.750   1.299   0.000  1.00  0.00     0.038 A 
HETATM   30  C27 UNL     1       0.750   1.299   0.000  1.00  0.00     0.041 A 
HETATM   31 CL1  UNL     1       1.500   2.598   0.000  1.00  0.00    -0.021 Cl
ENDROOT
BRANCH  12  32
HETATM   32  O5  UNL     1       8.250   6.495   0.000  1.00  0.00    -0.301 OA
BRANCH  32  33
HETATM   33  C12 UNL     1       7.500   7.794   0.000  1.00  0.00     0.102 C 
HETATM   34  C13 UNL     1       8.799   8.544   0.000  1.00  0.00     0.030 C 
HETATM   35  C14 UNL     1       6.201   7.044   0.000  1.00  0.00     0.030 C 
HETATM   36  C15 UNL     1       6.750   9.093   0.000  1.00  0.00     0.030 C 
ENDBRANCH  32  33
ENDBRANCH  12  32
BRANCH   1  37
HETATM   37  C4  UNL     1      12.000   0.000   0.000  1.00  0.00     0.050 C 
BRANCH  37  38
HETATM   38  C2  UNL     1      12.750   1.299   0.000  1.00  0.00     0.006 C 
HETATM   39  C1  UNL     1      14.250   1.299   0.000  1.00  0.00     0.000 C 
HETATM   40  C3  UNL     1      12.000   2.598   0.000  1.00  0.00     0.000 C 
ENDBRANCH  37  38
ENDBRANCH   1  37
TORSDOF 4
