REMARK  8 active torsions:
REMARK  status: ('A' for Active; 'I' for Inactive)
REMARK    1  A    between atoms: C4_4  and  N1_5 
REMARK    2  A    between atoms: C11_15  and  N3_16 
REMARK       I    between atoms: N3_16  and  C12_17 
REMARK    3  A    between atoms: C12_17  and  C13_19 
REMARK    4  A    between atoms: C13_19  and  N4_20 
REMARK    5  A    between atoms: C13_19  and  C19_29 
REMARK       I    between atoms: N4_20  and  C14_21 
REMARK    6  A    between atoms: C14_21  and  C15_23 
REMARK    7  A    between atoms: C34_45  and  N7_47 
REMARK    8  A    between atoms: N7_47  and  C35_48 
ROOT
HETATM    1  N1  UNL     1       8.922  -1.441   0.000  1.00  0.00    -0.255 N 
HETATM    2  C5  UNL     1       7.918  -2.556   0.000  1.00  0.00     0.220 A 
HETATM    3  O1  UNL     1       6.451  -2.244   0.000  1.00  0.00    -0.168 OA
HETATM    4  C6  UNL     1       8.382  -3.983   0.000  1.00  0.00     0.102 A 
HETATM    5  C7  UNL     1       9.808  -4.446   0.000  1.00  0.00    -0.007 A 
HETATM    6  C8  UNL     1       9.808  -5.946   0.000  1.00  0.00     0.076 A 
HETATM    7  C9  UNL     1       8.382  -6.410   0.000  1.00  0.00     0.078 A 
HETATM    8  N2  UNL     1       7.500  -5.196   0.000  1.00  0.00    -0.279 N 
HETATM    9  C10 UNL     1       6.000  -5.196   0.000  1.00  0.00     0.213 A 
HETATM   10  O2  UNL     1       5.250  -3.897   0.000  1.00  0.00    -0.169 OA
HETATM   11  C11 UNL     1       5.250  -6.495   0.000  1.00  0.00     0.113 A 
HETATM   12  C25 UNL     1       6.000  -7.794   0.000  1.00  0.00     0.087 A 
HETATM   13  C26 UNL     1       7.299  -7.044   0.000  1.00  0.00    -0.111 A 
HETATM   14  C27 UNL     1       4.701  -8.544   0.000  1.00  0.00     0.018 C 
HETATM   15  C28 UNL     1       6.750  -9.093   0.000  1.00  0.00     0.018 C 
HETATM   16  C29 UNL     1      11.022  -3.564   0.000  1.00  0.00     0.080 A 
HETATM   17  C30 UNL     1      11.903  -4.778   0.000  1.00  0.00     0.018 C 
HETATM   18  C31 UNL     1      10.140  -2.351   0.000  1.00  0.00    -0.044 A 
HETATM   19  C32 UNL     1      12.235  -2.683   0.000  1.00  0.00     0.018 C 
ENDROOT
BRANCH  11  20
HETATM   20  N3  UNL     1       3.750  -6.495   0.000  1.00  0.00    -0.219 NA
HETATM   21  C12 UNL     1       3.000  -5.196   0.000  1.00  0.00     0.230 C 
HETATM   22  O3  UNL     1       3.750  -3.897   0.000  1.00  0.00    -0.168 OA
BRANCH  21  23
HETATM   23  C13 UNL     1       1.500  -5.196   0.000  1.00  0.00     0.119 C 
BRANCH  23  24
HETATM   24  N4  UNL     1       0.750  -3.897   0.000  1.00  0.00    -0.216 NA
HETATM   25  C14 UNL     1       1.500  -2.598   0.000  1.00  0.00     0.228 C 
HETATM   26  O4  UNL     1       3.000  -2.598   0.000  1.00  0.00    -0.168 OA
BRANCH  25  27
HETATM   27  C15 UNL     1       0.750  -1.299   0.000  1.00  0.00     0.121 A 
HETATM   28  C16 UNL     1       1.500   0.000   0.000  1.00  0.00     0.169 A 
HETATM   29  N5  UNL     1       0.750   1.299   0.000  1.00  0.00    -0.287 NA
HETATM   30  C17 UNL     1      -0.750   1.299   0.000  1.00  0.00     0.146 A 
HETATM   31  C18 UNL     1      -1.500   0.000   0.000  1.00  0.00     0.151 A 
HETATM   32  N6  UNL     1      -0.750  -1.299   0.000  1.00  0.00    -0.267 NA
ENDBRANCH  25  27
ENDBRANCH  23  24
BRANCH  23  33
HETATM   33  C19 UNL     1       0.750  -6.495   0.000  1.00  0.00    -0.023 A 
HETATM   34  C20 UNL     1      -0.750  -6.495   0.000  1.00  0.00     0.024 A 
HETATM   35  C21 UNL     1      -1.500  -7.794   0.000  1.00  0.00     0.004 A 
HETATM   36  C22 UNL     1      -0.750  -9.093   0.000  1.00  0.00     0.001 A 
HETATM   37  C23 UNL     1       0.750  -9.093   0.000  1.00  0.00     0.004 A 
HETATM   38  C24 UNL     1       1.500  -7.794   0.000  1.00  0.00     0.024 A 
ENDBRANCH  23  33
ENDBRANCH  21  23
ENDBRANCH  11  20
BRANCH   1  39
HETATM   39  C4  UNL     1       8.458  -0.015   0.000  1.00  0.00     0.082 A 
HETATM   40  C3  UNL     1       9.462   1.100   0.000  1.00  0.00     0.077 A 
HETATM   41  C2  UNL     1       8.998   2.527   0.000  1.00  0.00     0.129 A 
HETATM   42  C1  UNL     1      10.002   3.641   0.000  1.00  0.00     0.033 C 
HETATM   43  O6  UNL     1       7.531   2.838   0.000  1.00  0.00    -0.315 OA
HETATM   44  C34 UNL     1       6.528   1.724   0.000  1.00  0.00     0.205 A 
HETATM   45  C33 UNL     1       6.991   0.297   0.000  1.00  0.00     0.184 A 
HETATM   46  O5  UNL     1       5.987  -0.818   0.000  1.00  0.00    -0.185 OA
BRANCH  44  47
HETATM   47  N7  UNL     1       5.060   2.036   0.000  1.00  0.00    -0.229 NA
BRANCH  47  48
HETATM   48  C35 UNL     1       4.597   3.462   0.000  1.00  0.00     0.040 A 
HETATM   49  C36 UNL     1       3.482   4.466   0.000  1.00  0.00     0.047 A 
HETATM   50  C37 UNL     1       4.909   4.929   0.000  1.00  0.00     0.047 A 
ENDBRANCH  47  48
ENDBRANCH  44  47
ENDBRANCH   1  39
TORSDOF 8
