REMARK WARNING: 32 MAX_TORS EXCEEDED!!!
REMARK  62 active torsions:
REMARK  status: ('A' for Active; 'I' for Inactive)
REMARK    1  A    between atoms: C1_1  and  C5_8 
REMARK    2  A    between atoms: C1_1  and  O3_10 
REMARK    3  A    between atoms: C1_1  and  C13_19 
REMARK    4  A    between atoms: C1_1  and  C14_20 
REMARK    5  A    between atoms: C2_2  and  C4_4 
REMARK    6  A    between atoms: C2_2  and  O1_5 
REMARK    7  A    between atoms: C2_2  and  C12_17 
REMARK    8  A    between atoms: C3_3  and  C11_16 
REMARK    9  A    between atoms: C4_4  and  N1_7 
REMARK   10  A    between atoms: C4_4  and  C11_16 
REMARK   11  A    between atoms: C5_8  and  C10_15 
REMARK   12  A    between atoms: C5_8  and  O4_18 
REMARK   13  A    between atoms: C6_9  and  O3_10 
REMARK   14  A    between atoms: C6_9  and  C9_13 
REMARK   15  A    between atoms: O3_10  and  C10_15 
REMARK   16  A    between atoms: O3_10  and  O4_18 
REMARK   17  A    between atoms: O3_10  and  C14_20 
REMARK   18  A    between atoms: C7_11  and  N2_14 
REMARK   19  A    between atoms: C8_12  and  N2_14 
REMARK   20  A    between atoms: C8_12  and  C25_35 
REMARK   21  A    between atoms: C9_13  and  N2_14 
REMARK   22  A    between atoms: C9_13  and  C10_15 
REMARK   23  A    between atoms: C9_13  and  N3_25 
REMARK   24  A    between atoms: C9_13  and  C22_31 
REMARK   25  A    between atoms: C10_15  and  C16_22 
REMARK   26  A    between atoms: C10_15  and  C17_23 
REMARK   27  A    between atoms: C11_16  and  C14_20 
REMARK   28  A    between atoms: O4_18  and  C14_20 
REMARK   29  A    between atoms: O4_18  and  C15_21 
REMARK   30  A    between atoms: O4_18  and  C16_22 
REMARK   31  A    between atoms: O4_18  and  C18_24 
REMARK   32  A    between atoms: C16_22  and  C18_24 
REMARK   33  A    between atoms: C17_23  and  C18_24 
REMARK   34  A    between atoms: N3_25  and  C22_31 
REMARK   35  A    between atoms: C19_26  and  C22_31 
REMARK   36  A    between atoms: C21_30  and  C23_32 
REMARK   37  A    between atoms: C22_31  and  C23_32 
REMARK   38  A    between atoms: C24_34  and  C28_39 
REMARK   39  A    between atoms: C25_35  and  C27_38 
REMARK   40  A    between atoms: C25_35  and  C28_39 
REMARK   41  A    between atoms: C25_35  and  C34_45 
REMARK   42  A    between atoms: C26_36  and  C27_38 
REMARK   43  A    between atoms: N4_37  and  C27_38 
REMARK   44  A    between atoms: N4_37  and  C33_44 
REMARK   45  A    between atoms: C27_38  and  C28_39 
REMARK   46  A    between atoms: C27_38  and  C29_40 
REMARK   47  A    between atoms: C27_38  and  C30_41 
REMARK   48  A    between atoms: C27_38  and  C31_42 
REMARK   49  A    between atoms: C28_39  and  C31_42 
REMARK   50  A    between atoms: C28_39  and  C32_43 
REMARK   51  A    between atoms: C29_40  and  C32_43 
REMARK   52  A    between atoms: C29_40  and  C39_51 
REMARK   53  A    between atoms: C30_41  and  C32_43 
REMARK   54  A    between atoms: C31_42  and  C32_43 
REMARK   55  A    between atoms: C31_42  and  O8_50 
REMARK   56  A    between atoms: C33_44  and  C36_47 
REMARK   57  A    between atoms: C33_44  and  C37_48 
REMARK   58  A    between atoms: C34_45  and  C37_48 
REMARK   59  A    between atoms: C34_45  and  C38_49 
REMARK   60  A    between atoms: C35_46  and  C38_49 
REMARK   61  A    between atoms: C36_47  and  C38_49 
REMARK   62  A    between atoms: C37_48  and  C38_49 
ROOT
HETATM    1  C1  UNL     1      14.337  -2.979   0.000  1.00  0.00     0.039 A 
HETATM    2  C2  UNL     1      15.162  -2.979   0.000  1.00  0.00     0.048 A 
HETATM    3  C3  UNL     1      14.749  -2.265   0.000  1.00  0.00     0.081 A 
HETATM    4  C4  UNL     1      15.460  -1.847   0.000  1.00  0.00     0.096 A 
HETATM    5  O1  UNL     1      16.176  -2.251   0.000  1.00  0.00     0.000 OA
HETATM    6  O2  UNL     1      15.453  -1.020   0.000  1.00  0.00    -0.365 OA
HETATM    7  N1  UNL     1      14.034  -1.852   0.000  1.00  0.00     0.000 N 
HETATM    8  C5  UNL     1      13.320  -2.264   0.000  1.00  0.00     0.023 A 
HETATM    9  C6  UNL     1      12.606  -1.851   0.000  1.00  0.00     0.002 A 
HETATM   10  O3  UNL     1      13.319  -3.089   0.000  1.00  0.00     0.000 OA
HETATM   11  C7  UNL     1      12.344  -1.065   0.000  1.00  0.00     0.002 A 
HETATM   12  C8  UNL     1      11.519  -1.071   0.000  1.00  0.00     0.000 A 
HETATM   13  C9  UNL     1      11.271  -1.858   0.000  1.00  0.00     0.002 A 
HETATM   14  N2  UNL     1      11.942  -2.338   0.000  1.00  0.00     0.000 N 
HETATM   15  C10 UNL     1      11.947  -3.163   0.000  1.00  0.00     0.004 A 
HETATM   16  C11 UNL     1      15.047  -3.392   0.000  1.00  0.00     0.041 A 
HETATM   17  C12 UNL     1      15.045  -4.217   0.000  1.00  0.00     0.012 A 
HETATM   18  O4  UNL     1      12.664  -3.571   0.000  1.00  0.00     0.000 OA
HETATM   19  C13 UNL     1      14.330  -4.627   0.000  1.00  0.00     0.008 A 
HETATM   20  C14 UNL     1      13.616  -4.213   0.000  1.00  0.00     0.008 A 
HETATM   21  C15 UNL     1      12.901  -4.624   0.000  1.00  0.00     0.001 A 
HETATM   22  C16 UNL     1      12.196  -4.200   0.000  1.00  0.00     0.003 A 
HETATM   23  C17 UNL     1      11.475  -4.600   0.000  1.00  0.00     0.003 A 
HETATM   24  C18 UNL     1      11.235  -3.579   0.000  1.00  0.00     0.026 A 
HETATM   25  N3  UNL     1      10.519  -3.163   0.000  1.00  0.00     0.000 N 
HETATM   26  C19 UNL     1       9.803  -3.572   0.000  1.00  0.00     0.126 A 
HETATM   27  O5  UNL     1       9.800  -4.397   0.000  1.00  0.00    -0.226 OA
HETATM   28  O6  UNL     1       9.090  -3.157   0.000  1.00  0.00     0.000 OA
HETATM   29  C20 UNL     1       9.093  -2.332   0.000  1.00  0.00     0.028 A 
HETATM   30  C21 UNL     1       9.084  -1.503   0.000  1.00  0.00     0.005 A 
HETATM   31  C22 UNL     1       9.918  -2.329   0.000  1.00  0.00     0.026 A 
HETATM   32  C23 UNL     1       8.268  -2.339   0.000  1.00  0.00     0.005 A 
HETATM   33  O7  UNL     1      10.803  -0.655   0.000  1.00  0.00     0.000 OA
HETATM   34  C24 UNL     1      10.805   0.170   0.000  1.00  0.00     0.000 A 
HETATM   35  C25 UNL     1      11.524   0.577   0.000  1.00  0.00     0.000 A 
HETATM   36  C26 UNL     1      11.526   1.401   0.000  1.00  0.00     0.000 A 
HETATM   37  N4  UNL     1      10.812   1.816   0.000  1.00  0.00     0.000 N 
HETATM   38  C27 UNL     1      10.095   0.578   0.000  1.00  0.00     0.000 A 
HETATM   39  C28 UNL     1      10.094   1.398   0.000  1.00  0.00     0.000 A 
HETATM   40  C29 UNL     1       9.385   1.805   0.000  1.00  0.00     0.000 A 
HETATM   41  C30 UNL     1       8.677   1.394   0.000  1.00  0.00     0.000 A 
HETATM   42  C31 UNL     1       8.681   0.571   0.000  1.00  0.00     0.000 A 
HETATM   43  C32 UNL     1       9.391   0.167   0.000  1.00  0.00     0.000 A 
HETATM   44  C33 UNL     1      12.242   1.811   0.000  1.00  0.00     0.000 A 
HETATM   45  C34 UNL     1      12.952   1.396   0.000  1.00  0.00     0.000 A 
HETATM   46  C35 UNL     1      13.667   1.805   0.000  1.00  0.00     0.000 A 
HETATM   47  C36 UNL     1      13.670   2.631   0.000  1.00  0.00     0.000 A 
HETATM   48  C37 UNL     1      12.952   3.046   0.000  1.00  0.00     0.000 A 
HETATM   49  C38 UNL     1      12.239   2.634   0.000  1.00  0.00     0.000 A 
HETATM   50  O8  UNL     1       7.960   1.803   0.000  1.00  0.00     0.000 OA
HETATM   51  C39 UNL     1       7.957   2.628   0.000  1.00  0.00     0.000 A 
ENDROOT
TORSDOF 62
