REMARK WARNING: 32 MAX_TORS EXCEEDED!!!
REMARK  37 active torsions:
REMARK  status: ('A' for Active; 'I' for Inactive)
REMARK    1  A    between atoms: C1_1  and  C10_16 
REMARK    2  A    between atoms: C1_1  and  F1_22 
REMARK    3  A    between atoms: C1_1  and  C17_28 
REMARK    4  A    between atoms: C2_2  and  C9_12 
REMARK    5  A    between atoms: C2_2  and  C11_18 
REMARK    6  A    between atoms: C2_2  and  C14_25 
REMARK    7  A    between atoms: C2_2  and  C15_26 
REMARK    8  A    between atoms: C3_3  and  C17_28 
REMARK    9  A    between atoms: C4_4  and  N2_6 
REMARK   10  A    between atoms: C4_4  and  C6_8 
REMARK   11  A    between atoms: C4_4  and  C13_24 
REMARK   12  A    between atoms: C4_4  and  C17_28 
REMARK   13  A    between atoms: N1_5  and  C6_8 
REMARK   14  A    between atoms: N1_5  and  O6_21 
REMARK   15  A    between atoms: N1_5  and  C13_24 
REMARK   16  A    between atoms: N1_5  and  C17_28 
REMARK   17  A    between atoms: N2_6  and  C11_18 
REMARK   18  A    between atoms: N2_6  and  C15_26 
REMARK   19  A    between atoms: C5_7  and  O1_13 
REMARK   20  A    between atoms: C5_7  and  C17_28 
REMARK   21  A    between atoms: C6_8  and  O3_15 
REMARK   22  A    between atoms: C7_9  and  O2_14 
REMARK   23  A    between atoms: C7_9  and  C14_25 
REMARK   24  A    between atoms: C8_10  and  O3_15 
REMARK   25  A    between atoms: C8_10  and  C17_28 
REMARK   26  A    between atoms: N3_11  and  C12_20 
REMARK   27  A    between atoms: C9_12  and  O2_14 
REMARK   28  A    between atoms: O1_13  and  C10_16 
REMARK   29  A    between atoms: O1_13  and  F1_22 
REMARK   30  A    between atoms: O2_14  and  C11_18 
REMARK   31  A    between atoms: O2_14  and  C14_25 
REMARK   32  A    between atoms: O5_19  and  C14_25 
REMARK   33  A    between atoms: O6_21  and  C13_24 
REMARK   34  A    between atoms: O6_21  and  C17_28 
REMARK   35  A    between atoms: C15_26  and  C16_27 
REMARK   36  A    between atoms: C16_27  and  C19_30 
REMARK   37  A    between atoms: C17_28  and  C18_29 
ROOT
HETATM    1  C1  UNL     1       8.813  -6.608   0.000  1.00  0.00     0.180 A 
HETATM    2  C2  UNL     1       4.523  -6.608   0.000  1.00  0.00     0.001 A 
HETATM    3  C3  UNL     1       8.103  -6.197   0.000  1.00  0.00     0.155 A 
HETATM    4  C4  UNL     1       6.670  -6.197   0.000  1.00  0.00     0.062 A 
HETATM    5  N1  UNL     1       7.380  -6.608   0.000  1.00  0.00     0.000 N 
HETATM    6  N2  UNL     1       5.237  -6.197   0.000  1.00  0.00     0.000 N 
HETATM    7  C5  UNL     1       8.821  -7.430   0.000  1.00  0.00     0.156 A 
HETATM    8  C6  UNL     1       8.103  -5.370   0.000  1.00  0.00     0.194 A 
HETATM    9  C7  UNL     1       3.804  -6.197   0.000  1.00  0.00     0.000 A 
HETATM   10  C8  UNL     1       5.956  -6.608   0.000  1.00  0.00     0.012 A 
HETATM   11  N3  UNL     1       3.094  -6.608   0.000  1.00  0.00     0.000 N 
HETATM   12  C9  UNL     1       3.090  -7.430   0.000  1.00  0.00     0.000 A 
HETATM   13  O1  UNL     1       9.532  -6.197   0.000  1.00  0.00     0.000 OA
HETATM   14  O2  UNL     1       4.523  -7.438   0.000  1.00  0.00     0.000 OA
HETATM   15  O3  UNL     1       6.670  -5.370   0.000  1.00  0.00     0.000 OA
HETATM   16  C10 UNL     1       8.813  -4.959   0.000  1.00  0.00     0.229 A 
HETATM   17  O4  UNL     1       9.532  -7.841   0.000  1.00  0.00    -0.336 OA
HETATM   18  C11 UNL     1       5.956  -7.438   0.000  1.00  0.00     0.012 A 
HETATM   19  O5  UNL     1       2.372  -7.837   0.000  1.00  0.00     0.000 OA
HETATM   20  C12 UNL     1       3.804  -5.370   0.000  1.00  0.00     0.000 A 
HETATM   21  O6  UNL     1       8.103  -7.841   0.000  1.00  0.00     0.000 OA
HETATM   22  F1  UNL     1       9.536  -5.370   0.000  1.00  0.00    -0.421 F 
HETATM   23  F2  UNL     1       8.813  -4.128   0.000  1.00  0.00    -0.333 F 
HETATM   24  C13 UNL     1       6.670  -7.850   0.000  1.00  0.00     0.012 A 
HETATM   25  C14 UNL     1       3.792  -7.841   0.000  1.00  0.00     0.000 A 
HETATM   26  C15 UNL     1       4.523  -4.959   0.000  1.00  0.00     0.000 A 
HETATM   27  C16 UNL     1       3.094  -4.959   0.000  1.00  0.00     0.000 A 
HETATM   28  C17 UNL     1       7.380  -7.438   0.000  1.00  0.00     0.070 A 
HETATM   29  C18 UNL     1       6.670  -8.676   0.000  1.00  0.00     0.008 A 
HETATM   30  C19 UNL     1       4.523  -4.128   0.000  1.00  0.00     0.000 A 
ENDROOT
TORSDOF 37
