REMARK  7 active torsions:
REMARK  status: ('A' for Active; 'I' for Inactive)
REMARK    1  A    between atoms: C2_2  and  N1_3 
REMARK    2  A    between atoms: N1_3  and  C3_4 
REMARK    3  A    between atoms: N1_3  and  S1_6 
REMARK    4  A    between atoms: S1_6  and  N2_9 
REMARK       I    between atoms: N2_9  and  C5_10 
REMARK    5  A    between atoms: C5_10  and  C6_12 
REMARK    6  A    between atoms: C11_18  and  C12_20 
REMARK    7  A    between atoms: C18_29  and  C19_31 
ROOT
HETATM    1  C12 UNL     1       2.374  -4.163   0.000  1.00  0.00     0.084 A 
HETATM    2  C13 UNL     1       0.907  -3.852   0.000  1.00  0.00     0.053 A 
HETATM    3  C14 UNL     1       0.750  -2.360   0.000  1.00  0.00     0.039 A 
HETATM    4  C15 UNL     1       2.120  -1.750   0.000  1.00  0.00     0.039 A 
HETATM    5  N4  UNL     1       3.124  -2.864   0.000  1.00  0.00    -0.289 N 
HETATM    6  C16 UNL     1       4.616  -2.708   0.000  1.00  0.00     0.211 A 
HETATM    7  O5  UNL     1       5.497  -3.921   0.000  1.00  0.00    -0.169 OA
HETATM    8  C17 UNL     1       5.226  -1.337   0.000  1.00  0.00     0.100 A 
HETATM    9  N5  UNL     1       6.718  -1.180   0.000  1.00  0.00    -0.267 NA
HETATM   10  C18 UNL     1       7.328   0.190   0.000  1.00  0.00     0.144 A 
HETATM   11  O6  UNL     1       6.446   1.403   0.000  1.00  0.00     0.000 OA
HETATM   12  C34 UNL     1       4.344  -0.124   0.000  1.00  0.00     0.065 A 
HETATM   13  C35 UNL     1       3.302  -1.203   0.000  1.00  0.00    -0.008 A 
HETATM   14  C36 UNL     1       5.692   0.534   0.000  1.00  0.00     0.067 A 
HETATM   15  C37 UNL     1       5.797   2.030   0.000  1.00  0.00     0.145 A 
HETATM   16  O8  UNL     1       4.553   2.869   0.000  1.00  0.00    -0.354 OA
HETATM   17  C38 UNL     1       3.205   2.212   0.000  1.00  0.00     0.143 A 
HETATM   18  C39 UNL     1       3.101   0.715   0.000  1.00  0.00     0.042 A 
HETATM   19  C40 UNL     1      -0.750  -2.360   0.000  1.00  0.00     0.005 A 
HETATM   20  C41 UNL     1      -1.010  -3.837   0.000  1.00  0.00     0.000 C 
HETATM   21  C42 UNL     1      -2.159  -1.847   0.000  1.00  0.00     0.000 C 
HETATM   22  C43 UNL     1       0.000  -1.061   0.000  1.00  0.00     0.005 A 
HETATM   23  C44 UNL     1       1.061   0.000   0.000  1.00  0.00     0.000 A 
HETATM   24  C45 UNL     1       0.000   1.061   0.000  1.00  0.00     0.000 A 
HETATM   25  C46 UNL     1      -1.061   0.000   0.000  1.00  0.00     0.000 A 
ENDROOT
BRANCH   1  26
HETATM   26  C11 UNL     1       2.984  -5.534   0.000  1.00  0.00     0.191 A 
HETATM   27  N3  UNL     1       2.102  -6.747   0.000  1.00  0.00    -0.239 NA
HETATM   28  C6  UNL     1       2.712  -8.117   0.000  1.00  0.00     0.167 A 
HETATM   29  C7  UNL     1       3.755  -9.197   0.000  1.00  0.00     0.060 A 
HETATM   30  C8  UNL     1       4.168  -7.755   0.000  1.00  0.00     0.005 A 
HETATM   31  C9  UNL     1       5.247  -6.713   0.000  1.00  0.00     0.074 A 
HETATM   32  C10 UNL     1       6.689  -7.126   0.000  1.00  0.00     0.058 C 
HETATM   33  O4  UNL     1       4.476  -5.691   0.000  1.00  0.00    -0.294 OA
BRANCH  28  34
HETATM   34  C5  UNL     1       1.469  -8.956   0.000  1.00  0.00     0.226 C 
HETATM   35  N2  UNL     1       1.574 -10.453   0.000  1.00  0.00    -0.119 NA
HETATM   36  O3  UNL     1       0.121  -8.299   0.000  1.00  0.00    -0.171 OA
BRANCH  35  37
HETATM   37  S1  UNL     1       0.330 -11.291   0.000  1.00  0.00     0.346 S 
HETATM   38  O1  UNL     1       1.169 -12.535   0.000  1.00  0.00    -0.180 OA
HETATM   39  O2  UNL     1      -0.509 -10.048   0.000  1.00  0.00    -0.180 OA
BRANCH  37  40
HETATM   40  N1  UNL     1      -0.913 -12.130   0.000  1.00  0.00    -0.260 N 
BRANCH  40  41
HETATM   41  C2  UNL     1      -2.262 -11.473   0.000  1.00  0.00     0.115 C 
HETATM   42  C1  UNL     1      -3.505 -12.312   0.000  1.00  0.00     0.027 C 
ENDBRANCH  40  41
BRANCH  40  43
HETATM   43  C3  UNL     1      -0.809 -13.627   0.000  1.00  0.00     0.115 C 
HETATM   44  C4  UNL     1      -2.052 -14.465   0.000  1.00  0.00     0.027 C 
ENDBRANCH  40  43
ENDBRANCH  37  40
ENDBRANCH  35  37
ENDBRANCH  28  34
ENDBRANCH   1  26
BRANCH  10  45
HETATM   45  C19 UNL     1       8.820   0.347   0.000  1.00  0.00     0.059 A 
HETATM   46  N6  UNL     1       9.701  -0.867   0.000  1.00  0.00    -0.308 N 
HETATM   47  C20 UNL     1      11.193  -0.710   0.000  1.00  0.00     0.175 A 
HETATM   48  C27 UNL     1       9.091  -2.237   0.000  1.00  0.00     0.132 A 
HETATM   49  O7  UNL     1      11.803   0.660   0.000  1.00  0.00    -0.294 OA
HETATM   50  C21 UNL     1      12.075  -1.924   0.000  1.00  0.00     0.073 A 
HETATM   51  C33 UNL     1      10.921   1.874   0.000  1.00  0.00     0.076 A 
HETATM   52  C28 UNL     1       9.430   1.717   0.000  1.00  0.00     0.010 A 
HETATM   53  C32 UNL     1      11.532   3.244   0.000  1.00  0.00     0.051 A 
HETATM   54  C29 UNL     1       8.548   2.930   0.000  1.00  0.00     0.029 A 
HETATM   55  C30 UNL     1       9.158   4.301   0.000  1.00  0.00     0.005 A 
HETATM   56  C31 UNL     1      10.650   4.458   0.000  1.00  0.00     0.007 A 
HETATM   57  C22 UNL     1      13.566  -1.767   0.000  1.00  0.00     0.047 A 
HETATM   58  N7  UNL     1      11.465  -3.294   0.000  1.00  0.00    -0.347 N 
HETATM   59  C23 UNL     1      14.448  -2.980   0.000  1.00  0.00     0.008 A 
HETATM   60  C24 UNL     1      13.838  -4.351   0.000  1.00  0.00     0.025 A 
HETATM   61  C25 UNL     1      12.346  -4.507   0.000  1.00  0.00     0.101 A 
HETATM   62  C26 UNL     1       9.973  -3.451   0.000  1.00  0.00     0.126 A 
ENDBRANCH  10  45
TORSDOF 7
