REMARK  11 active torsions:
REMARK  status: ('A' for Active; 'I' for Inactive)
REMARK    1  A    between atoms: C2_2  and  C3_3 
REMARK    2  A    between atoms: C3_3  and  C4_4 
REMARK    3  A    between atoms: C4_4  and  N1_5 
REMARK    4  A    between atoms: C4_4  and  C34_44 
REMARK       I    between atoms: N1_5  and  C5_6 
REMARK    5  A    between atoms: C5_6  and  C6_8 
REMARK    6  A    between atoms: C23_32  and  C24_34 
REMARK       I    between atoms: C34_44  and  N6_46 
REMARK    7  A    between atoms: N6_46  and  S1_47 
REMARK    8  A    between atoms: S1_47  and  C35_50 
REMARK    9  A    between atoms: C35_50  and  C36_51 
REMARK   10  A    between atoms: C36_51  and  C37_52 
REMARK   11  A    between atoms: C37_52  and  C38_53 
ROOT
HETATM    1  C6  UNL     1      -2.808   3.022   0.000  1.00  0.00     0.170 A 
HETATM    2  N2  UNL     1      -4.306   3.104   0.000  1.00  0.00    -0.373 NA
HETATM    3  C7  UNL     1      -5.750   2.696   0.000  1.00  0.00     0.256 A 
HETATM    4  O2  UNL     1      -6.220   4.121   0.000  1.00  0.00    -0.303 OA
HETATM    5  C8  UNL     1      -6.982   1.841   0.000  1.00  0.00     0.168 A 
HETATM    6  N3  UNL     1      -7.871   0.633   0.000  1.00  0.00    -0.354 NA
HETATM    7  C9  UNL     1      -8.318  -0.799   0.000  1.00  0.00     0.386 A 
HETATM    8  O3  UNL     1      -9.804  -0.593   0.000  1.00  0.00    -0.128 OA
HETATM    9  O4  UNL     1      -8.277  -2.298   0.000  1.00  0.00    -0.207 OA
HETATM   10  C10 UNL     1      -7.751  -3.703   0.000  1.00  0.00     0.079 A 
HETATM   11  C11 UNL     1      -6.798  -4.861   0.000  1.00  0.00     0.016 A 
HETATM   12  C12 UNL     1      -5.520  -5.646   0.000  1.00  0.00    -0.005 A 
HETATM   13  C13 UNL     1      -4.056  -5.974   0.000  1.00  0.00    -0.024 A 
HETATM   14  C14 UNL     1      -2.565  -5.809   0.000  1.00  0.00     0.163 A 
HETATM   15  C15 UNL     1      -1.208  -5.169   0.000  1.00  0.00    -0.030 A 
HETATM   16  C16 UNL     1      -0.133  -4.123   0.000  1.00  0.00     0.219 A 
HETATM   17  O5  UNL     1       0.544  -2.785   0.000  1.00  0.00    -0.311 OA
HETATM   18  C17 UNL     1       0.750  -1.299   0.000  1.00  0.00     0.124 A 
HETATM   19  C18 UNL     1       1.500   0.000   0.000  1.00  0.00     0.035 A 
HETATM   20  C19 UNL     1       0.750   1.299   0.000  1.00  0.00     0.027 A 
HETATM   21  C20 UNL     1      -0.750   1.299   0.000  1.00  0.00    -0.011 A 
HETATM   22  C21 UNL     1      -1.500   0.000   0.000  1.00  0.00     0.027 A 
HETATM   23  C22 UNL     1      -0.750  -1.299   0.000  1.00  0.00     0.035 A 
HETATM   24  N4  UNL     1       0.425  -5.562   0.000  1.00  0.00    -0.197 NA
HETATM   25  C23 UNL     1      -0.215  -6.918   0.000  1.00  0.00     0.159 A 
HETATM   26  N5  UNL     1      -1.710  -7.042   0.000  1.00  0.00    -0.211 NA
HETATM   27  C30 UNL     1      -8.028   2.917   0.000  1.00  0.00     0.079 A 
HETATM   28  C31 UNL     1      -9.103   1.871   0.000  1.00  0.00     0.010 C 
HETATM   29  C32 UNL     1      -7.088   4.086   0.000  1.00  0.00     0.158 A 
HETATM   30  C33 UNL     1      -9.074   3.992   0.000  1.00  0.00     0.010 C 
ENDROOT
BRANCH   1  31
HETATM   31  C5  UNL     1      -2.480   4.486   0.000  1.00  0.00     0.242 C 
HETATM   32  N1  UNL     1      -1.049   4.933   0.000  1.00  0.00    -0.219 NA
HETATM   33  O1  UNL     1      -3.584   5.501   0.000  1.00  0.00    -0.166 OA
BRANCH  32  34
HETATM   34  C4  UNL     1      -0.721   6.397   0.000  1.00  0.00     0.105 C 
BRANCH  34  35
HETATM   35  C3  UNL     1       0.711   6.845   0.000  1.00  0.00     0.050 C 
BRANCH  35  36
HETATM   36  C2  UNL     1       1.039   8.308   0.000  1.00  0.00     0.006 C 
HETATM   37  C1  UNL     1       2.470   8.756   0.000  1.00  0.00     0.000 C 
ENDBRANCH  35  36
ENDBRANCH  34  35
BRANCH  34  38
HETATM   38  C34 UNL     1      -1.824   7.413   0.000  1.00  0.00     0.237 C 
HETATM   39  O6  UNL     1      -3.256   6.965   0.000  1.00  0.00    -0.167 OA
HETATM   40  N6  UNL     1      -1.496   8.877   0.000  1.00  0.00    -0.133 NA
BRANCH  40  41
HETATM   41  S1  UNL     1      -2.600   9.893   0.000  1.00  0.00     0.267 S 
HETATM   42  O7  UNL     1      -3.616   8.789   0.000  1.00  0.00    -0.203 OA
HETATM   43  O8  UNL     1      -1.584  10.996   0.000  1.00  0.00    -0.203 OA
BRANCH  41  44
HETATM   44  C35 UNL     1      -3.704  10.908   0.000  1.00  0.00     0.146 C 
BRANCH  44  45
HETATM   45  C36 UNL     1      -5.135  10.461   0.000  1.00  0.00     0.019 C 
BRANCH  45  46
HETATM   46  C37 UNL     1      -6.239  11.476   0.000  1.00  0.00     0.001 C 
BRANCH  46  47
HETATM   47  C38 UNL     1      -7.670  11.029   0.000  1.00  0.00     0.000 C 
HETATM   48  C39 UNL     1      -8.774  12.045   0.000  1.00  0.00     0.000 C 
ENDBRANCH  46  47
ENDBRANCH  45  46
ENDBRANCH  44  45
ENDBRANCH  41  44
ENDBRANCH  40  41
ENDBRANCH  34  38
ENDBRANCH  32  34
ENDBRANCH   1  31
BRANCH  25  49
HETATM   49  C24 UNL     1       0.639  -8.151   0.000  1.00  0.00    -0.008 A 
HETATM   50  C25 UNL     1      -0.001  -9.507   0.000  1.00  0.00     0.025 A 
HETATM   51  C26 UNL     1       0.854 -10.740   0.000  1.00  0.00     0.004 A 
HETATM   52  C27 UNL     1       2.349 -10.616   0.000  1.00  0.00     0.001 A 
HETATM   53  C28 UNL     1       2.989  -9.260   0.000  1.00  0.00     0.004 A 
HETATM   54  C29 UNL     1       2.134  -8.027   0.000  1.00  0.00     0.025 A 
ENDBRANCH  25  49
TORSDOF 11
