REMARK  5 active torsions:
REMARK  status: ('A' for Active; 'I' for Inactive)
REMARK    1  A    between atoms: C4_4  and  N1_5 
REMARK       I    between atoms: N1_5  and  C5_6 
REMARK    2  A    between atoms: C5_6  and  C6_8 
REMARK       I    between atoms: N2_12  and  C10_13 
REMARK    3  A    between atoms: C10_13  and  C11_15 
REMARK    4  A    between atoms: C12_17  and  O4_19 
REMARK    5  A    between atoms: O4_19  and  C13_20 
ROOT
HETATM    1  C6  UNL     1      -1.860  -1.214   0.000  1.00  0.00     0.082 A 
HETATM    2  C7  UNL     1      -0.433  -0.750   0.000  1.00  0.00     0.044 A 
HETATM    3  C8  UNL     1      -0.433   0.750   0.000  1.00  0.00     0.029 A 
HETATM    4  C9  UNL     1      -1.860   1.214   0.000  1.00  0.00     0.108 A 
HETATM    5  N2  UNL     1      -2.741   0.000   0.000  1.00  0.00    -0.306 N 
HETATM    6  C10 UNL     1      -4.241   0.000   0.000  1.00  0.00     0.212 C 
HETATM    7  O2  UNL     1      -4.991  -1.299   0.000  1.00  0.00    -0.169 OA
HETATM    8  C23 UNL     1       0.866   0.000   0.000  1.00  0.00     0.007 A 
HETATM    9  C24 UNL     1       1.830   1.149   0.000  1.00  0.00     0.001 C 
HETATM   10  C25 UNL     1       1.830  -1.149   0.000  1.00  0.00     0.001 C 
ENDROOT
BRANCH   1  11
HETATM   11  C5  UNL     1      -2.323  -2.640   0.000  1.00  0.00     0.224 C 
HETATM   12  N1  UNL     1      -3.790  -2.952   0.000  1.00  0.00    -0.221 NA
HETATM   13  O1  UNL     1      -1.319  -3.755   0.000  1.00  0.00    -0.168 OA
BRANCH  12  14
HETATM   14  C4  UNL     1      -4.254  -4.379   0.000  1.00  0.00     0.092 A 
HETATM   15  C3  UNL     1      -5.721  -4.690   0.000  1.00  0.00     0.078 A 
HETATM   16  C2  UNL     1      -6.185  -6.117   0.000  1.00  0.00     0.129 A 
HETATM   17  C1  UNL     1      -7.652  -6.429   0.000  1.00  0.00     0.033 C 
HETATM   18  O6  UNL     1      -5.181  -7.232   0.000  1.00  0.00    -0.319 OA
HETATM   19  C27 UNL     1      -3.714  -6.920   0.000  1.00  0.00     0.192 A 
HETATM   20  C26 UNL     1      -3.250  -5.493   0.000  1.00  0.00     0.180 A 
HETATM   21  N4  UNL     1      -2.710  -8.035   0.000  1.00  0.00    -0.072 NA
HETATM   22  O5  UNL     1      -1.783  -5.181   0.000  1.00  0.00    -0.186 OA
ENDBRANCH  12  14
ENDBRANCH   1  11
BRANCH   6  23
HETATM   23  C11 UNL     1      -4.991   1.299   0.000  1.00  0.00     0.125 A 
HETATM   24  N3  UNL     1      -4.241   2.598   0.000  1.00  0.00    -0.197 NA
HETATM   25  C12 UNL     1      -4.991   3.897   0.000  1.00  0.00     0.294 A 
HETATM   26  O3  UNL     1      -6.491   3.897   0.000  1.00  0.00    -0.275 OA
HETATM   27  C18 UNL     1      -7.241   2.598   0.000  1.00  0.00     0.079 A 
HETATM   28  C17 UNL     1      -6.491   1.299   0.000  1.00  0.00     0.018 A 
HETATM   29  C19 UNL     1      -8.741   2.598   0.000  1.00  0.00     0.051 A 
HETATM   30  C22 UNL     1      -7.241   0.000   0.000  1.00  0.00     0.030 A 
HETATM   31  C21 UNL     1      -8.741   0.000   0.000  1.00  0.00     0.005 A 
HETATM   32  C20 UNL     1      -9.491   1.299   0.000  1.00  0.00     0.007 A 
BRANCH  25  33
HETATM   33  O4  UNL     1      -4.241   5.196   0.000  1.00  0.00    -0.301 OA
BRANCH  33  34
HETATM   34  C13 UNL     1      -4.991   6.495   0.000  1.00  0.00     0.102 C 
HETATM   35  C14 UNL     1      -3.692   7.245   0.000  1.00  0.00     0.030 C 
HETATM   36  C15 UNL     1      -6.290   5.745   0.000  1.00  0.00     0.030 C 
HETATM   37  C16 UNL     1      -5.741   7.794   0.000  1.00  0.00     0.030 C 
ENDBRANCH  33  34
ENDBRANCH  25  33
ENDBRANCH   6  23
TORSDOF 5
