REMARK  20 active torsions:
REMARK  status: ('A' for Active; 'I' for Inactive)
REMARK    1  A    between atoms: C2_2  and  C3_3 
REMARK    2  A    between atoms: C4_5  and  C5_7 
REMARK    3  A    between atoms: C5_7  and  C6_9 
REMARK    4  A    between atoms: C10_18  and  N3_23 
REMARK       I    between atoms: N3_23  and  C15_24 
REMARK    5  A    between atoms: C15_24  and  C16_26 
REMARK    6  A    between atoms: C16_26  and  N4_27 
REMARK    7  A    between atoms: C16_26  and  C40_64 
REMARK       I    between atoms: N4_27  and  C17_28 
REMARK    8  A    between atoms: C17_28  and  C18_30 
REMARK    9  A    between atoms: C18_30  and  C19_31 
REMARK   10  A    between atoms: C18_30  and  N5_39 
REMARK   11  A    between atoms: C19_31  and  C20_32 
REMARK       I    between atoms: N5_39  and  C27_40 
REMARK   12  A    between atoms: C27_40  and  C28_42 
REMARK   13  A    between atoms: C30_44  and  C31_45 
REMARK   14  A    between atoms: C32_49  and  C33_51 
REMARK   15  A    between atoms: C33_51  and  C34_52 
REMARK   16  A    between atoms: C33_51  and  N7_56 
REMARK   17  A    between atoms: C34_52  and  C35_53 
REMARK       I    between atoms: N7_56  and  C36_57 
REMARK   18  A    between atoms: C36_57  and  C37_59 
REMARK   19  A    between atoms: C37_59  and  C38_60 
REMARK   20  A    between atoms: C38_60  and  C39_61 
ROOT
HETATM    1  N4  UNL     1       5.250  -3.897   0.000  1.00  0.00    -0.220 NA
HETATM    2  C17 UNL     1       3.750  -3.897   0.000  1.00  0.00     0.227 C 
HETATM    3  O5  UNL     1       3.000  -5.196   0.000  1.00  0.00    -0.168 OA
ENDROOT
BRANCH   1   4
HETATM    4  C16 UNL     1       6.000  -5.196   0.000  1.00  0.00     0.104 C 
BRANCH   4   5
HETATM    5  C15 UNL     1       5.250  -6.495   0.000  1.00  0.00     0.226 C 
HETATM    6  N3  UNL     1       6.000  -7.794   0.000  1.00  0.00    -0.220 NA
HETATM    7  O4  UNL     1       3.750  -6.495   0.000  1.00  0.00    -0.168 OA
BRANCH   6   8
HETATM    8  C10 UNL     1       5.250  -9.093   0.000  1.00  0.00     0.108 A 
HETATM    9  C9  UNL     1       3.750  -9.093   0.000  1.00  0.00     0.214 A 
HETATM   10  N2  UNL     1       3.000 -10.392   0.000  1.00  0.00    -0.266 N 
HETATM   11  O3  UNL     1       3.000  -7.794   0.000  1.00  0.00    -0.169 OA
HETATM   12  C6  UNL     1       1.500 -10.392   0.000  1.00  0.00     0.083 A 
HETATM   13  C14 UNL     1       3.750 -11.691   0.000  1.00  0.00     0.168 A 
HETATM   14  C7  UNL     1       0.750 -11.691   0.000  1.00  0.00     0.148 A 
HETATM   15  C8  UNL     1       1.500 -12.990   0.000  1.00  0.00     0.383 A 
HETATM   16  F1  UNL     1       2.250 -14.289   0.000  1.00  0.00    -0.172 F 
HETATM   17  F2  UNL     1       0.201 -13.740   0.000  1.00  0.00    -0.172 F 
HETATM   18  F3  UNL     1       2.799 -12.240   0.000  1.00  0.00    -0.288 F 
HETATM   19  C12 UNL     1       5.250 -11.691   0.000  1.00  0.00     0.004 A 
HETATM   20  C11 UNL     1       6.000 -10.392   0.000  1.00  0.00     0.075 A 
HETATM   21  C13 UNL     1       6.000 -12.990   0.000  1.00  0.00     0.031 C 
BRANCH  12  22
HETATM   22  C5  UNL     1       0.750  -9.093   0.000  1.00  0.00     0.184 C 
HETATM   23  O2  UNL     1       1.500  -7.794   0.000  1.00  0.00    -0.185 OA
BRANCH  22  24
HETATM   24  C4  UNL     1      -0.750  -9.093   0.000  1.00  0.00     0.209 A 
HETATM   25  N1  UNL     1      -1.500  -7.794   0.000  1.00  0.00    -0.225 NA
HETATM   26  C3  UNL     1      -3.000  -7.794   0.000  1.00  0.00     0.059 A 
HETATM   27  C44 UNL     1      -3.750  -9.093   0.000  1.00  0.00     0.010 A 
HETATM   28  C45 UNL     1      -5.250  -9.093   0.000  1.00  0.00     0.029 A 
HETATM   29  C49 UNL     1      -3.000 -10.392   0.000  1.00  0.00     0.076 A 
HETATM   30  C46 UNL     1      -6.000 -10.392   0.000  1.00  0.00     0.005 A 
HETATM   31  C47 UNL     1      -5.250 -11.691   0.000  1.00  0.00     0.007 A 
HETATM   32  C48 UNL     1      -3.750 -11.691   0.000  1.00  0.00     0.051 A 
HETATM   33  O1  UNL     1      -1.500 -10.392   0.000  1.00  0.00    -0.292 OA
BRANCH  26  34
HETATM   34  C2  UNL     1      -3.750  -6.495   0.000  1.00  0.00     0.046 C 
HETATM   35  C1  UNL     1      -5.250  -6.495   0.000  1.00  0.00     0.007 C 
ENDBRANCH  26  34
ENDBRANCH  22  24
ENDBRANCH  12  22
ENDBRANCH   6   8
ENDBRANCH   4   5
BRANCH   4  36
HETATM   36  C40 UNL     1       7.500  -5.196   0.000  1.00  0.00     0.039 C 
HETATM   37  C41 UNL     1       7.500  -6.696   0.000  1.00  0.00     0.006 C 
HETATM   38  C42 UNL     1       7.500  -3.696   0.000  1.00  0.00     0.006 C 
HETATM   39  C43 UNL     1       9.000  -5.196   0.000  1.00  0.00     0.006 C 
ENDBRANCH   4  36
ENDBRANCH   1   4
BRANCH   2  40
HETATM   40  C18 UNL     1       3.000  -2.598   0.000  1.00  0.00     0.109 C 
BRANCH  40  41
HETATM   41  C19 UNL     1       1.500  -2.598   0.000  1.00  0.00     0.071 C 
BRANCH  41  42
HETATM   42  C20 UNL     1       0.750  -1.299   0.000  1.00  0.00    -0.046 A 
HETATM   43  C21 UNL     1       1.500   0.000   0.000  1.00  0.00     0.022 A 
HETATM   44  C22 UNL     1       0.750   1.299   0.000  1.00  0.00     0.005 A 
HETATM   45  C23 UNL     1      -0.750   1.299   0.000  1.00  0.00     0.005 A 
HETATM   46  C24 UNL     1      -1.500   0.000   0.000  1.00  0.00     0.021 A 
HETATM   47  C25 UNL     1      -0.750  -1.299   0.000  1.00  0.00    -0.051 A 
HETATM   48  C26 UNL     1      -1.500  -2.598   0.000  1.00  0.00     0.026 C 
ENDBRANCH  41  42
ENDBRANCH  40  41
BRANCH  40  49
HETATM   49  N5  UNL     1       3.750  -1.299   0.000  1.00  0.00    -0.219 NA
HETATM   50  C27 UNL     1       5.250  -1.299   0.000  1.00  0.00     0.226 C 
HETATM   51  O6  UNL     1       6.000  -2.598   0.000  1.00  0.00    -0.168 OA
BRANCH  50  52
HETATM   52  C28 UNL     1       6.000  -0.000   0.000  1.00  0.00     0.108 A 
HETATM   53  C29 UNL     1       7.500  -0.000   0.000  1.00  0.00     0.091 A 
HETATM   54  C30 UNL     1       8.250   1.299   0.000  1.00  0.00     0.215 A 
HETATM   55  O9  UNL     1       7.500   2.598   0.000  1.00  0.00    -0.305 OA
HETATM   56  C32 UNL     1       6.000   2.598   0.000  1.00  0.00     0.193 A 
HETATM   57  N6  UNL     1       5.250   1.299   0.000  1.00  0.00    -0.222 NA
BRANCH  54  58
HETATM   58  C31 UNL     1       9.750   1.299   0.000  1.00  0.00     0.215 C 
HETATM   59  O7  UNL     1      10.500  -0.000   0.000  1.00  0.00    -0.646 OA
HETATM   60  O8  UNL     1      10.500   2.598   0.000  1.00  0.00    -0.646 OA
ENDBRANCH  54  58
BRANCH  56  61
HETATM   61  C33 UNL     1       5.250   3.897   0.000  1.00  0.00     0.112 C 
BRANCH  61  62
HETATM   62  C34 UNL     1       6.000   5.196   0.000  1.00  0.00     0.147 C 
BRANCH  62  63
HETATM   63  C35 UNL     1       7.500   5.196   0.000  1.00  0.00     0.192 C 
HETATM   64  O10 UNL     1       8.250   3.897   0.000  1.00  0.00    -0.647 OA
HETATM   65  O11 UNL     1       8.250   6.495   0.000  1.00  0.00    -0.647 OA
ENDBRANCH  62  63
ENDBRANCH  61  62
BRANCH  61  66
HETATM   66  N7  UNL     1       3.750   3.897   0.000  1.00  0.00    -0.224 NA
HETATM   67  C36 UNL     1       3.000   5.196   0.000  1.00  0.00     0.190 C 
HETATM   68  O12 UNL     1       3.750   6.495   0.000  1.00  0.00    -0.174 OA
BRANCH  67  69
HETATM   69  C37 UNL     1       1.500   5.196   0.000  1.00  0.00     0.086 C 
BRANCH  69  70
HETATM   70  C38 UNL     1       0.750   6.495   0.000  1.00  0.00     0.106 C 
BRANCH  70  71
HETATM   71  C39 UNL     1      -0.750   6.495   0.000  1.00  0.00     0.186 C 
HETATM   72  O13 UNL     1      -1.500   5.196   0.000  1.00  0.00    -0.647 OA
HETATM   73  O14 UNL     1      -1.500   7.794   0.000  1.00  0.00    -0.647 OA
ENDBRANCH  70  71
ENDBRANCH  69  70
ENDBRANCH  67  69
ENDBRANCH  61  66
ENDBRANCH  56  61
ENDBRANCH  50  52
ENDBRANCH  40  49
ENDBRANCH   2  40
TORSDOF 20
