REMARK  7 active torsions:
REMARK  status: ('A' for Active; 'I' for Inactive)
REMARK    1  A    between atoms: C2_2  and  O1_5 
REMARK    2  A    between atoms: O1_5  and  C5_6 
REMARK    3  A    between atoms: C6_9  and  C7_10 
REMARK       I    between atoms: C7_10  and  N2_12 
REMARK    4  A    between atoms: C11_16  and  C12_17 
REMARK    5  A    between atoms: C13_20  and  C18_25 
REMARK       I    between atoms: C18_25  and  N4_27 
REMARK    6  A    between atoms: N4_27  and  S1_28 
REMARK    7  A    between atoms: S1_28  and  N5_31 
ROOT
HETATM    1  C7  UNL     1       4.616  -2.708   0.000  1.00  0.00     0.209 C 
HETATM    2  O3  UNL     1       5.497  -3.921   0.000  1.00  0.00    -0.170 OA
HETATM    3  N2  UNL     1       3.124  -2.864   0.000  1.00  0.00    -0.306 N 
HETATM    4  C8  UNL     1       2.120  -1.750   0.000  1.00  0.00     0.108 A 
HETATM    5  C9  UNL     1       0.750  -2.360   0.000  1.00  0.00     0.027 A 
HETATM    6  C10 UNL     1       0.907  -3.852   0.000  1.00  0.00     0.049 A 
HETATM    7  C11 UNL     1       2.374  -4.163   0.000  1.00  0.00     0.080 A 
HETATM    8  C23 UNL     1      -0.750  -2.360   0.000  1.00  0.00     0.002 A 
HETATM    9  C24 UNL     1      -1.010  -3.837   0.000  1.00  0.00     0.000 C 
HETATM   10  C25 UNL     1      -2.159  -1.847   0.000  1.00  0.00     0.000 C 
HETATM   11  C26 UNL     1      -0.000  -1.061   0.000  1.00  0.00     0.002 A 
HETATM   12  C27 UNL     1       1.061   0.000   0.000  1.00  0.00     0.000 A 
HETATM   13  C28 UNL     1       0.000   1.061   0.000  1.00  0.00     0.000 A 
HETATM   14  C29 UNL     1      -1.061   0.000   0.000  1.00  0.00     0.000 A 
ENDROOT
BRANCH   7  15
HETATM   15  C12 UNL     1       2.984  -5.534   0.000  1.00  0.00     0.190 A 
HETATM   16  O4  UNL     1       4.476  -5.691   0.000  1.00  0.00    -0.294 OA
HETATM   17  C16 UNL     1       5.247  -6.713   0.000  1.00  0.00     0.074 A 
HETATM   18  C15 UNL     1       4.168  -7.755   0.000  1.00  0.00     0.005 A 
HETATM   19  C17 UNL     1       6.689  -7.126   0.000  1.00  0.00     0.058 C 
HETATM   20  C13 UNL     1       2.712  -8.117   0.000  1.00  0.00     0.167 A 
HETATM   21  C14 UNL     1       3.755  -9.197   0.000  1.00  0.00     0.060 A 
HETATM   22  N3  UNL     1       2.102  -6.747   0.000  1.00  0.00    -0.239 NA
BRANCH  20  23
HETATM   23  C18 UNL     1       1.469  -8.956   0.000  1.00  0.00     0.226 C 
HETATM   24  O5  UNL     1       0.121  -8.299   0.000  1.00  0.00    -0.171 OA
HETATM   25  N4  UNL     1       1.574 -10.453   0.000  1.00  0.00    -0.119 NA
BRANCH  25  26
HETATM   26  S1  UNL     1       0.330 -11.291   0.000  1.00  0.00     0.346 S 
HETATM   27  O6  UNL     1       1.169 -12.535   0.000  1.00  0.00    -0.180 OA
HETATM   28  O7  UNL     1      -0.509 -10.048   0.000  1.00  0.00    -0.180 OA
BRANCH  26  29
HETATM   29  N5  UNL     1      -0.913 -12.130   0.000  1.00  0.00    -0.260 N 
HETATM   30  C19 UNL     1      -2.323 -11.617   0.000  1.00  0.00     0.115 A 
HETATM   31  C20 UNL     1      -3.247 -12.799   0.000  1.00  0.00     0.027 A 
HETATM   32  C21 UNL     1      -2.408 -14.043   0.000  1.00  0.00     0.027 A 
HETATM   33  C22 UNL     1      -0.966 -13.629   0.000  1.00  0.00     0.115 A 
ENDBRANCH  26  29
ENDBRANCH  25  26
ENDBRANCH  20  23
ENDBRANCH   7  15
BRANCH   1  34
HETATM   34  C6  UNL     1       5.226  -1.337   0.000  1.00  0.00     0.117 A 
HETATM   35  N1  UNL     1       4.344  -0.124   0.000  1.00  0.00    -0.200 NA
HETATM   36  C5  UNL     1       4.954   1.247   0.000  1.00  0.00     0.301 A 
HETATM   37  O2  UNL     1       6.446   1.403   0.000  1.00  0.00    -0.231 OA
HETATM   38  C31 UNL     1       6.561   0.311   0.000  1.00  0.00     0.003 A 
HETATM   39  C30 UNL     1       6.718  -1.180   0.000  1.00  0.00     0.108 A 
HETATM   40  C32 UNL     1       6.875  -2.672   0.000  1.00  0.00     0.021 C 
HETATM   41  C33 UNL     1       8.210  -1.024   0.000  1.00  0.00     0.021 C 
BRANCH  36  42
HETATM   42  O1  UNL     1       4.073   2.460   0.000  1.00  0.00    -0.300 OA
BRANCH  42  43
HETATM   43  C2  UNL     1       4.683   3.830   0.000  1.00  0.00     0.102 C 
HETATM   44  C1  UNL     1       3.312   4.441   0.000  1.00  0.00     0.030 C 
HETATM   45  C3  UNL     1       6.053   3.220   0.000  1.00  0.00     0.030 C 
HETATM   46  C4  UNL     1       5.293   5.201   0.000  1.00  0.00     0.030 C 
ENDBRANCH  42  43
ENDBRANCH  36  42
ENDBRANCH   1  34
TORSDOF 7
