REMARK  8 active torsions:
REMARK  status: ('A' for Active; 'I' for Inactive)
REMARK    1  A    between atoms: O1_2  and  C2_3 
REMARK    2  A    between atoms: C6_7  and  O2_8 
REMARK    3  A    between atoms: O2_8  and  C7_9 
REMARK    4  A    between atoms: C13_17  and  C24_30 
REMARK       I    between atoms: C24_30  and  N3_32 
REMARK    5  A    between atoms: N3_32  and  S1_33 
REMARK    6  A    between atoms: S1_33  and  C25_36 
REMARK    7  A    between atoms: C29_40  and  C33_45 
REMARK    8  A    between atoms: C34_47  and  C36_50 
ROOT
HETATM    1  C7  UNL     1      -4.572   5.805   0.000  1.00  0.00     0.130 A 
HETATM    2  C8  UNL     1      -5.686   4.801   0.000  1.00  0.00     0.060 A 
HETATM    3  C9  UNL     1      -5.076   3.431   0.000  1.00  0.00     0.024 A 
HETATM    4  C10 UNL     1      -3.584   3.587   0.000  1.00  0.00     0.023 A 
HETATM    5  C11 UNL     1      -3.273   5.055   0.000  1.00  0.00     0.060 A 
HETATM    6  C12 UNL     1      -2.158   3.124   0.000  1.00  0.00     0.205 A 
HETATM    7  O3  UNL     1      -1.408   4.423   0.000  1.00  0.00    -0.170 OA
HETATM    8  N1  UNL     1      -1.043   2.120   0.000  1.00  0.00    -0.238 NA
HETATM    9  C13 UNL     1      -0.433   0.750   0.000  1.00  0.00     0.165 A 
HETATM   10  C14 UNL     1       0.866   0.000   0.000  1.00  0.00     0.059 A 
HETATM   11  C15 UNL     1      -0.433  -0.750   0.000  1.00  0.00    -0.014 A 
HETATM   12  C16 UNL     1      -1.043  -2.120   0.000  1.00  0.00    -0.006 A 
HETATM   13  C17 UNL     1      -2.158  -3.124   0.000  1.00  0.00    -0.001 A 
HETATM   14  C18 UNL     1      -3.584  -3.587   0.000  1.00  0.00    -0.000 A 
HETATM   15  C19 UNL     1      -5.076  -3.431   0.000  1.00  0.00     0.000 A 
HETATM   16  C20 UNL     1      -6.375  -2.681   0.000  1.00  0.00     0.002 A 
HETATM   17  C21 UNL     1      -7.257  -1.467   0.000  1.00  0.00     0.021 A 
HETATM   18  C22 UNL     1      -7.569   0.000   0.000  1.00  0.00     0.101 A 
HETATM   19  N2  UNL     1      -7.257   1.467   0.000  1.00  0.00    -0.219 NA
HETATM   20  C23 UNL     1      -6.375   2.681   0.000  1.00  0.00     0.209 A 
HETATM   21  O4  UNL     1      -7.379   3.796   0.000  1.00  0.00    -0.170 OA
ENDROOT
BRANCH   1  22
HETATM   22  O2  UNL     1      -4.728   7.296   0.000  1.00  0.00    -0.337 OA
BRANCH  22  23
HETATM   23  C6  UNL     1      -3.515   8.178   0.000  1.00  0.00     0.075 A 
HETATM   24  C5  UNL     1      -3.672   9.670   0.000  1.00  0.00     0.014 A 
HETATM   25  C4  UNL     1      -5.042  10.280   0.000  1.00  0.00     0.036 A 
HETATM   26  C30 UNL     1      -2.458  10.552   0.000  1.00  0.00     0.076 A 
HETATM   27  C3  UNL     1      -5.199  11.772   0.000  1.00  0.00     0.056 A 
HETATM   28  C2  UNL     1      -3.985  12.654   0.000  1.00  0.00     0.070 A 
HETATM   29  C31 UNL     1      -2.615  12.043   0.000  1.00  0.00     0.014 A 
HETATM   30  C32 UNL     1      -1.401  12.925   0.000  1.00  0.00     0.034 C 
HETATM   31  N4  UNL     1      -1.088   9.942   0.000  1.00  0.00    -0.248 NA
HETATM   32  C29 UNL     1      -0.931   8.450   0.000  1.00  0.00     0.089 A 
HETATM   33  C28 UNL     1      -2.144   7.568   0.000  1.00  0.00     0.099 A 
BRANCH  28  34
HETATM   34  O1  UNL     1      -4.142  14.145   0.000  1.00  0.00    -0.333 OA
HETATM   35  C1  UNL     1      -2.929  15.027   0.000  1.00  0.00     0.181 C 
ENDBRANCH  28  34
BRANCH  32  36
HETATM   36  C33 UNL     1       0.439   7.840   0.000  1.00  0.00     0.120 A 
HETATM   37  N5  UNL     1       1.738   8.590   0.000  1.00  0.00    -0.242 NA
HETATM   38  C34 UNL     1       2.853   7.586   0.000  1.00  0.00     0.063 A 
HETATM   39  C35 UNL     1       2.243   6.216   0.000  1.00  0.00     0.109 A 
HETATM   40  S2  UNL     1       0.751   6.372   0.000  1.00  0.00    -0.087 SA
BRANCH  38  41
HETATM   41  C36 UNL     1       4.320   7.898   0.000  1.00  0.00    -0.029 C 
HETATM   42  C37 UNL     1       4.784   9.324   0.000  1.00  0.00     0.028 C 
HETATM   43  C38 UNL     1       5.324   6.783   0.000  1.00  0.00     0.028 C 
ENDBRANCH  38  41
ENDBRANCH  32  36
ENDBRANCH  22  23
ENDBRANCH   1  22
BRANCH   9  44
HETATM   44  C24 UNL     1       0.682   1.754   0.000  1.00  0.00     0.224 C 
HETATM   45  O5  UNL     1       0.370   3.221   0.000  1.00  0.00    -0.171 OA
HETATM   46  N3  UNL     1       2.108   1.290   0.000  1.00  0.00    -0.137 NA
BRANCH  46  47
HETATM   47  S1  UNL     1       3.223   2.294   0.000  1.00  0.00     0.265 S 
HETATM   48  O6  UNL     1       2.219   3.409   0.000  1.00  0.00    -0.203 OA
HETATM   49  O7  UNL     1       4.227   1.179   0.000  1.00  0.00    -0.203 OA
BRANCH  47  50
HETATM   50  C25 UNL     1       4.338   3.298   0.000  1.00  0.00     0.130 A 
HETATM   51  C26 UNL     1       4.801   4.724   0.000  1.00  0.00     0.019 A 
HETATM   52  C27 UNL     1       5.805   3.609   0.000  1.00  0.00     0.019 A 
ENDBRANCH  47  50
ENDBRANCH  46  47
ENDBRANCH   9  44
TORSDOF 8
