REMARK  4 active torsions:
REMARK  status: ('A' for Active; 'I' for Inactive)
REMARK    1  A    between atoms: C20_28  and  C21_29 
REMARK    2  A    between atoms: C22_32  and  C27_37 
REMARK       I    between atoms: C27_37  and  N6_39 
REMARK    3  A    between atoms: N6_39  and  S1_40 
REMARK    4  A    between atoms: S1_40  and  N7_43 
ROOT
HETATM    1  C1  UNL     1      -1.351  -4.507   0.000  1.00  0.00     0.022 A 
HETATM    2  C2  UNL     1      -2.233  -3.294   0.000  1.00  0.00     0.064 A 
HETATM    3  N1  UNL     1      -3.725  -3.451   0.000  1.00  0.00    -0.352 N 
HETATM    4  C3  UNL     1      -4.729  -2.336   0.000  1.00  0.00     0.102 A 
HETATM    5  C4  UNL     1      -6.099  -2.946   0.000  1.00  0.00     0.030 A 
HETATM    6  C5  UNL     1      -5.942  -4.438   0.000  1.00  0.00     0.049 A 
HETATM    7  C6  UNL     1      -4.475  -4.750   0.000  1.00  0.00     0.075 A 
HETATM    8  C7  UNL     1      -3.865  -6.120   0.000  1.00  0.00     0.194 A 
HETATM    9  O1  UNL     1      -4.746  -7.333   0.000  1.00  0.00    -0.291 OA
HETATM   10  N2  UNL     1      -2.373  -6.277   0.000  1.00  0.00    -0.224 NA
HETATM   11  C8  UNL     1      -1.763  -7.647   0.000  1.00  0.00     0.081 A 
HETATM   12  C9  UNL     1      -2.644  -8.861   0.000  1.00  0.00     0.017 A 
HETATM   13  C10 UNL     1      -4.136  -8.704   0.000  1.00  0.00     0.107 A 
HETATM   14  C11 UNL     1      -5.018  -9.917   0.000  1.00  0.00     0.193 A 
HETATM   15  O2  UNL     1      -4.408 -11.288   0.000  1.00  0.00    -0.347 OA
HETATM   16  C12 UNL     1      -2.916 -11.444   0.000  1.00  0.00     0.148 A 
HETATM   17  C13 UNL     1      -2.034 -10.231   0.000  1.00  0.00     0.061 A 
HETATM   18  C14 UNL     1      -0.271  -7.804   0.000  1.00  0.00     0.145 A 
HETATM   19  O3  UNL     1       0.339  -9.174   0.000  1.00  0.00     0.000 OA
HETATM   20  N3  UNL     1       0.611  -6.590   0.000  1.00  0.00    -0.267 NA
HETATM   21  C15 UNL     1       2.102  -6.747   0.000  1.00  0.00     0.096 A 
HETATM   22  C16 UNL     1       2.984  -5.534   0.000  1.00  0.00     0.207 A 
HETATM   23  O4  UNL     1       4.476  -5.691   0.000  1.00  0.00    -0.170 OA
HETATM   24  N4  UNL     1       2.374  -4.163   0.000  1.00  0.00    -0.306 N 
HETATM   25  C17 UNL     1       0.907  -3.852   0.000  1.00  0.00     0.108 A 
HETATM   26  C18 UNL     1       0.750  -2.360   0.000  1.00  0.00     0.027 A 
HETATM   27  C19 UNL     1       2.120  -1.750   0.000  1.00  0.00     0.049 A 
HETATM   28  C20 UNL     1       3.124  -2.864   0.000  1.00  0.00     0.080 A 
HETATM   29  C32 UNL     1      -0.750  -2.360   0.000  1.00  0.00     0.006 A 
HETATM   30  C33 UNL     1      -1.010  -3.837   0.000  1.00  0.00     0.021 A 
HETATM   31  C34 UNL     1      -2.159  -1.847   0.000  1.00  0.00     0.021 A 
HETATM   32  C35 UNL     1      -0.000  -1.061   0.000  1.00  0.00     0.002 A 
HETATM   33  C36 UNL     1       1.061   0.000   0.000  1.00  0.00     0.000 A 
HETATM   34  C37 UNL     1       0.000   1.061   0.000  1.00  0.00     0.000 A 
HETATM   35  C38 UNL     1      -1.061   0.000   0.000  1.00  0.00     0.000 A 
HETATM   36  C39 UNL     1       2.712  -8.117   0.000  1.00  0.00     0.045 A 
HETATM   37  C40 UNL     1       3.956  -7.279   0.000  1.00  0.00     0.006 C 
HETATM   38  C41 UNL     1       1.257  -8.480   0.000  1.00  0.00     0.063 A 
HETATM   39  C42 UNL     1       0.844  -9.922   0.000  1.00  0.00     0.145 A 
HETATM   40  O9  UNL     1       1.886 -11.001   0.000  1.00  0.00    -0.354 OA
HETATM   41  C43 UNL     1       3.341 -10.638   0.000  1.00  0.00     0.143 A 
HETATM   42  C44 UNL     1       3.755  -9.197   0.000  1.00  0.00     0.038 A 
ENDROOT
BRANCH  28  43
HETATM   43  C21 UNL     1       4.616  -2.708   0.000  1.00  0.00     0.190 A 
HETATM   44  O5  UNL     1       5.226  -1.337   0.000  1.00  0.00    -0.294 OA
HETATM   45  C25 UNL     1       6.436  -0.920   0.000  1.00  0.00     0.074 A 
HETATM   46  C24 UNL     1       7.094  -2.268   0.000  1.00  0.00     0.005 A 
HETATM   47  C26 UNL     1       7.275   0.324   0.000  1.00  0.00     0.058 C 
HETATM   48  C22 UNL     1       6.989  -3.764   0.000  1.00  0.00     0.167 A 
HETATM   49  C23 UNL     1       8.337  -3.107   0.000  1.00  0.00     0.060 A 
HETATM   50  N5  UNL     1       5.497  -3.921   0.000  1.00  0.00    -0.239 NA
BRANCH  48  51
HETATM   51  C27 UNL     1       7.403  -5.206   0.000  1.00  0.00     0.226 C 
HETATM   52  O6  UNL     1       6.361  -6.285   0.000  1.00  0.00    -0.171 OA
HETATM   53  N6  UNL     1       8.858  -5.569   0.000  1.00  0.00    -0.119 NA
BRANCH  53  54
HETATM   54  S1  UNL     1       9.272  -7.011   0.000  1.00  0.00     0.346 S 
HETATM   55  O7  UNL     1      10.713  -6.598   0.000  1.00  0.00    -0.180 OA
HETATM   56  O8  UNL     1       7.830  -7.424   0.000  1.00  0.00    -0.180 OA
BRANCH  54  57
HETATM   57  N7  UNL     1       9.685  -8.453   0.000  1.00  0.00    -0.260 N 
HETATM   58  C28 UNL     1       8.762  -9.635   0.000  1.00  0.00     0.115 A 
HETATM   59  C29 UNL     1       9.600 -10.878   0.000  1.00  0.00     0.027 A 
HETATM   60  C30 UNL     1      11.042 -10.465   0.000  1.00  0.00     0.027 A 
HETATM   61  C31 UNL     1      11.095  -8.966   0.000  1.00  0.00     0.115 A 
ENDBRANCH  54  57
ENDBRANCH  53  54
ENDBRANCH  48  51
ENDBRANCH  28  43
TORSDOF 4
