REMARK  5 active torsions:
REMARK  status: ('A' for Active; 'I' for Inactive)
REMARK    1  A    between atoms: C3_7  and  N1_8 
REMARK       I    between atoms: N1_8  and  C4_9 
REMARK    2  A    between atoms: C4_9  and  C5_11 
REMARK    3  A    between atoms: C9_16  and  C10_17 
REMARK    4  A    between atoms: C10_17  and  C11_18 
REMARK    5  A    between atoms: C14_22  and  C18_27 
ROOT
HETATM    1  C5  UNL     1       1.500   0.000   0.000  1.00  0.00     0.006 A 
HETATM    2  C6  UNL     1       0.750  -1.299   0.000  1.00  0.00     0.032 A 
HETATM    3  C7  UNL     1      -0.750  -1.299   0.000  1.00  0.00     0.051 A 
HETATM    4  C8  UNL     1      -1.500   0.000   0.000  1.00  0.00     0.073 A 
HETATM    5  N2  UNL     1      -2.967   0.312   0.000  1.00  0.00    -0.236 NA
HETATM    6  C9  UNL     1      -3.124   1.804   0.000  1.00  0.00     0.124 A 
HETATM    7  N6  UNL     1      -1.754   2.414   0.000  1.00  0.00    -0.317 N 
HETATM    8  C19 UNL     1      -1.442   3.881   0.000  1.00  0.00     0.132 C 
HETATM    9  C20 UNL     1      -0.750   1.299   0.000  1.00  0.00     0.056 A 
HETATM   10  C21 UNL     1       0.750   1.299   0.000  1.00  0.00     0.071 A 
ENDROOT
BRANCH   1  11
HETATM   11  C4  UNL     1       3.000   0.000   0.000  1.00  0.00     0.205 C 
HETATM   12  N1  UNL     1       3.750  -1.299   0.000  1.00  0.00    -0.222 NA
HETATM   13  O4  UNL     1       3.750   1.299   0.000  1.00  0.00    -0.170 OA
BRANCH  12  14
HETATM   14  C3  UNL     1       5.250  -1.299   0.000  1.00  0.00     0.100 C 
HETATM   15  C2  UNL     1       6.000  -2.598   0.000  1.00  0.00     0.146 C 
HETATM   16  P1  UNL     1       7.500  -2.598   0.000  1.00  0.00     0.215 P 
HETATM   17  O1  UNL     1       7.500  -1.098   0.000  1.00  0.00     0.000 OA
HETATM   18  O2  UNL     1       9.000  -2.598   0.000  1.00  0.00    -0.660 OA
HETATM   19  O3  UNL     1       7.500  -4.098   0.000  1.00  0.00    -0.660 OA
HETATM   20  C1  UNL     1       8.799  -0.348   0.000  1.00  0.00     0.000 A 
HETATM   21  O6  UNL     1       7.500   0.000   0.000  1.00  0.00     0.000 OA
HETATM   22  C22 UNL     1       6.000   0.000   0.000  1.00  0.00     0.171 C 
HETATM   23  O7  UNL     1       5.250   1.299   0.000  1.00  0.00    -0.187 OA
ENDBRANCH  12  14
ENDBRANCH   1  11
BRANCH   6  24
HETATM   24  C10 UNL     1      -4.423   2.554   0.000  1.00  0.00     0.113 C 
BRANCH  24  25
HETATM   25  C11 UNL     1      -4.423   4.054   0.000  1.00  0.00     0.212 A 
HETATM   26  N3  UNL     1      -3.209   4.935   0.000  1.00  0.00    -0.251 NA
HETATM   27  C12 UNL     1      -3.673   6.362   0.000  1.00  0.00     0.073 A 
HETATM   28  C13 UNL     1      -2.923   7.661   0.000  1.00  0.00     0.072 A 
HETATM   29  C17 UNL     1      -5.173   6.362   0.000  1.00  0.00     0.070 A 
HETATM   30  C14 UNL     1      -3.673   8.960   0.000  1.00  0.00     0.001 A 
HETATM   31  C15 UNL     1      -5.173   8.960   0.000  1.00  0.00     0.032 A 
HETATM   32  C16 UNL     1      -5.923   7.661   0.000  1.00  0.00     0.051 A 
HETATM   33  N4  UNL     1      -5.637   4.935   0.000  1.00  0.00    -0.251 NA
BRANCH  30  34
HETATM   34  C18 UNL     1      -2.923  10.259   0.000  1.00  0.00     0.193 C 
HETATM   35  O5  UNL     1      -3.673  11.558   0.000  1.00  0.00    -0.175 OA
HETATM   36  N5  UNL     1      -1.423  10.259   0.000  1.00  0.00    -0.071 NA
ENDBRANCH  30  34
ENDBRANCH  24  25
ENDBRANCH   6  24
TORSDOF 5
