REMARK  9 active torsions:
REMARK  status: ('A' for Active; 'I' for Inactive)
REMARK    1  A    between atoms: C5_5  and  C14_18 
REMARK    2  A    between atoms: C6_7  and  C7_9 
REMARK    3  A    between atoms: N2_14  and  C12_15 
REMARK    4  A    between atoms: C12_15  and  C13_16 
REMARK    5  A    between atoms: C15_21  and  C16_22 
REMARK       I    between atoms: C16_22  and  N4_24 
REMARK    6  A    between atoms: C20_28  and  C21_29 
REMARK    7  A    between atoms: C22_32  and  C27_37 
REMARK       I    between atoms: C27_37  and  N6_39 
REMARK    8  A    between atoms: N6_39  and  S1_40 
REMARK    9  A    between atoms: S1_40  and  N7_43 
ROOT
HETATM    1  C16 UNL     1       2.984  -5.534   0.000  1.00  0.00     0.209 C 
HETATM    2  O3  UNL     1       4.476  -5.691   0.000  1.00  0.00    -0.170 OA
HETATM    3  N4  UNL     1       2.374  -4.163   0.000  1.00  0.00    -0.306 N 
HETATM    4  C17 UNL     1       0.907  -3.852   0.000  1.00  0.00     0.108 A 
HETATM    5  C18 UNL     1       0.750  -2.360   0.000  1.00  0.00     0.027 A 
HETATM    6  C19 UNL     1       2.120  -1.750   0.000  1.00  0.00     0.049 A 
HETATM    7  C20 UNL     1       3.124  -2.864   0.000  1.00  0.00     0.080 A 
HETATM    8  C32 UNL     1      -0.750  -2.360   0.000  1.00  0.00     0.002 A 
HETATM    9  C33 UNL     1      -1.010  -3.837   0.000  1.00  0.00     0.000 C 
HETATM   10  C34 UNL     1      -2.159  -1.847   0.000  1.00  0.00     0.000 C 
HETATM   11  C35 UNL     1      -0.000  -1.061   0.000  1.00  0.00     0.002 A 
HETATM   12  C36 UNL     1       1.061   0.000   0.000  1.00  0.00     0.000 A 
HETATM   13  C37 UNL     1       0.000   1.061   0.000  1.00  0.00     0.000 A 
HETATM   14  C38 UNL     1      -1.061   0.000   0.000  1.00  0.00     0.000 A 
ENDROOT
BRANCH   1  15
HETATM   15  C15 UNL     1       2.102  -6.747   0.000  1.00  0.00     0.115 A 
HETATM   16  N3  UNL     1       0.611  -6.590   0.000  1.00  0.00    -0.220 NA
HETATM   17  C14 UNL     1      -0.271  -7.804   0.000  1.00  0.00     0.206 A 
HETATM   18  O2  UNL     1       0.339  -9.174   0.000  1.00  0.00    -0.251 OA
HETATM   19  C40 UNL     1       1.342  -8.728   0.000  1.00  0.00     0.001 A 
HETATM   20  C39 UNL     1       2.712  -8.117   0.000  1.00  0.00     0.108 A 
HETATM   21  C41 UNL     1       4.083  -7.507   0.000  1.00  0.00     0.021 C 
HETATM   22  C42 UNL     1       3.323  -9.488   0.000  1.00  0.00     0.021 C 
BRANCH  17  23
HETATM   23  C5  UNL     1      -1.763  -7.647   0.000  1.00  0.00     0.115 A 
HETATM   24  C2  UNL     1      -2.644  -8.861   0.000  1.00  0.00     0.108 A 
HETATM   25  C1  UNL     1      -3.858  -7.979   0.000  1.00  0.00     0.001 A 
HETATM   26  C3  UNL     1      -1.431  -9.742   0.000  1.00  0.00     0.021 C 
HETATM   27  C4  UNL     1      -3.526 -10.074   0.000  1.00  0.00     0.021 C 
HETATM   28  O1  UNL     1      -4.746  -7.333   0.000  1.00  0.00    -0.251 OA
HETATM   29  C6  UNL     1      -3.865  -6.120   0.000  1.00  0.00     0.203 A 
HETATM   30  N1  UNL     1      -2.373  -6.277   0.000  1.00  0.00    -0.220 NA
BRANCH  29  31
HETATM   31  C7  UNL     1      -4.475  -4.750   0.000  1.00  0.00     0.076 A 
HETATM   32  C8  UNL     1      -3.593  -3.536   0.000  1.00  0.00     0.047 A 
HETATM   33  C9  UNL     1      -4.203  -2.166   0.000  1.00  0.00     0.008 A 
HETATM   34  C10 UNL     1      -5.695  -2.009   0.000  1.00  0.00     0.025 A 
HETATM   35  C11 UNL     1      -6.577  -3.223   0.000  1.00  0.00     0.101 A 
HETATM   36  N2  UNL     1      -5.967  -4.593   0.000  1.00  0.00    -0.346 N 
BRANCH  36  37
HETATM   37  C12 UNL     1      -6.848  -5.806   0.000  1.00  0.00     0.140 C 
BRANCH  37  38
HETATM   38  C13 UNL     1      -8.340  -5.650   0.000  1.00  0.00     0.217 C 
HETATM   39  F1  UNL     1      -9.222  -6.863   0.000  1.00  0.00    -0.232 F 
ENDBRANCH  37  38
ENDBRANCH  36  37
ENDBRANCH  29  31
ENDBRANCH  17  23
ENDBRANCH   1  15
BRANCH   7  40
HETATM   40  C21 UNL     1       4.616  -2.708   0.000  1.00  0.00     0.190 A 
HETATM   41  O4  UNL     1       5.226  -1.337   0.000  1.00  0.00    -0.294 OA
HETATM   42  C25 UNL     1       6.436  -0.920   0.000  1.00  0.00     0.074 A 
HETATM   43  C24 UNL     1       7.094  -2.268   0.000  1.00  0.00     0.005 A 
HETATM   44  C26 UNL     1       7.275   0.324   0.000  1.00  0.00     0.058 C 
HETATM   45  C22 UNL     1       6.989  -3.764   0.000  1.00  0.00     0.167 A 
HETATM   46  C23 UNL     1       8.337  -3.107   0.000  1.00  0.00     0.060 A 
HETATM   47  N5  UNL     1       5.497  -3.921   0.000  1.00  0.00    -0.239 NA
BRANCH  45  48
HETATM   48  C27 UNL     1       7.403  -5.206   0.000  1.00  0.00     0.226 C 
HETATM   49  O5  UNL     1       6.361  -6.285   0.000  1.00  0.00    -0.171 OA
HETATM   50  N6  UNL     1       8.858  -5.569   0.000  1.00  0.00    -0.119 NA
BRANCH  50  51
HETATM   51  S1  UNL     1       9.272  -7.011   0.000  1.00  0.00     0.346 S 
HETATM   52  O6  UNL     1      10.713  -6.598   0.000  1.00  0.00    -0.180 OA
HETATM   53  O7  UNL     1       7.830  -7.424   0.000  1.00  0.00    -0.180 OA
BRANCH  51  54
HETATM   54  N7  UNL     1       9.685  -8.453   0.000  1.00  0.00    -0.255 N 
HETATM   55  C28 UNL     1      11.140  -8.816   0.000  1.00  0.00     0.147 A 
HETATM   56  C29 UNL     1      11.554 -10.258   0.000  1.00  0.00     0.167 A 
HETATM   57  O8  UNL     1      10.512 -11.337   0.000  1.00  0.00    -0.350 OA
HETATM   58  C30 UNL     1       9.056 -10.974   0.000  1.00  0.00     0.167 A 
HETATM   59  C31 UNL     1       8.643  -9.532   0.000  1.00  0.00     0.147 A 
ENDBRANCH  51  54
ENDBRANCH  50  51
ENDBRANCH  45  48
ENDBRANCH   7  40
TORSDOF 9
