REMARK  9 active torsions:
REMARK  status: ('A' for Active; 'I' for Inactive)
REMARK    1  A    between atoms: O1_2  and  C2_3 
REMARK    2  A    between atoms: C6_7  and  O2_8 
REMARK    3  A    between atoms: O2_8  and  C7_9 
REMARK    4  A    between atoms: C7_9  and  C8_10 
REMARK    5  A    between atoms: C12_17  and  C23_30 
REMARK       I    between atoms: C23_30  and  N4_32 
REMARK    6  A    between atoms: N4_32  and  S1_33 
REMARK    7  A    between atoms: S1_33  and  C24_36 
REMARK    8  A    between atoms: C29_41  and  C32_46 
REMARK    9  A    between atoms: C33_48  and  C35_51 
ROOT
HETATM    1  C8  UNL     1      -4.053   4.833   0.000  1.00  0.00     0.058 A 
HETATM    2  C9  UNL     1      -5.515   4.499   0.000  1.00  0.00     0.090 A 
HETATM    3  C10 UNL     1      -5.181   3.037   0.000  1.00  0.00     0.092 A 
HETATM    4  N1  UNL     1      -3.719   3.370   0.000  1.00  0.00    -0.276 N 
HETATM    5  C11 UNL     1      -2.257   3.037   0.000  1.00  0.00     0.281 A 
HETATM    6  O3  UNL     1      -1.606   4.388   0.000  1.00  0.00    -0.149 OA
HETATM    7  N2  UNL     1      -1.084   2.102   0.000  1.00  0.00    -0.223 NA
HETATM    8  C12 UNL     1      -0.433   0.750   0.000  1.00  0.00     0.167 A 
HETATM    9  C13 UNL     1       0.866   0.000   0.000  1.00  0.00     0.059 A 
HETATM   10  C14 UNL     1      -0.433  -0.750   0.000  1.00  0.00    -0.014 A 
HETATM   11  C15 UNL     1      -1.084  -2.102   0.000  1.00  0.00    -0.006 A 
HETATM   12  C16 UNL     1      -2.257  -3.037   0.000  1.00  0.00    -0.001 A 
HETATM   13  C17 UNL     1      -3.719  -3.370   0.000  1.00  0.00     0.000 A 
HETATM   14  C18 UNL     1      -5.181  -3.037   0.000  1.00  0.00     0.002 A 
HETATM   15  C19 UNL     1      -6.354  -2.102   0.000  1.00  0.00     0.019 A 
HETATM   16  C20 UNL     1      -7.005  -0.750   0.000  1.00  0.00     0.078 A 
HETATM   17  N3  UNL     1      -7.005   0.750   0.000  1.00  0.00    -0.303 N 
HETATM   18  C21 UNL     1      -8.467   1.084   0.000  1.00  0.00     0.133 C 
HETATM   19  C22 UNL     1      -6.354   2.102   0.000  1.00  0.00     0.207 A 
HETATM   20  O4  UNL     1      -7.527   3.037   0.000  1.00  0.00    -0.170 OA
ENDROOT
BRANCH   1  21
HETATM   21  C7  UNL     1      -3.255   6.103   0.000  1.00  0.00     0.188 C 
BRANCH  21  22
HETATM   22  O2  UNL     1      -3.956   7.429   0.000  1.00  0.00    -0.329 OA
BRANCH  22  23
HETATM   23  C6  UNL     1      -3.158   8.699   0.000  1.00  0.00     0.076 A 
HETATM   24  C5  UNL     1      -3.858  10.025   0.000  1.00  0.00     0.015 A 
HETATM   25  C4  UNL     1      -5.357  10.082   0.000  1.00  0.00     0.036 A 
HETATM   26  C30 UNL     1      -3.060  11.296   0.000  1.00  0.00     0.091 A 
HETATM   27  C3  UNL     1      -6.058  11.408   0.000  1.00  0.00     0.057 A 
HETATM   28  C2  UNL     1      -5.260  12.678   0.000  1.00  0.00     0.084 A 
HETATM   29  C31 UNL     1      -3.761  12.622   0.000  1.00  0.00     0.093 A 
HETATM   30 CL1  UNL     1      -2.963  13.892   0.000  1.00  0.00    -0.079 Cl
HETATM   31  N5  UNL     1      -1.562  11.239   0.000  1.00  0.00    -0.247 NA
HETATM   32  C29 UNL     1      -0.861   9.913   0.000  1.00  0.00     0.089 A 
HETATM   33  C28 UNL     1      -1.659   8.643   0.000  1.00  0.00     0.099 A 
BRANCH  28  34
HETATM   34  O1  UNL     1      -5.961  14.004   0.000  1.00  0.00    -0.332 OA
HETATM   35  C1  UNL     1      -5.163  15.274   0.000  1.00  0.00     0.181 C 
ENDBRANCH  28  34
BRANCH  32  36
HETATM   36  C32 UNL     1       0.638   9.857   0.000  1.00  0.00     0.120 A 
HETATM   37  N6  UNL     1       1.565  11.037   0.000  1.00  0.00    -0.242 NA
HETATM   38  C33 UNL     1       2.973  10.520   0.000  1.00  0.00     0.063 A 
HETATM   39  C34 UNL     1       2.917   9.021   0.000  1.00  0.00     0.109 A 
HETATM   40  S2  UNL     1       1.474   8.611   0.000  1.00  0.00    -0.087 SA
BRANCH  38  41
HETATM   41  C35 UNL     1       4.219  11.356   0.000  1.00  0.00    -0.029 C 
HETATM   42  C36 UNL     1       5.565  10.695   0.000  1.00  0.00     0.028 C 
HETATM   43  C37 UNL     1       4.118  12.853   0.000  1.00  0.00     0.028 C 
ENDBRANCH  38  41
ENDBRANCH  32  36
ENDBRANCH  22  23
ENDBRANCH  21  22
ENDBRANCH   1  21
BRANCH   8  44
HETATM   44  C23 UNL     1       0.667   1.770   0.000  1.00  0.00     0.224 C 
HETATM   45  O5  UNL     1       0.333   3.233   0.000  1.00  0.00    -0.171 OA
HETATM   46  N4  UNL     1       2.100   1.328   0.000  1.00  0.00    -0.137 NA
BRANCH  46  47
HETATM   47  S1  UNL     1       3.200   2.348   0.000  1.00  0.00     0.264 S 
HETATM   48  O6  UNL     1       2.179   3.448   0.000  1.00  0.00    -0.203 OA
HETATM   49  O7  UNL     1       4.220   1.249   0.000  1.00  0.00    -0.203 OA
BRANCH  47  50
HETATM   50  C24 UNL     1       4.299   3.369   0.000  1.00  0.00     0.115 A 
HETATM   51  C25 UNL     1       3.485   4.629   0.000  1.00  0.00     0.018 C 
HETATM   52  C26 UNL     1       5.681   3.951   0.000  1.00  0.00     0.018 A 
HETATM   53  C27 UNL     1       5.495   2.463   0.000  1.00  0.00     0.018 A 
ENDBRANCH  47  50
ENDBRANCH  46  47
ENDBRANCH   8  44
TORSDOF 9
