REMARK WARNING: 32 MAX_TORS EXCEEDED!!!
REMARK  72 active torsions:
REMARK  status: ('A' for Active; 'I' for Inactive)
REMARK    1  A    between atoms: C1_1  and  C5_6 
REMARK    2  A    between atoms: C2_2  and  C5_6 
REMARK    3  A    between atoms: C2_2  and  C17_23 
REMARK    4  A    between atoms: C2_2  and  C20_27 
REMARK    5  A    between atoms: C3_3  and  C4_5 
REMARK    6  A    between atoms: N1_4  and  C4_5 
REMARK    7  A    between atoms: N1_4  and  C10_11 
REMARK    8  A    between atoms: N1_4  and  CL1_36 
REMARK    9  A    between atoms: C4_5  and  C5_6 
REMARK   10  A    between atoms: C4_5  and  C6_7 
REMARK   11  A    between atoms: C4_5  and  C7_8 
REMARK   12  A    between atoms: C4_5  and  C8_9 
REMARK   13  A    between atoms: C4_5  and  O2_22 
REMARK   14  A    between atoms: C5_6  and  C8_9 
REMARK   15  A    between atoms: C5_6  and  C9_10 
REMARK   16  A    between atoms: C6_7  and  C9_10 
REMARK   17  A    between atoms: C7_8  and  C9_10 
REMARK   18  A    between atoms: C7_8  and  CL1_36 
REMARK   19  A    between atoms: C8_9  and  C9_10 
REMARK   20  A    between atoms: C8_9  and  O1_16 
REMARK   21  A    between atoms: C8_9  and  C13_17 
REMARK   22  A    between atoms: C10_11  and  S1_14 
REMARK   23  A    between atoms: N2_12  and  C12_15 
REMARK   24  A    between atoms: N2_12  and  C16_21 
REMARK   25  A    between atoms: C11_13  and  C12_15 
REMARK   26  A    between atoms: C11_13  and  C16_21 
REMARK   27  A    between atoms: S1_14  and  C12_15 
REMARK   28  A    between atoms: S1_14  and  N3_18 
REMARK   29  A    between atoms: O1_16  and  CL1_36 
REMARK   30  A    between atoms: C13_17  and  C45_62 
REMARK   31  A    between atoms: C15_20  and  C16_21 
REMARK   32  A    between atoms: C16_21  and  O4_35 
REMARK   33  A    between atoms: C16_21  and  O8_49 
REMARK   34  A    between atoms: C17_23  and  C19_26 
REMARK   35  A    between atoms: C18_24  and  C20_27 
REMARK   36  A    between atoms: C18_24  and  N5_31 
REMARK   37  A    between atoms: N4_25  and  C20_27 
REMARK   38  A    between atoms: C19_26  and  C20_27 
REMARK   39  A    between atoms: C19_26  and  C21_28 
REMARK   40  A    between atoms: C20_27  and  C24_33 
REMARK   41  A    between atoms: C21_28  and  C26_38 
REMARK   42  A    between atoms: C22_29  and  O3_30 
REMARK   43  A    between atoms: O3_30  and  N6_34 
REMARK   44  A    between atoms: O3_30  and  C26_38 
REMARK   45  A    between atoms: N5_31  and  C23_32 
REMARK   46  A    between atoms: C24_33  and  C33_47 
REMARK   47  A    between atoms: C24_33  and  O8_49 
REMARK   48  A    between atoms: N6_34  and  O4_35 
REMARK   49  A    between atoms: O4_35  and  C33_47 
REMARK   50  A    between atoms: O4_35  and  O8_49 
REMARK   51  A    between atoms: C25_37  and  C26_38 
REMARK   52  A    between atoms: C25_37  and  C27_39 
REMARK   53  A    between atoms: C25_37  and  C28_40 
REMARK   54  A    between atoms: C25_37  and  O6_42 
REMARK   55  A    between atoms: C26_38  and  C27_39 
REMARK   56  A    between atoms: C26_38  and  C35_51 
REMARK   57  A    between atoms: O6_42  and  C37_53 
REMARK   58  A    between atoms: C31_45  and  C33_47 
REMARK   59  A    between atoms: C32_46  and  C33_47 
REMARK   60  A    between atoms: C32_46  and  O7_48 
REMARK   61  A    between atoms: C32_46  and  C34_50 
REMARK   62  A    between atoms: C36_52  and  C37_53 
REMARK   63  A    between atoms: C36_52  and  C38_54 
REMARK   64  A    between atoms: C36_52  and  C40_56 
REMARK   65  A    between atoms: C37_53  and  C39_55 
REMARK   66  A    between atoms: C38_54  and  C39_55 
REMARK   67  A    between atoms: C39_55  and  C40_56 
REMARK   68  A    between atoms: N7_58  and  C44_61 
REMARK   69  A    between atoms: C42_59  and  C45_62 
REMARK   70  A    between atoms: C43_60  and  C45_62 
REMARK   71  A    between atoms: C44_61  and  C45_62 
REMARK   72  A    between atoms: C44_61  and  O9_63 
ROOT
HETATM    1  C1  UNL     1       2.925  -0.699   0.000  1.00  0.00     0.016 A 
HETATM    2  C2  UNL     1       3.641  -0.285   0.000  1.00  0.00     0.018 A 
HETATM    3  C3  UNL     1       3.638   0.545   0.000  1.00  0.00     0.027 A 
HETATM    4  N1  UNL     1       2.923   0.955   0.000  1.00  0.00     0.000 N 
HETATM    5  C4  UNL     1       2.210  -0.286   0.000  1.00  0.00     0.029 A 
HETATM    6  C5  UNL     1       2.212   0.540   0.000  1.00  0.00     0.031 A 
HETATM    7  C6  UNL     1       1.500   0.953   0.000  1.00  0.00     0.044 A 
HETATM    8  C7  UNL     1       0.784   0.541   0.000  1.00  0.00     0.038 A 
HETATM    9  C8  UNL     1       0.786  -0.287   0.000  1.00  0.00     0.030 A 
HETATM   10  C9  UNL     1       1.499  -0.697   0.000  1.00  0.00     0.030 A 
HETATM   11  C10 UNL     1       4.349   0.959   0.000  1.00  0.00     0.042 A 
HETATM   12  N2  UNL     1       5.126   0.682   0.000  1.00  0.00     0.000 N 
HETATM   13  C11 UNL     1       5.630   1.335   0.000  1.00  0.00     0.040 A 
HETATM   14  S1  UNL     1       5.164   2.016   0.000  1.00  0.00    -0.181 SA
HETATM   15  C12 UNL     1       4.373   1.784   0.000  1.00  0.00     0.048 A 
HETATM   16  O1  UNL     1       0.070   0.954   0.000  1.00  0.00     0.000 OA
HETATM   17  C13 UNL     1      -0.645   0.541   0.000  1.00  0.00     0.013 A 
HETATM   18  N3  UNL     1       6.455   1.312   0.000  1.00  0.00     0.000 N 
HETATM   19  C14 UNL     1       6.847   0.586   0.000  1.00  0.00     0.010 A 
HETATM   20  C15 UNL     1       7.671   0.562   0.000  1.00  0.00     0.002 A 
HETATM   21  C16 UNL     1       6.414  -0.117   0.000  1.00  0.00     0.010 A 
HETATM   22  O2  UNL     1       2.925  -1.524   0.000  1.00  0.00     0.000 OA
HETATM   23  C17 UNL     1       3.639  -1.936   0.000  1.00  0.00     0.003 A 
HETATM   24  C18 UNL     1       3.647  -2.764   0.000  1.00  0.00     0.000 A 
HETATM   25  N4  UNL     1       4.434  -3.010   0.000  1.00  0.00     0.000 N 
HETATM   26  C19 UNL     1       4.912  -2.337   0.000  1.00  0.00     0.000 A 
HETATM   27  C20 UNL     1       4.419  -1.675   0.000  1.00  0.00     0.002 A 
HETATM   28  C21 UNL     1       4.699  -3.792   0.000  1.00  0.00     0.000 A 
HETATM   29  C22 UNL     1       4.154  -4.411   0.000  1.00  0.00     0.000 A 
HETATM   30  O3  UNL     1       5.508  -3.954   0.000  1.00  0.00     0.000 OA
HETATM   31  N5  UNL     1       3.345  -4.249   0.000  1.00  0.00     0.000 N 
HETATM   32  C23 UNL     1       4.418  -5.193   0.000  1.00  0.00     0.000 A 
HETATM   33  C24 UNL     1       5.737  -2.327   0.000  1.00  0.00     0.000 A 
HETATM   34  N6  UNL     1       6.157  -3.037   0.000  1.00  0.00     0.000 N 
HETATM   35  O4  UNL     1       6.141  -1.608   0.000  1.00  0.00     0.000 OA
HETATM   36 CL1  UNL     1       1.501   1.778   0.000  1.00  0.00    -0.254 Cl
HETATM   37  C25 UNL     1       3.873  -5.812   0.000  1.00  0.00     0.000 A 
HETATM   38  C26 UNL     1       5.227  -5.355   0.000  1.00  0.00     0.000 A 
HETATM   39  C27 UNL     1       4.629  -5.987   0.000  1.00  0.00     0.000 A 
HETATM   40  C28 UNL     1       2.731  -4.800   0.000  1.00  0.00     0.000 A 
HETATM   41  O5  UNL     1       1.946  -4.544   0.000  1.00  0.00     0.000 OA
HETATM   42  O6  UNL     1       2.901  -5.608   0.000  1.00  0.00     0.000 OA
HETATM   43  C29 UNL     1       1.332  -5.095   0.000  1.00  0.00     0.000 A 
HETATM   44  C30 UNL     1       6.983  -3.027   0.000  1.00  0.00     0.000 A 
HETATM   45  C31 UNL     1       7.397  -3.736   0.000  1.00  0.00     0.000 A 
HETATM   46  C32 UNL     1       7.806  -3.020   0.000  1.00  0.00     0.000 A 
HETATM   47  C33 UNL     1       7.192  -2.225   0.000  1.00  0.00     0.000 A 
HETATM   48  O7  UNL     1       7.987  -2.006   0.000  1.00  0.00     0.000 OA
HETATM   49  O8  UNL     1       6.604  -1.645   0.000  1.00  0.00     0.000 OA
HETATM   50  C34 UNL     1       7.401  -4.561   0.000  1.00  0.00     0.000 A 
HETATM   51  C35 UNL     1       6.689  -4.978   0.000  1.00  0.00     0.000 A 
HETATM   52  C36 UNL     1       0.528  -4.927   0.000  1.00  0.00     0.000 A 
HETATM   53  C37 UNL     1       1.420  -5.920   0.000  1.00  0.00     0.000 A 
HETATM   54  C38 UNL     1       0.665  -6.254   0.000  1.00  0.00     0.000 A 
HETATM   55  C39 UNL     1       0.113  -5.644   0.000  1.00  0.00     0.000 A 
HETATM   56  C40 UNL     1      -0.139  -6.427   0.000  1.00  0.00     0.000 A 
HETATM   57  C41 UNL     1      -1.359   0.954   0.000  1.00  0.00     0.001 A 
HETATM   58  N7  UNL     1      -2.074   0.541   0.000  1.00  0.00     0.000 N 
HETATM   59  C42 UNL     1      -2.850   0.829   0.000  1.00  0.00     0.000 A 
HETATM   60  C43 UNL     1      -3.359   0.179   0.000  1.00  0.00     0.000 A 
HETATM   61  C44 UNL     1      -2.898  -0.505   0.000  1.00  0.00     0.000 A 
HETATM   62  C45 UNL     1      -2.105  -0.279   0.000  1.00  0.00     0.001 A 
HETATM   63  O9  UNL     1      -4.184   0.209   0.000  1.00  0.00     0.000 OA
HETATM   64  C46 UNL     1      -4.621  -0.491   0.000  1.00  0.00     0.000 A 
ENDROOT
TORSDOF 72
