REMARK  0 active torsions:
REMARK  status: ('A' for Active; 'I' for Inactive)
ROOT
HETATM    1  C1  UNL     1       7.188  -8.588   0.000  1.00  0.00     0.052 A 
HETATM    2  C2  UNL     1       6.306  -9.801   0.000  1.00  0.00     0.123 A 
HETATM    3  C3  UNL     1       4.814  -9.645   0.000  1.00  0.00     0.156 A 
HETATM    4  N1  UNL     1       6.916 -11.172   0.000  1.00  0.00    -0.311 N 
HETATM    5  C4  UNL     1       8.408 -11.329   0.000  1.00  0.00     0.035 A 
HETATM    6  C5  UNL     1       9.018 -12.699   0.000  1.00  0.00     0.044 A 
HETATM    7  C6  UNL     1       8.136 -13.912   0.000  1.00  0.00     0.012 A 
HETATM    8  C7  UNL     1       6.645 -13.756   0.000  1.00  0.00     0.042 A 
HETATM    9  C8  UNL     1       6.035 -12.385   0.000  1.00  0.00     0.039 A 
HETATM   10  C9  UNL     1       4.543 -12.229   0.000  1.00  0.00     0.116 A 
HETATM   11  O1  UNL     1       3.661 -13.442   0.000  1.00  0.00     0.000 OA
HETATM   12  N2  UNL     1       3.933 -10.858   0.000  1.00  0.00    -0.344 N 
HETATM   13  C10 UNL     1       2.441 -10.701   0.000  1.00  0.00     0.033 A 
HETATM   14  C11 UNL     1       1.831  -9.331   0.000  1.00  0.00     0.139 A 
HETATM   15  O2  UNL     1       0.339  -9.174   0.000  1.00  0.00     0.000 OA
HETATM   16  N3  UNL     1       2.712  -8.117   0.000  1.00  0.00    -0.267 NA
HETATM   17  C12 UNL     1       2.102  -6.747   0.000  1.00  0.00     0.100 A 
HETATM   18  C13 UNL     1       2.984  -5.534   0.000  1.00  0.00     0.211 A 
HETATM   19  O3  UNL     1       4.476  -5.691   0.000  1.00  0.00    -0.169 OA
HETATM   20  N4  UNL     1       2.374  -4.163   0.000  1.00  0.00    -0.289 N 
HETATM   21  C14 UNL     1       0.907  -3.852   0.000  1.00  0.00     0.039 A 
HETATM   22  C15 UNL     1       0.750  -2.360   0.000  1.00  0.00     0.039 A 
HETATM   23  C16 UNL     1       2.120  -1.750   0.000  1.00  0.00     0.053 A 
HETATM   24  C17 UNL     1       3.124  -2.864   0.000  1.00  0.00     0.084 A 
HETATM   25  C18 UNL     1       4.616  -2.708   0.000  1.00  0.00     0.191 A 
HETATM   26  O4  UNL     1       5.226  -1.337   0.000  1.00  0.00    -0.294 OA
HETATM   27  N5  UNL     1       5.497  -3.921   0.000  1.00  0.00    -0.239 NA
HETATM   28  C19 UNL     1       6.989  -3.764   0.000  1.00  0.00     0.167 A 
HETATM   29  C20 UNL     1       8.337  -3.107   0.000  1.00  0.00     0.060 A 
HETATM   30  C21 UNL     1       7.094  -2.268   0.000  1.00  0.00     0.005 A 
HETATM   31  C22 UNL     1       6.436  -0.920   0.000  1.00  0.00     0.074 A 
HETATM   32  C23 UNL     1       7.275   0.324   0.000  1.00  0.00     0.058 C 
HETATM   33  C24 UNL     1       7.403  -5.206   0.000  1.00  0.00     0.225 A 
HETATM   34  O5  UNL     1       6.361  -6.285   0.000  1.00  0.00    -0.171 OA
HETATM   35  N6  UNL     1       8.858  -5.569   0.000  1.00  0.00    -0.131 NA
HETATM   36  S1  UNL     1       9.272  -7.011   0.000  1.00  0.00     0.275 S 
HETATM   37  O6  UNL     1      10.713  -6.598   0.000  1.00  0.00    -0.195 OA
HETATM   38  O7  UNL     1       7.830  -7.424   0.000  1.00  0.00    -0.184 OA
HETATM   39  N7  UNL     1       9.685  -8.453   0.000  1.00  0.00    -0.267 N 
HETATM   40  C25 UNL     1       8.762  -9.635   0.000  1.00  0.00     0.137 A 
HETATM   41  C26 UNL     1       9.600 -10.878   0.000  1.00  0.00    -0.007 A 
HETATM   42  C27 UNL     1      11.042 -10.465   0.000  1.00  0.00     0.050 A 
HETATM   43  C28 UNL     1      11.095  -8.966   0.000  1.00  0.00     0.118 A 
HETATM   44  C29 UNL     1      -0.750  -2.360   0.000  1.00  0.00     0.005 A 
HETATM   45  C30 UNL     1      -1.010  -3.837   0.000  1.00  0.00     0.000 C 
HETATM   46  C31 UNL     1      -2.159  -1.847   0.000  1.00  0.00     0.000 C 
HETATM   47  C32 UNL     1      -0.000  -1.061   0.000  1.00  0.00     0.005 A 
HETATM   48  C33 UNL     1       1.061  -0.000   0.000  1.00  0.00     0.000 A 
HETATM   49  C34 UNL     1      -0.000   1.061   0.000  1.00  0.00     0.000 A 
HETATM   50  C35 UNL     1      -1.061  -0.000   0.000  1.00  0.00     0.000 A 
HETATM   51  C36 UNL     1       0.611  -6.590   0.000  1.00  0.00     0.065 A 
HETATM   52  C37 UNL     1       1.024  -5.149   0.000  1.00  0.00    -0.008 A 
HETATM   53  C38 UNL     1       0.715  -8.087   0.000  1.00  0.00     0.067 A 
HETATM   54  C39 UNL     1      -0.528  -8.925   0.000  1.00  0.00     0.145 A 
HETATM   55  O8  UNL     1      -1.877  -8.268   0.000  1.00  0.00    -0.354 OA
HETATM   56  C40 UNL     1      -1.981  -6.772   0.000  1.00  0.00     0.143 A 
HETATM   57  C41 UNL     1      -0.738  -5.933   0.000  1.00  0.00     0.042 A 
HETATM   58  C42 UNL     1       1.559 -11.915   0.000  1.00  0.00     0.033 A 
HETATM   59  C43 UNL     1       0.517 -10.836   0.000  1.00  0.00     0.006 C 
HETATM   60  C44 UNL     1       2.908 -12.572   0.000  1.00  0.00     0.031 A 
HETATM   61  C45 UNL     1       3.012 -14.069   0.000  1.00  0.00     0.003 A 
HETATM   62  C46 UNL     1       1.769 -14.908   0.000  1.00  0.00     0.000 A 
HETATM   63  C47 UNL     1       0.420 -14.250   0.000  1.00  0.00     0.000 A 
HETATM   64  C48 UNL     1       0.316 -12.754   0.000  1.00  0.00     0.005 A 
ENDROOT
TORSDOF 0
