REMARK  7 active torsions:
REMARK  status: ('A' for Active; 'I' for Inactive)
REMARK    1  A    between atoms: O1_2  and  C2_3 
REMARK    2  A    between atoms: C4_5  and  O2_6 
REMARK    3  A    between atoms: O2_6  and  C5_7 
REMARK    4  A    between atoms: C24_34  and  C25_36 
REMARK    5  A    between atoms: C26_38  and  O9_40 
REMARK    6  A    between atoms: O9_40  and  C27_41 
REMARK    7  A    between atoms: C35_50  and  C36_52 
ROOT
HETATM    1  C5  UNL     1      -2.807  -8.877   0.000  1.00  0.00     0.143 A 
HETATM    2  C6  UNL     1      -4.234  -8.413   0.000  1.00  0.00     0.088 A 
HETATM    3  C7  UNL     1      -4.545  -6.946   0.000  1.00  0.00     0.084 A 
HETATM    4  C8  UNL     1      -3.431  -5.942   0.000  1.00  0.00     0.038 A 
HETATM    5  C9  UNL     1      -2.681  -7.241   0.000  1.00  0.00     0.009 A 
HETATM    6  C10 UNL     1      -1.467  -8.123   0.000  1.00  0.00     0.005 A 
HETATM    7  C11 UNL     1       0.000  -8.435   0.000  1.00  0.00    -0.002 A 
HETATM    8  C12 UNL     1       1.467  -8.123   0.000  1.00  0.00     0.001 A 
HETATM    9  C13 UNL     1       2.681  -7.241   0.000  1.00  0.00     0.014 A 
HETATM   10  C14 UNL     1       3.431  -5.942   0.000  1.00  0.00     0.118 A 
HETATM   11  S1  UNL     1       3.587  -4.450   0.000  1.00  0.00     0.288 S 
HETATM   12  O3  UNL     1       4.912  -5.155   0.000  1.00  0.00    -0.198 OA
HETATM   13  O4  UNL     1       4.737  -3.486   0.000  1.00  0.00    -0.198 OA
HETATM   14  N1  UNL     1       3.124  -3.024   0.000  1.00  0.00    -0.131 NA
HETATM   15  C15 UNL     1       2.120  -1.909   0.000  1.00  0.00     0.221 A 
HETATM   16  O5  UNL     1       3.002  -0.696   0.000  1.00  0.00    -0.169 OA
HETATM   17  C16 UNL     1       0.750  -1.299   0.000  1.00  0.00     0.036 A 
HETATM   18  C17 UNL     1       1.500   0.000   0.000  1.00  0.00     0.031 A 
HETATM   19  C18 UNL     1       0.750   1.299   0.000  1.00  0.00     0.005 A 
HETATM   20  C19 UNL     1      -0.750   1.299   0.000  1.00  0.00     0.007 A 
HETATM   21  C20 UNL     1      -1.500   0.000   0.000  1.00  0.00     0.046 A 
HETATM   22  C21 UNL     1      -0.750  -1.299   0.000  1.00  0.00     0.061 A 
HETATM   23  N2  UNL     1      -2.120  -1.909   0.000  1.00  0.00    -0.223 NA
HETATM   24  C22 UNL     1      -3.124  -3.024   0.000  1.00  0.00     0.230 A 
HETATM   25  O6  UNL     1      -4.423  -2.274   0.000  1.00  0.00    -0.168 OA
HETATM   26  C23 UNL     1      -3.587  -4.450   0.000  1.00  0.00     0.128 A 
HETATM   27  N3  UNL     1      -5.079  -4.294   0.000  1.00  0.00    -0.217 NA
HETATM   28  C24 UNL     1      -5.961  -5.507   0.000  1.00  0.00     0.197 A 
HETATM   29  O7  UNL     1      -5.351  -6.878   0.000  1.00  0.00    -0.293 OA
ENDROOT
BRANCH   1  30
HETATM   30  O2  UNL     1      -2.495 -10.344   0.000  1.00  0.00    -0.314 OA
BRANCH  30  31
HETATM   31  C4  UNL     1      -3.610 -11.348   0.000  1.00  0.00     0.164 A 
HETATM   32  C3  UNL     1      -5.036 -10.884   0.000  1.00  0.00     0.142 A 
HETATM   33  C2  UNL     1      -6.151 -11.888   0.000  1.00  0.00     0.164 A 
HETATM   34  N6  UNL     1      -5.839 -13.355   0.000  1.00  0.00    -0.208 NA
HETATM   35  C35 UNL     1      -4.413 -13.819   0.000  1.00  0.00     0.158 A 
HETATM   36  N5  UNL     1      -3.298 -12.815   0.000  1.00  0.00    -0.208 NA
BRANCH  33  37
HETATM   37  O1  UNL     1      -7.578 -11.424   0.000  1.00  0.00    -0.315 OA
HETATM   38  C1  UNL     1      -7.890  -9.957   0.000  1.00  0.00     0.183 C 
ENDBRANCH  33  37
BRANCH  35  39
HETATM   39  C36 UNL     1      -4.101 -15.286   0.000  1.00  0.00    -0.008 A 
HETATM   40  C37 UNL     1      -5.216 -16.289   0.000  1.00  0.00     0.025 A 
HETATM   41  C38 UNL     1      -4.904 -17.757   0.000  1.00  0.00     0.004 A 
HETATM   42  C39 UNL     1      -3.477 -18.220   0.000  1.00  0.00     0.001 A 
HETATM   43  C40 UNL     1      -2.362 -17.216   0.000  1.00  0.00     0.004 A 
HETATM   44  C41 UNL     1      -2.674 -15.749   0.000  1.00  0.00     0.025 A 
ENDBRANCH  35  39
ENDBRANCH  30  31
ENDBRANCH   1  30
BRANCH  28  45
HETATM   45  C25 UNL     1      -7.453  -5.350   0.000  1.00  0.00     0.116 A 
HETATM   46  N4  UNL     1      -8.063  -3.980   0.000  1.00  0.00    -0.200 NA
HETATM   47  C26 UNL     1      -9.555  -3.823   0.000  1.00  0.00     0.301 A 
HETATM   48  O8  UNL     1     -10.436  -5.037   0.000  1.00  0.00    -0.231 OA
HETATM   49  C32 UNL     1      -9.548  -5.682   0.000  1.00  0.00     0.003 A 
HETATM   50  C31 UNL     1      -8.335  -6.564   0.000  1.00  0.00     0.108 A 
HETATM   51  C33 UNL     1      -7.121  -7.446   0.000  1.00  0.00     0.021 C 
HETATM   52  C34 UNL     1      -9.216  -7.777   0.000  1.00  0.00     0.021 C 
BRANCH  47  53
HETATM   53  O9  UNL     1     -10.165  -2.453   0.000  1.00  0.00    -0.300 OA
BRANCH  53  54
HETATM   54  C27 UNL     1     -11.657  -2.296   0.000  1.00  0.00     0.102 C 
HETATM   55  C28 UNL     1     -11.500  -0.804   0.000  1.00  0.00     0.030 C 
HETATM   56  C29 UNL     1     -11.813  -3.788   0.000  1.00  0.00     0.030 C 
HETATM   57  C30 UNL     1     -13.148  -2.139   0.000  1.00  0.00     0.030 C 
ENDBRANCH  53  54
ENDBRANCH  47  53
ENDBRANCH  28  45
TORSDOF 7
