REMARK  21 active torsions:
REMARK  status: ('A' for Active; 'I' for Inactive)
REMARK    1  A    between atoms: C5_5  and  N1_6 
REMARK       I    between atoms: N1_6  and  C6_7 
REMARK    2  A    between atoms: C6_7  and  C7_9 
REMARK    3  A    between atoms: C7_9  and  N2_10 
REMARK    4  A    between atoms: C7_9  and  C31_47 
REMARK       I    between atoms: N2_10  and  C8_11 
REMARK    5  A    between atoms: C8_11  and  C9_13 
REMARK    6  A    between atoms: C9_13  and  C10_14 
REMARK    7  A    between atoms: C9_13  and  N3_22 
REMARK    8  A    between atoms: C10_14  and  C11_15 
REMARK       I    between atoms: N3_22  and  C18_23 
REMARK    9  A    between atoms: C18_23  and  C19_25 
REMARK   10  A    between atoms: C21_27  and  C22_28 
REMARK   11  A    between atoms: C23_32  and  C24_34 
REMARK   12  A    between atoms: C24_34  and  C25_35 
REMARK   13  A    between atoms: C24_34  and  N5_39 
REMARK   14  A    between atoms: C25_35  and  C26_36 
REMARK       I    between atoms: N5_39  and  C27_40 
REMARK   15  A    between atoms: C27_40  and  C28_42 
REMARK   16  A    between atoms: C28_42  and  C29_43 
REMARK   17  A    between atoms: C29_43  and  C30_44 
REMARK   18  A    between atoms: C36_54  and  C39_60 
REMARK   19  A    between atoms: C39_60  and  C40_62 
REMARK       I    between atoms: C40_62  and  N7_64 
REMARK   20  A    between atoms: N7_64  and  C41_65 
REMARK   21  A    between atoms: C41_65  and  C42_66 
ROOT
HETATM    1  N2  UNL     1       5.250  -3.897   0.000  1.00  0.00    -0.220 NA
HETATM    2  C8  UNL     1       3.750  -3.897   0.000  1.00  0.00     0.227 C 
HETATM    3  O2  UNL     1       3.000  -5.196   0.000  1.00  0.00    -0.168 OA
ENDROOT
BRANCH   1   4
HETATM    4  C7  UNL     1       6.000  -5.196   0.000  1.00  0.00     0.104 C 
BRANCH   4   5
HETATM    5  C6  UNL     1       5.250  -6.495   0.000  1.00  0.00     0.226 C 
HETATM    6  N1  UNL     1       6.000  -7.794   0.000  1.00  0.00    -0.220 NA
HETATM    7  O1  UNL     1       3.750  -6.495   0.000  1.00  0.00    -0.168 OA
BRANCH   6   8
HETATM    8  C5  UNL     1       5.250  -9.093   0.000  1.00  0.00     0.108 A 
HETATM    9  C4  UNL     1       6.000 -10.392   0.000  1.00  0.00     0.075 A 
HETATM   10  C2  UNL     1       5.250 -11.691   0.000  1.00  0.00     0.004 A 
HETATM   11  C1  UNL     1       6.000 -12.990   0.000  1.00  0.00     0.031 C 
HETATM   12  C3  UNL     1       3.750 -11.691   0.000  1.00  0.00     0.168 A 
HETATM   13  N6  UNL     1       3.000 -10.392   0.000  1.00  0.00    -0.266 N 
HETATM   14  F3  UNL     1       2.799 -12.240   0.000  1.00  0.00    -0.288 F 
HETATM   15  C35 UNL     1       3.750  -9.093   0.000  1.00  0.00     0.214 A 
HETATM   16  C36 UNL     1       1.500 -10.392   0.000  1.00  0.00     0.083 A 
HETATM   17  O12 UNL     1       3.000  -7.794   0.000  1.00  0.00    -0.169 OA
HETATM   18  C37 UNL     1       0.750 -11.691   0.000  1.00  0.00     0.148 A 
HETATM   19  C38 UNL     1       1.500 -12.990   0.000  1.00  0.00     0.383 A 
HETATM   20  F1  UNL     1       2.250 -14.289   0.000  1.00  0.00    -0.172 F 
HETATM   21  F2  UNL     1       0.201 -13.740   0.000  1.00  0.00    -0.172 F 
BRANCH  16  22
HETATM   22  C39 UNL     1       0.750  -9.093   0.000  1.00  0.00     0.186 C 
HETATM   23  O13 UNL     1       1.500  -7.794   0.000  1.00  0.00    -0.185 OA
BRANCH  22  24
HETATM   24  C40 UNL     1      -0.750  -9.093   0.000  1.00  0.00     0.235 C 
HETATM   25  O14 UNL     1      -1.500 -10.392   0.000  1.00  0.00    -0.167 OA
HETATM   26  N7  UNL     1      -1.500  -7.794   0.000  1.00  0.00    -0.244 NA
BRANCH  26  27
HETATM   27  C41 UNL     1      -3.000  -7.794   0.000  1.00  0.00     0.128 C 
BRANCH  27  28
HETATM   28  C42 UNL     1      -3.750  -6.495   0.000  1.00  0.00     0.025 A 
HETATM   29  C43 UNL     1      -3.000  -5.196   0.000  1.00  0.00     0.005 A 
HETATM   30  C44 UNL     1      -3.750  -3.897   0.000  1.00  0.00     0.033 A 
HETATM   31  C45 UNL     1      -5.250  -3.897   0.000  1.00  0.00     0.152 A 
HETATM   32  O15 UNL     1      -6.000  -2.598   0.000  1.00  0.00    -0.224 OA
HETATM   33  C46 UNL     1      -6.000  -5.196   0.000  1.00  0.00     0.033 A 
HETATM   34  C47 UNL     1      -5.250  -6.495   0.000  1.00  0.00     0.005 A 
ENDBRANCH  27  28
ENDBRANCH  26  27
ENDBRANCH  22  24
ENDBRANCH  16  22
ENDBRANCH   6   8
ENDBRANCH   4   5
BRANCH   4  35
HETATM   35  C31 UNL     1       7.500  -5.196   0.000  1.00  0.00     0.039 C 
HETATM   36  C32 UNL     1       7.500  -6.696   0.000  1.00  0.00     0.006 C 
HETATM   37  C33 UNL     1       7.500  -3.696   0.000  1.00  0.00     0.006 C 
HETATM   38  C34 UNL     1       9.000  -5.196   0.000  1.00  0.00     0.006 C 
ENDBRANCH   4  35
ENDBRANCH   1   4
BRANCH   2  39
HETATM   39  C9  UNL     1       3.000  -2.598   0.000  1.00  0.00     0.109 C 
BRANCH  39  40
HETATM   40  C10 UNL     1       1.500  -2.598   0.000  1.00  0.00     0.071 C 
BRANCH  40  41
HETATM   41  C11 UNL     1       0.750  -1.299   0.000  1.00  0.00    -0.046 A 
HETATM   42  C12 UNL     1       1.500   0.000   0.000  1.00  0.00     0.022 A 
HETATM   43  C13 UNL     1       0.750   1.299   0.000  1.00  0.00     0.005 A 
HETATM   44  C14 UNL     1      -0.750   1.299   0.000  1.00  0.00     0.005 A 
HETATM   45  C15 UNL     1      -1.500   0.000   0.000  1.00  0.00     0.021 A 
HETATM   46  C16 UNL     1      -0.750  -1.299   0.000  1.00  0.00    -0.051 A 
HETATM   47  C17 UNL     1      -1.500  -2.598   0.000  1.00  0.00     0.026 C 
ENDBRANCH  40  41
ENDBRANCH  39  40
BRANCH  39  48
HETATM   48  N3  UNL     1       3.750  -1.299   0.000  1.00  0.00    -0.219 NA
HETATM   49  C18 UNL     1       5.250  -1.299   0.000  1.00  0.00     0.226 C 
HETATM   50  O3  UNL     1       6.000  -2.598   0.000  1.00  0.00    -0.168 OA
BRANCH  49  51
HETATM   51  C19 UNL     1       6.000  -0.000   0.000  1.00  0.00     0.108 A 
HETATM   52  C20 UNL     1       7.500  -0.000   0.000  1.00  0.00     0.091 A 
HETATM   53  C21 UNL     1       8.250   1.299   0.000  1.00  0.00     0.215 A 
HETATM   54  O6  UNL     1       7.500   2.598   0.000  1.00  0.00    -0.305 OA
HETATM   55  C23 UNL     1       6.000   2.598   0.000  1.00  0.00     0.193 A 
HETATM   56  N4  UNL     1       5.250   1.299   0.000  1.00  0.00    -0.222 NA
BRANCH  53  57
HETATM   57  C22 UNL     1       9.750   1.299   0.000  1.00  0.00     0.215 C 
HETATM   58  O4  UNL     1      10.500  -0.000   0.000  1.00  0.00    -0.646 OA
HETATM   59  O5  UNL     1      10.500   2.598   0.000  1.00  0.00    -0.646 OA
ENDBRANCH  53  57
BRANCH  55  60
HETATM   60  C24 UNL     1       5.250   3.897   0.000  1.00  0.00     0.112 C 
BRANCH  60  61
HETATM   61  C25 UNL     1       6.000   5.196   0.000  1.00  0.00     0.147 C 
BRANCH  61  62
HETATM   62  C26 UNL     1       7.500   5.196   0.000  1.00  0.00     0.192 C 
HETATM   63  O7  UNL     1       8.250   3.897   0.000  1.00  0.00    -0.647 OA
HETATM   64  O8  UNL     1       8.250   6.495   0.000  1.00  0.00    -0.647 OA
ENDBRANCH  61  62
ENDBRANCH  60  61
BRANCH  60  65
HETATM   65  N5  UNL     1       3.750   3.897   0.000  1.00  0.00    -0.224 NA
HETATM   66  C27 UNL     1       3.000   5.196   0.000  1.00  0.00     0.190 C 
HETATM   67  O9  UNL     1       3.750   6.495   0.000  1.00  0.00    -0.174 OA
BRANCH  66  68
HETATM   68  C28 UNL     1       1.500   5.196   0.000  1.00  0.00     0.086 C 
BRANCH  68  69
HETATM   69  C29 UNL     1       0.750   6.495   0.000  1.00  0.00     0.106 C 
BRANCH  69  70
HETATM   70  C30 UNL     1      -0.750   6.495   0.000  1.00  0.00     0.186 C 
HETATM   71  O10 UNL     1      -1.500   5.196   0.000  1.00  0.00    -0.647 OA
HETATM   72  O11 UNL     1      -1.500   7.794   0.000  1.00  0.00    -0.647 OA
ENDBRANCH  69  70
ENDBRANCH  68  69
ENDBRANCH  66  68
ENDBRANCH  60  65
ENDBRANCH  55  60
ENDBRANCH  49  51
ENDBRANCH  39  48
ENDBRANCH   2  39
TORSDOF 21
