REMARK  7 active torsions:
REMARK  status: ('A' for Active; 'I' for Inactive)
REMARK    1  A    between atoms: C2_2  and  N1_3 
REMARK    2  A    between atoms: N1_3  and  C3_4 
REMARK    3  A    between atoms: N1_3  and  S1_6 
REMARK    4  A    between atoms: S1_6  and  N2_9 
REMARK       I    between atoms: N2_9  and  C5_10 
REMARK    5  A    between atoms: C5_10  and  C6_12 
REMARK    6  A    between atoms: C11_18  and  C12_20 
REMARK    7  A    between atoms: C18_29  and  C19_31 
ROOT
HETATM    1  C12 UNL     1       2.374  -4.163   0.000  1.00  0.00     0.085 A 
HETATM    2  C13 UNL     1       0.907  -3.852   0.000  1.00  0.00     0.054 A 
HETATM    3  C14 UNL     1       0.750  -2.360   0.000  1.00  0.00     0.046 A 
HETATM    4  C15 UNL     1       2.120  -1.750   0.000  1.00  0.00     0.074 A 
HETATM    5  N4  UNL     1       3.124  -2.864   0.000  1.00  0.00    -0.283 N 
HETATM    6  C16 UNL     1       4.616  -2.708   0.000  1.00  0.00     0.214 A 
HETATM    7  O5  UNL     1       5.497  -3.921   0.000  1.00  0.00    -0.169 OA
HETATM    8  C17 UNL     1       5.226  -1.337   0.000  1.00  0.00     0.126 A 
HETATM    9  N5  UNL     1       6.718  -1.180   0.000  1.00  0.00    -0.219 NA
HETATM   10  C18 UNL     1       7.328   0.190   0.000  1.00  0.00     0.203 A 
HETATM   11  O6  UNL     1       6.446   1.403   0.000  1.00  0.00    -0.250 OA
HETATM   12  C36 UNL     1       4.344  -0.124   0.000  1.00  0.00     0.155 A 
HETATM   13  C37 UNL     1       5.558   0.758   0.000  1.00  0.00     0.013 A 
HETATM   14  C38 UNL     1       3.131  -1.005   0.000  1.00  0.00    -0.097 A 
HETATM   15  C39 UNL     1       3.462   1.090   0.000  1.00  0.00     0.033 C 
HETATM   16  C40 UNL     1      -0.750  -2.360   0.000  1.00  0.00     0.006 A 
HETATM   17  C41 UNL     1      -1.010  -3.837   0.000  1.00  0.00     0.000 C 
HETATM   18  C42 UNL     1      -2.159  -1.847   0.000  1.00  0.00     0.000 C 
HETATM   19  C43 UNL     1      -0.000  -1.061   0.000  1.00  0.00     0.006 A 
HETATM   20  C44 UNL     1       1.061   0.000   0.000  1.00  0.00     0.000 A 
HETATM   21  C45 UNL     1       0.000   1.061   0.000  1.00  0.00     0.000 A 
HETATM   22  C46 UNL     1      -1.061   0.000   0.000  1.00  0.00     0.000 A 
ENDROOT
BRANCH  10  23
HETATM   23  C19 UNL     1       8.820   0.347   0.000  1.00  0.00     0.075 A 
HETATM   24  N6  UNL     1       9.701  -0.867   0.000  1.00  0.00    -0.341 N 
HETATM   25  C20 UNL     1      11.193  -0.710   0.000  1.00  0.00     0.116 A 
HETATM   26  C27 UNL     1       9.091  -2.237   0.000  1.00  0.00     0.141 A 
HETATM   27  O7  UNL     1      11.803   0.660   0.000  1.00  0.00     0.000 OA
HETATM   28  C21 UNL     1      12.075  -1.924   0.000  1.00  0.00     0.034 A 
HETATM   29  C31 UNL     1      10.673   0.878   0.000  1.00  0.00     0.031 A 
HETATM   30  C32 UNL     1      12.021   1.536   0.000  1.00  0.00     0.003 A 
HETATM   31  C33 UNL     1      12.126   3.032   0.000  1.00  0.00     0.000 A 
HETATM   32  C34 UNL     1      10.883   3.871   0.000  1.00  0.00     0.000 A 
HETATM   33  C35 UNL     1       9.534   3.213   0.000  1.00  0.00     0.006 A 
HETATM   34  C29 UNL     1       9.430   1.717   0.000  1.00  0.00     0.039 A 
HETATM   35  C30 UNL     1       7.974   2.080   0.000  1.00  0.00     0.006 C 
HETATM   36  C22 UNL     1      13.566  -1.767   0.000  1.00  0.00     0.041 A 
HETATM   37  N7  UNL     1      11.465  -3.294   0.000  1.00  0.00    -0.338 N 
HETATM   38  C23 UNL     1      14.448  -2.980   0.000  1.00  0.00     0.008 A 
HETATM   39  C24 UNL     1      13.838  -4.351   0.000  1.00  0.00     0.025 A 
HETATM   40  C25 UNL     1      12.346  -4.507   0.000  1.00  0.00     0.105 A 
HETATM   41  C26 UNL     1       9.973  -3.451   0.000  1.00  0.00     0.037 A 
HETATM   42  C28 UNL     1       9.363  -4.821   0.000  1.00  0.00     0.047 C 
ENDBRANCH  10  23
BRANCH   1  43
HETATM   43  C11 UNL     1       2.984  -5.534   0.000  1.00  0.00     0.191 A 
HETATM   44  N3  UNL     1       2.102  -6.747   0.000  1.00  0.00    -0.239 NA
HETATM   45  C6  UNL     1       2.712  -8.117   0.000  1.00  0.00     0.167 A 
HETATM   46  C7  UNL     1       3.755  -9.197   0.000  1.00  0.00     0.060 A 
HETATM   47  C8  UNL     1       4.168  -7.755   0.000  1.00  0.00     0.005 A 
HETATM   48  C9  UNL     1       5.247  -6.713   0.000  1.00  0.00     0.074 A 
HETATM   49  C10 UNL     1       6.689  -7.126   0.000  1.00  0.00     0.058 C 
HETATM   50  O4  UNL     1       4.476  -5.691   0.000  1.00  0.00    -0.294 OA
BRANCH  45  51
HETATM   51  C5  UNL     1       1.469  -8.956   0.000  1.00  0.00     0.226 C 
HETATM   52  N2  UNL     1       1.574 -10.453   0.000  1.00  0.00    -0.119 NA
HETATM   53  O3  UNL     1       0.121  -8.299   0.000  1.00  0.00    -0.171 OA
BRANCH  52  54
HETATM   54  S1  UNL     1       0.330 -11.291   0.000  1.00  0.00     0.346 S 
HETATM   55  O1  UNL     1       1.169 -12.535   0.000  1.00  0.00    -0.180 OA
HETATM   56  O2  UNL     1      -0.509 -10.048   0.000  1.00  0.00    -0.180 OA
BRANCH  54  57
HETATM   57  N1  UNL     1      -0.913 -12.130   0.000  1.00  0.00    -0.260 N 
BRANCH  57  58
HETATM   58  C2  UNL     1      -2.262 -11.473   0.000  1.00  0.00     0.115 C 
HETATM   59  C1  UNL     1      -3.505 -12.312   0.000  1.00  0.00     0.027 C 
ENDBRANCH  57  58
BRANCH  57  60
HETATM   60  C3  UNL     1      -0.809 -13.627   0.000  1.00  0.00     0.115 C 
HETATM   61  C4  UNL     1      -2.052 -14.465   0.000  1.00  0.00     0.027 C 
ENDBRANCH  57  60
ENDBRANCH  54  57
ENDBRANCH  52  54
ENDBRANCH  45  51
ENDBRANCH   1  43
TORSDOF 7
