REMARK  6 active torsions:
REMARK  status: ('A' for Active; 'I' for Inactive)
REMARK    1  A    between atoms: C2_4  and  N1_10 
REMARK       I    between atoms: N1_10  and  C4_11 
REMARK    2  A    between atoms: C4_11  and  C5_13 
REMARK    3  A    between atoms: C9_18  and  C10_19 
REMARK    4  A    between atoms: C10_19  and  C11_20 
REMARK    5  A    between atoms: N5_29  and  C18_30 
REMARK    6  A    between atoms: C18_30  and  C19_31 
ROOT
HETATM    1  C5  UNL     1       1.500   0.000   0.000  1.00  0.00     0.006 A 
HETATM    2  C6  UNL     1       0.750  -1.299   0.000  1.00  0.00     0.032 A 
HETATM    3  C7  UNL     1      -0.750  -1.299   0.000  1.00  0.00     0.051 A 
HETATM    4  C8  UNL     1      -1.500   0.000   0.000  1.00  0.00     0.073 A 
HETATM    5  N2  UNL     1      -2.967   0.312   0.000  1.00  0.00    -0.236 NA
HETATM    6  C9  UNL     1      -3.124   1.804   0.000  1.00  0.00     0.124 A 
HETATM    7  N5  UNL     1      -1.754   2.414   0.000  1.00  0.00    -0.319 N 
HETATM    8  C22 UNL     1      -0.750   1.299   0.000  1.00  0.00     0.056 A 
HETATM    9  C23 UNL     1       0.750   1.299   0.000  1.00  0.00     0.071 A 
ENDROOT
BRANCH   1  10
HETATM   10  C4  UNL     1       3.000   0.000   0.000  1.00  0.00     0.205 C 
HETATM   11  N1  UNL     1       3.750  -1.299   0.000  1.00  0.00    -0.220 NA
HETATM   12  O6  UNL     1       3.750   1.299   0.000  1.00  0.00    -0.170 OA
BRANCH  11  13
HETATM   13  C2  UNL     1       5.250  -1.299   0.000  1.00  0.00     0.126 A 
HETATM   14  C1  UNL     1       6.000   0.000   0.000  1.00  0.00     0.275 A 
HETATM   15  O1  UNL     1       7.500   0.000   0.000  1.00  0.00    -0.158 OA
HETATM   16  O2  UNL     1       5.250   1.299   0.000  1.00  0.00    -0.159 OA
HETATM   17  O5  UNL     1       7.500  -1.098   0.000  1.00  0.00    -0.140 OA
HETATM   18  P1  UNL     1       7.500  -2.598   0.000  1.00  0.00     0.299 P 
HETATM   19  C3  UNL     1       6.000  -2.598   0.000  1.00  0.00     0.171 A 
HETATM   20  O3  UNL     1       9.000  -2.598   0.000  1.00  0.00    -0.644 OA
HETATM   21  O4  UNL     1       7.500  -4.098   0.000  1.00  0.00    -0.644 OA
ENDBRANCH  11  13
ENDBRANCH   1  10
BRANCH   7  22
HETATM   22  C18 UNL     1      -1.442   3.881   0.000  1.00  0.00     0.107 C 
BRANCH  22  23
HETATM   23  C19 UNL     1      -0.015   4.345   0.000  1.00  0.00     0.023 A 
HETATM   24  C20 UNL     1       0.989   5.459   0.000  1.00  0.00     0.002 A 
HETATM   25  C21 UNL     1       1.452   4.033   0.000  1.00  0.00     0.002 A 
ENDBRANCH  22  23
ENDBRANCH   7  22
BRANCH   6  26
HETATM   26  C10 UNL     1      -4.423   2.554   0.000  1.00  0.00     0.113 C 
BRANCH  26  27
HETATM   27  C11 UNL     1      -4.423   4.054   0.000  1.00  0.00     0.212 A 
HETATM   28  N3  UNL     1      -3.209   4.935   0.000  1.00  0.00    -0.251 NA
HETATM   29  C12 UNL     1      -3.673   6.362   0.000  1.00  0.00     0.069 A 
HETATM   30  C13 UNL     1      -2.923   7.661   0.000  1.00  0.00     0.047 A 
HETATM   31  C17 UNL     1      -5.173   6.362   0.000  1.00  0.00     0.069 A 
HETATM   32  C14 UNL     1      -3.673   8.960   0.000  1.00  0.00     0.007 A 
HETATM   33  C15 UNL     1      -5.173   8.960   0.000  1.00  0.00     0.007 A 
HETATM   34  C16 UNL     1      -5.923   7.661   0.000  1.00  0.00     0.047 A 
HETATM   35  N4  UNL     1      -5.637   4.935   0.000  1.00  0.00    -0.251 NA
ENDBRANCH  26  27
ENDBRANCH   6  26
TORSDOF 6
