REMARK  14 active torsions:
REMARK  status: ('A' for Active; 'I' for Inactive)
REMARK    1  A    between atoms: C2_2  and  C4_4 
REMARK    2  A    between atoms: C4_4  and  O1_5 
REMARK    3  A    between atoms: O1_5  and  C5_6 
REMARK    4  A    between atoms: C6_9  and  C10_13 
REMARK       I    between atoms: C10_13  and  N2_15 
REMARK    5  A    between atoms: C12_17  and  C36_50 
REMARK    6  A    between atoms: C14_19  and  C15_20 
REMARK       I    between atoms: C15_20  and  N3_22 
REMARK    7  A    between atoms: N3_22  and  C16_23 
REMARK    8  A    between atoms: C16_23  and  C17_24 
REMARK    9  A    between atoms: C16_23  and  C19_28 
REMARK   10  A    between atoms: C17_24  and  C18_25 
REMARK       I    between atoms: C19_28  and  N4_30 
REMARK   11  A    between atoms: N4_30  and  C20_31 
REMARK   12  A    between atoms: C20_31  and  C21_32 
REMARK   13  A    between atoms: C21_32  and  C22_33 
REMARK   14  A    between atoms: C27_39  and  C29_43 
ROOT
HETATM    1  C15 UNL     1       3.750  -9.093   0.000  1.00  0.00     0.225 C 
HETATM    2  O4  UNL     1       3.000 -10.392   0.000  1.00  0.00    -0.168 OA
HETATM    3  N3  UNL     1       3.000  -7.794   0.000  1.00  0.00    -0.219 NA
ENDROOT
BRANCH   3   4
HETATM    4  C16 UNL     1       1.500  -7.794   0.000  1.00  0.00     0.114 C 
BRANCH   4   5
HETATM    5  C17 UNL     1       0.750  -9.093   0.000  1.00  0.00     0.137 C 
BRANCH   5   6
HETATM    6  C18 UNL     1      -0.750  -9.093   0.000  1.00  0.00     0.262 C 
HETATM    7  F1  UNL     1      -1.500 -10.392   0.000  1.00  0.00    -0.176 F 
HETATM    8  F2  UNL     1      -1.500  -7.794   0.000  1.00  0.00    -0.176 F 
ENDBRANCH   5   6
ENDBRANCH   4   5
BRANCH   4   9
HETATM    9  C19 UNL     1       0.750  -6.495   0.000  1.00  0.00     0.223 C 
HETATM   10  O5  UNL     1      -0.750  -6.495   0.000  1.00  0.00    -0.168 OA
HETATM   11  N4  UNL     1       1.500  -5.196   0.000  1.00  0.00    -0.245 NA
BRANCH  11  12
HETATM   12  C20 UNL     1       0.750  -3.897   0.000  1.00  0.00     0.128 C 
BRANCH  12  13
HETATM   13  C21 UNL     1       1.500  -2.598   0.000  1.00  0.00     0.027 C 
BRANCH  13  14
HETATM   14  C22 UNL     1       0.750  -1.299   0.000  1.00  0.00     0.009 A 
HETATM   15  C23 UNL     1       1.500   0.000   0.000  1.00  0.00     0.007 A 
HETATM   16  C24 UNL     1       0.750   1.299   0.000  1.00  0.00     0.053 A 
HETATM   17  C25 UNL     1      -0.750   1.299   0.000  1.00  0.00     0.098 A 
HETATM   18  C26 UNL     1      -1.500   0.000   0.000  1.00  0.00     0.096 A 
HETATM   19  O7  UNL     1      -1.500   2.598   0.000  1.00  0.00    -0.285 OA
HETATM   20  O6  UNL     1      -3.000   0.000   0.000  1.00  0.00    -0.306 OA
HETATM   21  C35 UNL     1      -0.750  -1.299   0.000  1.00  0.00     0.053 A 
HETATM   22  C27 UNL     1      -3.750   1.299   0.000  1.00  0.00     0.141 A 
HETATM   23  C28 UNL     1      -3.000   2.598   0.000  1.00  0.00     0.255 A 
HETATM   24  O8  UNL     1      -3.750   3.897   0.000  1.00  0.00    -0.161 OA
BRANCH  22  25
HETATM   25  C29 UNL     1      -5.250   1.299   0.000  1.00  0.00    -0.017 A 
HETATM   26  C30 UNL     1      -6.000   2.598   0.000  1.00  0.00     0.024 A 
HETATM   27  C31 UNL     1      -7.500   2.598   0.000  1.00  0.00     0.004 A 
HETATM   28  C32 UNL     1      -8.250   1.299   0.000  1.00  0.00     0.001 A 
HETATM   29  C33 UNL     1      -7.500   0.000   0.000  1.00  0.00     0.004 A 
HETATM   30  C34 UNL     1      -6.000   0.000   0.000  1.00  0.00     0.024 A 
ENDBRANCH  22  25
ENDBRANCH  13  14
ENDBRANCH  12  13
ENDBRANCH  11  12
ENDBRANCH   4   9
ENDBRANCH   3   4
BRANCH   1  31
HETATM   31  C14 UNL     1       5.250  -9.093   0.000  1.00  0.00     0.087 A 
HETATM   32  N2  UNL     1       6.132 -10.307   0.000  1.00  0.00    -0.302 N 
HETATM   33  C10 UNL     1       5.668 -11.733   0.000  1.00  0.00     0.212 C 
HETATM   34  C11 UNL     1       7.558  -9.843   0.000  1.00  0.00     0.130 A 
HETATM   35  O3  UNL     1       4.201 -12.045   0.000  1.00  0.00    -0.169 OA
HETATM   36  C12 UNL     1       7.558  -8.343   0.000  1.00  0.00    -0.024 A 
HETATM   37  C13 UNL     1       6.132  -7.880   0.000  1.00  0.00     0.071 A 
BRANCH  33  38
HETATM   38  C6  UNL     1       6.672 -12.848   0.000  1.00  0.00     0.122 A 
HETATM   39  N1  UNL     1       8.139 -12.536   0.000  1.00  0.00    -0.198 NA
HETATM   40  C5  UNL     1       9.143 -13.651   0.000  1.00  0.00     0.290 A 
HETATM   41  O2  UNL     1       8.679 -15.078   0.000  1.00  0.00    -0.291 OA
HETATM   42  C8  UNL     1       7.212 -15.389   0.000  1.00  0.00     0.176 A 
HETATM   43  C7  UNL     1       6.208 -14.275   0.000  1.00  0.00     0.007 A 
HETATM   44  C9  UNL     1       4.741 -14.586   0.000  1.00  0.00     0.031 C 
BRANCH  40  45
HETATM   45  O1  UNL     1      10.610 -13.339   0.000  1.00  0.00    -0.296 OA
BRANCH  45  46
HETATM   46  C4  UNL     1      11.614 -14.454   0.000  1.00  0.00     0.152 C 
BRANCH  46  47
HETATM   47  C2  UNL     1      13.081 -14.142   0.000  1.00  0.00     0.030 C 
HETATM   48  C1  UNL     1      14.085 -15.257   0.000  1.00  0.00     0.003 C 
HETATM   49  C3  UNL     1      13.544 -12.715   0.000  1.00  0.00     0.003 C 
ENDBRANCH  46  47
ENDBRANCH  45  46
ENDBRANCH  40  45
ENDBRANCH  33  38
BRANCH  36  50
HETATM   50  C36 UNL     1       8.772  -7.462   0.000  1.00  0.00    -0.050 A 
HETATM   51  C37 UNL     1      10.142  -8.072   0.000  1.00  0.00     0.021 A 
HETATM   52  C38 UNL     1      11.356  -7.190   0.000  1.00  0.00     0.004 A 
HETATM   53  C39 UNL     1      11.199  -5.698   0.000  1.00  0.00     0.001 A 
HETATM   54  C40 UNL     1       9.829  -5.088   0.000  1.00  0.00     0.004 A 
HETATM   55  C41 UNL     1       8.615  -5.970   0.000  1.00  0.00     0.021 A 
ENDBRANCH  36  50
ENDBRANCH   1  31
TORSDOF 14
