REMARK  6 active torsions:
REMARK  status: ('A' for Active; 'I' for Inactive)
REMARK    1  A    between atoms: C5_5  and  C12_16 
REMARK    2  A    between atoms: C6_7  and  C7_9 
REMARK       I    between atoms: C12_16  and  N3_18 
REMARK    3  A    between atoms: C16_22  and  C17_23 
REMARK    4  A    between atoms: C18_26  and  C23_31 
REMARK       I    between atoms: C23_31  and  N5_33 
REMARK    5  A    between atoms: N5_33  and  S1_34 
REMARK    6  A    between atoms: S1_34  and  N6_37 
ROOT
HETATM    1  C12 UNL     1       2.984  -5.534   0.000  1.00  0.00     0.209 C 
HETATM    2  O3  UNL     1       4.476  -5.691   0.000  1.00  0.00    -0.170 OA
HETATM    3  N3  UNL     1       2.374  -4.163   0.000  1.00  0.00    -0.306 N 
HETATM    4  C13 UNL     1       0.907  -3.852   0.000  1.00  0.00     0.108 A 
HETATM    5  C14 UNL     1       0.750  -2.360   0.000  1.00  0.00     0.027 A 
HETATM    6  C15 UNL     1       2.120  -1.750   0.000  1.00  0.00     0.049 A 
HETATM    7  C16 UNL     1       3.124  -2.864   0.000  1.00  0.00     0.080 A 
HETATM    8  C28 UNL     1      -0.750  -2.360   0.000  1.00  0.00     0.002 A 
HETATM    9  C29 UNL     1      -1.010  -3.837   0.000  1.00  0.00     0.000 C 
HETATM   10  C30 UNL     1      -2.159  -1.847   0.000  1.00  0.00     0.000 C 
HETATM   11  C31 UNL     1      -0.000  -1.061   0.000  1.00  0.00     0.002 A 
HETATM   12  C32 UNL     1       1.061   0.000   0.000  1.00  0.00     0.000 A 
HETATM   13  C33 UNL     1       0.000   1.061   0.000  1.00  0.00     0.000 A 
HETATM   14  C34 UNL     1      -1.061   0.000   0.000  1.00  0.00     0.000 A 
ENDROOT
BRANCH   7  15
HETATM   15  C17 UNL     1       4.616  -2.708   0.000  1.00  0.00     0.190 A 
HETATM   16  O4  UNL     1       5.226  -1.337   0.000  1.00  0.00    -0.294 OA
HETATM   17  C21 UNL     1       6.436  -0.920   0.000  1.00  0.00     0.074 A 
HETATM   18  C20 UNL     1       7.094  -2.268   0.000  1.00  0.00     0.005 A 
HETATM   19  C22 UNL     1       7.275   0.324   0.000  1.00  0.00     0.058 C 
HETATM   20  C18 UNL     1       6.989  -3.764   0.000  1.00  0.00     0.167 A 
HETATM   21  C19 UNL     1       8.337  -3.107   0.000  1.00  0.00     0.060 A 
HETATM   22  N4  UNL     1       5.497  -3.921   0.000  1.00  0.00    -0.239 NA
BRANCH  20  23
HETATM   23  C23 UNL     1       7.403  -5.206   0.000  1.00  0.00     0.226 C 
HETATM   24  O5  UNL     1       6.361  -6.285   0.000  1.00  0.00    -0.171 OA
HETATM   25  N5  UNL     1       8.858  -5.569   0.000  1.00  0.00    -0.119 NA
BRANCH  25  26
HETATM   26  S1  UNL     1       9.272  -7.011   0.000  1.00  0.00     0.346 S 
HETATM   27  O6  UNL     1      10.713  -6.598   0.000  1.00  0.00    -0.180 OA
HETATM   28  O7  UNL     1       7.830  -7.424   0.000  1.00  0.00    -0.180 OA
BRANCH  26  29
HETATM   29  N6  UNL     1       9.685  -8.453   0.000  1.00  0.00    -0.260 N 
HETATM   30  C24 UNL     1       8.762  -9.635   0.000  1.00  0.00     0.115 A 
HETATM   31  C25 UNL     1       9.600 -10.878   0.000  1.00  0.00     0.027 A 
HETATM   32  C26 UNL     1      11.042 -10.465   0.000  1.00  0.00     0.027 A 
HETATM   33  C27 UNL     1      11.095  -8.966   0.000  1.00  0.00     0.115 A 
ENDBRANCH  26  29
ENDBRANCH  25  26
ENDBRANCH  20  23
ENDBRANCH   7  15
BRANCH   1  34
HETATM   34  C5  UNL     1       2.102  -6.747   0.000  1.00  0.00     0.115 A 
HETATM   35  C2  UNL     1       2.712  -8.117   0.000  1.00  0.00     0.108 A 
HETATM   36  C1  UNL     1       1.342  -8.728   0.000  1.00  0.00     0.001 A 
HETATM   37  C3  UNL     1       4.083  -7.507   0.000  1.00  0.00     0.021 C 
HETATM   38  C4  UNL     1       3.323  -9.488   0.000  1.00  0.00     0.021 C 
HETATM   39  O1  UNL     1       0.339  -9.174   0.000  1.00  0.00    -0.252 OA
HETATM   40  C6  UNL     1      -0.271  -7.804   0.000  1.00  0.00     0.191 A 
HETATM   41  N1  UNL     1       0.611  -6.590   0.000  1.00  0.00    -0.222 NA
BRANCH  40  42
HETATM   42  C7  UNL     1      -1.763  -7.647   0.000  1.00  0.00     0.063 A 
HETATM   43  C8  UNL     1      -2.373  -6.277   0.000  1.00  0.00     0.036 A 
HETATM   44  C9  UNL     1      -3.865  -6.120   0.000  1.00  0.00     0.031 A 
HETATM   45  C10 UNL     1      -4.746  -7.333   0.000  1.00  0.00     0.128 A 
HETATM   46  N2  UNL     1      -4.136  -8.704   0.000  1.00  0.00    -0.246 NA
HETATM   47  C11 UNL     1      -2.644  -8.861   0.000  1.00  0.00     0.208 A 
HETATM   48  O2  UNL     1      -2.034 -10.231   0.000  1.00  0.00    -0.170 OA
ENDBRANCH  40  42
ENDBRANCH   1  34
TORSDOF 6
