REMARK  20 active torsions:
REMARK  status: ('A' for Active; 'I' for Inactive)
REMARK    1  A    between atoms: C5_5  and  N1_6 
REMARK       I    between atoms: N1_6  and  C6_7 
REMARK    2  A    between atoms: C6_7  and  C7_9 
REMARK    3  A    between atoms: C7_9  and  N2_10 
REMARK    4  A    between atoms: C7_9  and  C31_47 
REMARK       I    between atoms: N2_10  and  C8_11 
REMARK    5  A    between atoms: C8_11  and  C9_13 
REMARK    6  A    between atoms: C9_13  and  C10_14 
REMARK    7  A    between atoms: C9_13  and  N3_22 
REMARK    8  A    between atoms: C10_14  and  C11_15 
REMARK       I    between atoms: N3_22  and  C18_23 
REMARK    9  A    between atoms: C18_23  and  C19_25 
REMARK   10  A    between atoms: C21_27  and  C22_28 
REMARK   11  A    between atoms: C23_32  and  C24_34 
REMARK   12  A    between atoms: C24_34  and  C25_35 
REMARK   13  A    between atoms: C24_34  and  N5_39 
REMARK   14  A    between atoms: C25_35  and  C26_36 
REMARK       I    between atoms: N5_39  and  C27_40 
REMARK   15  A    between atoms: C27_40  and  C28_42 
REMARK   16  A    between atoms: C28_42  and  C29_43 
REMARK   17  A    between atoms: C29_43  and  C30_44 
REMARK   18  A    between atoms: C36_54  and  C39_60 
REMARK   19  A    between atoms: C39_60  and  C40_62 
REMARK   20  A    between atoms: C41_65  and  C42_66 
ROOT
HETATM    1  C7  UNL     1       6.000  -5.196   0.000  1.00  0.00     0.104 C 
ENDROOT
BRANCH   1   2
HETATM    2  C6  UNL     1       5.250  -6.495   0.000  1.00  0.00     0.226 C 
HETATM    3  N1  UNL     1       6.000  -7.794   0.000  1.00  0.00    -0.220 NA
HETATM    4  O1  UNL     1       3.750  -6.495   0.000  1.00  0.00    -0.168 OA
BRANCH   3   5
HETATM    5  C5  UNL     1       5.250  -9.093   0.000  1.00  0.00     0.108 A 
HETATM    6  C4  UNL     1       6.000 -10.392   0.000  1.00  0.00     0.075 A 
HETATM    7  C2  UNL     1       5.250 -11.691   0.000  1.00  0.00     0.004 A 
HETATM    8  C1  UNL     1       6.000 -12.990   0.000  1.00  0.00     0.031 C 
HETATM    9  C3  UNL     1       3.750 -11.691   0.000  1.00  0.00     0.168 A 
HETATM   10  N6  UNL     1       3.000 -10.392   0.000  1.00  0.00    -0.266 N 
HETATM   11  F3  UNL     1       2.799 -12.240   0.000  1.00  0.00    -0.288 F 
HETATM   12  C35 UNL     1       3.750  -9.093   0.000  1.00  0.00     0.214 A 
HETATM   13  C36 UNL     1       1.500 -10.392   0.000  1.00  0.00     0.083 A 
HETATM   14  O12 UNL     1       3.000  -7.794   0.000  1.00  0.00    -0.169 OA
HETATM   15  C37 UNL     1       0.750 -11.691   0.000  1.00  0.00     0.148 A 
HETATM   16  C38 UNL     1       1.500 -12.990   0.000  1.00  0.00     0.383 A 
HETATM   17  F1  UNL     1       2.250 -14.289   0.000  1.00  0.00    -0.172 F 
HETATM   18  F2  UNL     1       0.201 -13.740   0.000  1.00  0.00    -0.172 F 
BRANCH  13  19
HETATM   19  C39 UNL     1       0.750  -9.093   0.000  1.00  0.00     0.184 C 
HETATM   20  O13 UNL     1       1.500  -7.794   0.000  1.00  0.00    -0.185 OA
BRANCH  19  21
HETATM   21  C40 UNL     1      -0.750  -9.093   0.000  1.00  0.00     0.209 A 
HETATM   22  O14 UNL     1      -1.500 -10.392   0.000  1.00  0.00    -0.292 OA
HETATM   23  C50 UNL     1      -3.000 -10.392   0.000  1.00  0.00     0.077 A 
HETATM   24  C45 UNL     1      -3.750  -9.093   0.000  1.00  0.00     0.014 A 
HETATM   25  C49 UNL     1      -3.750 -11.691   0.000  1.00  0.00     0.051 A 
HETATM   26  C41 UNL     1      -3.000  -7.794   0.000  1.00  0.00     0.073 A 
HETATM   27  C46 UNL     1      -5.250  -9.093   0.000  1.00  0.00     0.030 A 
HETATM   28  N7  UNL     1      -1.500  -7.794   0.000  1.00  0.00    -0.221 NA
HETATM   29  C47 UNL     1      -6.000 -10.392   0.000  1.00  0.00     0.005 A 
HETATM   30  C48 UNL     1      -5.250 -11.691   0.000  1.00  0.00     0.007 A 
BRANCH  26  31
HETATM   31  C42 UNL     1      -3.750  -6.495   0.000  1.00  0.00    -0.026 C 
HETATM   32  C43 UNL     1      -5.250  -6.495   0.000  1.00  0.00     0.028 C 
HETATM   33  C44 UNL     1      -3.000  -5.196   0.000  1.00  0.00     0.028 C 
ENDBRANCH  26  31
ENDBRANCH  19  21
ENDBRANCH  13  19
ENDBRANCH   3   5
ENDBRANCH   1   2
BRANCH   1  34
HETATM   34  N2  UNL     1       5.250  -3.897   0.000  1.00  0.00    -0.220 NA
HETATM   35  C8  UNL     1       3.750  -3.897   0.000  1.00  0.00     0.227 C 
HETATM   36  O2  UNL     1       3.000  -5.196   0.000  1.00  0.00    -0.168 OA
BRANCH  35  37
HETATM   37  C9  UNL     1       3.000  -2.598   0.000  1.00  0.00     0.109 C 
BRANCH  37  38
HETATM   38  C10 UNL     1       1.500  -2.598   0.000  1.00  0.00     0.071 C 
BRANCH  38  39
HETATM   39  C11 UNL     1       0.750  -1.299   0.000  1.00  0.00    -0.046 A 
HETATM   40  C12 UNL     1       1.500   0.000   0.000  1.00  0.00     0.022 A 
HETATM   41  C13 UNL     1       0.750   1.299   0.000  1.00  0.00     0.005 A 
HETATM   42  C14 UNL     1      -0.750   1.299   0.000  1.00  0.00     0.005 A 
HETATM   43  C15 UNL     1      -1.500   0.000   0.000  1.00  0.00     0.021 A 
HETATM   44  C16 UNL     1      -0.750  -1.299   0.000  1.00  0.00    -0.051 A 
HETATM   45  C17 UNL     1      -1.500  -2.598   0.000  1.00  0.00     0.026 C 
ENDBRANCH  38  39
ENDBRANCH  37  38
BRANCH  37  46
HETATM   46  N3  UNL     1       3.750  -1.299   0.000  1.00  0.00    -0.219 NA
HETATM   47  C18 UNL     1       5.250  -1.299   0.000  1.00  0.00     0.226 C 
HETATM   48  O3  UNL     1       6.000  -2.598   0.000  1.00  0.00    -0.168 OA
BRANCH  47  49
HETATM   49  C19 UNL     1       6.000  -0.000   0.000  1.00  0.00     0.108 A 
HETATM   50  C20 UNL     1       7.500  -0.000   0.000  1.00  0.00     0.091 A 
HETATM   51  C21 UNL     1       8.250   1.299   0.000  1.00  0.00     0.215 A 
HETATM   52  O6  UNL     1       7.500   2.598   0.000  1.00  0.00    -0.305 OA
HETATM   53  C23 UNL     1       6.000   2.598   0.000  1.00  0.00     0.193 A 
HETATM   54  N4  UNL     1       5.250   1.299   0.000  1.00  0.00    -0.222 NA
BRANCH  51  55
HETATM   55  C22 UNL     1       9.750   1.299   0.000  1.00  0.00     0.215 C 
HETATM   56  O4  UNL     1      10.500  -0.000   0.000  1.00  0.00    -0.646 OA
HETATM   57  O5  UNL     1      10.500   2.598   0.000  1.00  0.00    -0.646 OA
ENDBRANCH  51  55
BRANCH  53  58
HETATM   58  C24 UNL     1       5.250   3.897   0.000  1.00  0.00     0.112 C 
BRANCH  58  59
HETATM   59  C25 UNL     1       6.000   5.196   0.000  1.00  0.00     0.147 C 
BRANCH  59  60
HETATM   60  C26 UNL     1       7.500   5.196   0.000  1.00  0.00     0.192 C 
HETATM   61  O7  UNL     1       8.250   3.897   0.000  1.00  0.00    -0.647 OA
HETATM   62  O8  UNL     1       8.250   6.495   0.000  1.00  0.00    -0.647 OA
ENDBRANCH  59  60
ENDBRANCH  58  59
BRANCH  58  63
HETATM   63  N5  UNL     1       3.750   3.897   0.000  1.00  0.00    -0.224 NA
HETATM   64  C27 UNL     1       3.000   5.196   0.000  1.00  0.00     0.190 C 
HETATM   65  O9  UNL     1       3.750   6.495   0.000  1.00  0.00    -0.174 OA
BRANCH  64  66
HETATM   66  C28 UNL     1       1.500   5.196   0.000  1.00  0.00     0.086 C 
BRANCH  66  67
HETATM   67  C29 UNL     1       0.750   6.495   0.000  1.00  0.00     0.106 C 
BRANCH  67  68
HETATM   68  C30 UNL     1      -0.750   6.495   0.000  1.00  0.00     0.186 C 
HETATM   69  O10 UNL     1      -1.500   5.196   0.000  1.00  0.00    -0.647 OA
HETATM   70  O11 UNL     1      -1.500   7.794   0.000  1.00  0.00    -0.647 OA
ENDBRANCH  67  68
ENDBRANCH  66  67
ENDBRANCH  64  66
ENDBRANCH  58  63
ENDBRANCH  53  58
ENDBRANCH  47  49
ENDBRANCH  37  46
ENDBRANCH  35  37
ENDBRANCH   1  34
BRANCH   1  71
HETATM   71  C31 UNL     1       7.500  -5.196   0.000  1.00  0.00     0.039 C 
HETATM   72  C32 UNL     1       7.500  -6.696   0.000  1.00  0.00     0.006 C 
HETATM   73  C33 UNL     1       7.500  -3.696   0.000  1.00  0.00     0.006 C 
HETATM   74  C34 UNL     1       9.000  -5.196   0.000  1.00  0.00     0.006 C 
ENDBRANCH   1  71
TORSDOF 20
