REMARK WARNING: 32 MAX_TORS EXCEEDED!!!
REMARK  73 active torsions:
REMARK  status: ('A' for Active; 'I' for Inactive)
REMARK    1  A    between atoms: C1_1  and  O2_13 
REMARK    2  A    between atoms: C1_1  and  C12_17 
REMARK    3  A    between atoms: C1_1  and  C17_25 
REMARK    4  A    between atoms: C2_2  and  C8_9 
REMARK    5  A    between atoms: C2_2  and  C17_25 
REMARK    6  A    between atoms: C3_3  and  C8_9 
REMARK    7  A    between atoms: C3_3  and  O1_10 
REMARK    8  A    between atoms: C3_3  and  N2_11 
REMARK    9  A    between atoms: C3_3  and  C9_12 
REMARK   10  A    between atoms: C3_3  and  C10_15 
REMARK   11  A    between atoms: C3_3  and  C16_24 
REMARK   12  A    between atoms: C3_3  and  C17_25 
REMARK   13  A    between atoms: C4_4  and  C6_7 
REMARK   14  A    between atoms: C4_4  and  O4_19 
REMARK   15  A    between atoms: C5_6  and  C7_8 
REMARK   16  A    between atoms: C5_6  and  N2_11 
REMARK   17  A    between atoms: C5_6  and  C13_18 
REMARK   18  A    between atoms: C6_7  and  C7_8 
REMARK   19  A    between atoms: C6_7  and  C8_9 
REMARK   20  A    between atoms: C6_7  and  O7_33 
REMARK   21  A    between atoms: C6_7  and  C24_35 
REMARK   22  A    between atoms: C7_8  and  C24_35 
REMARK   23  A    between atoms: C8_9  and  N2_11 
REMARK   24  A    between atoms: C8_9  and  C14_22 
REMARK   25  A    between atoms: O1_10  and  N2_11 
REMARK   26  A    between atoms: O1_10  and  C14_22 
REMARK   27  A    between atoms: O1_10  and  C15_23 
REMARK   28  A    between atoms: O1_10  and  C16_24 
REMARK   29  A    between atoms: O1_10  and  C17_25 
REMARK   30  A    between atoms: N2_11  and  C9_12 
REMARK   31  A    between atoms: C9_12  and  C10_15 
REMARK   32  A    between atoms: O2_13  and  C10_15 
REMARK   33  A    between atoms: O3_14  and  C28_40 
REMARK   34  A    between atoms: C10_15  and  C17_25 
REMARK   35  A    between atoms: C12_17  and  C16_24 
REMARK   36  A    between atoms: C13_18  and  C18_26 
REMARK   37  A    between atoms: C13_18  and  O6_28 
REMARK   38  A    between atoms: O4_19  and  N3_20 
REMARK   39  A    between atoms: O4_19  and  C18_26 
REMARK   40  A    between atoms: O4_19  and  O6_28 
REMARK   41  A    between atoms: N4_21  and  C14_22 
REMARK   42  A    between atoms: C14_22  and  C17_25 
REMARK   43  A    between atoms: C15_23  and  C17_25 
REMARK   44  A    between atoms: C16_24  and  C17_25 
REMARK   45  A    between atoms: C18_26  and  C21_31 
REMARK   46  A    between atoms: O6_28  and  C21_31 
REMARK   47  A    between atoms: C20_30  and  C22_32 
REMARK   48  A    between atoms: C21_31  and  C22_32 
REMARK   49  A    between atoms: C23_34  and  C33_45 
REMARK   50  A    between atoms: C24_35  and  C27_39 
REMARK   51  A    between atoms: C24_35  and  C32_44 
REMARK   52  A    between atoms: C24_35  and  C33_45 
REMARK   53  A    between atoms: C25_36  and  C32_44 
REMARK   54  A    between atoms: N5_37  and  C26_38 
REMARK   55  A    between atoms: N5_37  and  C32_44 
REMARK   56  A    between atoms: C26_38  and  C29_41 
REMARK   57  A    between atoms: C26_38  and  C30_42 
REMARK   58  A    between atoms: C27_39  and  C30_42 
REMARK   59  A    between atoms: C27_39  and  C31_43 
REMARK   60  A    between atoms: C28_40  and  C31_43 
REMARK   61  A    between atoms: C29_41  and  C31_43 
REMARK   62  A    between atoms: C30_42  and  C31_43 
REMARK   63  A    between atoms: C32_44  and  C33_45 
REMARK   64  A    between atoms: C32_44  and  C34_46 
REMARK   65  A    between atoms: C32_44  and  C35_47 
REMARK   66  A    between atoms: C32_44  and  C36_48 
REMARK   67  A    between atoms: C33_45  and  C36_48 
REMARK   68  A    between atoms: C33_45  and  C37_49 
REMARK   69  A    between atoms: C34_46  and  C37_49 
REMARK   70  A    between atoms: C34_46  and  C38_51 
REMARK   71  A    between atoms: C35_47  and  C37_49 
REMARK   72  A    between atoms: C36_48  and  C37_49 
REMARK   73  A    between atoms: C36_48  and  O8_50 
ROOT
HETATM    1  C1  UNL     1       1.975  -3.579   0.000  1.00  0.00     0.000 A 
HETATM    2  C2  UNL     1       1.567  -2.867   0.000  1.00  0.00     0.000 A 
HETATM    3  C3  UNL     1       1.154  -3.576   0.000  1.00  0.00     0.000 A 
HETATM    4  N2  UNL     1       0.834  -2.493   0.000  1.00  0.00     0.000 N 
HETATM    5  C9  UNL     1       2.261  -2.418   0.000  1.00  0.00     0.000 A 
HETATM    6  O2  UNL     1       2.998  -2.791   0.000  1.00  0.00     0.000 OA
HETATM    7  O3  UNL     1       2.219  -1.593   0.000  1.00  0.00     0.000 OA
HETATM    8  C10 UNL     1       2.688  -3.992   0.000  1.00  0.00     0.000 A 
HETATM    9  C11 UNL     1       2.687  -4.817   0.000  1.00  0.00     0.000 A 
HETATM   10  C12 UNL     1       1.972  -5.228   0.000  1.00  0.00     0.000 A 
HETATM   11  C17 UNL     1       1.087  -4.464   0.000  1.00  0.00     0.000 A 
ENDROOT
BRANCH   2  12
HETATM   12  C8  UNL     1       0.142  -2.942   0.000  1.00  0.00     0.000 A 
HETATM   13  C5  UNL     1      -0.595  -2.566   0.000  1.00  0.00     0.000 A 
HETATM   14  N1  UNL     1      -1.332  -2.942   0.000  1.00  0.00     0.000 N 
HETATM   15  C6  UNL     1      -0.724  -1.751   0.000  1.00  0.00     0.000 A 
HETATM   16  C4  UNL     1      -1.913  -2.357   0.000  1.00  0.00     0.000 A 
HETATM   17  O1  UNL     1       0.186  -3.766   0.000  1.00  0.00     0.000 OA
HETATM   18  C13 UNL     1      -1.771  -3.640   0.000  1.00  0.00     0.000 A 
HETATM   19  C7  UNL     1      -1.539  -1.622   0.000  1.00  0.00     0.000 A 
HETATM   20  O4  UNL     1      -2.595  -3.609   0.000  1.00  0.00     0.000 OA
HETATM   21  N3  UNL     1      -1.386  -4.370   0.000  1.00  0.00     0.000 N 
HETATM   22  N4  UNL     1      -1.825  -5.068   0.000  1.00  0.00     0.000 N 
HETATM   23  C14 UNL     1      -0.561  -4.401   0.000  1.00  0.00     0.000 A 
HETATM   24  C18 UNL     1      -2.650  -5.037   0.000  1.00  0.00     0.000 A 
HETATM   25  O5  UNL     1      -3.089  -5.735   0.000  1.00  0.00     0.000 OA
HETATM   26  O6  UNL     1      -3.035  -4.307   0.000  1.00  0.00     0.000 OA
HETATM   27  C19 UNL     1      -3.913  -5.704   0.000  1.00  0.00     0.000 A 
HETATM   28  C20 UNL     1      -4.742  -5.700   0.000  1.00  0.00     0.000 A 
HETATM   29  C21 UNL     1      -3.896  -4.879   0.000  1.00  0.00     0.000 A 
HETATM   30  C22 UNL     1      -3.928  -6.529   0.000  1.00  0.00     0.000 A 
HETATM   31  C15 UNL     1      -0.176  -5.131   0.000  1.00  0.00     0.000 A 
HETATM   32  C16 UNL     1       0.648  -5.162   0.000  1.00  0.00     0.000 A 
HETATM   33  O7  UNL     1      -1.913  -0.887   0.000  1.00  0.00     0.000 OA
HETATM   34  C23 UNL     1      -1.484  -0.183   0.000  1.00  0.00     0.000 A 
HETATM   35  C24 UNL     1      -0.658  -0.207   0.000  1.00  0.00     0.000 A 
HETATM   36  C32 UNL     1      -1.881   0.536   0.000  1.00  0.00     0.000 A 
HETATM   37  C25 UNL     1      -0.229   0.494   0.000  1.00  0.00     0.000 A 
HETATM   38  N5  UNL     1      -0.621   1.220   0.000  1.00  0.00     0.000 N 
HETATM   39  C26 UNL     1       0.593   0.472   0.000  1.00  0.00     0.000 A 
HETATM   40  C27 UNL     1       0.985  -0.255   0.000  1.00  0.00     0.000 A 
HETATM   41  C31 UNL     1       1.022   1.173   0.000  1.00  0.00     0.000 A 
HETATM   42  C33 UNL     1      -1.449   1.238   0.000  1.00  0.00     0.000 A 
HETATM   43  C28 UNL     1       1.809  -0.278   0.000  1.00  0.00     0.000 A 
HETATM   44  C29 UNL     1       2.242   0.426   0.000  1.00  0.00     0.000 A 
HETATM   45  C30 UNL     1       1.845   1.154   0.000  1.00  0.00     0.000 A 
HETATM   46  C34 UNL     1      -1.841   1.960   0.000  1.00  0.00     0.000 A 
HETATM   47  C35 UNL     1      -2.664   1.982   0.000  1.00  0.00     0.000 A 
HETATM   48  C36 UNL     1      -3.094   1.276   0.000  1.00  0.00     0.000 A 
HETATM   49  O8  UNL     1      -3.058   2.707   0.000  1.00  0.00     0.000 OA
HETATM   50  C38 UNL     1      -2.628   3.411   0.000  1.00  0.00     0.000 A 
HETATM   51  C37 UNL     1      -2.700   0.557   0.000  1.00  0.00     0.000 A 
ENDBRANCH   2  12
TORSDOF 73
