REMARK  7 active torsions:
REMARK  status: ('A' for Active; 'I' for Inactive)
REMARK    1  A    between atoms: O1_2  and  C2_3 
REMARK    2  A    between atoms: C4_5  and  O2_6 
REMARK    3  A    between atoms: O2_6  and  C5_7 
REMARK    4  A    between atoms: C13_17  and  N4_42 
REMARK       I    between atoms: N4_42  and  C31_43 
REMARK    5  A    between atoms: C31_43  and  O9_45 
REMARK    6  A    between atoms: O9_45  and  C32_46 
REMARK    7  A    between atoms: C36_51  and  C37_53 
ROOT
HETATM    1  C5  UNL     1      -8.281  -1.815   0.000  1.00  0.00     0.130 A 
HETATM    2  C6  UNL     1      -8.203  -3.313   0.000  1.00  0.00     0.035 A 
HETATM    3  C7  UNL     1      -6.866  -3.994   0.000  1.00  0.00     0.033 A 
HETATM    4  C8  UNL     1      -5.608  -3.177   0.000  1.00  0.00     0.031 A 
HETATM    5  C9  UNL     1      -5.687  -1.679   0.000  1.00  0.00     0.082 A 
HETATM    6  C10 UNL     1      -7.023  -0.998   0.000  1.00  0.00     0.082 A 
HETATM    7  C11 UNL     1      -4.272  -3.858   0.000  1.00  0.00     0.185 A 
HETATM    8  N1  UNL     1      -4.735  -5.284   0.000  1.00  0.00    -0.369 NA
HETATM    9  C12 UNL     1      -4.735  -6.784   0.000  1.00  0.00     0.287 A 
HETATM   10  O3  UNL     1      -6.217  -7.019   0.000  1.00  0.00    -0.153 OA
HETATM   11  C13 UNL     1      -4.272  -8.211   0.000  1.00  0.00     0.183 A 
HETATM   12  C14 UNL     1      -3.390  -9.425   0.000  1.00  0.00    -0.027 A 
HETATM   13  C15 UNL     1      -2.177 -10.306   0.000  1.00  0.00    -0.007 A 
HETATM   14  C16 UNL     1      -0.750 -10.770   0.000  1.00  0.00    -0.001 A 
HETATM   15  C17 UNL     1       0.750 -10.770   0.000  1.00  0.00    -0.000 A 
HETATM   16  C18 UNL     1       2.177 -10.306   0.000  1.00  0.00    -0.000 A 
HETATM   17  C19 UNL     1       3.390  -9.425   0.000  1.00  0.00    -0.000 A 
HETATM   18  C20 UNL     1       4.272  -8.211   0.000  1.00  0.00     0.000 A 
HETATM   19  C21 UNL     1       4.735  -6.784   0.000  1.00  0.00     0.005 A 
HETATM   20  C22 UNL     1       4.735  -5.284   0.000  1.00  0.00     0.076 A 
HETATM   21  S1  UNL     1       4.272  -3.858   0.000  1.00  0.00     0.368 S 
HETATM   22  O4  UNL     1       5.022  -2.559   0.000  1.00  0.00    -0.177 OA
HETATM   23  O5  UNL     1       5.764  -4.015   0.000  1.00  0.00    -0.177 OA
HETATM   24  N2  UNL     1       3.390  -2.644   0.000  1.00  0.00    -0.285 NA
HETATM   25  C23 UNL     1       2.177  -1.763   0.000  1.00  0.00     0.252 A 
HETATM   26  O6  UNL     1       2.858  -0.426   0.000  1.00  0.00    -0.283 OA
HETATM   27  C24 UNL     1       0.750  -1.299   0.000  1.00  0.00     0.099 A 
HETATM   28  C25 UNL     1       1.500   0.000   0.000  1.00  0.00     0.087 A 
HETATM   29  C26 UNL     1       0.750   1.299   0.000  1.00  0.00     0.052 A 
HETATM   30  C27 UNL     1      -0.750   1.299   0.000  1.00  0.00     0.014 A 
HETATM   31  C28 UNL     1      -1.500   0.000   0.000  1.00  0.00     0.060 A 
HETATM   32  C29 UNL     1      -0.750  -1.299   0.000  1.00  0.00     0.118 A 
HETATM   33  N3  UNL     1      -2.177  -1.763   0.000  1.00  0.00    -0.380 NA
HETATM   34  C30 UNL     1      -3.390  -2.644   0.000  1.00  0.00     0.264 A 
HETATM   35  O7  UNL     1      -4.451  -1.584   0.000  1.00  0.00    -0.283 OA
ENDROOT
BRANCH   1  36
HETATM   36  O2  UNL     1      -9.618  -1.134   0.000  1.00  0.00    -0.320 OA
BRANCH  36  37
HETATM   37  C4  UNL     1      -9.696   0.364   0.000  1.00  0.00     0.164 A 
HETATM   38  C3  UNL     1      -8.438   1.181   0.000  1.00  0.00     0.142 A 
HETATM   39  C2  UNL     1      -8.517   2.679   0.000  1.00  0.00     0.164 A 
HETATM   40  N6  UNL     1      -9.853   3.360   0.000  1.00  0.00    -0.208 NA
HETATM   41  C36 UNL     1     -11.111   2.543   0.000  1.00  0.00     0.158 A 
HETATM   42  N5  UNL     1     -11.033   1.045   0.000  1.00  0.00    -0.208 NA
BRANCH  39  43
HETATM   43  O1  UNL     1      -7.259   3.496   0.000  1.00  0.00    -0.315 OA
HETATM   44  C1  UNL     1      -5.922   2.815   0.000  1.00  0.00     0.183 C 
ENDBRANCH  39  43
BRANCH  41  45
HETATM   45  C37 UNL     1     -12.448   3.224   0.000  1.00  0.00    -0.008 A 
HETATM   46  C38 UNL     1     -12.526   4.722   0.000  1.00  0.00     0.025 A 
HETATM   47  C39 UNL     1     -13.863   5.403   0.000  1.00  0.00     0.004 A 
HETATM   48  C40 UNL     1     -15.121   4.586   0.000  1.00  0.00     0.001 A 
HETATM   49  C41 UNL     1     -15.042   3.088   0.000  1.00  0.00     0.004 A 
HETATM   50  C42 UNL     1     -13.706   2.407   0.000  1.00  0.00     0.025 A 
ENDBRANCH  41  45
ENDBRANCH  36  37
ENDBRANCH   1  36
BRANCH  11  51
HETATM   51  N4  UNL     1      -5.608  -8.892   0.000  1.00  0.00    -0.185 NA
HETATM   52  C31 UNL     1      -5.687 -10.390   0.000  1.00  0.00     0.319 C 
HETATM   53  O8  UNL     1      -4.429 -11.207   0.000  1.00  0.00    -0.141 OA
BRANCH  52  54
HETATM   54  O9  UNL     1      -7.023 -11.071   0.000  1.00  0.00    -0.299 OA
BRANCH  54  55
HETATM   55  C32 UNL     1      -7.102 -12.569   0.000  1.00  0.00     0.102 C 
HETATM   56  C33 UNL     1      -8.600 -12.490   0.000  1.00  0.00     0.030 C 
HETATM   57  C34 UNL     1      -5.604 -12.647   0.000  1.00  0.00     0.030 C 
HETATM   58  C35 UNL     1      -7.180 -14.067   0.000  1.00  0.00     0.030 C 
ENDBRANCH  54  55
ENDBRANCH  52  54
ENDBRANCH  11  51
TORSDOF 7
