REMARK  0 active torsions:
REMARK  status: ('A' for Active; 'I' for Inactive)
ROOT
HETATM    1  C1  UNL     1       5.300  -9.340   0.000  1.00  0.00     0.053 C 
HETATM    2  C2  UNL     1       6.726  -9.803   0.000  1.00  0.00     0.066 A 
HETATM    3  C3  UNL     1       7.841  -8.800   0.000  1.00  0.00     0.141 A 
HETATM    4  N1  UNL     1       7.038 -11.271   0.000  1.00  0.00    -0.312 N 
HETATM    5  C4  UNL     1       8.409 -11.881   0.000  1.00  0.00     0.039 A 
HETATM    6  C5  UNL     1       8.252 -13.372   0.000  1.00  0.00     0.050 A 
HETATM    7  C6  UNL     1       6.785 -13.684   0.000  1.00  0.00     0.054 A 
HETATM    8  C7  UNL     1       6.035 -12.385   0.000  1.00  0.00     0.083 A 
HETATM    9  C8  UNL     1       4.543 -12.229   0.000  1.00  0.00     0.195 A 
HETATM   10  O1  UNL     1       3.661 -13.442   0.000  1.00  0.00    -0.293 OA
HETATM   11  N2  UNL     1       3.933 -10.858   0.000  1.00  0.00    -0.218 NA
HETATM   12  C9  UNL     1       2.441 -10.701   0.000  1.00  0.00     0.123 A 
HETATM   13  C10 UNL     1       1.559 -11.915   0.000  1.00  0.00     0.018 A 
HETATM   14  C11 UNL     1       2.169 -13.285   0.000  1.00  0.00     0.077 A 
HETATM   15  C12 UNL     1       1.288 -14.499   0.000  1.00  0.00     0.051 A 
HETATM   16  C13 UNL     1      -0.204 -14.342   0.000  1.00  0.00     0.007 A 
HETATM   17  C14 UNL     1      -0.814 -12.972   0.000  1.00  0.00     0.005 A 
HETATM   18  C15 UNL     1       0.068 -11.758   0.000  1.00  0.00     0.030 A 
HETATM   19  C16 UNL     1       1.831  -9.331   0.000  1.00  0.00     0.209 A 
HETATM   20  O2  UNL     1       0.339  -9.174   0.000  1.00  0.00    -0.249 OA
HETATM   21  N3  UNL     1       2.712  -8.117   0.000  1.00  0.00    -0.219 NA
HETATM   22  C17 UNL     1       2.102  -6.747   0.000  1.00  0.00     0.126 A 
HETATM   23  C18 UNL     1       2.984  -5.534   0.000  1.00  0.00     0.214 A 
HETATM   24  O3  UNL     1       4.476  -5.691   0.000  1.00  0.00    -0.169 OA
HETATM   25  N4  UNL     1       2.374  -4.163   0.000  1.00  0.00    -0.283 N 
HETATM   26  C19 UNL     1       0.907  -3.852   0.000  1.00  0.00     0.074 A 
HETATM   27  C20 UNL     1       0.750  -2.360   0.000  1.00  0.00     0.046 A 
HETATM   28  C21 UNL     1       2.120  -1.750   0.000  1.00  0.00     0.054 A 
HETATM   29  C22 UNL     1       3.124  -2.864   0.000  1.00  0.00     0.085 A 
HETATM   30  C23 UNL     1       4.616  -2.708   0.000  1.00  0.00     0.191 A 
HETATM   31  O4  UNL     1       5.226  -1.337   0.000  1.00  0.00    -0.294 OA
HETATM   32  N5  UNL     1       5.497  -3.921   0.000  1.00  0.00    -0.239 NA
HETATM   33  C24 UNL     1       6.989  -3.764   0.000  1.00  0.00     0.167 A 
HETATM   34  C25 UNL     1       8.337  -3.107   0.000  1.00  0.00     0.060 A 
HETATM   35  C26 UNL     1       7.094  -2.268   0.000  1.00  0.00     0.005 A 
HETATM   36  C27 UNL     1       6.436  -0.920   0.000  1.00  0.00     0.074 A 
HETATM   37  C28 UNL     1       7.275   0.324   0.000  1.00  0.00     0.058 C 
HETATM   38  C29 UNL     1       7.403  -5.206   0.000  1.00  0.00     0.225 A 
HETATM   39  O5  UNL     1       6.361  -6.285   0.000  1.00  0.00    -0.171 OA
HETATM   40  N6  UNL     1       8.858  -5.569   0.000  1.00  0.00    -0.131 NA
HETATM   41  S1  UNL     1       9.272  -7.011   0.000  1.00  0.00     0.272 S 
HETATM   42  O6  UNL     1      10.713  -6.598   0.000  1.00  0.00    -0.196 OA
HETATM   43  O7  UNL     1       7.830  -7.424   0.000  1.00  0.00    -0.227 OA
HETATM   44  N7  UNL     1       9.685  -8.453   0.000  1.00  0.00    -0.249 N 
HETATM   45  C30 UNL     1       8.762  -9.635   0.000  1.00  0.00     0.092 A 
HETATM   46  C31 UNL     1       9.600 -10.878   0.000  1.00  0.00     0.010 A 
HETATM   47  C32 UNL     1      11.042 -10.465   0.000  1.00  0.00     0.054 A 
HETATM   48  C33 UNL     1      11.095  -8.966   0.000  1.00  0.00     0.124 A 
HETATM   49  C34 UNL     1      -0.750  -2.360   0.000  1.00  0.00     0.006 A 
HETATM   50  C35 UNL     1      -1.010  -3.837   0.000  1.00  0.00     0.000 C 
HETATM   51  C36 UNL     1      -2.159  -1.847   0.000  1.00  0.00     0.000 C 
HETATM   52  C37 UNL     1      -0.000  -1.061   0.000  1.00  0.00     0.006 A 
HETATM   53  C38 UNL     1       1.061   0.000   0.000  1.00  0.00     0.000 A 
HETATM   54  C39 UNL     1       0.000   1.061   0.000  1.00  0.00     0.000 A 
HETATM   55  C40 UNL     1      -1.061   0.000   0.000  1.00  0.00     0.000 A 
HETATM   56  C41 UNL     1       0.611  -6.590   0.000  1.00  0.00     0.155 A 
HETATM   57  C42 UNL     1       0.454  -8.082   0.000  1.00  0.00     0.013 A 
HETATM   58  C43 UNL     1       0.767  -5.099   0.000  1.00  0.00    -0.097 A 
HETATM   59  C44 UNL     1      -0.881  -6.434   0.000  1.00  0.00     0.033 C 
ENDROOT
TORSDOF 0
