REMARK  9 active torsions:
REMARK  status: ('A' for Active; 'I' for Inactive)
REMARK    1  A    between atoms: C2_2  and  C3_3 
REMARK    2  A    between atoms: C3_3  and  C4_4 
REMARK    3  A    between atoms: C6_6  and  C13_17 
REMARK    4  A    between atoms: C7_8  and  C8_10 
REMARK    5  A    between atoms: C14_20  and  C15_21 
REMARK       I    between atoms: C15_21  and  N5_23 
REMARK    6  A    between atoms: C19_27  and  C20_28 
REMARK    7  A    between atoms: C21_31  and  C26_36 
REMARK       I    between atoms: C26_36  and  N7_38 
REMARK    8  A    between atoms: N7_38  and  S1_39 
REMARK    9  A    between atoms: S1_39  and  N8_42 
ROOT
HETATM    1  C15 UNL     1       2.984  -5.534   0.000  1.00  0.00     0.209 C 
HETATM    2  O3  UNL     1       4.476  -5.691   0.000  1.00  0.00    -0.170 OA
HETATM    3  N5  UNL     1       2.374  -4.163   0.000  1.00  0.00    -0.306 N 
HETATM    4  C16 UNL     1       0.907  -3.852   0.000  1.00  0.00     0.108 A 
HETATM    5  C17 UNL     1       0.750  -2.360   0.000  1.00  0.00     0.027 A 
HETATM    6  C18 UNL     1       2.120  -1.750   0.000  1.00  0.00     0.049 A 
HETATM    7  C19 UNL     1       3.124  -2.864   0.000  1.00  0.00     0.080 A 
HETATM    8  C31 UNL     1      -0.750  -2.360   0.000  1.00  0.00     0.002 A 
HETATM    9  C32 UNL     1      -1.010  -3.837   0.000  1.00  0.00     0.000 C 
HETATM   10  C33 UNL     1      -2.159  -1.847   0.000  1.00  0.00     0.000 C 
HETATM   11  C34 UNL     1      -0.000  -1.061   0.000  1.00  0.00     0.002 A 
HETATM   12  C35 UNL     1       1.061   0.000   0.000  1.00  0.00     0.000 A 
HETATM   13  C36 UNL     1       0.000   1.061   0.000  1.00  0.00     0.000 A 
HETATM   14  C37 UNL     1      -1.061   0.000   0.000  1.00  0.00     0.000 A 
ENDROOT
BRANCH   1  15
HETATM   15  C14 UNL     1       2.102  -6.747   0.000  1.00  0.00     0.115 A 
HETATM   16  N4  UNL     1       0.611  -6.590   0.000  1.00  0.00    -0.220 NA
HETATM   17  C13 UNL     1      -0.271  -7.804   0.000  1.00  0.00     0.208 A 
HETATM   18  O2  UNL     1       0.339  -9.174   0.000  1.00  0.00    -0.250 OA
HETATM   19  C39 UNL     1       1.342  -8.728   0.000  1.00  0.00     0.001 A 
HETATM   20  C38 UNL     1       2.712  -8.117   0.000  1.00  0.00     0.108 A 
HETATM   21  C40 UNL     1       4.083  -7.507   0.000  1.00  0.00     0.021 C 
HETATM   22  C41 UNL     1       3.323  -9.488   0.000  1.00  0.00     0.021 C 
BRANCH  17  23
HETATM   23  C6  UNL     1      -1.763  -7.647   0.000  1.00  0.00     0.120 A 
HETATM   24  C4  UNL     1      -2.644  -8.861   0.000  1.00  0.00     0.007 A 
HETATM   25  C5  UNL     1      -4.136  -8.704   0.000  1.00  0.00     0.174 A 
HETATM   26  O1  UNL     1      -4.746  -7.333   0.000  1.00  0.00    -0.309 OA
HETATM   27  C7  UNL     1      -3.865  -6.120   0.000  1.00  0.00     0.194 A 
HETATM   28  N1  UNL     1      -2.373  -6.277   0.000  1.00  0.00    -0.218 NA
BRANCH  24  29
HETATM   29  C3  UNL     1      -2.034 -10.231   0.000  1.00  0.00     0.026 C 
BRANCH  29  30
HETATM   30  C2  UNL     1      -2.916 -11.444   0.000  1.00  0.00     0.004 C 
HETATM   31  C1  UNL     1      -2.306 -12.815   0.000  1.00  0.00     0.000 C 
ENDBRANCH  29  30
ENDBRANCH  24  29
BRANCH  27  32
HETATM   32  C8  UNL     1      -4.475  -4.750   0.000  1.00  0.00     0.119 A 
HETATM   33  C9  UNL     1      -3.593  -3.536   0.000  1.00  0.00     0.173 A 
HETATM   34  N2  UNL     1      -4.203  -2.166   0.000  1.00  0.00    -0.271 NA
HETATM   35  C10 UNL     1      -5.695  -2.009   0.000  1.00  0.00     0.057 A 
HETATM   36  C11 UNL     1      -6.305  -0.639   0.000  1.00  0.00     0.049 C 
HETATM   37  C12 UNL     1      -6.577  -3.223   0.000  1.00  0.00     0.166 A 
HETATM   38  N3  UNL     1      -5.967  -4.593   0.000  1.00  0.00    -0.263 NA
ENDBRANCH  27  32
ENDBRANCH  17  23
ENDBRANCH   1  15
BRANCH   7  39
HETATM   39  C20 UNL     1       4.616  -2.708   0.000  1.00  0.00     0.190 A 
HETATM   40  O4  UNL     1       5.226  -1.337   0.000  1.00  0.00    -0.294 OA
HETATM   41  C24 UNL     1       6.436  -0.920   0.000  1.00  0.00     0.074 A 
HETATM   42  C23 UNL     1       7.094  -2.268   0.000  1.00  0.00     0.005 A 
HETATM   43  C25 UNL     1       7.275   0.324   0.000  1.00  0.00     0.058 C 
HETATM   44  C21 UNL     1       6.989  -3.764   0.000  1.00  0.00     0.167 A 
HETATM   45  C22 UNL     1       8.337  -3.107   0.000  1.00  0.00     0.060 A 
HETATM   46  N6  UNL     1       5.497  -3.921   0.000  1.00  0.00    -0.239 NA
BRANCH  44  47
HETATM   47  C26 UNL     1       7.403  -5.206   0.000  1.00  0.00     0.226 C 
HETATM   48  O5  UNL     1       6.361  -6.285   0.000  1.00  0.00    -0.171 OA
HETATM   49  N7  UNL     1       8.858  -5.569   0.000  1.00  0.00    -0.119 NA
BRANCH  49  50
HETATM   50  S1  UNL     1       9.272  -7.011   0.000  1.00  0.00     0.346 S 
HETATM   51  O6  UNL     1      10.713  -6.598   0.000  1.00  0.00    -0.180 OA
HETATM   52  O7  UNL     1       7.830  -7.424   0.000  1.00  0.00    -0.180 OA
BRANCH  50  53
HETATM   53  N8  UNL     1       9.685  -8.453   0.000  1.00  0.00    -0.260 N 
HETATM   54  C27 UNL     1       8.762  -9.635   0.000  1.00  0.00     0.115 A 
HETATM   55  C28 UNL     1       9.600 -10.878   0.000  1.00  0.00     0.027 A 
HETATM   56  C29 UNL     1      11.042 -10.465   0.000  1.00  0.00     0.027 A 
HETATM   57  C30 UNL     1      11.095  -8.966   0.000  1.00  0.00     0.115 A 
ENDBRANCH  50  53
ENDBRANCH  49  50
ENDBRANCH  44  47
ENDBRANCH   7  39
TORSDOF 9
