REMARK  5 active torsions:
REMARK  status: ('A' for Active; 'I' for Inactive)
REMARK    1  A    between atoms: C26_32  and  C29_37 
REMARK    2  A    between atoms: C32_42  and  C33_43 
REMARK    3  A    between atoms: C35_45  and  N5_47 
REMARK    4  A    between atoms: N5_47  and  S1_48 
REMARK    5  A    between atoms: S1_48  and  C36_51 
ROOT
HETATM    1  C1  UNL     1       0.497 -12.486   0.000  1.00  0.00     0.010 C 
HETATM    2  C2  UNL     1      -0.985 -12.251   0.000  1.00  0.00     0.078 A 
HETATM    3  C3  UNL     1      -2.484 -12.199   0.000  1.00  0.00     0.157 A 
HETATM    4  C4  UNL     1      -1.219 -13.733   0.000  1.00  0.00     0.010 C 
HETATM    5  C5  UNL     1      -0.750 -10.770   0.000  1.00  0.00     0.154 A 
HETATM    6  N1  UNL     1       0.750 -10.770   0.000  1.00  0.00    -0.356 NA
HETATM    7  C6  UNL     1       2.177 -10.306   0.000  1.00  0.00     0.373 A 
HETATM    8  O1  UNL     1       2.858 -11.643   0.000  1.00  0.00    -0.129 OA
HETATM    9  O2  UNL     1       3.390  -9.425   0.000  1.00  0.00    -0.287 OA
HETATM   10  C7  UNL     1       4.272  -8.211   0.000  1.00  0.00     0.127 A 
HETATM   11  C8  UNL     1       4.735  -6.784   0.000  1.00  0.00     0.040 A 
HETATM   12  C9  UNL     1       5.850  -7.788   0.000  1.00  0.00     0.032 A 
HETATM   13  C10 UNL     1       6.106  -6.174   0.000  1.00  0.00     0.018 A 
HETATM   14  C11 UNL     1       4.735  -5.284   0.000  1.00  0.00     0.067 A 
HETATM   15  C12 UNL     1       4.272  -3.858   0.000  1.00  0.00    -0.079 A 
HETATM   16  C13 UNL     1       3.390  -2.644   0.000  1.00  0.00    -0.022 A 
HETATM   17  C14 UNL     1       2.177  -1.763   0.000  1.00  0.00    -0.056 A 
HETATM   18  C15 UNL     1       0.750  -1.299   0.000  1.00  0.00     0.021 A 
HETATM   19  C16 UNL     1       1.500   0.000   0.000  1.00  0.00     0.035 A 
HETATM   20  C17 UNL     1       0.750   1.299   0.000  1.00  0.00     0.010 A 
HETATM   21  C18 UNL     1      -0.750   1.299   0.000  1.00  0.00     0.025 A 
HETATM   22  C19 UNL     1      -1.500   0.000   0.000  1.00  0.00    -0.017 A 
HETATM   23  C20 UNL     1      -2.923  -0.474   0.000  1.00  0.00     0.146 A 
HETATM   24  N2  UNL     1      -3.390  -2.644   0.000  1.00  0.00    -0.282 N 
HETATM   25  C21 UNL     1      -2.177  -1.763   0.000  1.00  0.00     0.066 A 
HETATM   26  C22 UNL     1      -0.750  -1.299   0.000  1.00  0.00     0.012 A 
HETATM   27  C23 UNL     1      -4.272  -3.858   0.000  1.00  0.00     0.300 A 
HETATM   28  O3  UNL     1      -5.608  -3.177   0.000  1.00  0.00    -0.143 OA
HETATM   29  O4  UNL     1      -4.735  -5.284   0.000  1.00  0.00    -0.296 OA
HETATM   30  C24 UNL     1      -4.735  -6.784   0.000  1.00  0.00     0.150 A 
HETATM   31  C25 UNL     1      -5.796  -7.845   0.000  1.00  0.00     0.081 A 
HETATM   32  C26 UNL     1      -5.115  -9.181   0.000  1.00  0.00     0.149 A 
HETATM   33  N3  UNL     1      -3.390  -9.425   0.000  1.00  0.00    -0.322 N 
HETATM   34  C27 UNL     1      -4.272  -8.211   0.000  1.00  0.00     0.121 A 
HETATM   35  C28 UNL     1      -2.177 -10.306   0.000  1.00  0.00     0.182 A 
HETATM   36  O5  UNL     1      -3.015 -11.550   0.000  1.00  0.00    -0.314 OA
ENDROOT
BRANCH  32  37
HETATM   37  C29 UNL     1      -5.796 -10.518   0.000  1.00  0.00     0.206 A 
HETATM   38  O6  UNL     1      -4.928 -11.552   0.000  1.00  0.00    -0.172 OA
HETATM   39  O7  UNL     1      -5.479 -12.464   0.000  1.00  0.00    -0.171 OA
HETATM   40  C35 UNL     1      -6.777 -12.836   0.000  1.00  0.00     0.220 A 
HETATM   41  C30 UNL     1      -7.975 -11.933   0.000  1.00  0.00     0.146 A 
HETATM   42  N4  UNL     1      -7.294 -10.597   0.000  1.00  0.00    -0.244 NA
HETATM   43  C31 UNL     1      -9.072 -12.956   0.000  1.00  0.00     0.033 A 
HETATM   44  C32 UNL     1      -9.409 -11.495   0.000  1.00  0.00     0.031 A 
BRANCH  40  45
HETATM   45  N5  UNL     1      -6.960 -14.325   0.000  1.00  0.00    -0.137 NA
BRANCH  45  46
HETATM   46  S1  UNL     1      -5.762 -15.227   0.000  1.00  0.00     0.265 S 
HETATM   47  O8  UNL     1      -4.859 -14.029   0.000  1.00  0.00    -0.203 OA
HETATM   48  O9  UNL     1      -6.665 -16.425   0.000  1.00  0.00    -0.203 OA
BRANCH  46  49
HETATM   49  C36 UNL     1      -4.564 -16.130   0.000  1.00  0.00     0.130 A 
HETATM   50  C37 UNL     1      -3.075 -16.313   0.000  1.00  0.00     0.019 A 
HETATM   51  C38 UNL     1      -3.978 -17.511   0.000  1.00  0.00     0.019 A 
ENDBRANCH  46  49
ENDBRANCH  45  46
ENDBRANCH  40  45
BRANCH  44  52
HETATM   52  C33 UNL     1     -10.432 -10.398   0.000  1.00  0.00     0.002 C 
HETATM   53  C34 UNL     1     -11.894 -10.735   0.000  1.00  0.00     0.000 C 
ENDBRANCH  44  52
ENDBRANCH  32  37
TORSDOF 5
