REMARK  22 active torsions:
REMARK  status: ('A' for Active; 'I' for Inactive)
REMARK    1  A    between atoms: C2_2  and  C3_3 
REMARK    2  A    between atoms: C3_3  and  C4_4 
REMARK    3  A    between atoms: C4_4  and  N1_5 
REMARK    4  A    between atoms: C4_4  and  C37_48 
REMARK       I    between atoms: N1_5  and  C5_6 
REMARK    5  A    between atoms: C5_6  and  C6_8 
REMARK    6  A    between atoms: C6_8  and  N2_9 
REMARK    7  A    between atoms: C6_8  and  C18_25 
REMARK       I    between atoms: N2_9  and  C7_10 
REMARK    8  A    between atoms: C7_10  and  C8_12 
REMARK    9  A    between atoms: C9_14  and  O4_16 
REMARK   10  A    between atoms: O4_16  and  C10_17 
REMARK   11  A    between atoms: C10_17  and  C11_18 
REMARK   12  A    between atoms: C11_18  and  C12_19 
REMARK   13  A    between atoms: C21_28  and  O5_29 
REMARK   14  A    between atoms: O5_29  and  C22_30 
REMARK   15  A    between atoms: C24_32  and  O6_33 
REMARK   16  A    between atoms: C26_36  and  C27_38 
REMARK   17  A    between atoms: C33_44  and  C34_45 
REMARK       I    between atoms: C37_48  and  N6_50 
REMARK   18  A    between atoms: N6_50  and  S1_51 
REMARK   19  A    between atoms: S1_51  and  C38_54 
REMARK   20  A    between atoms: C38_54  and  C39_55 
REMARK   21  A    between atoms: C39_55  and  C40_56 
REMARK   22  A    between atoms: C40_56  and  C41_57 
ROOT
HETATM    1  C6  UNL     1       3.000   0.000   0.000  1.00  0.00     0.120 C 
ENDROOT
BRANCH   1   2
HETATM    2  C5  UNL     1       3.750  -1.299   0.000  1.00  0.00     0.230 C 
HETATM    3  N1  UNL     1       5.250  -1.299   0.000  1.00  0.00    -0.220 NA
HETATM    4  O1  UNL     1       3.000  -2.598   0.000  1.00  0.00    -0.168 OA
BRANCH   3   5
HETATM    5  C4  UNL     1       6.000  -2.598   0.000  1.00  0.00     0.105 C 
BRANCH   5   6
HETATM    6  C3  UNL     1       7.500  -2.598   0.000  1.00  0.00     0.050 C 
BRANCH   6   7
HETATM    7  C2  UNL     1       8.250  -3.897   0.000  1.00  0.00     0.006 C 
HETATM    8  C1  UNL     1       9.750  -3.897   0.000  1.00  0.00     0.000 C 
ENDBRANCH   6   7
ENDBRANCH   5   6
BRANCH   5   9
HETATM    9  C37 UNL     1       5.250  -3.897   0.000  1.00  0.00     0.237 C 
HETATM   10  O7  UNL     1       3.750  -3.897   0.000  1.00  0.00    -0.167 OA
HETATM   11  N6  UNL     1       6.000  -5.196   0.000  1.00  0.00    -0.133 NA
BRANCH  11  12
HETATM   12  S1  UNL     1       5.250  -6.495   0.000  1.00  0.00     0.267 S 
HETATM   13  O8  UNL     1       3.951  -5.745   0.000  1.00  0.00    -0.203 OA
HETATM   14  O9  UNL     1       6.549  -7.245   0.000  1.00  0.00    -0.203 OA
BRANCH  12  15
HETATM   15  C38 UNL     1       4.500  -7.794   0.000  1.00  0.00     0.146 C 
BRANCH  15  16
HETATM   16  C39 UNL     1       3.000  -7.794   0.000  1.00  0.00     0.019 C 
BRANCH  16  17
HETATM   17  C40 UNL     1       2.250  -9.093   0.000  1.00  0.00     0.001 C 
BRANCH  17  18
HETATM   18  C41 UNL     1       0.750  -9.093   0.000  1.00  0.00     0.000 C 
HETATM   19  C42 UNL     1       0.000 -10.392   0.000  1.00  0.00     0.000 C 
ENDBRANCH  17  18
ENDBRANCH  16  17
ENDBRANCH  15  16
ENDBRANCH  12  15
ENDBRANCH  11  12
ENDBRANCH   5   9
ENDBRANCH   3   5
ENDBRANCH   1   2
BRANCH   1  20
HETATM   20  N2  UNL     1       3.750   1.299   0.000  1.00  0.00    -0.216 NA
HETATM   21  C7  UNL     1       5.250   1.299   0.000  1.00  0.00     0.228 C 
HETATM   22  O2  UNL     1       6.000  -0.000   0.000  1.00  0.00    -0.168 OA
BRANCH  21  23
HETATM   23  C8  UNL     1       6.000   2.598   0.000  1.00  0.00     0.118 A 
HETATM   24  N3  UNL     1       5.250   3.897   0.000  1.00  0.00    -0.200 NA
HETATM   25  C9  UNL     1       6.000   5.196   0.000  1.00  0.00     0.301 A 
HETATM   26  O3  UNL     1       7.500   5.196   0.000  1.00  0.00    -0.231 OA
HETATM   27  C15 UNL     1       7.500   4.098   0.000  1.00  0.00     0.003 A 
HETATM   28  C14 UNL     1       7.500   2.598   0.000  1.00  0.00     0.108 A 
HETATM   29  C16 UNL     1       7.500   1.098   0.000  1.00  0.00     0.021 C 
HETATM   30  C17 UNL     1       9.000   2.598   0.000  1.00  0.00     0.021 C 
BRANCH  25  31
HETATM   31  O4  UNL     1       5.250   6.495   0.000  1.00  0.00    -0.295 OA
BRANCH  31  32
HETATM   32  C10 UNL     1       6.000   7.794   0.000  1.00  0.00     0.153 C 
BRANCH  32  33
HETATM   33  C11 UNL     1       5.250   9.093   0.000  1.00  0.00     0.033 C 
BRANCH  33  34
HETATM   34  C12 UNL     1       6.000  10.392   0.000  1.00  0.00     0.003 C 
HETATM   35  C13 UNL     1       5.250  11.691   0.000  1.00  0.00     0.000 C 
ENDBRANCH  33  34
ENDBRANCH  32  33
ENDBRANCH  31  32
ENDBRANCH  25  31
ENDBRANCH  21  23
ENDBRANCH   1  20
BRANCH   1  36
HETATM   36  C18 UNL     1       1.500   0.000   0.000  1.00  0.00    -0.018 A 
HETATM   37  C19 UNL     1       0.750  -1.299   0.000  1.00  0.00     0.031 A 
HETATM   38  C20 UNL     1      -0.750  -1.299   0.000  1.00  0.00     0.055 A 
HETATM   39  C21 UNL     1      -1.500   0.000   0.000  1.00  0.00     0.072 A 
HETATM   40  C33 UNL     1      -0.750   1.299   0.000  1.00  0.00    -0.021 A 
HETATM   41  C36 UNL     1       0.750   1.299   0.000  1.00  0.00     0.047 A 
BRANCH  39  42
HETATM   42  O5  UNL     1      -3.000   0.000   0.000  1.00  0.00    -0.297 OA
BRANCH  42  43
HETATM   43  C22 UNL     1      -3.750  -1.299   0.000  1.00  0.00     0.168 A 
HETATM   44  C23 UNL     1      -5.250  -1.299   0.000  1.00  0.00     0.143 A 
HETATM   45  C24 UNL     1      -6.000  -2.598   0.000  1.00  0.00     0.164 A 
HETATM   46  N4  UNL     1      -5.250  -3.897   0.000  1.00  0.00    -0.208 NA
HETATM   47  C26 UNL     1      -3.750  -3.897   0.000  1.00  0.00     0.158 A 
HETATM   48  N5  UNL     1      -3.000  -2.598   0.000  1.00  0.00    -0.207 NA
BRANCH  45  49
HETATM   49  O6  UNL     1      -7.500  -2.598   0.000  1.00  0.00    -0.315 OA
HETATM   50  C25 UNL     1      -8.250  -1.299   0.000  1.00  0.00     0.183 C 
ENDBRANCH  45  49
BRANCH  47  51
HETATM   51  C27 UNL     1      -3.000  -5.196   0.000  1.00  0.00    -0.008 A 
HETATM   52  C28 UNL     1      -3.750  -6.495   0.000  1.00  0.00     0.025 A 
HETATM   53  C29 UNL     1      -3.000  -7.794   0.000  1.00  0.00     0.004 A 
HETATM   54  C30 UNL     1      -1.500  -7.794   0.000  1.00  0.00     0.001 A 
HETATM   55  C31 UNL     1      -0.750  -6.495   0.000  1.00  0.00     0.004 A 
HETATM   56  C32 UNL     1      -1.500  -5.196   0.000  1.00  0.00     0.025 A 
ENDBRANCH  47  51
ENDBRANCH  42  43
ENDBRANCH  39  42
BRANCH  40  57
HETATM   57  C34 UNL     1      -1.500   2.598   0.000  1.00  0.00     0.024 C 
HETATM   58  C35 UNL     1      -0.750   3.897   0.000  1.00  0.00     0.005 C 
ENDBRANCH  40  57
ENDBRANCH   1  36
TORSDOF 22
