REMARK  11 active torsions:
REMARK  status: ('A' for Active; 'I' for Inactive)
REMARK    1  A    between atoms: C3_3  and  C44_68 
REMARK    2  A    between atoms: C4_5  and  C5_7 
REMARK    3  A    between atoms: C9_16  and  C35_53 
REMARK    4  A    between atoms: O3_17  and  C34_52 
REMARK    5  A    between atoms: C14_22  and  N4_27 
REMARK    6  A    between atoms: C28_42  and  C29_43 
REMARK    7  A    between atoms: C29_43  and  C30_44 
REMARK    8  A    between atoms: C30_44  and  C31_45 
REMARK    9  A    between atoms: C35_53  and  O10_54 
REMARK   10  A    between atoms: N7_56  and  C36_57 
REMARK   11  A    between atoms: C38_60  and  C39_61 
ROOT
HETATM    1  C1  UNL     1       0.750 -11.691   0.000  1.00  0.00    -0.018 A 
HETATM    2  C2  UNL     1       1.500 -12.990   0.000  1.00  0.00     0.071 A 
HETATM    3  C3  UNL     1       0.750 -14.289   0.000  1.00  0.00     0.056 A 
HETATM    4  N1  UNL     1      -0.750 -14.289   0.000  1.00  0.00    -0.247 NA
HETATM    5  C4  UNL     1      -1.500 -12.990   0.000  1.00  0.00     0.123 A 
HETATM    6  O1  UNL     1      -0.750 -11.691   0.000  1.00  0.00     0.000 OA
HETATM    7  O10 UNL     1      -1.511 -10.575   0.000  1.00  0.00     0.000 OA
HETATM    8  C36 UNL     1      -0.750  -9.093   0.000  1.00  0.00     0.042 A 
HETATM    9  O12 UNL     1      -1.336 -10.474   0.000  1.00  0.00     0.000 OA
HETATM   10  C37 UNL     1       0.750  -9.093   0.000  1.00  0.00     0.072 A 
HETATM   11  C38 UNL     1       1.500 -10.392   0.000  1.00  0.00     0.044 A 
ENDROOT
BRANCH   3  12
HETATM   12  C44 UNL     1       1.500 -15.588   0.000  1.00  0.00    -0.026 A 
HETATM   13  C45 UNL     1       0.750 -16.887   0.000  1.00  0.00     0.028 A 
HETATM   14  C46 UNL     1       1.500 -18.186   0.000  1.00  0.00     0.026 A 
HETATM   15  C47 UNL     1       3.000 -18.186   0.000  1.00  0.00    -0.051 A 
HETATM   16  C48 UNL     1       3.750 -19.486   0.000  1.00  0.00     0.021 A 
HETATM   17  C52 UNL     1       3.750 -16.887   0.000  1.00  0.00    -0.048 A 
HETATM   18  C49 UNL     1       5.250 -19.486   0.000  1.00  0.00     0.005 A 
HETATM   19  C50 UNL     1       6.000 -18.186   0.000  1.00  0.00     0.005 A 
HETATM   20  C51 UNL     1       5.250 -16.887   0.000  1.00  0.00     0.022 A 
HETATM   21  C53 UNL     1       3.000 -15.588   0.000  1.00  0.00     0.044 A 
ENDBRANCH   3  12
BRANCH   5  22
HETATM   22  C5  UNL     1      -3.000 -12.990   0.000  1.00  0.00     0.160 A 
HETATM   23  O2  UNL     1      -3.750 -14.289   0.000  1.00  0.00    -0.185 OA
HETATM   24  F3  UNL     1      -4.701 -13.740   0.000  1.00  0.00    -0.175 F 
HETATM   25  C8  UNL     1      -6.000 -12.990   0.000  1.00  0.00     0.416 A 
HETATM   26  C7  UNL     1      -5.250 -11.691   0.000  1.00  0.00     0.213 A 
HETATM   27  F1  UNL     1      -6.750 -14.289   0.000  1.00  0.00    -0.168 F 
HETATM   28  F2  UNL     1      -7.299 -12.240   0.000  1.00  0.00    -0.174 F 
HETATM   29  C6  UNL     1      -3.750 -11.691   0.000  1.00  0.00     0.262 A 
HETATM   30  N3  UNL     1      -6.000 -10.392   0.000  1.00  0.00    -0.321 N 
HETATM   31  O11 UNL     1      -4.042 -11.471   0.000  1.00  0.00     0.000 OA
HETATM   32  N2  UNL     1      -3.000 -10.392   0.000  1.00  0.00     0.005 N 
HETATM   33  C35 UNL     1      -3.000 -10.392   0.000  1.00  0.00     0.254 A 
HETATM   34  C9  UNL     1      -3.750  -9.093   0.000  1.00  0.00     0.236 A 
HETATM   35  C34 UNL     1      -3.750  -9.093   0.000  1.00  0.00     0.236 C 
HETATM   36  O3  UNL     1      -2.708  -8.014   0.000  1.00  0.00     0.000 OA
HETATM   37  C10 UNL     1      -5.250  -9.093   0.000  1.00  0.00     0.149 A 
HETATM   38  C33 UNL     1      -3.000  -7.794   0.000  1.00  0.00     0.178 A 
HETATM   39  N7  UNL     1      -1.500  -7.794   0.000  1.00  0.00    -0.188 NA
HETATM   40  C11 UNL     1      -6.000  -7.794   0.000  1.00  0.00     0.146 A 
HETATM   41  C12 UNL     1      -7.500  -7.794   0.000  1.00  0.00     0.041 A 
HETATM   42  N4  UNL     1      -7.500  -7.794   0.000  1.00  0.00     0.000 N 
HETATM   43  O9  UNL     1      -5.250  -6.495   0.000  1.00  0.00    -0.318 OA
HETATM   44  C13 UNL     1      -8.542  -6.715   0.000  1.00  0.00     0.026 A 
HETATM   45  C14 UNL     1      -8.054  -8.368   0.000  1.00  0.00     0.011 A 
HETATM   46  C16 UNL     1      -8.250  -9.093   0.000  1.00  0.00     0.064 A 
HETATM   47  C17 UNL     1      -8.250  -6.495   0.000  1.00  0.00     0.043 A 
HETATM   48  O5  UNL     1      -9.750  -6.495   0.000  1.00  0.00     0.000 OA
HETATM   49  C41 UNL     1      -9.750  -7.593   0.000  1.00  0.00    -0.052 A 
HETATM   50  C40 UNL     1      -9.750  -9.093   0.000  1.00  0.00     0.021 A 
HETATM   51  C42 UNL     1      -9.750 -10.593   0.000  1.00  0.00     0.004 C 
HETATM   52  C43 UNL     1     -11.250  -9.093   0.000  1.00  0.00     0.004 C 
HETATM   53  C15 UNL     1      -7.500 -10.392   0.000  1.00  0.00     0.169 A 
HETATM   54  O4  UNL     1      -8.250 -11.691   0.000  1.00  0.00    -0.171 OA
HETATM   55  C18 UNL     1      -7.500  -5.196   0.000  1.00  0.00     0.036 A 
HETATM   56  C19 UNL     1      -8.250  -3.897   0.000  1.00  0.00     0.062 A 
HETATM   57  N5  UNL     1      -6.000  -5.196   0.000  1.00  0.00    -0.275 NA
HETATM   58  C20 UNL     1      -7.500  -2.598   0.000  1.00  0.00    -0.044 A 
HETATM   59  C21 UNL     1      -6.000  -2.598   0.000  1.00  0.00     0.046 A 
HETATM   60  C25 UNL     1      -8.250  -1.299   0.000  1.00  0.00    -0.051 A 
HETATM   61  C22 UNL     1      -5.250  -1.299   0.000  1.00  0.00     0.007 A 
HETATM   62  C27 UNL     1      -5.250  -3.897   0.000  1.00  0.00     0.142 A 
HETATM   63  O6  UNL     1      -5.663  -2.455   0.000  1.00  0.00     0.000 OA
HETATM   64  C23 UNL     1      -6.000  -0.000   0.000  1.00  0.00     0.005 A 
HETATM   65  C24 UNL     1      -7.500  -0.000   0.000  1.00  0.00     0.021 A 
HETATM   66  C28 UNL     1      -3.750  -3.897   0.000  1.00  0.00     0.062 A 
HETATM   67  N6  UNL     1      -3.000  -5.196   0.000  1.00  0.00    -0.232 NA
HETATM   68  C32 UNL     1      -3.750  -6.495   0.000  1.00  0.00     0.172 A 
HETATM   69  C26 UNL     1      -9.750  -1.299   0.000  1.00  0.00     0.026 C 
BRANCH  66  70
HETATM   70  C29 UNL     1      -3.000  -2.598   0.000  1.00  0.00     0.055 C 
BRANCH  70  71
HETATM   71  C30 UNL     1      -1.500  -2.598   0.000  1.00  0.00     0.104 C 
BRANCH  71  72
HETATM   72  C31 UNL     1      -0.750  -1.299   0.000  1.00  0.00     0.186 C 
HETATM   73  O7  UNL     1      -1.500   0.000   0.000  1.00  0.00    -0.647 OA
HETATM   74  O8  UNL     1       0.750  -1.299   0.000  1.00  0.00    -0.647 OA
ENDBRANCH  71  72
ENDBRANCH  70  71
ENDBRANCH  66  70
ENDBRANCH   5  22
BRANCH  11  75
HETATM   75  C39 UNL     1       3.000 -10.392   0.000  1.00  0.00     0.207 C 
HETATM   76  O13 UNL     1       3.750  -9.093   0.000  1.00  0.00    -0.644 OA
HETATM   77  O14 UNL     1       3.750 -11.691   0.000  1.00  0.00    -0.644 OA
ENDBRANCH  11  75
TORSDOF 11
