REMARK  0 active torsions:
REMARK  status: ('A' for Active; 'I' for Inactive)
ROOT
HETATM    1  C1  UNL     1       5.300  -9.340   0.000  1.00  0.00     0.061 C 
HETATM    2  C2  UNL     1       6.726  -9.803   0.000  1.00  0.00     0.111 A 
HETATM    3  O1  UNL     1       7.841  -8.800   0.000  1.00  0.00    -0.185 OA
HETATM    4  C3  UNL     1       7.038 -11.271   0.000  1.00  0.00     0.043 A 
HETATM    5  C4  UNL     1       8.409 -11.881   0.000  1.00  0.00     0.013 A 
HETATM    6  C5  UNL     1       9.708 -11.131   0.000  1.00  0.00    -0.024 A 
HETATM    7  C6  UNL     1       8.252 -13.372   0.000  1.00  0.00     0.059 A 
HETATM    8  C7  UNL     1       9.367 -14.376   0.000  1.00  0.00     0.052 C 
HETATM    9  N1  UNL     1       6.785 -13.684   0.000  1.00  0.00    -0.246 NA
HETATM   10  C8  UNL     1       6.035 -12.385   0.000  1.00  0.00     0.124 A 
HETATM   11  C9  UNL     1       4.543 -12.229   0.000  1.00  0.00     0.209 A 
HETATM   12  O2  UNL     1       3.661 -13.442   0.000  1.00  0.00    -0.250 OA
HETATM   13  N2  UNL     1       3.933 -10.858   0.000  1.00  0.00    -0.220 NA
HETATM   14  C10 UNL     1       2.441 -10.701   0.000  1.00  0.00     0.115 A 
HETATM   15  C11 UNL     1       1.831  -9.331   0.000  1.00  0.00     0.206 A 
HETATM   16  O3  UNL     1       0.339  -9.174   0.000  1.00  0.00    -0.250 OA
HETATM   17  N3  UNL     1       2.712  -8.117   0.000  1.00  0.00    -0.219 NA
HETATM   18  C12 UNL     1       2.102  -6.747   0.000  1.00  0.00     0.126 A 
HETATM   19  C13 UNL     1       2.984  -5.534   0.000  1.00  0.00     0.214 A 
HETATM   20  O4  UNL     1       4.476  -5.691   0.000  1.00  0.00    -0.169 OA
HETATM   21  N4  UNL     1       2.374  -4.163   0.000  1.00  0.00    -0.283 N 
HETATM   22  C14 UNL     1       0.907  -3.852   0.000  1.00  0.00     0.074 A 
HETATM   23  C15 UNL     1       0.750  -2.360   0.000  1.00  0.00     0.046 A 
HETATM   24  C16 UNL     1       2.120  -1.750   0.000  1.00  0.00     0.054 A 
HETATM   25  C17 UNL     1       3.124  -2.864   0.000  1.00  0.00     0.085 A 
HETATM   26  C18 UNL     1       4.616  -2.708   0.000  1.00  0.00     0.191 A 
HETATM   27  O5  UNL     1       5.226  -1.337   0.000  1.00  0.00    -0.294 OA
HETATM   28  N5  UNL     1       5.497  -3.921   0.000  1.00  0.00    -0.239 NA
HETATM   29  C19 UNL     1       6.989  -3.764   0.000  1.00  0.00     0.167 A 
HETATM   30  C20 UNL     1       8.337  -3.107   0.000  1.00  0.00     0.060 A 
HETATM   31  C21 UNL     1       7.094  -2.268   0.000  1.00  0.00     0.005 A 
HETATM   32  C22 UNL     1       6.436  -0.920   0.000  1.00  0.00     0.074 A 
HETATM   33  C23 UNL     1       7.275   0.324   0.000  1.00  0.00     0.058 C 
HETATM   34  C24 UNL     1       7.403  -5.206   0.000  1.00  0.00     0.223 A 
HETATM   35  O6  UNL     1       6.361  -6.285   0.000  1.00  0.00    -0.171 OA
HETATM   36  N6  UNL     1       8.858  -5.569   0.000  1.00  0.00    -0.147 NA
HETATM   37  S1  UNL     1       9.272  -7.011   0.000  1.00  0.00     0.209 S 
HETATM   38  O7  UNL     1       7.830  -7.424   0.000  1.00  0.00    -0.117 OA
HETATM   39  O8  UNL     1      10.713  -6.598   0.000  1.00  0.00    -0.216 OA
HETATM   40  C25 UNL     1       9.685  -8.453   0.000  1.00  0.00     0.121 A 
HETATM   41  C26 UNL     1       9.322  -9.908   0.000  1.00  0.00     0.039 A 
HETATM   42  C27 UNL     1      10.764  -9.495   0.000  1.00  0.00     0.022 A 
HETATM   43  C28 UNL     1      -0.750  -2.360   0.000  1.00  0.00     0.006 A 
HETATM   44  C29 UNL     1      -1.010  -3.837   0.000  1.00  0.00     0.000 C 
HETATM   45  C30 UNL     1      -2.159  -1.847   0.000  1.00  0.00     0.000 C 
HETATM   46  C31 UNL     1      -0.000  -1.061   0.000  1.00  0.00     0.006 A 
HETATM   47  C32 UNL     1       1.061   0.000   0.000  1.00  0.00     0.000 A 
HETATM   48  C33 UNL     1       0.000   1.061   0.000  1.00  0.00     0.000 A 
HETATM   49  C34 UNL     1      -1.061   0.000   0.000  1.00  0.00     0.000 A 
HETATM   50  C35 UNL     1       0.611  -6.590   0.000  1.00  0.00     0.155 A 
HETATM   51  C36 UNL     1       0.454  -8.082   0.000  1.00  0.00     0.013 A 
HETATM   52  C37 UNL     1       0.767  -5.099   0.000  1.00  0.00    -0.097 A 
HETATM   53  C38 UNL     1      -0.881  -6.434   0.000  1.00  0.00     0.033 C 
HETATM   54  C39 UNL     1       1.559 -11.915   0.000  1.00  0.00     0.108 A 
HETATM   55  C40 UNL     1       2.773 -12.797   0.000  1.00  0.00     0.001 A 
HETATM   56  C41 UNL     1       0.346 -11.033   0.000  1.00  0.00     0.021 C 
HETATM   57  C42 UNL     1       0.678 -13.128   0.000  1.00  0.00     0.021 C 
ENDROOT
TORSDOF 0
