REMARK  9 active torsions:
REMARK  status: ('A' for Active; 'I' for Inactive)
REMARK    1  A    between atoms: C5_5  and  C16_20 
REMARK    2  A    between atoms: C6_7  and  C7_9 
REMARK    3  A    between atoms: C7_9  and  C8_10 
REMARK    4  A    between atoms: C8_10  and  C9_11 
REMARK    5  A    between atoms: C9_11  and  C10_12 
REMARK       I    between atoms: C16_20  and  N3_22 
REMARK    6  A    between atoms: C20_26  and  C21_27 
REMARK    7  A    between atoms: C22_30  and  C27_35 
REMARK       I    between atoms: C27_35  and  N5_37 
REMARK    8  A    between atoms: N5_37  and  S1_38 
REMARK    9  A    between atoms: S1_38  and  N6_41 
ROOT
HETATM    1  C16 UNL     1       2.984  -5.534   0.000  1.00  0.00     0.209 C 
HETATM    2  O3  UNL     1       4.476  -5.691   0.000  1.00  0.00    -0.170 OA
HETATM    3  N3  UNL     1       2.374  -4.163   0.000  1.00  0.00    -0.306 N 
HETATM    4  C17 UNL     1       0.907  -3.852   0.000  1.00  0.00     0.108 A 
HETATM    5  C18 UNL     1       0.750  -2.360   0.000  1.00  0.00     0.027 A 
HETATM    6  C19 UNL     1       2.120  -1.750   0.000  1.00  0.00     0.049 A 
HETATM    7  C20 UNL     1       3.124  -2.864   0.000  1.00  0.00     0.080 A 
HETATM    8  C32 UNL     1      -0.750  -2.360   0.000  1.00  0.00     0.002 A 
HETATM    9  C33 UNL     1      -1.010  -3.837   0.000  1.00  0.00     0.000 C 
HETATM   10  C34 UNL     1      -2.159  -1.847   0.000  1.00  0.00     0.000 C 
HETATM   11  C35 UNL     1      -0.000  -1.061   0.000  1.00  0.00     0.002 A 
HETATM   12  C36 UNL     1       1.061   0.000   0.000  1.00  0.00     0.000 A 
HETATM   13  C37 UNL     1       0.000   1.061   0.000  1.00  0.00     0.000 A 
HETATM   14  C38 UNL     1      -1.061   0.000   0.000  1.00  0.00     0.000 A 
ENDROOT
BRANCH   1  15
HETATM   15  C5  UNL     1       2.102  -6.747   0.000  1.00  0.00     0.115 A 
HETATM   16  C2  UNL     1       2.712  -8.117   0.000  1.00  0.00     0.108 A 
HETATM   17  C1  UNL     1       1.342  -8.728   0.000  1.00  0.00     0.000 A 
HETATM   18  C3  UNL     1       4.083  -7.507   0.000  1.00  0.00     0.021 C 
HETATM   19  C4  UNL     1       3.323  -9.488   0.000  1.00  0.00     0.021 C 
HETATM   20  O1  UNL     1       0.339  -9.174   0.000  1.00  0.00    -0.256 OA
HETATM   21  C6  UNL     1      -0.271  -7.804   0.000  1.00  0.00     0.168 A 
HETATM   22  N1  UNL     1       0.611  -6.590   0.000  1.00  0.00    -0.225 NA
BRANCH  21  23
HETATM   23  C7  UNL     1      -1.763  -7.647   0.000  1.00  0.00     0.073 C 
BRANCH  23  24
HETATM   24  C8  UNL     1      -2.644  -8.861   0.000  1.00  0.00     0.012 A 
HETATM   25  C11 UNL     1      -3.687  -7.782   0.000  1.00  0.00     0.001 A 
HETATM   26  C12 UNL     1      -5.142  -8.145   0.000  1.00  0.00     0.000 A 
HETATM   27  C13 UNL     1      -5.555  -9.586   0.000  1.00  0.00     0.000 A 
HETATM   28  C14 UNL     1      -4.513 -10.665   0.000  1.00  0.00     0.000 A 
HETATM   29  C15 UNL     1      -3.058 -10.303   0.000  1.00  0.00     0.001 A 
BRANCH  24  30
HETATM   30  C9  UNL     1      -1.296  -9.518   0.000  1.00  0.00     0.074 C 
BRANCH  30  31
HETATM   31  C10 UNL     1      -1.192 -11.015   0.000  1.00  0.00     0.451 C 
HETATM   32  O2  UNL     1      -2.435 -11.853   0.000  1.00  0.00    -0.182 OA
HETATM   33  N2  UNL     1       0.157 -11.672   0.000  1.00  0.00     0.652 N 
ENDBRANCH  30  31
ENDBRANCH  24  30
ENDBRANCH  23  24
ENDBRANCH  21  23
ENDBRANCH   1  15
BRANCH   7  34
HETATM   34  C21 UNL     1       4.616  -2.708   0.000  1.00  0.00     0.190 A 
HETATM   35  O4  UNL     1       5.226  -1.337   0.000  1.00  0.00    -0.294 OA
HETATM   36  C25 UNL     1       6.436  -0.920   0.000  1.00  0.00     0.074 A 
HETATM   37  C24 UNL     1       7.094  -2.268   0.000  1.00  0.00     0.005 A 
HETATM   38  C26 UNL     1       7.275   0.324   0.000  1.00  0.00     0.058 C 
HETATM   39  C22 UNL     1       6.989  -3.764   0.000  1.00  0.00     0.167 A 
HETATM   40  C23 UNL     1       8.337  -3.107   0.000  1.00  0.00     0.060 A 
HETATM   41  N4  UNL     1       5.497  -3.921   0.000  1.00  0.00    -0.239 NA
BRANCH  39  42
HETATM   42  C27 UNL     1       7.403  -5.206   0.000  1.00  0.00     0.226 C 
HETATM   43  O5  UNL     1       6.361  -6.285   0.000  1.00  0.00    -0.171 OA
HETATM   44  N5  UNL     1       8.858  -5.569   0.000  1.00  0.00    -0.119 NA
BRANCH  44  45
HETATM   45  S1  UNL     1       9.272  -7.011   0.000  1.00  0.00     0.346 S 
HETATM   46  O6  UNL     1      10.713  -6.598   0.000  1.00  0.00    -0.180 OA
HETATM   47  O7  UNL     1       7.830  -7.424   0.000  1.00  0.00    -0.180 OA
BRANCH  45  48
HETATM   48  N6  UNL     1       9.685  -8.453   0.000  1.00  0.00    -0.260 N 
HETATM   49  C28 UNL     1       8.762  -9.635   0.000  1.00  0.00     0.115 A 
HETATM   50  C29 UNL     1       9.600 -10.878   0.000  1.00  0.00     0.027 A 
HETATM   51  C30 UNL     1      11.042 -10.465   0.000  1.00  0.00     0.027 A 
HETATM   52  C31 UNL     1      11.095  -8.966   0.000  1.00  0.00     0.115 A 
ENDBRANCH  45  48
ENDBRANCH  44  45
ENDBRANCH  39  42
ENDBRANCH   7  34
TORSDOF 9
