REMARK  4 active torsions:
REMARK  status: ('A' for Active; 'I' for Inactive)
REMARK    1  A    between atoms: C2_3  and  C13_23 
REMARK    2  A    between atoms: C6_8  and  C9_11 
REMARK       I    between atoms: C9_11  and  N3_13 
REMARK    3  A    between atoms: N3_13  and  C10_14 
REMARK    4  A    between atoms: C13_23  and  C14_26 
ROOT
HETATM    1  C1  UNL     1      -2.640  -3.189   0.000  1.00  0.00     0.132 C 
HETATM    2  N1  UNL     1      -1.214  -2.726   0.000  1.00  0.00    -0.312 N 
HETATM    3  C2  UNL     1      -0.000  -3.607   0.000  1.00  0.00     0.185 A 
HETATM    4  N2  UNL     1       1.214  -2.726   0.000  1.00  0.00    -0.231 NA
HETATM    5  C3  UNL     1       0.750  -1.299   0.000  1.00  0.00     0.073 A 
HETATM    6  C4  UNL     1       1.500   0.000   0.000  1.00  0.00     0.051 A 
HETATM    7  C5  UNL     1       0.750   1.299   0.000  1.00  0.00     0.032 A 
HETATM    8  C6  UNL     1      -0.750   1.299   0.000  1.00  0.00     0.006 A 
HETATM    9  C7  UNL     1      -1.500   0.000   0.000  1.00  0.00     0.071 A 
HETATM   10  C8  UNL     1      -0.750  -1.299   0.000  1.00  0.00     0.056 A 
ENDROOT
BRANCH   3  11
HETATM   11  C13 UNL     1      -0.000  -5.107   0.000  1.00  0.00     0.354 C 
HETATM   12  F1  UNL     1      -1.500  -5.107   0.000  1.00  0.00    -0.192 F 
HETATM   13  F2  UNL     1       1.500  -5.107   0.000  1.00  0.00    -0.192 F 
BRANCH  11  14
HETATM   14  C14 UNL     1      -0.000  -6.607   0.000  1.00  0.00     0.274 A 
HETATM   15  N4  UNL     1       1.214  -7.489   0.000  1.00  0.00    -0.246 NA
HETATM   16  C15 UNL     1       0.750  -8.916   0.000  1.00  0.00     0.076 A 
HETATM   17  C16 UNL     1       1.500 -10.215   0.000  1.00  0.00     0.105 A 
HETATM   18  C20 UNL     1      -0.750  -8.916   0.000  1.00  0.00     0.076 A 
HETATM   19  C17 UNL     1       0.750 -11.514   0.000  1.00  0.00     0.147 A 
HETATM   20  F3  UNL     1       1.500 -12.813   0.000  1.00  0.00    -0.206 F 
HETATM   21  C18 UNL     1      -0.750 -11.514   0.000  1.00  0.00     0.147 A 
HETATM   22  F4  UNL     1      -1.500 -12.813   0.000  1.00  0.00    -0.206 F 
HETATM   23  C19 UNL     1      -1.500 -10.215   0.000  1.00  0.00     0.105 A 
HETATM   24  N5  UNL     1      -1.214  -7.489   0.000  1.00  0.00    -0.246 NA
ENDBRANCH  11  14
ENDBRANCH   3  11
BRANCH   8  25
HETATM   25  C9  UNL     1      -1.500   2.598   0.000  1.00  0.00     0.205 C 
HETATM   26  O1  UNL     1      -3.000   2.598   0.000  1.00  0.00    -0.170 OA
HETATM   27  N3  UNL     1      -0.750   3.897   0.000  1.00  0.00    -0.220 NA
BRANCH  27  28
HETATM   28  C10 UNL     1      -1.500   5.196   0.000  1.00  0.00     0.126 A 
HETATM   29  C11 UNL     1      -0.750   6.495   0.000  1.00  0.00     0.171 A 
HETATM   30  P1  UNL     1      -1.500   7.794   0.000  1.00  0.00     0.299 P 
HETATM   31  O2  UNL     1      -2.250   9.093   0.000  1.00  0.00    -0.644 OA
HETATM   32  O3  UNL     1      -0.201   8.544   0.000  1.00  0.00    -0.644 OA
HETATM   33  O4  UNL     1      -2.799   7.044   0.000  1.00  0.00    -0.140 OA
HETATM   34  O5  UNL     1      -3.750   6.495   0.000  1.00  0.00    -0.158 OA
HETATM   35  C12 UNL     1      -3.000   5.196   0.000  1.00  0.00     0.275 A 
HETATM   36  O6  UNL     1      -3.750   3.897   0.000  1.00  0.00    -0.159 OA
ENDBRANCH  27  28
ENDBRANCH   8  25
TORSDOF 4
