REMARK  10 active torsions:
REMARK  status: ('A' for Active; 'I' for Inactive)
REMARK    1  A    between atoms: C3_3  and  N1_4 
REMARK       I    between atoms: N1_4  and  C4_5 
REMARK    2  A    between atoms: C4_5  and  C5_7 
REMARK    3  A    between atoms: C7_9  and  O5_34 
REMARK    4  A    between atoms: C10_14  and  N3_15 
REMARK       I    between atoms: N3_15  and  C11_16 
REMARK    5  A    between atoms: C11_16  and  C12_18 
REMARK    6  A    between atoms: C12_18  and  N4_19 
REMARK    7  A    between atoms: C12_18  and  C18_28 
REMARK       I    between atoms: N4_19  and  C13_20 
REMARK    8  A    between atoms: C13_20  and  C14_22 
REMARK    9  A    between atoms: O5_34  and  C24_35 
REMARK   10  A    between atoms: C24_35  and  C25_36 
ROOT
HETATM    1  C5  UNL     1       8.382  -3.983   0.000  1.00  0.00     0.093 A 
HETATM    2  C6  UNL     1       9.808  -4.446   0.000  1.00  0.00     0.100 A 
HETATM    3  C7  UNL     1       9.808  -5.946   0.000  1.00  0.00     0.094 A 
HETATM    4  C8  UNL     1       8.382  -6.410   0.000  1.00  0.00     0.084 A 
HETATM    5  N2  UNL     1       7.500  -5.196   0.000  1.00  0.00    -0.283 N 
HETATM    6  C9  UNL     1       6.000  -5.196   0.000  1.00  0.00     0.216 A 
HETATM    7  O2  UNL     1       5.250  -3.897   0.000  1.00  0.00    -0.169 OA
HETATM    8  C10 UNL     1       5.250  -6.495   0.000  1.00  0.00     0.122 A 
HETATM    9  C21 UNL     1       6.000  -7.794   0.000  1.00  0.00     0.001 A 
HETATM   10  C22 UNL     1       7.500  -7.794   0.000  1.00  0.00     0.017 A 
HETATM   11  C23 UNL     1       5.250  -9.093   0.000  1.00  0.00     0.033 C 
ENDROOT
BRANCH   1  12
HETATM   12  C4  UNL     1       7.918  -2.556   0.000  1.00  0.00     0.225 C 
HETATM   13  N1  UNL     1       8.922  -1.441   0.000  1.00  0.00    -0.221 NA
HETATM   14  O1  UNL     1       6.451  -2.244   0.000  1.00  0.00    -0.168 OA
BRANCH  13  15
HETATM   15  C3  UNL     1       8.458  -0.015   0.000  1.00  0.00     0.088 A 
HETATM   16  C2  UNL     1       9.462   1.100   0.000  1.00  0.00     0.048 A 
HETATM   17  C1  UNL     1       8.998   2.527   0.000  1.00  0.00     0.007 A 
HETATM   18  O7  UNL     1       7.531   2.838   0.000  1.00  0.00     0.000 OA
HETATM   19  C32 UNL     1       6.528   1.724   0.000  1.00  0.00     0.127 A 
HETATM   20  C36 UNL     1       7.068   4.265   0.000  1.00  0.00    -0.029 A 
HETATM   21  C31 UNL     1       6.991   0.297   0.000  1.00  0.00     0.164 A 
HETATM   22  N7  UNL     1       5.060   2.036   0.000  1.00  0.00    -0.246 NA
HETATM   23  O6  UNL     1       5.987  -0.818   0.000  1.00  0.00    -0.187 OA
HETATM   24  C33 UNL     1       4.597   3.462   0.000  1.00  0.00     0.055 A 
HETATM   25  C34 UNL     1       3.130   3.774   0.000  1.00  0.00     0.052 C 
HETATM   26  C35 UNL     1       5.601   4.577   0.000  1.00  0.00    -0.013 A 
HETATM   27  C40 UNL     1       5.137   6.003   0.000  1.00  0.00     0.027 A 
HETATM   28  C39 UNL     1       6.141   7.118   0.000  1.00  0.00     0.005 A 
HETATM   29  C38 UNL     1       7.608   6.806   0.000  1.00  0.00     0.005 A 
HETATM   30  C37 UNL     1       8.071   5.380   0.000  1.00  0.00     0.026 A 
ENDBRANCH  13  15
ENDBRANCH   1  12
BRANCH   3  31
HETATM   31  O5  UNL     1      11.022  -6.828   0.000  1.00  0.00    -0.333 OA
BRANCH  31  32
HETATM   32  C24 UNL     1      10.865  -8.320   0.000  1.00  0.00     0.148 C 
BRANCH  32  33
HETATM   33  C25 UNL     1      12.079  -9.201   0.000  1.00  0.00     0.030 A 
HETATM   34  C26 UNL     1      11.922 -10.693   0.000  1.00  0.00     0.003 A 
HETATM   35  C27 UNL     1      13.135 -11.575   0.000  1.00  0.00     0.000 A 
HETATM   36  C28 UNL     1      14.506 -10.965   0.000  1.00  0.00     0.000 A 
HETATM   37  C29 UNL     1      14.662  -9.473   0.000  1.00  0.00     0.000 A 
HETATM   38  C30 UNL     1      13.449  -8.591   0.000  1.00  0.00     0.003 A 
ENDBRANCH  32  33
ENDBRANCH  31  32
ENDBRANCH   3  31
BRANCH   8  39
HETATM   39  N3  UNL     1       3.750  -6.495   0.000  1.00  0.00    -0.215 NA
HETATM   40  C11 UNL     1       3.000  -5.196   0.000  1.00  0.00     0.230 C 
HETATM   41  O3  UNL     1       3.750  -3.897   0.000  1.00  0.00    -0.168 OA
BRANCH  40  42
HETATM   42  C12 UNL     1       1.500  -5.196   0.000  1.00  0.00     0.119 C 
BRANCH  42  43
HETATM   43  N4  UNL     1       0.750  -3.897   0.000  1.00  0.00    -0.216 NA
HETATM   44  C13 UNL     1       1.500  -2.598   0.000  1.00  0.00     0.228 C 
HETATM   45  O4  UNL     1       3.000  -2.598   0.000  1.00  0.00    -0.168 OA
BRANCH  44  46
HETATM   46  C14 UNL     1       0.750  -1.299   0.000  1.00  0.00     0.121 A 
HETATM   47  C15 UNL     1       1.500   0.000   0.000  1.00  0.00     0.169 A 
HETATM   48  N5  UNL     1       0.750   1.299   0.000  1.00  0.00    -0.287 NA
HETATM   49  C16 UNL     1      -0.750   1.299   0.000  1.00  0.00     0.146 A 
HETATM   50  C17 UNL     1      -1.500   0.000   0.000  1.00  0.00     0.151 A 
HETATM   51  N6  UNL     1      -0.750  -1.299   0.000  1.00  0.00    -0.267 NA
ENDBRANCH  44  46
ENDBRANCH  42  43
BRANCH  42  52
HETATM   52  C18 UNL     1       0.750  -6.495   0.000  1.00  0.00    -0.022 C 
HETATM   53  C19 UNL     1       1.500  -7.794   0.000  1.00  0.00     0.028 C 
HETATM   54  C20 UNL     1      -0.750  -6.495   0.000  1.00  0.00     0.028 C 
ENDBRANCH  42  52
ENDBRANCH  40  42
ENDBRANCH   8  39
TORSDOF 10
