REMARK  6 active torsions:
REMARK  status: ('A' for Active; 'I' for Inactive)
REMARK    1  A    between atoms: C10_10  and  C35_45 
REMARK    2  A    between atoms: N4_28  and  C22_29 
REMARK    3  A    between atoms: C22_29  and  C23_30 
REMARK    4  A    between atoms: C36_48  and  C41_53 
REMARK       I    between atoms: C41_53  and  N6_55 
REMARK    5  A    between atoms: N6_55  and  S1_56 
REMARK    6  A    between atoms: S1_56  and  N7_59 
ROOT
HETATM    1  C1  UNL     1       2.159  -1.847   0.000  1.00  0.00     0.000 C 
HETATM    2  C2  UNL     1       0.750  -2.360   0.000  1.00  0.00     0.003 A 
HETATM    3  C3  UNL     1       1.010  -3.837   0.000  1.00  0.00     0.000 C 
HETATM    4  C4  UNL     1      -0.000  -1.061   0.000  1.00  0.00     0.010 A 
HETATM    5  C5  UNL     1       1.061   0.000   0.000  1.00  0.00     0.022 A 
HETATM    6  C6  UNL     1       0.000   1.061   0.000  1.00  0.00    -0.047 A 
HETATM    7  C7  UNL     1      -1.061   0.000   0.000  1.00  0.00     0.022 A 
HETATM    8  C8  UNL     1      -0.750  -2.360   0.000  1.00  0.00     0.027 A 
HETATM    9  C9  UNL     1      -0.907  -3.852   0.000  1.00  0.00     0.049 A 
HETATM   10  C10 UNL     1      -2.374  -4.163   0.000  1.00  0.00     0.080 A 
HETATM   11  N1  UNL     1      -3.124  -2.864   0.000  1.00  0.00    -0.306 N 
HETATM   12  C11 UNL     1      -2.120  -1.750   0.000  1.00  0.00     0.108 A 
HETATM   13  C12 UNL     1      -4.616  -2.708   0.000  1.00  0.00     0.212 A 
HETATM   14  O1  UNL     1      -5.497  -3.921   0.000  1.00  0.00    -0.169 OA
HETATM   15  C13 UNL     1      -5.226  -1.337   0.000  1.00  0.00     0.123 A 
HETATM   16  N2  UNL     1      -4.344  -0.124   0.000  1.00  0.00    -0.217 NA
HETATM   17  C14 UNL     1      -4.954   1.247   0.000  1.00  0.00     0.200 A 
HETATM   18  O2  UNL     1      -6.446   1.403   0.000  1.00  0.00    -0.290 OA
HETATM   19  C15 UNL     1      -4.073   2.460   0.000  1.00  0.00     0.122 A 
HETATM   20  N3  UNL     1      -2.581   2.303   0.000  1.00  0.00    -0.217 NA
HETATM   21  C16 UNL     1      -1.699   3.517   0.000  1.00  0.00     0.198 A 
HETATM   22  O3  UNL     1      -2.309   4.887   0.000  1.00  0.00    -0.293 OA
HETATM   23  C17 UNL     1      -0.207   3.360   0.000  1.00  0.00     0.094 A 
HETATM   24  C18 UNL     1       0.403   1.990   0.000  1.00  0.00    -0.011 A 
HETATM   25  C19 UNL     1       1.895   1.833   0.000  1.00  0.00     0.029 A 
HETATM   26  C20 UNL     1       2.776   3.046   0.000  1.00  0.00     0.029 A 
HETATM   27  C21 UNL     1       2.166   4.417   0.000  1.00  0.00     0.102 A 
HETATM   28  N4  UNL     1       0.674   4.574   0.000  1.00  0.00    -0.338 N 
HETATM   29  C24 UNL     1      -4.683   3.830   0.000  1.00  0.00     0.018 A 
HETATM   30  C25 UNL     1      -3.801   5.044   0.000  1.00  0.00     0.077 A 
HETATM   31  C26 UNL     1      -4.411   6.414   0.000  1.00  0.00     0.051 A 
HETATM   32  C27 UNL     1      -5.903   6.571   0.000  1.00  0.00     0.007 A 
HETATM   33  C28 UNL     1      -6.785   5.358   0.000  1.00  0.00     0.005 A 
HETATM   34  C29 UNL     1      -6.175   3.987   0.000  1.00  0.00     0.030 A 
HETATM   35  C30 UNL     1      -6.718  -1.180   0.000  1.00  0.00     0.023 A 
HETATM   36  C31 UNL     1      -7.328   0.190   0.000  1.00  0.00     0.107 A 
HETATM   37  C32 UNL     1      -8.820   0.347   0.000  1.00  0.00     0.193 A 
HETATM   38  O4  UNL     1      -9.701  -0.867   0.000  1.00  0.00    -0.347 OA
HETATM   39  C33 UNL     1      -9.091  -2.237   0.000  1.00  0.00     0.148 A 
HETATM   40  C34 UNL     1      -7.599  -2.394   0.000  1.00  0.00     0.062 A 
ENDROOT
BRANCH  10  41
HETATM   41  C35 UNL     1      -2.984  -5.534   0.000  1.00  0.00     0.190 A 
HETATM   42  O5  UNL     1      -2.102  -6.747   0.000  1.00  0.00    -0.294 OA
HETATM   43  C39 UNL     1      -2.346  -8.004   0.000  1.00  0.00     0.074 A 
HETATM   44  C38 UNL     1      -3.842  -7.900   0.000  1.00  0.00     0.005 A 
HETATM   45  C40 UNL     1      -1.688  -9.352   0.000  1.00  0.00     0.058 C 
HETATM   46  C36 UNL     1      -5.086  -7.061   0.000  1.00  0.00     0.167 A 
HETATM   47  C37 UNL     1      -5.191  -8.557   0.000  1.00  0.00     0.060 A 
HETATM   48  N5  UNL     1      -4.476  -5.691   0.000  1.00  0.00    -0.239 NA
BRANCH  46  49
HETATM   49  C41 UNL     1      -6.542  -6.698   0.000  1.00  0.00     0.226 C 
HETATM   50  O6  UNL     1      -6.955  -5.256   0.000  1.00  0.00    -0.171 OA
HETATM   51  N6  UNL     1      -7.583  -7.777   0.000  1.00  0.00    -0.119 NA
BRANCH  51  52
HETATM   52  S1  UNL     1      -9.039  -7.414   0.000  1.00  0.00     0.346 S 
HETATM   53  O7  UNL     1      -9.402  -8.870   0.000  1.00  0.00    -0.180 OA
HETATM   54  O8  UNL     1      -8.676  -5.959   0.000  1.00  0.00    -0.180 OA
BRANCH  52  55
HETATM   55  N7  UNL     1     -10.494  -7.051   0.000  1.00  0.00    -0.260 N 
HETATM   56  C42 UNL     1     -11.056  -5.660   0.000  1.00  0.00     0.115 A 
HETATM   57  C43 UNL     1     -12.553  -5.765   0.000  1.00  0.00     0.027 A 
HETATM   58  C44 UNL     1     -12.915  -7.220   0.000  1.00  0.00     0.027 A 
HETATM   59  C45 UNL     1     -11.643  -8.015   0.000  1.00  0.00     0.115 A 
ENDBRANCH  52  55
ENDBRANCH  51  52
ENDBRANCH  46  49
ENDBRANCH  10  41
BRANCH  28  60
HETATM   60  C22 UNL     1       0.064   5.944   0.000  1.00  0.00     0.191 C 
BRANCH  60  61
HETATM   61  C23 UNL     1       0.946   7.157   0.000  1.00  0.00     0.278 C 
HETATM   62  F1  UNL     1       0.336   8.528   0.000  1.00  0.00    -0.175 F 
HETATM   63  F2  UNL     1       2.438   7.001   0.000  1.00  0.00    -0.175 F 
ENDBRANCH  60  61
ENDBRANCH  28  60
TORSDOF 6
