REMARK  9 active torsions:
REMARK  status: ('A' for Active; 'I' for Inactive)
REMARK    1  A    between atoms: C2_2  and  N1_5 
REMARK    2  A    between atoms: N1_5  and  C5_6 
REMARK    3  A    between atoms: C6_9  and  C7_10 
REMARK       I    between atoms: C7_10  and  N3_12 
REMARK    4  A    between atoms: C14_20  and  C15_21 
REMARK       I    between atoms: C15_21  and  N4_23 
REMARK    5  A    between atoms: N4_23  and  C16_24 
REMARK    6  A    between atoms: C16_24  and  C17_25 
REMARK    7  A    between atoms: C16_24  and  C21_29 
REMARK    8  A    between atoms: C17_25  and  C18_26 
REMARK    9  A    between atoms: C21_29  and  C22_31 
ROOT
HETATM    1  C7  UNL     1      -3.223  -3.223   0.000  1.00  0.00     0.209 C 
HETATM    2  O2  UNL     1      -4.672  -2.835   0.000  1.00  0.00    -0.170 OA
HETATM    3  N3  UNL     1      -2.163  -2.163   0.000  1.00  0.00    -0.297 N 
HETATM    4  C8  UNL     1      -0.681  -2.397   0.000  1.00  0.00     0.159 A 
HETATM    5  C9  UNL     1      -0.000  -1.061   0.000  1.00  0.00     0.094 A 
HETATM    6  O3  UNL     1       1.061   0.000   0.000  1.00  0.00    -0.334 OA
HETATM    7  C10 UNL     1       0.000   1.061   0.000  1.00  0.00     0.120 A 
HETATM    8  C11 UNL     1      -1.061   2.121   0.000  1.00  0.00     0.035 C 
HETATM    9  C12 UNL     1       1.061   2.121   0.000  1.00  0.00     0.035 C 
HETATM   10  C13 UNL     1      -1.061   0.000   0.000  1.00  0.00     0.042 A 
HETATM   11  C14 UNL     1      -2.397  -0.681   0.000  1.00  0.00     0.106 A 
ENDROOT
BRANCH   1  12
HETATM   12  C6  UNL     1      -2.835  -4.672   0.000  1.00  0.00     0.116 A 
HETATM   13  N2  UNL     1      -1.386  -5.060   0.000  1.00  0.00    -0.205 NA
HETATM   14  C5  UNL     1      -0.998  -6.509   0.000  1.00  0.00     0.277 A 
HETATM   15  O1  UNL     1      -2.058  -7.570   0.000  1.00  0.00    -0.236 OA
HETATM   16  C24 UNL     1      -2.835  -6.793   0.000  1.00  0.00     0.002 A 
HETATM   17  C23 UNL     1      -3.896  -5.733   0.000  1.00  0.00     0.108 A 
HETATM   18  C25 UNL     1      -4.956  -4.672   0.000  1.00  0.00     0.021 C 
HETATM   19  C26 UNL     1      -4.956  -6.793   0.000  1.00  0.00     0.021 C 
BRANCH  14  20
HETATM   20  N1  UNL     1       0.451  -6.897   0.000  1.00  0.00    -0.235 NA
BRANCH  20  21
HETATM   21  C2  UNL     1       0.839  -8.346   0.000  1.00  0.00     0.088 C 
HETATM   22  C1  UNL     1       2.288  -7.958   0.000  1.00  0.00     0.025 C 
HETATM   23  C3  UNL     1      -0.610  -8.735   0.000  1.00  0.00     0.025 C 
HETATM   24  C4  UNL     1       1.228  -9.795   0.000  1.00  0.00     0.025 C 
ENDBRANCH  20  21
ENDBRANCH  14  20
ENDBRANCH   1  12
BRANCH  11  25
HETATM   25  C15 UNL     1      -3.734   0.000   0.000  1.00  0.00     0.228 C 
HETATM   26  O4  UNL     1      -4.992  -0.817   0.000  1.00  0.00    -0.168 OA
HETATM   27  N4  UNL     1      -3.812   1.498   0.000  1.00  0.00    -0.221 NA
BRANCH  27  28
HETATM   28  C16 UNL     1      -5.149   2.179   0.000  1.00  0.00     0.090 C 
BRANCH  28  29
HETATM   29  C17 UNL     1      -5.227   3.677   0.000  1.00  0.00     0.048 C 
BRANCH  29  30
HETATM   30  C18 UNL     1      -3.969   4.494   0.000  1.00  0.00     0.006 A 
HETATM   31  C19 UNL     1      -2.471   4.572   0.000  1.00  0.00     0.000 A 
HETATM   32  C20 UNL     1      -3.288   5.830   0.000  1.00  0.00     0.000 A 
ENDBRANCH  29  30
ENDBRANCH  28  29
BRANCH  28  33
HETATM   33  C21 UNL     1      -6.407   1.362   0.000  1.00  0.00     0.183 C 
HETATM   34  O5  UNL     1      -6.328  -0.136   0.000  1.00  0.00    -0.186 OA
BRANCH  33  35
HETATM   35  C22 UNL     1      -7.743   2.043   0.000  1.00  0.00     0.227 C 
HETATM   36  O6  UNL     1      -7.822   3.541   0.000  1.00  0.00    -0.173 OA
HETATM   37  N5  UNL     1      -9.001   1.226   0.000  1.00  0.00    -0.069 NA
ENDBRANCH  33  35
ENDBRANCH  28  33
ENDBRANCH  27  28
ENDBRANCH  11  25
TORSDOF 9
