REMARK  15 active torsions:
REMARK  status: ('A' for Active; 'I' for Inactive)
REMARK    1  A    between atoms: C2_2  and  C3_3 
REMARK    2  A    between atoms: C3_3  and  C4_4 
REMARK    3  A    between atoms: C4_4  and  N1_5 
REMARK    4  A    between atoms: C4_4  and  C31_47 
REMARK       I    between atoms: N1_5  and  C5_6 
REMARK    5  A    between atoms: C5_6  and  C6_8 
REMARK       I    between atoms: N2_12  and  C10_13 
REMARK    6  A    between atoms: C10_13  and  C11_15 
REMARK    7  A    between atoms: C12_17  and  C13_19 
REMARK    8  A    between atoms: C14_21  and  C15_23 
REMARK    9  A    between atoms: C15_23  and  C16_24 
REMARK   10  A    between atoms: C15_23  and  N5_28 
REMARK   11  A    between atoms: C16_24  and  C17_25 
REMARK   12  A    between atoms: N5_28  and  C18_29 
REMARK   13  A    between atoms: C19_31  and  C20_32 
REMARK   14  A    between atoms: C20_32  and  C21_33 
REMARK   15  A    between atoms: C24_40  and  C26_42 
ROOT
HETATM    1  C13 UNL     1      -4.084  -4.246   0.000  1.00  0.00     0.119 A 
HETATM    2  N4  UNL     1      -4.548  -2.819   0.000  1.00  0.00    -0.218 NA
HETATM    3  C14 UNL     1      -6.015  -2.507   0.000  1.00  0.00     0.193 A 
HETATM    4  O4  UNL     1      -7.019  -3.622   0.000  1.00  0.00    -0.309 OA
HETATM    5  C24 UNL     1      -5.088  -5.361   0.000  1.00  0.00     0.007 A 
HETATM    6  C25 UNL     1      -6.555  -5.049   0.000  1.00  0.00     0.174 A 
ENDROOT
BRANCH   1   7
HETATM    7  C12 UNL     1      -2.617  -4.558   0.000  1.00  0.00     0.196 A 
HETATM    8  N3  UNL     1      -1.613  -3.443   0.000  1.00  0.00    -0.218 NA
HETATM    9  C11 UNL     1      -0.146  -3.755   0.000  1.00  0.00     0.120 A 
HETATM   10  C28 UNL     1       0.318  -5.181   0.000  1.00  0.00     0.007 A 
HETATM   11  C29 UNL     1      -0.686  -6.296   0.000  1.00  0.00     0.174 A 
HETATM   12  C30 UNL     1       1.785  -5.493   0.000  1.00  0.00     0.031 C 
HETATM   13  O3  UNL     1      -2.153  -5.984   0.000  1.00  0.00    -0.309 OA
BRANCH   9  14
HETATM   14  C10 UNL     1       0.858  -2.640   0.000  1.00  0.00     0.211 C 
HETATM   15  N2  UNL     1       0.394  -1.214   0.000  1.00  0.00    -0.306 N 
HETATM   16  C6  UNL     1       1.276   0.000   0.000  1.00  0.00     0.083 A 
HETATM   17  C9  UNL     1      -1.032  -0.750   0.000  1.00  0.00     0.108 A 
HETATM   18  C7  UNL     1       0.394   1.214   0.000  1.00  0.00     0.050 A 
HETATM   19  C8  UNL     1      -1.032   0.750   0.000  1.00  0.00     0.031 A 
HETATM   20  O2  UNL     1       2.325  -2.952   0.000  1.00  0.00    -0.169 OA
BRANCH  16  21
HETATM   21  C5  UNL     1       2.776   0.000   0.000  1.00  0.00     0.224 C 
HETATM   22  N1  UNL     1       3.526  -1.299   0.000  1.00  0.00    -0.217 NA
HETATM   23  O1  UNL     1       3.526   1.299   0.000  1.00  0.00    -0.168 OA
BRANCH  22  24
HETATM   24  C4  UNL     1       5.026  -1.299   0.000  1.00  0.00     0.125 C 
BRANCH  24  25
HETATM   25  C3  UNL     1       5.776  -2.598   0.000  1.00  0.00     0.052 C 
BRANCH  25  26
HETATM   26  C2  UNL     1       7.276  -2.598   0.000  1.00  0.00     0.006 C 
HETATM   27  C1  UNL     1       8.026  -3.897   0.000  1.00  0.00     0.000 C 
ENDBRANCH  25  26
ENDBRANCH  24  25
BRANCH  24  28
HETATM   28  C31 UNL     1       5.776   0.000   0.000  1.00  0.00     0.225 C 
HETATM   29  O11 UNL     1       5.026   1.299   0.000  1.00  0.00    -0.643 OA
HETATM   30  O12 UNL     1       7.276   0.000   0.000  1.00  0.00    -0.643 OA
ENDBRANCH  24  28
ENDBRANCH  22  24
ENDBRANCH  16  21
ENDBRANCH   9  14
ENDBRANCH   1   7
BRANCH   5  31
HETATM   31  C26 UNL     1      -4.624  -6.787   0.000  1.00  0.00     0.026 C 
HETATM   32  C27 UNL     1      -5.628  -7.902   0.000  1.00  0.00     0.005 C 
ENDBRANCH   5  31
BRANCH   3  33
HETATM   33  C15 UNL     1      -6.478  -1.081   0.000  1.00  0.00     0.113 C 
BRANCH  33  34
HETATM   34  C16 UNL     1      -7.946  -0.769   0.000  1.00  0.00     0.147 C 
BRANCH  34  35
HETATM   35  C17 UNL     1      -8.949  -1.884   0.000  1.00  0.00     0.192 C 
HETATM   36  O5  UNL     1      -8.486  -3.310   0.000  1.00  0.00    -0.647 OA
HETATM   37  O6  UNL     1     -10.416  -1.572   0.000  1.00  0.00    -0.647 OA
ENDBRANCH  34  35
ENDBRANCH  33  34
BRANCH  33  38
HETATM   38  N5  UNL     1      -5.475   0.034   0.000  1.00  0.00    -0.222 NA
BRANCH  38  39
HETATM   39  C18 UNL     1      -5.938   1.460   0.000  1.00  0.00     0.193 A 
HETATM   40  O7  UNL     1      -7.405   1.772   0.000  1.00  0.00    -0.305 OA
HETATM   41  C23 UNL     1      -7.869   3.199   0.000  1.00  0.00     0.224 A 
HETATM   42  C22 UNL     1      -6.865   4.314   0.000  1.00  0.00     0.220 A 
HETATM   43  N6  UNL     1      -5.398   4.002   0.000  1.00  0.00    -0.222 NA
HETATM   44  O10 UNL     1      -7.329   5.740   0.000  1.00  0.00    -0.171 OA
HETATM   45  C19 UNL     1      -4.934   2.575   0.000  1.00  0.00     0.113 A 
BRANCH  45  46
HETATM   46  C20 UNL     1      -3.467   2.263   0.000  1.00  0.00     0.147 C 
BRANCH  46  47
HETATM   47  C21 UNL     1      -2.463   3.378   0.000  1.00  0.00     0.192 C 
HETATM   48  O8  UNL     1      -2.927   4.805   0.000  1.00  0.00    -0.647 OA
HETATM   49  O9  UNL     1      -0.996   3.066   0.000  1.00  0.00    -0.647 OA
ENDBRANCH  46  47
ENDBRANCH  45  46
ENDBRANCH  38  39
ENDBRANCH  33  38
ENDBRANCH   3  33
TORSDOF 15
