REMARK  3 active torsions:
REMARK  status: ('A' for Active; 'I' for Inactive)
REMARK    1  A    between atoms: S1_6  and  N2_9 
REMARK       I    between atoms: N2_9  and  C5_10 
REMARK    2  A    between atoms: C5_10  and  C6_12 
REMARK    3  A    between atoms: C11_18  and  C12_20 
ROOT
HETATM    1  C12 UNL     1       2.374  -4.163   0.000  1.00  0.00     0.080 A 
HETATM    2  C13 UNL     1       0.907  -3.852   0.000  1.00  0.00     0.049 A 
HETATM    3  C14 UNL     1       0.750  -2.360   0.000  1.00  0.00     0.027 A 
HETATM    4  C15 UNL     1       2.120  -1.750   0.000  1.00  0.00     0.108 A 
HETATM    5  N4  UNL     1       3.124  -2.864   0.000  1.00  0.00    -0.306 N 
HETATM    6  C16 UNL     1       4.616  -2.708   0.000  1.00  0.00     0.209 A 
HETATM    7  O5  UNL     1       5.497  -3.921   0.000  1.00  0.00    -0.170 OA
HETATM    8  C17 UNL     1       5.226  -1.337   0.000  1.00  0.00     0.115 A 
HETATM    9  N5  UNL     1       4.344  -0.124   0.000  1.00  0.00    -0.220 NA
HETATM   10  C18 UNL     1       4.954   1.247   0.000  1.00  0.00     0.209 A 
HETATM   11  O6  UNL     1       6.446   1.403   0.000  1.00  0.00    -0.250 OA
HETATM   12  C19 UNL     1       4.073   2.460   0.000  1.00  0.00     0.123 A 
HETATM   13  N6  UNL     1       2.581   2.303   0.000  1.00  0.00    -0.218 NA
HETATM   14  C20 UNL     1       1.699   3.517   0.000  1.00  0.00     0.196 A 
HETATM   15  O7  UNL     1       2.309   4.887   0.000  1.00  0.00    -0.293 OA
HETATM   16  C21 UNL     1       0.207   3.360   0.000  1.00  0.00     0.103 A 
HETATM   17  C22 UNL     1      -0.674   4.574   0.000  1.00  0.00     0.167 A 
HETATM   18  N7  UNL     1      -2.166   4.417   0.000  1.00  0.00    -0.287 NA
HETATM   19  C23 UNL     1      -2.776   3.046   0.000  1.00  0.00     0.145 A 
HETATM   20  C24 UNL     1      -1.895   1.833   0.000  1.00  0.00     0.131 A 
HETATM   21  N8  UNL     1      -0.403   1.990   0.000  1.00  0.00    -0.332 N 
HETATM   22  C25 UNL     1       4.683   3.830   0.000  1.00  0.00     0.018 A 
HETATM   23  C26 UNL     1       6.175   3.987   0.000  1.00  0.00     0.030 A 
HETATM   24  C27 UNL     1       6.785   5.358   0.000  1.00  0.00     0.005 A 
HETATM   25  C28 UNL     1       5.903   6.571   0.000  1.00  0.00     0.007 A 
HETATM   26  C29 UNL     1       4.411   6.414   0.000  1.00  0.00     0.051 A 
HETATM   27  C30 UNL     1       3.801   5.044   0.000  1.00  0.00     0.077 A 
HETATM   28  C31 UNL     1       6.718  -1.180   0.000  1.00  0.00     0.108 A 
HETATM   29  C32 UNL     1       6.561   0.311   0.000  1.00  0.00     0.001 A 
HETATM   30  C33 UNL     1       6.875  -2.672   0.000  1.00  0.00     0.021 C 
HETATM   31  C34 UNL     1       8.210  -1.024   0.000  1.00  0.00     0.021 C 
HETATM   32  C35 UNL     1      -0.750  -2.360   0.000  1.00  0.00     0.003 A 
HETATM   33  C36 UNL     1      -1.010  -3.837   0.000  1.00  0.00     0.000 C 
HETATM   34  C37 UNL     1      -2.159  -1.847   0.000  1.00  0.00     0.000 C 
HETATM   35  C38 UNL     1      -0.000  -1.061   0.000  1.00  0.00     0.013 A 
HETATM   36  C39 UNL     1       1.061   0.000   0.000  1.00  0.00     0.040 A 
HETATM   37  C40 UNL     1       0.000   1.061   0.000  1.00  0.00     0.015 A 
HETATM   38  C41 UNL     1      -1.061   0.000   0.000  1.00  0.00     0.040 A 
ENDROOT
BRANCH   1  39
HETATM   39  C11 UNL     1       2.984  -5.534   0.000  1.00  0.00     0.190 A 
HETATM   40  N3  UNL     1       2.102  -6.747   0.000  1.00  0.00    -0.239 NA
HETATM   41  C6  UNL     1       2.712  -8.117   0.000  1.00  0.00     0.167 A 
HETATM   42  C7  UNL     1       3.755  -9.197   0.000  1.00  0.00     0.060 A 
HETATM   43  C8  UNL     1       4.168  -7.755   0.000  1.00  0.00     0.005 A 
HETATM   44  C9  UNL     1       5.247  -6.713   0.000  1.00  0.00     0.074 A 
HETATM   45  C10 UNL     1       6.689  -7.126   0.000  1.00  0.00     0.058 C 
HETATM   46  O4  UNL     1       4.476  -5.691   0.000  1.00  0.00    -0.294 OA
BRANCH  41  47
HETATM   47  C5  UNL     1       1.469  -8.956   0.000  1.00  0.00     0.225 C 
HETATM   48  N2  UNL     1       1.574 -10.453   0.000  1.00  0.00    -0.130 NA
HETATM   49  O3  UNL     1       0.121  -8.299   0.000  1.00  0.00    -0.171 OA
BRANCH  48  50
HETATM   50  S1  UNL     1       0.330 -11.291   0.000  1.00  0.00     0.282 S 
HETATM   51  N1  UNL     1      -0.913 -12.130   0.000  1.00  0.00    -0.183 NA
HETATM   52  C2  UNL     1      -2.262 -11.473   0.000  1.00  0.00     0.126 A 
HETATM   53  C1  UNL     1      -2.919 -12.821   0.000  1.00  0.00     0.028 C 
HETATM   54  C3  UNL     1      -1.604 -10.124   0.000  1.00  0.00     0.186 A 
HETATM   55  C4  UNL     1      -3.610 -10.815   0.000  1.00  0.00     0.028 C 
HETATM   56  O1  UNL     1      -0.509 -10.048   0.000  1.00  0.00    -0.252 OA
HETATM   57  O2  UNL     1       1.169 -12.535   0.000  1.00  0.00    -0.195 OA
ENDBRANCH  48  50
ENDBRANCH  41  47
ENDBRANCH   1  39
TORSDOF 3
