REMARK WARNING: 32 MAX_TORS EXCEEDED!!!
REMARK  44 active torsions:
REMARK  status: ('A' for Active; 'I' for Inactive)
REMARK    1  A    between atoms: C1_1  and  C10_17 
REMARK    2  A    between atoms: C1_1  and  F1_24 
REMARK    3  A    between atoms: C1_1  and  C20_32 
REMARK    4  A    between atoms: C2_2  and  C5_7 
REMARK    5  A    between atoms: C2_2  and  N3_12 
REMARK    6  A    between atoms: C2_2  and  O4_18 
REMARK    7  A    between atoms: C2_2  and  C11_20 
REMARK    8  A    between atoms: C2_2  and  C16_28 
REMARK    9  A    between atoms: C3_3  and  C20_32 
REMARK   10  A    between atoms: C4_4  and  N2_6 
REMARK   11  A    between atoms: C4_4  and  C7_9 
REMARK   12  A    between atoms: C4_4  and  C15_27 
REMARK   13  A    between atoms: C4_4  and  C20_32 
REMARK   14  A    between atoms: N1_5  and  C7_9 
REMARK   15  A    between atoms: N1_5  and  O6_22 
REMARK   16  A    between atoms: N1_5  and  C15_27 
REMARK   17  A    between atoms: N1_5  and  C20_32 
REMARK   18  A    between atoms: N2_6  and  C11_20 
REMARK   19  A    between atoms: N2_6  and  C16_28 
REMARK   20  A    between atoms: C5_7  and  O2_15 
REMARK   21  A    between atoms: C6_8  and  O1_14 
REMARK   22  A    between atoms: C6_8  and  C20_32 
REMARK   23  A    between atoms: C7_9  and  O3_16 
REMARK   24  A    between atoms: C8_10  and  O2_15 
REMARK   25  A    between atoms: C9_11  and  O3_16 
REMARK   26  A    between atoms: C9_11  and  C20_32 
REMARK   27  A    between atoms: N3_12  and  C12_21 
REMARK   28  A    between atoms: N4_13  and  O4_18 
REMARK   29  A    between atoms: O1_14  and  C10_17 
REMARK   30  A    between atoms: O1_14  and  F1_24 
REMARK   31  A    between atoms: O2_15  and  O4_18 
REMARK   32  A    between atoms: O2_15  and  C11_20 
REMARK   33  A    between atoms: O6_22  and  C15_27 
REMARK   34  A    between atoms: O6_22  and  C20_32 
REMARK   35  A    between atoms: C14_26  and  C25_37 
REMARK   36  A    between atoms: C16_28  and  C17_29 
REMARK   37  A    between atoms: C17_29  and  C22_34 
REMARK   38  A    between atoms: C18_30  and  C19_31 
REMARK   39  A    between atoms: C18_30  and  C23_35 
REMARK   40  A    between atoms: C18_30  and  C25_37 
REMARK   41  A    between atoms: C19_31  and  C24_36 
REMARK   42  A    between atoms: C20_32  and  C21_33 
REMARK   43  A    between atoms: C23_35  and  C24_36 
REMARK   44  A    between atoms: C24_36  and  C25_37 
ROOT
HETATM    1  C1  UNL     1      10.304  -6.479   0.000  1.00  0.00     0.180 A 
HETATM    2  C2  UNL     1       5.992  -6.479   0.000  1.00  0.00     0.001 A 
HETATM    3  C3  UNL     1       9.588  -6.067   0.000  1.00  0.00     0.155 A 
HETATM    4  C4  UNL     1       8.150  -6.067   0.000  1.00  0.00     0.062 A 
HETATM    5  N1  UNL     1       8.867  -6.479   0.000  1.00  0.00     0.000 N 
HETATM    6  N2  UNL     1       6.717  -6.067   0.000  1.00  0.00     0.000 N 
HETATM    7  C5  UNL     1       4.550  -7.300   0.000  1.00  0.00     0.000 A 
HETATM    8  C6  UNL     1      10.304  -7.304   0.000  1.00  0.00     0.156 A 
HETATM    9  C7  UNL     1       9.588  -5.237   0.000  1.00  0.00     0.194 A 
HETATM   10  C8  UNL     1       5.279  -6.067   0.000  1.00  0.00     0.000 A 
HETATM   11  C9  UNL     1       7.429  -6.479   0.000  1.00  0.00     0.012 A 
HETATM   12  N3  UNL     1       4.554  -6.475   0.000  1.00  0.00     0.000 N 
HETATM   13  N4  UNL     1       3.829  -7.704   0.000  1.00  0.00     0.000 N 
HETATM   14  O1  UNL     1      11.017  -6.062   0.000  1.00  0.00     0.000 OA
HETATM   15  O2  UNL     1       5.992  -7.304   0.000  1.00  0.00     0.000 OA
HETATM   16  O3  UNL     1       8.150  -5.237   0.000  1.00  0.00     0.000 OA
HETATM   17  C10 UNL     1      10.304  -4.817   0.000  1.00  0.00     0.229 A 
HETATM   18  O4  UNL     1       5.263  -7.717   0.000  1.00  0.00     0.000 OA
HETATM   19  O5  UNL     1      11.017  -7.713   0.000  1.00  0.00    -0.336 OA
HETATM   20  C11 UNL     1       7.429  -7.304   0.000  1.00  0.00     0.012 A 
HETATM   21  C12 UNL     1       5.279  -5.237   0.000  1.00  0.00     0.000 A 
HETATM   22  O6  UNL     1       9.592  -7.717   0.000  1.00  0.00     0.000 OA
HETATM   23  C13 UNL     1       3.817  -8.529   0.000  1.00  0.00     0.000 A 
HETATM   24  F1  UNL     1      11.017  -5.237   0.000  1.00  0.00    -0.421 F 
HETATM   25  F2  UNL     1      10.304  -3.992   0.000  1.00  0.00    -0.333 F 
HETATM   26  C14 UNL     1       3.100  -8.938   0.000  1.00  0.00     0.000 A 
HETATM   27  C15 UNL     1       8.150  -7.725   0.000  1.00  0.00     0.012 A 
HETATM   28  C16 UNL     1       5.992  -4.817   0.000  1.00  0.00     0.000 A 
HETATM   29  C17 UNL     1       4.562  -4.817   0.000  1.00  0.00     0.000 A 
HETATM   30  C18 UNL     1       3.092  -9.767   0.000  1.00  0.00     0.000 A 
HETATM   31  C19 UNL     1       2.392  -8.517   0.000  1.00  0.00     0.000 A 
HETATM   32  C20 UNL     1       8.867  -7.304   0.000  1.00  0.00     0.070 A 
HETATM   33  C21 UNL     1       8.150  -8.554   0.000  1.00  0.00     0.008 A 
HETATM   34  C22 UNL     1       5.992  -3.992   0.000  1.00  0.00     0.000 A 
HETATM   35  C23 UNL     1       1.667  -8.925   0.000  1.00  0.00     0.000 A 
HETATM   36  C24 UNL     1       2.375 -10.167   0.000  1.00  0.00     0.000 A 
HETATM   37  C25 UNL     1       1.654  -9.750   0.000  1.00  0.00     0.000 A 
ENDROOT
TORSDOF 44
