REMARK  19 active torsions:
REMARK  status: ('A' for Active; 'I' for Inactive)
REMARK    1  A    between atoms: C2_2  and  C3_3 
REMARK    2  A    between atoms: C5_5  and  N1_6 
REMARK    3  A    between atoms: C7_9  and  N2_14 
REMARK       I    between atoms: N2_14  and  C12_15 
REMARK    4  A    between atoms: C12_15  and  C13_17 
REMARK    5  A    between atoms: C13_17  and  N3_18 
REMARK    6  A    between atoms: C13_17  and  C37_55 
REMARK       I    between atoms: N3_18  and  C14_19 
REMARK    7  A    between atoms: C14_19  and  C15_21 
REMARK    8  A    between atoms: C15_21  and  C16_22 
REMARK    9  A    between atoms: C15_21  and  N4_30 
REMARK   10  A    between atoms: C16_22  and  C17_23 
REMARK       I    between atoms: N4_30  and  C24_31 
REMARK   11  A    between atoms: C24_31  and  C25_33 
REMARK   12  A    between atoms: C27_35  and  C28_36 
REMARK   13  A    between atoms: C29_40  and  C30_42 
REMARK   14  A    between atoms: C30_42  and  C31_43 
REMARK   15  A    between atoms: C30_42  and  N6_47 
REMARK   16  A    between atoms: C31_43  and  C32_44 
REMARK       I    between atoms: N6_47  and  C33_48 
REMARK   17  A    between atoms: C33_48  and  C34_50 
REMARK   18  A    between atoms: C34_50  and  C35_51 
REMARK   19  A    between atoms: C35_51  and  C36_52 
ROOT
HETATM    1  C15 UNL     1       3.750  -1.299   0.000  1.00  0.00     0.109 C 
ENDROOT
BRANCH   1   2
HETATM    2  C14 UNL     1       5.250  -1.299   0.000  1.00  0.00     0.227 C 
HETATM    3  N3  UNL     1       6.000  -2.598   0.000  1.00  0.00    -0.220 NA
HETATM    4  O3  UNL     1       6.000   0.000   0.000  1.00  0.00    -0.168 OA
BRANCH   3   5
HETATM    5  C13 UNL     1       7.500  -2.598   0.000  1.00  0.00     0.104 C 
BRANCH   5   6
HETATM    6  C12 UNL     1       8.250  -1.299   0.000  1.00  0.00     0.226 C 
HETATM    7  N2  UNL     1       9.750  -1.299   0.000  1.00  0.00    -0.220 NA
HETATM    8  O2  UNL     1       7.500   0.000   0.000  1.00  0.00    -0.168 OA
BRANCH   7   9
HETATM    9  C7  UNL     1      10.500   0.000   0.000  1.00  0.00     0.103 A 
HETATM   10  C6  UNL     1       9.750   1.299   0.000  1.00  0.00     0.208 A 
HETATM   11  N1  UNL     1      10.500   2.598   0.000  1.00  0.00    -0.307 N 
HETATM   12  O1  UNL     1       8.250   1.299   0.000  1.00  0.00    -0.170 OA
HETATM   13  C11 UNL     1      12.000   2.598   0.000  1.00  0.00     0.108 A 
HETATM   14  C9  UNL     1      12.750   1.299   0.000  1.00  0.00     0.029 A 
HETATM   15  C8  UNL     1      12.000   0.000   0.000  1.00  0.00     0.052 A 
HETATM   16  C10 UNL     1      14.250   1.299   0.000  1.00  0.00     0.002 C 
BRANCH  11  17
HETATM   17  C5  UNL     1       9.750   3.897   0.000  1.00  0.00     0.070 A 
HETATM   18  C4  UNL     1      10.500   5.196   0.000  1.00  0.00     0.076 A 
HETATM   19  C3  UNL     1       9.750   6.495   0.000  1.00  0.00     0.129 A 
HETATM   20  O14 UNL     1       8.250   6.495   0.000  1.00  0.00    -0.319 OA
HETATM   21  C42 UNL     1       7.500   5.196   0.000  1.00  0.00     0.192 A 
HETATM   22  C41 UNL     1       8.250   3.897   0.000  1.00  0.00     0.178 A 
HETATM   23  N7  UNL     1       6.000   5.196   0.000  1.00  0.00    -0.072 NA
HETATM   24  O13 UNL     1       7.500   2.598   0.000  1.00  0.00    -0.186 OA
BRANCH  19  25
HETATM   25  C2  UNL     1      10.500   7.794   0.000  1.00  0.00     0.031 C 
HETATM   26  C1  UNL     1       9.750   9.093   0.000  1.00  0.00     0.003 C 
ENDBRANCH  19  25
ENDBRANCH  11  17
ENDBRANCH   7   9
ENDBRANCH   5   6
BRANCH   5  27
HETATM   27  C37 UNL     1       8.250  -3.897   0.000  1.00  0.00     0.039 C 
HETATM   28  C38 UNL     1       9.549  -3.147   0.000  1.00  0.00     0.006 C 
HETATM   29  C39 UNL     1       6.951  -4.647   0.000  1.00  0.00     0.006 C 
HETATM   30  C40 UNL     1       9.000  -5.196   0.000  1.00  0.00     0.006 C 
ENDBRANCH   5  27
ENDBRANCH   3   5
ENDBRANCH   1   2
BRANCH   1  31
HETATM   31  C16 UNL     1       3.000   0.000   0.000  1.00  0.00     0.071 C 
BRANCH  31  32
HETATM   32  C17 UNL     1       1.500   0.000   0.000  1.00  0.00    -0.046 A 
HETATM   33  C18 UNL     1       0.750  -1.299   0.000  1.00  0.00     0.022 A 
HETATM   34  C19 UNL     1      -0.750  -1.299   0.000  1.00  0.00     0.005 A 
HETATM   35  C20 UNL     1      -1.500   0.000   0.000  1.00  0.00     0.005 A 
HETATM   36  C21 UNL     1      -0.750   1.299   0.000  1.00  0.00     0.021 A 
HETATM   37  C22 UNL     1       0.750   1.299   0.000  1.00  0.00    -0.051 A 
HETATM   38  C23 UNL     1       1.500   2.598   0.000  1.00  0.00     0.026 C 
ENDBRANCH  31  32
ENDBRANCH   1  31
BRANCH   1  39
HETATM   39  N4  UNL     1       3.000  -2.598   0.000  1.00  0.00    -0.219 NA
HETATM   40  C24 UNL     1       3.750  -3.897   0.000  1.00  0.00     0.226 C 
HETATM   41  O4  UNL     1       5.250  -3.897   0.000  1.00  0.00    -0.168 OA
BRANCH  40  42
HETATM   42  C25 UNL     1       3.000  -5.196   0.000  1.00  0.00     0.108 A 
HETATM   43  C26 UNL     1       3.750  -6.495   0.000  1.00  0.00     0.091 A 
HETATM   44  C27 UNL     1       3.000  -7.794   0.000  1.00  0.00     0.215 A 
HETATM   45  O7  UNL     1       1.500  -7.794   0.000  1.00  0.00    -0.305 OA
HETATM   46  C29 UNL     1       0.750  -6.495   0.000  1.00  0.00     0.193 A 
HETATM   47  N5  UNL     1       1.500  -5.196   0.000  1.00  0.00    -0.222 NA
BRANCH  44  48
HETATM   48  C28 UNL     1       3.750  -9.093   0.000  1.00  0.00     0.215 C 
HETATM   49  O5  UNL     1       5.250  -9.093   0.000  1.00  0.00    -0.646 OA
HETATM   50  O6  UNL     1       3.000 -10.392   0.000  1.00  0.00    -0.646 OA
ENDBRANCH  44  48
BRANCH  46  51
HETATM   51  C30 UNL     1      -0.750  -6.495   0.000  1.00  0.00     0.112 C 
BRANCH  51  52
HETATM   52  C31 UNL     1      -1.500  -7.794   0.000  1.00  0.00     0.147 C 
BRANCH  52  53
HETATM   53  C32 UNL     1      -0.750  -9.093   0.000  1.00  0.00     0.192 C 
HETATM   54  O8  UNL     1       0.750  -9.093   0.000  1.00  0.00    -0.647 OA
HETATM   55  O9  UNL     1      -1.500 -10.392   0.000  1.00  0.00    -0.647 OA
ENDBRANCH  52  53
ENDBRANCH  51  52
BRANCH  51  56
HETATM   56  N6  UNL     1      -1.500  -5.196   0.000  1.00  0.00    -0.224 NA
HETATM   57  C33 UNL     1      -3.000  -5.196   0.000  1.00  0.00     0.190 C 
HETATM   58  O10 UNL     1      -3.750  -6.495   0.000  1.00  0.00    -0.174 OA
BRANCH  57  59
HETATM   59  C34 UNL     1      -3.750  -3.897   0.000  1.00  0.00     0.086 C 
BRANCH  59  60
HETATM   60  C35 UNL     1      -5.250  -3.897   0.000  1.00  0.00     0.106 C 
BRANCH  60  61
HETATM   61  C36 UNL     1      -6.000  -2.598   0.000  1.00  0.00     0.186 C 
HETATM   62  O11 UNL     1      -5.250  -1.299   0.000  1.00  0.00    -0.647 OA
HETATM   63  O12 UNL     1      -7.500  -2.598   0.000  1.00  0.00    -0.647 OA
ENDBRANCH  60  61
ENDBRANCH  59  60
ENDBRANCH  57  59
ENDBRANCH  51  56
ENDBRANCH  46  51
ENDBRANCH  40  42
ENDBRANCH   1  39
TORSDOF 19
