REMARK  6 active torsions:
REMARK  status: ('A' for Active; 'I' for Inactive)
REMARK    1  A    between atoms: C2_2  and  C4_4 
REMARK    2  A    between atoms: C4_4  and  C5_5 
REMARK    3  A    between atoms: C8_11  and  O3_13 
REMARK    4  A    between atoms: O3_13  and  C9_14 
REMARK    5  A    between atoms: C17_24  and  C20_29 
REMARK    6  A    between atoms: C20_29  and  C21_31 
ROOT
HETATM    1  C5  UNL     1       2.598   3.000   0.000  1.00  0.00     0.105 A 
HETATM    2  N1  UNL     1       3.897   2.250   0.000  1.00  0.00    -0.220 NA
HETATM    3  C6  UNL     1       5.196   3.000   0.000  1.00  0.00     0.230 A 
HETATM    4  O1  UNL     1       5.196   4.500   0.000  1.00  0.00    -0.168 OA
HETATM    5  C7  UNL     1       6.495   2.250   0.000  1.00  0.00     0.126 A 
HETATM    6  N2  UNL     1       6.495   0.750   0.000  1.00  0.00    -0.197 NA
HETATM    7  C8  UNL     1       7.794   0.000   0.000  1.00  0.00     0.290 A 
HETATM    8  O2  UNL     1       9.093   0.750   0.000  1.00  0.00    -0.291 OA
HETATM    9  C13 UNL     1       7.794   3.000   0.000  1.00  0.00     0.039 A 
HETATM   10  C14 UNL     1       9.093   2.250   0.000  1.00  0.00     0.179 A 
HETATM   11  C15 UNL     1       7.794   4.500   0.000  1.00  0.00     0.184 A 
HETATM   12  C16 UNL     1       2.598   4.500   0.000  1.00  0.00     0.226 A 
HETATM   13  O4  UNL     1       1.299   5.250   0.000  1.00  0.00    -0.168 OA
HETATM   14  N3  UNL     1       3.897   5.250   0.000  1.00  0.00    -0.221 NA
HETATM   15  C17 UNL     1       3.897   6.750   0.000  1.00  0.00     0.102 A 
HETATM   16  C18 UNL     1       5.196   7.500   0.000  1.00  0.00     0.133 A 
HETATM   17  C19 UNL     1       6.495   6.750   0.000  1.00  0.00     0.227 A 
HETATM   18  F1  UNL     1       7.794   7.500   0.000  1.00  0.00    -0.180 F 
HETATM   19  F2  UNL     1       6.495   5.250   0.000  1.00  0.00    -0.327 F 
ENDROOT
BRANCH   7  20
HETATM   20  O3  UNL     1       7.794  -1.500   0.000  1.00  0.00    -0.301 OA
BRANCH  20  21
HETATM   21  C9  UNL     1       9.093  -2.250   0.000  1.00  0.00     0.102 C 
HETATM   22  C10 UNL     1       8.343  -3.549   0.000  1.00  0.00     0.030 C 
HETATM   23  C11 UNL     1       9.843  -0.951   0.000  1.00  0.00     0.030 C 
HETATM   24  C12 UNL     1      10.392  -3.000   0.000  1.00  0.00     0.030 C 
ENDBRANCH  20  21
ENDBRANCH   7  20
BRANCH   1  25
HETATM   25  C4  UNL     1       1.299   2.250   0.000  1.00  0.00     0.050 C 
BRANCH  25  26
HETATM   26  C2  UNL     1       1.299   0.750   0.000  1.00  0.00     0.006 C 
HETATM   27  C1  UNL     1       0.000   0.000   0.000  1.00  0.00     0.000 C 
HETATM   28  C3  UNL     1       2.598  -0.000   0.000  1.00  0.00     0.000 C 
ENDBRANCH  25  26
ENDBRANCH   1  25
BRANCH  15  29
HETATM   29  C20 UNL     1       2.598   7.500   0.000  1.00  0.00     0.209 C 
HETATM   30  O5  UNL     1       1.299   6.750   0.000  1.00  0.00    -0.182 OA
BRANCH  29  31
HETATM   31  C21 UNL     1       2.598   9.000   0.000  1.00  0.00     0.239 C 
HETATM   32  O6  UNL     1       3.897   9.750   0.000  1.00  0.00    -0.642 OA
HETATM   33  O7  UNL     1       1.299   9.750   0.000  1.00  0.00    -0.642 OA
ENDBRANCH  29  31
ENDBRANCH  15  29
TORSDOF 6
