REMARK  8 active torsions:
REMARK  status: ('A' for Active; 'I' for Inactive)
REMARK    1  A    between atoms: O1_2  and  C2_3 
REMARK    2  A    between atoms: C9_11  and  C22_29 
REMARK    3  A    between atoms: O5_20  and  C14_21 
REMARK       I    between atoms: C22_29  and  N3_31 
REMARK    4  A    between atoms: N3_31  and  C23_32 
REMARK    5  A    between atoms: C28_37  and  C29_38 
REMARK       I    between atoms: C29_38  and  N4_40 
REMARK    6  A    between atoms: N4_40  and  S1_41 
REMARK    7  A    between atoms: S1_41  and  C30_44 
REMARK    8  A    between atoms: C37_51  and  C40_55 
ROOT
HETATM    1  C2  UNL     1      -5.250  -6.495   0.000  1.00  0.00     0.126 A 
HETATM    2  C3  UNL     1      -6.000  -5.196   0.000  1.00  0.00     0.057 A 
HETATM    3  C4  UNL     1      -5.250  -3.897   0.000  1.00  0.00    -0.013 A 
HETATM    4  C5  UNL     1      -3.750  -3.897   0.000  1.00  0.00     0.029 A 
HETATM    5  C6  UNL     1      -3.000  -2.598   0.000  1.00  0.00     0.084 A 
HETATM    6  O2  UNL     1      -3.750  -1.299   0.000  1.00  0.00    -0.309 OA
HETATM    7  C7  UNL     1      -5.250  -1.299   0.000  1.00  0.00     0.124 A 
HETATM    8  C8  UNL     1      -6.132  -2.513   0.000  1.00  0.00     0.041 A 
HETATM    9  C9  UNL     1      -7.558  -2.049   0.000  1.00  0.00     0.112 A 
HETATM   10  N1  UNL     1      -7.558  -0.549   0.000  1.00  0.00    -0.273 N 
HETATM   11  C10 UNL     1      -6.132  -0.086   0.000  1.00  0.00     0.121 A 
HETATM   12  C11 UNL     1      -8.772   0.333   0.000  1.00  0.00     0.214 A 
HETATM   13  O3  UNL     1     -10.142  -0.278   0.000  1.00  0.00    -0.169 OA
HETATM   14  C12 UNL     1      -8.615   1.824   0.000  1.00  0.00     0.125 A 
HETATM   15  N2  UNL     1      -9.829   2.706   0.000  1.00  0.00    -0.216 NA
HETATM   16  C13 UNL     1      -9.672   4.198   0.000  1.00  0.00     0.257 A 
HETATM   17  O4  UNL     1     -10.885   5.080   0.000  1.00  0.00    -0.165 OA
HETATM   18  O5  UNL     1      -8.301   4.808   0.000  1.00  0.00     0.000 OA
HETATM   19  C18 UNL     1      -7.245   2.434   0.000  1.00  0.00     0.140 A 
HETATM   20  C19 UNL     1      -6.635   1.064   0.000  1.00  0.00    -0.092 A 
HETATM   21  C20 UNL     1      -7.855   3.805   0.000  1.00  0.00    -0.074 A 
HETATM   22  C21 UNL     1      -5.874   3.045   0.000  1.00  0.00     0.032 C 
HETATM   23  C36 UNL     1      -1.500  -2.598   0.000  1.00  0.00     0.097 A 
HETATM   24  C37 UNL     1      -0.750  -3.897   0.000  1.00  0.00     0.057 A 
HETATM   25  N5  UNL     1      -1.500  -5.196   0.000  1.00  0.00    -0.254 NA
HETATM   26  C38 UNL     1      -3.000  -5.196   0.000  1.00  0.00     0.062 A 
HETATM   27  C39 UNL     1      -3.750  -6.495   0.000  1.00  0.00     0.076 A 
ENDROOT
BRANCH   9  28
HETATM   28  C22 UNL     1      -8.772  -2.931   0.000  1.00  0.00     0.229 C 
HETATM   29  O6  UNL     1      -8.615  -4.423   0.000  1.00  0.00    -0.168 OA
HETATM   30  N3  UNL     1     -10.142  -2.321   0.000  1.00  0.00    -0.223 NA
BRANCH  30  31
HETATM   31  C23 UNL     1     -11.356  -3.202   0.000  1.00  0.00     0.061 A 
HETATM   32  C24 UNL     1     -11.199  -4.694   0.000  1.00  0.00     0.046 A 
HETATM   33  C25 UNL     1     -12.412  -5.576   0.000  1.00  0.00     0.007 A 
HETATM   34  C26 UNL     1     -13.783  -4.966   0.000  1.00  0.00     0.005 A 
HETATM   35  C27 UNL     1     -13.940  -3.474   0.000  1.00  0.00     0.031 A 
HETATM   36  C28 UNL     1     -12.726  -2.592   0.000  1.00  0.00     0.036 A 
BRANCH  36  37
HETATM   37  C29 UNL     1     -12.883  -1.100   0.000  1.00  0.00     0.221 C 
HETATM   38  O7  UNL     1     -11.669  -0.219   0.000  1.00  0.00    -0.169 OA
HETATM   39  N4  UNL     1     -14.253  -0.490   0.000  1.00  0.00    -0.135 NA
BRANCH  39  40
HETATM   40  S1  UNL     1     -14.410   1.002   0.000  1.00  0.00     0.265 S 
HETATM   41  O8  UNL     1     -12.918   1.158   0.000  1.00  0.00    -0.203 OA
HETATM   42  O9  UNL     1     -15.902   0.845   0.000  1.00  0.00    -0.203 OA
BRANCH  40  43
HETATM   43  C30 UNL     1     -14.567   2.493   0.000  1.00  0.00     0.130 A 
HETATM   44  C31 UNL     1     -15.937   3.103   0.000  1.00  0.00     0.018 A 
HETATM   45  C32 UNL     1     -16.094   4.595   0.000  1.00  0.00     0.001 A 
HETATM   46  C33 UNL     1     -14.880   5.477   0.000  1.00  0.00     0.000 A 
HETATM   47  C34 UNL     1     -13.510   4.867   0.000  1.00  0.00     0.001 A 
HETATM   48  C35 UNL     1     -13.353   3.375   0.000  1.00  0.00     0.018 A 
ENDBRANCH  40  43
ENDBRANCH  39  40
ENDBRANCH  36  37
ENDBRANCH  30  31
ENDBRANCH   9  28
BRANCH   1  49
HETATM   49  O1  UNL     1      -6.000  -7.794   0.000  1.00  0.00    -0.353 OA
HETATM   50  C1  UNL     1      -7.500  -7.794   0.000  1.00  0.00     0.174 C 
ENDBRANCH   1  49
BRANCH  24  51
HETATM   51  C40 UNL     1       0.750  -3.897   0.000  1.00  0.00    -0.030 A 
HETATM   52  C41 UNL     1       1.500  -5.196   0.000  1.00  0.00     0.023 A 
HETATM   53  C42 UNL     1       3.000  -5.196   0.000  1.00  0.00     0.004 A 
HETATM   54  C43 UNL     1       3.750  -3.897   0.000  1.00  0.00     0.001 A 
HETATM   55  C44 UNL     1       3.000  -2.598   0.000  1.00  0.00     0.004 A 
HETATM   56  C45 UNL     1       1.500  -2.598   0.000  1.00  0.00     0.023 A 
ENDBRANCH  24  51
BRANCH  18  57
HETATM   57  C14 UNL     1      -8.145   6.300   0.000  1.00  0.00     0.000 C 
HETATM   58  C15 UNL     1      -6.653   6.143   0.000  1.00  0.00     0.000 C 
HETATM   59  C16 UNL     1      -9.636   6.457   0.000  1.00  0.00     0.000 C 
HETATM   60  C17 UNL     1      -7.988   7.792   0.000  1.00  0.00     0.000 C 
ENDBRANCH  18  57
TORSDOF 8
