REMARK  9 active torsions:
REMARK  status: ('A' for Active; 'I' for Inactive)
REMARK    1  A    between atoms: C2_2  and  O1_5 
REMARK    2  A    between atoms: O1_5  and  C5_6 
REMARK    3  A    between atoms: C6_9  and  C13_16 
REMARK       I    between atoms: C13_16  and  N2_18 
REMARK    4  A    between atoms: C20_26  and  C21_27 
REMARK       I    between atoms: C21_27  and  N3_29 
REMARK    5  A    between atoms: N3_29  and  C22_30 
REMARK    6  A    between atoms: C22_30  and  C23_31 
REMARK    7  A    between atoms: C22_30  and  C28_36 
REMARK    8  A    between atoms: C23_31  and  C24_32 
REMARK    9  A    between atoms: C28_36  and  C29_38 
ROOT
HETATM    1  C13 UNL     1      -3.223  -3.223   0.000  1.00  0.00     0.212 C 
HETATM    2  O3  UNL     1      -4.672  -2.835   0.000  1.00  0.00    -0.169 OA
HETATM    3  N2  UNL     1      -2.163  -2.163   0.000  1.00  0.00    -0.296 N 
HETATM    4  C14 UNL     1      -0.681  -2.397   0.000  1.00  0.00     0.159 A 
HETATM    5  C15 UNL     1      -0.000  -1.061   0.000  1.00  0.00     0.094 A 
HETATM    6  O4  UNL     1       1.061   0.000   0.000  1.00  0.00    -0.334 OA
HETATM    7  C16 UNL     1       0.000   1.061   0.000  1.00  0.00     0.120 A 
HETATM    8  C17 UNL     1      -1.061   2.121   0.000  1.00  0.00     0.035 C 
HETATM    9  C18 UNL     1       1.061   2.121   0.000  1.00  0.00     0.035 C 
HETATM   10  C19 UNL     1      -1.061   0.000   0.000  1.00  0.00     0.042 A 
HETATM   11  C20 UNL     1      -2.397  -0.681   0.000  1.00  0.00     0.106 A 
ENDROOT
BRANCH   1  12
HETATM   12  C6  UNL     1      -2.835  -4.672   0.000  1.00  0.00     0.125 A 
HETATM   13  N1  UNL     1      -1.386  -5.060   0.000  1.00  0.00    -0.197 NA
HETATM   14  C5  UNL     1      -0.998  -6.509   0.000  1.00  0.00     0.294 A 
HETATM   15  O2  UNL     1      -2.058  -7.570   0.000  1.00  0.00    -0.275 OA
HETATM   16  C12 UNL     1      -3.507  -7.182   0.000  1.00  0.00     0.079 A 
HETATM   17  C7  UNL     1      -3.896  -5.733   0.000  1.00  0.00     0.018 A 
HETATM   18  C11 UNL     1      -4.568  -8.242   0.000  1.00  0.00     0.051 A 
HETATM   19  C8  UNL     1      -5.345  -5.345   0.000  1.00  0.00     0.030 A 
HETATM   20  C9  UNL     1      -6.405  -6.405   0.000  1.00  0.00     0.005 A 
HETATM   21  C10 UNL     1      -6.017  -7.854   0.000  1.00  0.00     0.007 A 
BRANCH  14  22
HETATM   22  O1  UNL     1       0.451  -6.897   0.000  1.00  0.00    -0.301 OA
BRANCH  22  23
HETATM   23  C2  UNL     1       0.839  -8.346   0.000  1.00  0.00     0.102 C 
HETATM   24  C1  UNL     1       2.288  -7.958   0.000  1.00  0.00     0.030 C 
HETATM   25  C3  UNL     1      -0.610  -8.735   0.000  1.00  0.00     0.030 C 
HETATM   26  C4  UNL     1       1.228  -9.795   0.000  1.00  0.00     0.030 C 
ENDBRANCH  22  23
ENDBRANCH  14  22
ENDBRANCH   1  12
BRANCH  11  27
HETATM   27  C21 UNL     1      -3.734   0.000   0.000  1.00  0.00     0.228 C 
HETATM   28  O5  UNL     1      -4.992  -0.817   0.000  1.00  0.00    -0.168 OA
HETATM   29  N3  UNL     1      -3.812   1.498   0.000  1.00  0.00    -0.221 NA
BRANCH  29  30
HETATM   30  C22 UNL     1      -5.149   2.179   0.000  1.00  0.00     0.090 C 
BRANCH  30  31
HETATM   31  C23 UNL     1      -5.227   3.677   0.000  1.00  0.00     0.048 C 
BRANCH  31  32
HETATM   32  C24 UNL     1      -3.969   4.494   0.000  1.00  0.00     0.006 A 
HETATM   33  C25 UNL     1      -3.657   5.961   0.000  1.00  0.00     0.000 A 
HETATM   34  C26 UNL     1      -2.190   5.649   0.000  1.00  0.00     0.000 A 
HETATM   35  C27 UNL     1      -2.502   4.182   0.000  1.00  0.00     0.000 A 
ENDBRANCH  31  32
ENDBRANCH  30  31
BRANCH  30  36
HETATM   36  C28 UNL     1      -6.407   1.362   0.000  1.00  0.00     0.183 C 
HETATM   37  O6  UNL     1      -6.328  -0.136   0.000  1.00  0.00    -0.186 OA
BRANCH  36  38
HETATM   38  C29 UNL     1      -7.743   2.043   0.000  1.00  0.00     0.227 C 
HETATM   39  O7  UNL     1      -9.001   1.226   0.000  1.00  0.00    -0.173 OA
HETATM   40  N4  UNL     1      -7.822   3.541   0.000  1.00  0.00    -0.069 NA
ENDBRANCH  36  38
ENDBRANCH  30  36
ENDBRANCH  29  30
ENDBRANCH  11  27
TORSDOF 9
