REMARK  4 active torsions:
REMARK  status: ('A' for Active; 'I' for Inactive)
REMARK    1  A    between atoms: C2_3  and  C3_4 
REMARK    2  A    between atoms: C3_4  and  C4_5 
REMARK    3  A    between atoms: C14_20  and  C17_23 
REMARK       I    between atoms: C17_23  and  N5_25 
REMARK    4  A    between atoms: N5_25  and  C18_26 
ROOT
HETATM    1  C1  UNL     1      -2.640  -3.189   0.000  1.00  0.00     0.132 C 
HETATM    2  N1  UNL     1      -1.214  -2.726   0.000  1.00  0.00    -0.317 N 
HETATM    3  C2  UNL     1      -0.000  -3.607   0.000  1.00  0.00     0.124 A 
HETATM    4  N4  UNL     1       1.214  -2.726   0.000  1.00  0.00    -0.236 NA
HETATM    5  C11 UNL     1       0.750  -1.299   0.000  1.00  0.00     0.073 A 
HETATM    6  C12 UNL     1       1.500   0.000   0.000  1.00  0.00     0.051 A 
HETATM    7  C13 UNL     1       0.750   1.299   0.000  1.00  0.00     0.032 A 
HETATM    8  C14 UNL     1      -0.750   1.299   0.000  1.00  0.00     0.006 A 
HETATM    9  C15 UNL     1      -1.500   0.000   0.000  1.00  0.00     0.071 A 
HETATM   10  C16 UNL     1      -0.750  -1.299   0.000  1.00  0.00     0.056 A 
ENDROOT
BRANCH   3  11
HETATM   11  C3  UNL     1      -0.000  -5.107   0.000  1.00  0.00     0.113 C 
BRANCH  11  12
HETATM   12  C4  UNL     1      -1.299  -5.857   0.000  1.00  0.00     0.212 A 
HETATM   13  N2  UNL     1      -1.456  -7.349   0.000  1.00  0.00    -0.251 NA
HETATM   14  C5  UNL     1      -2.923  -7.661   0.000  1.00  0.00     0.076 A 
HETATM   15  C6  UNL     1      -3.673  -8.960   0.000  1.00  0.00     0.105 A 
HETATM   16  C10 UNL     1      -3.673  -6.362   0.000  1.00  0.00     0.076 A 
HETATM   17  C7  UNL     1      -5.173  -8.960   0.000  1.00  0.00     0.147 A 
HETATM   18  F1  UNL     1      -5.923 -10.259   0.000  1.00  0.00    -0.206 F 
HETATM   19  C8  UNL     1      -5.923  -7.661   0.000  1.00  0.00     0.147 A 
HETATM   20  F2  UNL     1      -7.423  -7.661   0.000  1.00  0.00    -0.206 F 
HETATM   21  C9  UNL     1      -5.173  -6.362   0.000  1.00  0.00     0.105 A 
HETATM   22  N3  UNL     1      -2.669  -5.247   0.000  1.00  0.00    -0.251 NA
ENDBRANCH  11  12
ENDBRANCH   3  11
BRANCH   8  23
HETATM   23  C17 UNL     1      -1.500   2.598   0.000  1.00  0.00     0.205 C 
HETATM   24  O1  UNL     1      -3.000   2.598   0.000  1.00  0.00    -0.170 OA
HETATM   25  N5  UNL     1      -0.750   3.897   0.000  1.00  0.00    -0.220 NA
BRANCH  25  26
HETATM   26  C18 UNL     1      -1.500   5.196   0.000  1.00  0.00     0.126 A 
HETATM   27  C19 UNL     1      -0.750   6.495   0.000  1.00  0.00     0.171 A 
HETATM   28  P1  UNL     1      -1.500   7.794   0.000  1.00  0.00     0.299 P 
HETATM   29  O2  UNL     1      -2.250   9.093   0.000  1.00  0.00    -0.644 OA
HETATM   30  O3  UNL     1      -0.201   8.544   0.000  1.00  0.00    -0.644 OA
HETATM   31  O4  UNL     1      -2.799   7.044   0.000  1.00  0.00    -0.140 OA
HETATM   32  O5  UNL     1      -3.750   6.495   0.000  1.00  0.00    -0.158 OA
HETATM   33  C20 UNL     1      -3.000   5.196   0.000  1.00  0.00     0.275 A 
HETATM   34  O6  UNL     1      -3.750   3.897   0.000  1.00  0.00    -0.159 OA
ENDBRANCH  25  26
ENDBRANCH   8  23
TORSDOF 4
