REMARK  31 active torsions:
REMARK  status: ('A' for Active; 'I' for Inactive)
REMARK    1  A    between atoms: C1_1  and  C12_20 
REMARK    2  A    between atoms: C1_1  and  F2_29 
REMARK    3  A    between atoms: C3_3  and  N2_7 
REMARK    4  A    between atoms: C3_3  and  C8_10 
REMARK    5  A    between atoms: C4_4  and  C5_5 
REMARK    6  A    between atoms: C4_4  and  O5_19 
REMARK    7  A    between atoms: C4_4  and  C18_34 
REMARK    8  A    between atoms: C5_5  and  C9_11 
REMARK    9  A    between atoms: C5_5  and  N3_12 
REMARK   10  A    between atoms: C5_5  and  O3_17 
REMARK   11  A    between atoms: N1_6  and  C8_10 
REMARK   12  A    between atoms: N1_6  and  O8_27 
REMARK   13  A    between atoms: N2_7  and  C9_11 
REMARK   14  A    between atoms: C6_8  and  O4_18 
REMARK   15  A    between atoms: C7_9  and  O2_16 
REMARK   16  A    between atoms: C8_10  and  O4_18 
REMARK   17  A    between atoms: C9_11  and  O5_19 
REMARK   18  A    between atoms: N3_12  and  C15_25 
REMARK   19  A    between atoms: C10_13  and  O5_19 
REMARK   20  A    between atoms: C10_13  and  C16_26 
REMARK   21  A    between atoms: C11_15  and  C15_25 
REMARK   22  A    between atoms: O2_16  and  C12_20 
REMARK   23  A    between atoms: O2_16  and  F2_29 
REMARK   24  A    between atoms: O3_17  and  O5_19 
REMARK   25  A    between atoms: O3_17  and  F4_31 
REMARK   26  A    between atoms: O3_17  and  C18_34 
REMARK   27  A    between atoms: O5_19  and  C13_21 
REMARK   28  A    between atoms: O5_19  and  F4_31 
REMARK   29  A    between atoms: C15_25  and  C16_26 
REMARK   30  A    between atoms: C17_33  and  C19_35 
REMARK   31  A    between atoms: C18_34  and  C19_35 
ROOT
HETATM    1  C1  UNL     1       9.904  -5.867   0.000  1.00  0.00     0.215 A 
HETATM    2  C2  UNL     1       9.188  -5.454   0.000  1.00  0.00     0.175 A 
HETATM    3  C3  UNL     1       7.750  -5.454   0.000  1.00  0.00     0.122 A 
HETATM    4  C4  UNL     1       4.154  -6.692   0.000  1.00  0.00     0.010 A 
HETATM    5  C5  UNL     1       5.592  -5.867   0.000  1.00  0.00     0.066 A 
HETATM    6  N1  UNL     1       8.467  -5.867   0.000  1.00  0.00     0.000 N 
HETATM    7  N2  UNL     1       6.317  -5.454   0.000  1.00  0.00     0.000 N 
HETATM    8  C6  UNL     1       7.029  -5.867   0.000  1.00  0.00     0.117 A 
HETATM    9  C7  UNL     1       9.904  -6.692   0.000  1.00  0.00     0.184 A 
HETATM   10  C8  UNL     1       9.188  -4.617   0.000  1.00  0.00     0.204 A 
HETATM   11  C9  UNL     1       7.029  -6.692   0.000  1.00  0.00     0.180 A 
HETATM   12  N3  UNL     1       4.154  -5.867   0.000  1.00  0.00     0.000 N 
HETATM   13  C10 UNL     1       4.879  -5.454   0.000  1.00  0.00     0.062 A 
HETATM   14  O1  UNL     1       3.450  -7.104   0.000  1.00  0.00     0.000 OA
HETATM   15  O2  UNL     1      10.617  -5.450   0.000  1.00  0.00     0.000 OA
HETATM   16  O3  UNL     1       4.875  -7.092   0.000  1.00  0.00     0.000 OA
HETATM   17  O4  UNL     1       7.750  -4.617   0.000  1.00  0.00     0.000 OA
HETATM   18  O5  UNL     1       5.592  -6.692   0.000  1.00  0.00     0.000 OA
HETATM   19  C12 UNL     1       9.904  -4.204   0.000  1.00  0.00     0.235 A 
HETATM   20  C13 UNL     1       6.617  -7.404   0.000  1.00  0.00     0.248 A 
HETATM   21  O6  UNL     1      10.617  -7.100   0.000  1.00  0.00    -0.329 OA
HETATM   22  C14 UNL     1       3.454  -7.929   0.000  1.00  0.00     0.000 A 
HETATM   23  C15 UNL     1       4.879  -4.629   0.000  1.00  0.00     0.109 A 
HETATM   24  O8  UNL     1       9.192  -7.104   0.000  1.00  0.00     0.000 OA
HETATM   25  F1  UNL     1       7.025  -8.117   0.000  1.00  0.00    -0.334 F 
HETATM   26  F2  UNL     1      10.625  -4.617   0.000  1.00  0.00    -0.418 F 
HETATM   27  F3  UNL     1       9.904  -3.379   0.000  1.00  0.00    -0.332 F 
HETATM   28  F4  UNL     1       5.792  -7.392   0.000  1.00  0.00    -0.334 F 
HETATM   29  C17 UNL     1       3.454  -8.754   0.000  1.00  0.00     0.000 A 
HETATM   30  C18 UNL     1       4.175  -8.338   0.000  1.00  0.00     0.000 A 
HETATM   31  C19 UNL     1       2.742  -8.350   0.000  1.00  0.00     0.000 A 
ENDROOT
BRANCH  13  32
HETATM   32  C16 UNL     1       4.162  -4.217   0.000  1.00  0.00     0.201 A 
HETATM   33  C11 UNL     1       4.154  -3.392   0.000  1.00  0.00     0.239 A 
HETATM   34  O7  UNL     1       3.438  -2.979   0.000  1.00  0.00    -0.310 OA
HETATM   35  O9  UNL     1       4.867  -2.967   0.000  1.00  0.00    -0.310 OA
ENDBRANCH  13  32
TORSDOF 31
