REMARK  12 active torsions:
REMARK  status: ('A' for Active; 'I' for Inactive)
REMARK    1  A    between atoms: C9_11  and  C21_28 
REMARK       I    between atoms: C21_28  and  N3_30 
REMARK    2  A    between atoms: N3_30  and  C22_31 
REMARK    3  A    between atoms: C22_31  and  C23_32 
REMARK    4  A    between atoms: C22_31  and  C25_36 
REMARK    5  A    between atoms: C23_32  and  C24_33 
REMARK       I    between atoms: C25_36  and  N4_38 
REMARK    6  A    between atoms: N4_38  and  C26_39 
REMARK    7  A    between atoms: C26_39  and  C27_40 
REMARK    8  A    between atoms: C27_40  and  C28_41 
REMARK    9  A    between atoms: C31_45  and  C34_49 
REMARK   10  A    between atoms: C36_53  and  C39_57 
REMARK   11  A    between atoms: C41_60  and  N6_61 
REMARK   12  A    between atoms: N6_61  and  C42_62 
ROOT
HETATM    1  C1  UNL     1      -7.500   5.196   0.000  1.00  0.00     0.000 A 
HETATM    2  O1  UNL     1      -6.000   5.196   0.000  1.00  0.00     0.000 OA
HETATM    3  C2  UNL     1      -5.250   3.897   0.000  1.00  0.00    -0.046 A 
HETATM    4  C3  UNL     1      -6.000   2.598   0.000  1.00  0.00     0.028 A 
HETATM    5  C4  UNL     1      -5.250   1.299   0.000  1.00  0.00     0.047 A 
HETATM    6  C5  UNL     1      -3.750   1.299   0.000  1.00  0.00     0.012 A 
HETATM    7  C6  UNL     1      -3.000   0.000   0.000  1.00  0.00     0.075 A 
HETATM    8  O2  UNL     1      -3.750  -1.299   0.000  1.00  0.00    -0.335 OA
HETATM    9  C7  UNL     1      -5.250  -1.299   0.000  1.00  0.00     0.146 A 
HETATM   10  C8  UNL     1      -6.132  -2.513   0.000  1.00  0.00     0.080 A 
HETATM   11  C9  UNL     1      -7.558  -2.049   0.000  1.00  0.00     0.085 A 
HETATM   12  N1  UNL     1      -7.558  -0.549   0.000  1.00  0.00    -0.307 N 
HETATM   13  C10 UNL     1      -6.132  -0.086   0.000  1.00  0.00     0.101 A 
HETATM   14  C11 UNL     1      -8.772   0.333   0.000  1.00  0.00     0.208 A 
HETATM   15  O3  UNL     1     -10.142  -0.278   0.000  1.00  0.00    -0.170 OA
HETATM   16  C12 UNL     1      -8.615   1.824   0.000  1.00  0.00     0.103 A 
HETATM   17  N2  UNL     1      -9.829   2.706   0.000  1.00  0.00    -0.218 NA
HETATM   18  C13 UNL     1      -9.672   4.198   0.000  1.00  0.00     0.257 A 
HETATM   19  O4  UNL     1     -10.885   5.080   0.000  1.00  0.00    -0.165 OA
HETATM   20  O5  UNL     1      -8.301   4.808   0.000  1.00  0.00     0.000 OA
HETATM   21  C14 UNL     1      -8.145   6.300   0.000  1.00  0.00     0.000 A 
HETATM   22  C15 UNL     1      -6.774   6.910   0.000  1.00  0.00     0.000 A 
HETATM   23  C16 UNL     1      -6.617   8.402   0.000  1.00  0.00     0.000 C 
HETATM   24  C17 UNL     1      -5.561   6.028   0.000  1.00  0.00     0.000 A 
HETATM   25  C18 UNL     1      -7.245   2.434   0.000  1.00  0.00     0.045 A 
HETATM   26  C19 UNL     1      -7.088   3.926   0.000  1.00  0.00     0.006 A 
HETATM   27  C20 UNL     1      -6.031   1.553   0.000  1.00  0.00     0.035 A 
HETATM   28  C35 UNL     1      -1.500   0.000   0.000  1.00  0.00     0.098 A 
HETATM   29  C36 UNL     1      -0.750   1.299   0.000  1.00  0.00     0.080 A 
HETATM   30  N5  UNL     1      -1.500   2.598   0.000  1.00  0.00    -0.253 NA
HETATM   31  C37 UNL     1      -3.000   2.598   0.000  1.00  0.00     0.060 A 
HETATM   32  C38 UNL     1      -3.750   3.897   0.000  1.00  0.00     0.067 A 
ENDROOT
BRANCH  11  33
HETATM   33  C21 UNL     1      -8.772  -2.931   0.000  1.00  0.00     0.225 C 
HETATM   34  O6  UNL     1      -8.615  -4.423   0.000  1.00  0.00    -0.168 OA
HETATM   35  N3  UNL     1     -10.142  -2.321   0.000  1.00  0.00    -0.219 NA
BRANCH  35  36
HETATM   36  C22 UNL     1     -11.356  -3.202   0.000  1.00  0.00     0.114 C 
BRANCH  36  37
HETATM   37  C23 UNL     1     -12.726  -2.592   0.000  1.00  0.00     0.137 C 
BRANCH  37  38
HETATM   38  C24 UNL     1     -13.940  -3.474   0.000  1.00  0.00     0.262 C 
HETATM   39  F1  UNL     1     -15.310  -2.864   0.000  1.00  0.00    -0.176 F 
HETATM   40  F2  UNL     1     -13.783  -4.966   0.000  1.00  0.00    -0.176 F 
ENDBRANCH  37  38
ENDBRANCH  36  37
BRANCH  36  41
HETATM   41  C25 UNL     1     -11.199  -4.694   0.000  1.00  0.00     0.223 C 
HETATM   42  O7  UNL     1      -9.829  -5.304   0.000  1.00  0.00    -0.168 OA
HETATM   43  N4  UNL     1     -12.412  -5.576   0.000  1.00  0.00    -0.245 NA
BRANCH  43  44
HETATM   44  C26 UNL     1     -12.256  -7.067   0.000  1.00  0.00     0.133 C 
BRANCH  44  45
HETATM   45  C27 UNL     1     -13.469  -7.949   0.000  1.00  0.00     0.057 C 
BRANCH  45  46
HETATM   46  C28 UNL     1     -13.312  -9.441   0.000  1.00  0.00     0.026 A 
HETATM   47  C29 UNL     1     -14.526 -10.323   0.000  1.00  0.00     0.116 A 
HETATM   48  F3  UNL     1     -15.896  -9.713   0.000  1.00  0.00    -0.209 F 
HETATM   49  C30 UNL     1     -14.369 -11.815   0.000  1.00  0.00     0.067 A 
HETATM   50  C31 UNL     1     -12.999 -12.425   0.000  1.00  0.00     0.101 A 
HETATM   51  C32 UNL     1     -11.785 -11.543   0.000  1.00  0.00     0.067 A 
HETATM   52  C33 UNL     1     -11.942 -10.051   0.000  1.00  0.00     0.116 A 
HETATM   53  F4  UNL     1     -10.729  -9.169   0.000  1.00  0.00    -0.209 F 
BRANCH  50  54
HETATM   54  C34 UNL     1     -12.842 -13.916   0.000  1.00  0.00     0.185 C 
HETATM   55  O8  UNL     1     -11.472 -14.526   0.000  1.00  0.00    -0.647 OA
HETATM   56  O9  UNL     1     -14.056 -14.798   0.000  1.00  0.00    -0.647 OA
ENDBRANCH  50  54
ENDBRANCH  45  46
ENDBRANCH  44  45
ENDBRANCH  43  44
ENDBRANCH  36  41
ENDBRANCH  35  36
ENDBRANCH  11  33
BRANCH  29  57
HETATM   57  C39 UNL     1       0.750   1.299   0.000  1.00  0.00     0.086 A 
HETATM   58  C40 UNL     1       1.632   0.086   0.000  1.00  0.00     0.112 A 
HETATM   59  S1  UNL     1       3.058   0.549   0.000  1.00  0.00    -0.069 SA
HETATM   60  C41 UNL     1       3.058   2.049   0.000  1.00  0.00     0.190 A 
HETATM   61  N7  UNL     1       1.632   2.513   0.000  1.00  0.00    -0.224 NA
BRANCH  60  62
HETATM   62  N6  UNL     1       4.272   2.931   0.000  1.00  0.00    -0.230 NA
BRANCH  62  63
HETATM   63  C42 UNL     1       4.115   4.423   0.000  1.00  0.00     0.040 C 
HETATM   64  C43 UNL     1       5.329   5.304   0.000  1.00  0.00     0.047 C 
HETATM   65  C44 UNL     1       2.745   5.033   0.000  1.00  0.00     0.047 C 
ENDBRANCH  62  63
ENDBRANCH  60  62
ENDBRANCH  29  57
TORSDOF 12
