REMARK  32 active torsions:
REMARK  status: ('A' for Active; 'I' for Inactive)
REMARK    1  A    between atoms: C1_1  and  C10_16 
REMARK    2  A    between atoms: C1_1  and  F1_22 
REMARK    3  A    between atoms: C2_2  and  C5_7 
REMARK    4  A    between atoms: C2_2  and  N3_11 
REMARK    5  A    between atoms: C2_2  and  O4_17 
REMARK    6  A    between atoms: C2_2  and  C14_26 
REMARK    7  A    between atoms: C2_2  and  C16_28 
REMARK    8  A    between atoms: C4_4  and  N2_6 
REMARK    9  A    between atoms: C4_4  and  C7_9 
REMARK   10  A    between atoms: N1_5  and  C7_9 
REMARK   11  A    between atoms: N1_5  and  O7_21 
REMARK   12  A    between atoms: N2_6  and  C14_26 
REMARK   13  A    between atoms: N2_6  and  C16_28 
REMARK   14  A    between atoms: C5_7  and  O2_14 
REMARK   15  A    between atoms: C6_8  and  O1_13 
REMARK   16  A    between atoms: C7_9  and  O3_15 
REMARK   17  A    between atoms: C8_10  and  O2_14 
REMARK   18  A    between atoms: N3_11  and  C11_20 
REMARK   19  A    between atoms: C9_12  and  O3_15 
REMARK   20  A    between atoms: O1_13  and  C10_16 
REMARK   21  A    between atoms: O1_13  and  F1_22 
REMARK   22  A    between atoms: O2_14  and  O4_17 
REMARK   23  A    between atoms: O2_14  and  C14_26 
REMARK   24  A    between atoms: C13_25  and  C22_34 
REMARK   25  A    between atoms: C15_27  and  C16_28 
REMARK   26  A    between atoms: C16_28  and  C19_31 
REMARK   27  A    between atoms: C17_29  and  C18_30 
REMARK   28  A    between atoms: C17_29  and  C21_33 
REMARK   29  A    between atoms: C18_30  and  C20_32 
REMARK   30  A    between atoms: C18_30  and  C22_34 
REMARK   31  A    between atoms: C20_32  and  C21_33 
REMARK   32  A    between atoms: C21_33  and  C22_34 
ROOT
HETATM    1  C1  UNL     1      10.318  -7.574   0.000  1.00  0.00     0.215 A 
HETATM    2  C2  UNL     1       6.023  -7.574   0.000  1.00  0.00     0.000 A 
HETATM    3  C3  UNL     1       9.607  -7.162   0.000  1.00  0.00     0.170 A 
HETATM    4  C4  UNL     1       8.173  -7.162   0.000  1.00  0.00     0.066 A 
HETATM    5  N1  UNL     1       8.883  -7.574   0.000  1.00  0.00     0.000 N 
HETATM    6  N2  UNL     1       6.738  -7.162   0.000  1.00  0.00     0.000 N 
HETATM    7  C5  UNL     1       4.589  -8.397   0.000  1.00  0.00     0.000 A 
HETATM    8  C6  UNL     1      10.326  -8.397   0.000  1.00  0.00     0.184 A 
HETATM    9  C7  UNL     1       9.607  -6.327   0.000  1.00  0.00     0.199 A 
HETATM   10  C8  UNL     1       5.304  -7.162   0.000  1.00  0.00     0.000 A 
HETATM   11  N3  UNL     1       4.581  -7.574   0.000  1.00  0.00     0.000 N 
HETATM   12  C9  UNL     1       7.457  -7.574   0.000  1.00  0.00     0.006 A 
HETATM   13  O1  UNL     1      11.037  -7.158   0.000  1.00  0.00     0.000 OA
HETATM   14  O2  UNL     1       6.023  -8.397   0.000  1.00  0.00     0.000 OA
HETATM   15  O3  UNL     1       8.173  -6.327   0.000  1.00  0.00     0.000 OA
HETATM   16  C10 UNL     1      10.318  -5.915   0.000  1.00  0.00     0.234 A 
HETATM   17  O4  UNL     1       5.304  -8.796   0.000  1.00  0.00     0.000 OA
HETATM   18  O5  UNL     1      11.037  -8.804   0.000  1.00  0.00    -0.329 OA
HETATM   19  O6  UNL     1       3.870  -8.809   0.000  1.00  0.00     0.000 OA
HETATM   20  C11 UNL     1       5.304  -6.339   0.000  1.00  0.00     0.000 A 
HETATM   21  O7  UNL     1       9.607  -8.809   0.000  1.00  0.00     0.000 OA
HETATM   22  F1  UNL     1      11.041  -6.327   0.000  1.00  0.00    -0.418 F 
HETATM   23  F2  UNL     1      10.318  -5.092   0.000  1.00  0.00    -0.333 F 
HETATM   24  C12 UNL     1       3.883  -9.632   0.000  1.00  0.00     0.000 A 
HETATM   25  C13 UNL     1       3.172 -10.056   0.000  1.00  0.00     0.000 A 
HETATM   26  C14 UNL     1       7.457  -8.397   0.000  1.00  0.00     0.006 A 
HETATM   27  C15 UNL     1       4.593  -5.928   0.000  1.00  0.00     0.000 A 
HETATM   28  C16 UNL     1       6.015  -5.928   0.000  1.00  0.00     0.000 A 
HETATM   29  C17 UNL     1       2.457  -9.644   0.000  1.00  0.00     0.000 A 
HETATM   30  C18 UNL     1       3.172 -10.879   0.000  1.00  0.00     0.000 A 
HETATM   31  C19 UNL     1       4.589  -5.105   0.000  1.00  0.00     0.000 A 
HETATM   32  C20 UNL     1       1.738 -10.064   0.000  1.00  0.00     0.000 A 
HETATM   33  C21 UNL     1       2.461 -11.299   0.000  1.00  0.00     0.000 A 
HETATM   34  C22 UNL     1       1.738 -10.891   0.000  1.00  0.00     0.000 A 
ENDROOT
TORSDOF 32
