REMARK  7 active torsions:
REMARK  status: ('A' for Active; 'I' for Inactive)
REMARK    1  A    between atoms: C4_4  and  N1_5 
REMARK       I    between atoms: N1_5  and  C5_6 
REMARK    2  A    between atoms: C5_6  and  C6_8 
REMARK       I    between atoms: N2_15  and  C13_16 
REMARK    3  A    between atoms: C13_16  and  C14_18 
REMARK    4  A    between atoms: C15_20  and  C16_22 
REMARK    5  A    between atoms: C17_24  and  C18_26 
REMARK    6  A    between atoms: C33_44  and  N7_46 
REMARK    7  A    between atoms: N7_46  and  C34_47 
ROOT
HETATM    1  C6  UNL     1       0.394   2.713   0.000  1.00  0.00     0.101 A 
HETATM    2  C7  UNL     1       0.394   1.214   0.000  1.00  0.00    -0.009 A 
HETATM    3  C8  UNL     1       1.276   0.000   0.000  1.00  0.00     0.028 A 
HETATM    4  C9  UNL     1       0.394  -1.214   0.000  1.00  0.00     0.009 A 
HETATM    5  C10 UNL     1      -1.032  -0.750   0.000  1.00  0.00     0.024 A 
HETATM    6  C11 UNL     1      -1.032   0.750   0.000  1.00  0.00    -0.024 A 
HETATM    7  C12 UNL     1      -1.914   1.964   0.000  1.00  0.00     0.131 A 
HETATM    8  N2  UNL     1      -1.032   3.177   0.000  1.00  0.00    -0.299 N 
HETATM    9  C13 UNL     1      -1.496   4.604   0.000  1.00  0.00     0.209 C 
HETATM   10  O2  UNL     1      -0.492   5.718   0.000  1.00  0.00    -0.170 OA
ENDROOT
BRANCH   9  11
HETATM   11  C14 UNL     1      -2.963   4.915   0.000  1.00  0.00     0.115 A 
HETATM   12  N3  UNL     1      -3.967   3.801   0.000  1.00  0.00    -0.220 NA
HETATM   13  C15 UNL     1      -5.434   4.113   0.000  1.00  0.00     0.209 A 
HETATM   14  O3  UNL     1      -5.897   5.539   0.000  1.00  0.00    -0.250 OA
HETATM   15  C29 UNL     1      -4.853   5.879   0.000  1.00  0.00     0.001 A 
HETATM   16  C28 UNL     1      -3.427   6.342   0.000  1.00  0.00     0.108 A 
HETATM   17  C30 UNL     1      -2.000   6.806   0.000  1.00  0.00     0.021 C 
HETATM   18  C31 UNL     1      -3.890   7.769   0.000  1.00  0.00     0.021 C 
BRANCH  13  19
HETATM   19  C16 UNL     1      -6.438   2.998   0.000  1.00  0.00     0.123 A 
HETATM   20  N4  UNL     1      -5.974   1.571   0.000  1.00  0.00    -0.218 NA
HETATM   21  C17 UNL     1      -6.978   0.457   0.000  1.00  0.00     0.198 A 
HETATM   22  O4  UNL     1      -8.445   0.768   0.000  1.00  0.00    -0.293 OA
HETATM   23  C27 UNL     1      -8.909   2.195   0.000  1.00  0.00     0.077 A 
HETATM   24  C22 UNL     1      -7.905   3.310   0.000  1.00  0.00     0.018 A 
HETATM   25  C26 UNL     1     -10.376   2.507   0.000  1.00  0.00     0.051 A 
HETATM   26  C23 UNL     1      -8.368   4.736   0.000  1.00  0.00     0.030 A 
HETATM   27  C24 UNL     1      -9.836   5.048   0.000  1.00  0.00     0.005 A 
HETATM   28  C25 UNL     1     -10.839   3.933   0.000  1.00  0.00     0.007 A 
BRANCH  21  29
HETATM   29  C18 UNL     1      -6.514  -0.970   0.000  1.00  0.00     0.119 A 
HETATM   30  C19 UNL     1      -7.518  -2.085   0.000  1.00  0.00     0.169 A 
HETATM   31  N5  UNL     1      -7.054  -3.511   0.000  1.00  0.00    -0.287 NA
HETATM   32  C20 UNL     1      -5.587  -3.823   0.000  1.00  0.00     0.146 A 
HETATM   33  C21 UNL     1      -4.583  -2.708   0.000  1.00  0.00     0.151 A 
HETATM   34  N6  UNL     1      -5.047  -1.282   0.000  1.00  0.00    -0.267 NA
ENDBRANCH  21  29
ENDBRANCH  13  19
ENDBRANCH   9  11
BRANCH   1  35
HETATM   35  C5  UNL     1       1.608   3.595   0.000  1.00  0.00     0.228 C 
HETATM   36  N1  UNL     1       2.978   2.985   0.000  1.00  0.00    -0.221 NA
HETATM   37  O1  UNL     1       1.451   5.087   0.000  1.00  0.00    -0.168 OA
BRANCH  36  38
HETATM   38  C4  UNL     1       4.192   3.867   0.000  1.00  0.00     0.092 A 
HETATM   39  C3  UNL     1       5.562   3.257   0.000  1.00  0.00     0.078 A 
HETATM   40  C2  UNL     1       6.776   4.138   0.000  1.00  0.00     0.129 A 
HETATM   41  C1  UNL     1       8.146   3.528   0.000  1.00  0.00     0.033 C 
HETATM   42  O6  UNL     1       6.619   5.630   0.000  1.00  0.00    -0.315 OA
HETATM   43  C33 UNL     1       5.248   6.240   0.000  1.00  0.00     0.205 A 
HETATM   44  C32 UNL     1       4.035   5.359   0.000  1.00  0.00     0.185 A 
HETATM   45  O5  UNL     1       2.665   5.969   0.000  1.00  0.00    -0.185 OA
BRANCH  43  46
HETATM   46  N7  UNL     1       5.092   7.732   0.000  1.00  0.00    -0.229 NA
BRANCH  46  47
HETATM   47  C34 UNL     1       6.305   8.614   0.000  1.00  0.00     0.040 A 
HETATM   48  C35 UNL     1       6.915   9.984   0.000  1.00  0.00     0.047 A 
HETATM   49  C36 UNL     1       7.797   8.771   0.000  1.00  0.00     0.047 A 
ENDBRANCH  46  47
ENDBRANCH  43  46
ENDBRANCH  36  38
ENDBRANCH   1  35
TORSDOF 7
