REMARK  16 active torsions:
REMARK  status: ('A' for Active; 'I' for Inactive)
REMARK    1  A    between atoms: C4_4  and  C31_47 
REMARK    2  A    between atoms: C5_6  and  C6_8 
REMARK       I    between atoms: N2_12  and  C10_13 
REMARK    3  A    between atoms: C10_13  and  C11_15 
REMARK    4  A    between atoms: C12_17  and  C13_19 
REMARK    5  A    between atoms: C14_21  and  C15_23 
REMARK    6  A    between atoms: C15_23  and  C16_24 
REMARK    7  A    between atoms: C15_23  and  N5_28 
REMARK    8  A    between atoms: C16_24  and  C17_25 
REMARK       I    between atoms: N5_28  and  C18_29 
REMARK    9  A    between atoms: C18_29  and  C19_31 
REMARK   10  A    between atoms: C19_31  and  C20_32 
REMARK   11  A    between atoms: C19_31  and  N6_36 
REMARK   12  A    between atoms: C20_32  and  C21_33 
REMARK       I    between atoms: N6_36  and  C22_37 
REMARK   13  A    between atoms: C24_40  and  C26_42 
REMARK   14  A    between atoms: C31_47  and  O12_49 
REMARK   15  A    between atoms: O12_49  and  C32_50 
REMARK   16  A    between atoms: C32_50  and  C33_51 
ROOT
HETATM    1  C11 UNL     1      -4.422  -4.039   0.000  1.00  0.00     0.120 A 
HETATM    2  N3  UNL     1      -5.889  -4.351   0.000  1.00  0.00    -0.218 NA
HETATM    3  C12 UNL     1      -6.893  -3.237   0.000  1.00  0.00     0.196 A 
HETATM    4  O3  UNL     1      -6.429  -1.810   0.000  1.00  0.00    -0.309 OA
HETATM    5  C28 UNL     1      -3.958  -2.613   0.000  1.00  0.00     0.007 A 
HETATM    6  C29 UNL     1      -4.962  -1.498   0.000  1.00  0.00     0.174 A 
HETATM    7  C30 UNL     1      -2.491  -2.301   0.000  1.00  0.00     0.031 C 
ENDROOT
BRANCH   3   8
HETATM    8  C13 UNL     1      -8.360  -3.548   0.000  1.00  0.00     0.119 A 
HETATM    9  N4  UNL     1      -8.823  -4.975   0.000  1.00  0.00    -0.218 NA
HETATM   10  C14 UNL     1     -10.291  -5.287   0.000  1.00  0.00     0.193 A 
HETATM   11  O4  UNL     1     -11.294  -4.172   0.000  1.00  0.00    -0.309 OA
HETATM   12  C25 UNL     1     -10.831  -2.746   0.000  1.00  0.00     0.174 A 
HETATM   13  C24 UNL     1      -9.364  -2.434   0.000  1.00  0.00     0.007 A 
BRANCH  10  14
HETATM   14  C15 UNL     1     -10.754  -6.713   0.000  1.00  0.00     0.113 C 
BRANCH  14  15
HETATM   15  C16 UNL     1     -12.222  -7.025   0.000  1.00  0.00     0.147 C 
BRANCH  15  16
HETATM   16  C17 UNL     1     -13.225  -5.911   0.000  1.00  0.00     0.192 C 
HETATM   17  O5  UNL     1     -12.762  -4.484   0.000  1.00  0.00    -0.647 OA
HETATM   18  O6  UNL     1     -14.692  -6.223   0.000  1.00  0.00    -0.647 OA
ENDBRANCH  15  16
ENDBRANCH  14  15
BRANCH  14  19
HETATM   19  N5  UNL     1      -9.751  -7.828   0.000  1.00  0.00    -0.219 NA
HETATM   20  C18 UNL     1     -10.214  -9.255   0.000  1.00  0.00     0.227 C 
HETATM   21  O7  UNL     1     -11.681  -9.567   0.000  1.00  0.00    -0.168 OA
BRANCH  20  22
HETATM   22  C19 UNL     1      -9.210 -10.370   0.000  1.00  0.00     0.115 C 
BRANCH  22  23
HETATM   23  C20 UNL     1      -7.743 -10.058   0.000  1.00  0.00     0.147 C 
BRANCH  23  24
HETATM   24  C21 UNL     1      -6.739 -11.172   0.000  1.00  0.00     0.192 C 
HETATM   25  O8  UNL     1      -7.203 -12.599   0.000  1.00  0.00    -0.647 OA
HETATM   26  O9  UNL     1      -5.272 -10.861   0.000  1.00  0.00    -0.647 OA
ENDBRANCH  23  24
ENDBRANCH  22  23
BRANCH  22  27
HETATM   27  N6  UNL     1      -9.674 -11.796   0.000  1.00  0.00    -0.224 NA
HETATM   28  C22 UNL     1     -11.141 -12.108   0.000  1.00  0.00     0.190 C 
HETATM   29  O10 UNL     1     -12.145 -10.993   0.000  1.00  0.00    -0.174 OA
HETATM   30  C23 UNL     1     -11.605 -13.534   0.000  1.00  0.00     0.083 C 
ENDBRANCH  22  27
ENDBRANCH  20  22
ENDBRANCH  14  19
ENDBRANCH  10  14
BRANCH  13  31
HETATM   31  C26 UNL     1      -8.900  -1.007   0.000  1.00  0.00     0.026 C 
HETATM   32  C27 UNL     1      -9.904   0.108   0.000  1.00  0.00     0.005 C 
ENDBRANCH  13  31
ENDBRANCH   3   8
BRANCH   1  33
HETATM   33  C10 UNL     1      -3.418  -5.154   0.000  1.00  0.00     0.211 C 
HETATM   34  N2  UNL     1      -3.882  -6.581   0.000  1.00  0.00    -0.306 N 
HETATM   35  C6  UNL     1      -3.000  -7.794   0.000  1.00  0.00     0.080 A 
HETATM   36  C9  UNL     1      -5.308  -7.044   0.000  1.00  0.00     0.108 A 
HETATM   37  C7  UNL     1      -3.882  -9.008   0.000  1.00  0.00     0.050 A 
HETATM   38  C8  UNL     1      -5.308  -8.544   0.000  1.00  0.00     0.031 A 
HETATM   39  O2  UNL     1      -1.951  -4.842   0.000  1.00  0.00    -0.169 OA
BRANCH  35  40
HETATM   40  C5  UNL     1      -1.500  -7.794   0.000  1.00  0.00     0.190 A 
HETATM   41  N1  UNL     1      -0.750  -6.495   0.000  1.00  0.00    -0.222 NA
HETATM   42  C4  UNL     1       0.750  -6.495   0.000  1.00  0.00     0.112 A 
HETATM   43  C3  UNL     1       1.500  -7.794   0.000  1.00  0.00     0.080 A 
HETATM   44  C2  UNL     1       0.750  -9.093   0.000  1.00  0.00     0.129 A 
HETATM   45  C1  UNL     1       1.500 -10.392   0.000  1.00  0.00     0.033 C 
HETATM   46  O1  UNL     1      -0.750  -9.093   0.000  1.00  0.00    -0.316 OA
BRANCH  42  47
HETATM   47  C31 UNL     1       1.500  -5.196   0.000  1.00  0.00     0.242 C 
HETATM   48  O11 UNL     1       3.000  -5.196   0.000  1.00  0.00    -0.162 OA
BRANCH  47  49
HETATM   49  O12 UNL     1       0.750  -3.897   0.000  1.00  0.00    -0.308 OA
BRANCH  49  50
HETATM   50  C32 UNL     1       1.500  -2.598   0.000  1.00  0.00     0.151 C 
BRANCH  50  51
HETATM   51  C33 UNL     1       0.750  -1.299   0.000  1.00  0.00     0.030 A 
HETATM   52  C34 UNL     1       1.500   0.000   0.000  1.00  0.00     0.003 A 
HETATM   53  C35 UNL     1       0.750   1.299   0.000  1.00  0.00     0.000 A 
HETATM   54  C36 UNL     1      -0.750   1.299   0.000  1.00  0.00     0.000 A 
HETATM   55  C37 UNL     1      -1.500   0.000   0.000  1.00  0.00     0.000 A 
HETATM   56  C38 UNL     1      -0.750  -1.299   0.000  1.00  0.00     0.003 A 
ENDBRANCH  50  51
ENDBRANCH  49  50
ENDBRANCH  47  49
ENDBRANCH  42  47
ENDBRANCH  35  40
ENDBRANCH   1  33
TORSDOF 16
