REMARK  7 active torsions:
REMARK  status: ('A' for Active; 'I' for Inactive)
REMARK    1  A    between atoms: O1_2  and  C2_3 
REMARK    2  A    between atoms: C4_5  and  O2_6 
REMARK    3  A    between atoms: O2_6  and  C5_7 
REMARK    4  A    between atoms: C13_17  and  N4_43 
REMARK       I    between atoms: N4_43  and  C32_44 
REMARK    5  A    between atoms: C32_44  and  O9_46 
REMARK    6  A    between atoms: O9_46  and  C33_47 
REMARK    7  A    between atoms: C37_52  and  C38_54 
ROOT
HETATM    1  C5  UNL     1      -8.255  -1.509   0.000  1.00  0.00     0.130 A 
HETATM    2  C6  UNL     1      -8.255  -3.009   0.000  1.00  0.00     0.035 A 
HETATM    3  C7  UNL     1      -6.956  -3.759   0.000  1.00  0.00     0.033 A 
HETATM    4  C8  UNL     1      -5.657  -3.009   0.000  1.00  0.00     0.031 A 
HETATM    5  C9  UNL     1      -5.657  -1.509   0.000  1.00  0.00     0.082 A 
HETATM    6  C10 UNL     1      -6.956  -0.759   0.000  1.00  0.00     0.082 A 
HETATM    7  C11 UNL     1      -4.358  -3.759   0.000  1.00  0.00     0.185 A 
HETATM    8  N1  UNL     1      -4.906  -5.155   0.000  1.00  0.00    -0.369 NA
HETATM    9  C12 UNL     1      -5.018  -6.651   0.000  1.00  0.00     0.287 A 
HETATM   10  O3  UNL     1      -6.514  -6.763   0.000  1.00  0.00    -0.153 OA
HETATM   11  C13 UNL     1      -4.684  -8.113   0.000  1.00  0.00     0.183 A 
HETATM   12  C14 UNL     1      -3.934  -9.412   0.000  1.00  0.00    -0.027 A 
HETATM   13  C15 UNL     1      -2.835 -10.433   0.000  1.00  0.00    -0.007 A 
HETATM   14  C16 UNL     1      -1.483 -11.084   0.000  1.00  0.00    -0.001 A 
HETATM   15  C17 UNL     1       0.000 -11.307   0.000  1.00  0.00    -0.000 A 
HETATM   16  C18 UNL     1       1.483 -11.084   0.000  1.00  0.00    -0.000 A 
HETATM   17  C19 UNL     1       2.835 -10.433   0.000  1.00  0.00    -0.000 A 
HETATM   18  C20 UNL     1       3.934  -9.412   0.000  1.00  0.00    -0.000 A 
HETATM   19  C21 UNL     1       4.684  -8.113   0.000  1.00  0.00     0.000 A 
HETATM   20  C22 UNL     1       5.018  -6.651   0.000  1.00  0.00     0.005 A 
HETATM   21  C23 UNL     1       4.906  -5.155   0.000  1.00  0.00     0.076 A 
HETATM   22  S1  UNL     1       4.358  -3.759   0.000  1.00  0.00     0.368 S 
HETATM   23  O4  UNL     1       5.856  -3.834   0.000  1.00  0.00    -0.177 OA
HETATM   24  O5  UNL     1       5.042  -2.424   0.000  1.00  0.00    -0.177 OA
HETATM   25  N2  UNL     1       3.423  -2.586   0.000  1.00  0.00    -0.285 NA
HETATM   26  C24 UNL     1       2.183  -1.741   0.000  1.00  0.00     0.252 A 
HETATM   27  O6  UNL     1       2.834  -0.390   0.000  1.00  0.00    -0.283 OA
HETATM   28  C25 UNL     1       0.750  -1.299   0.000  1.00  0.00     0.099 A 
HETATM   29  C26 UNL     1       1.500   0.000   0.000  1.00  0.00     0.087 A 
HETATM   30  C27 UNL     1       0.750   1.299   0.000  1.00  0.00     0.052 A 
HETATM   31  C28 UNL     1      -0.750   1.299   0.000  1.00  0.00     0.014 A 
HETATM   32  C29 UNL     1      -1.500   0.000   0.000  1.00  0.00     0.060 A 
HETATM   33  C30 UNL     1      -0.750  -1.299   0.000  1.00  0.00     0.118 A 
HETATM   34  N3  UNL     1      -2.183  -1.741   0.000  1.00  0.00    -0.380 NA
HETATM   35  C31 UNL     1      -3.423  -2.586   0.000  1.00  0.00     0.264 A 
HETATM   36  O7  UNL     1      -4.443  -1.487   0.000  1.00  0.00    -0.283 OA
ENDROOT
BRANCH   1  37
HETATM   37  O2  UNL     1      -9.554  -0.759   0.000  1.00  0.00    -0.320 OA
BRANCH  37  38
HETATM   38  C4  UNL     1      -9.554   0.741   0.000  1.00  0.00     0.164 A 
HETATM   39  C3  UNL     1      -8.255   1.491   0.000  1.00  0.00     0.142 A 
HETATM   40  C2  UNL     1      -8.255   2.991   0.000  1.00  0.00     0.164 A 
HETATM   41  N6  UNL     1      -9.554   3.741   0.000  1.00  0.00    -0.208 NA
HETATM   42  C37 UNL     1     -10.853   2.991   0.000  1.00  0.00     0.158 A 
HETATM   43  N5  UNL     1     -10.853   1.491   0.000  1.00  0.00    -0.208 NA
BRANCH  40  44
HETATM   44  O1  UNL     1      -6.956   3.741   0.000  1.00  0.00    -0.315 OA
HETATM   45  C1  UNL     1      -5.657   2.991   0.000  1.00  0.00     0.183 C 
ENDBRANCH  40  44
BRANCH  42  46
HETATM   46  C38 UNL     1     -12.152   3.741   0.000  1.00  0.00    -0.008 A 
HETATM   47  C39 UNL     1     -12.152   5.241   0.000  1.00  0.00     0.025 A 
HETATM   48  C40 UNL     1     -13.451   5.991   0.000  1.00  0.00     0.004 A 
HETATM   49  C41 UNL     1     -14.750   5.241   0.000  1.00  0.00     0.001 A 
HETATM   50  C42 UNL     1     -14.750   3.741   0.000  1.00  0.00     0.004 A 
HETATM   51  C43 UNL     1     -13.451   2.991   0.000  1.00  0.00     0.025 A 
ENDBRANCH  42  46
ENDBRANCH  37  38
ENDBRANCH   1  37
BRANCH  11  52
HETATM   52  N4  UNL     1      -6.081  -8.661   0.000  1.00  0.00    -0.185 NA
HETATM   53  C32 UNL     1      -6.304 -10.145   0.000  1.00  0.00     0.319 C 
HETATM   54  O8  UNL     1      -5.131 -11.080   0.000  1.00  0.00    -0.141 OA
BRANCH  53  55
HETATM   55  O9  UNL     1      -7.700 -10.693   0.000  1.00  0.00    -0.299 OA
BRANCH  55  56
HETATM   56  C33 UNL     1      -7.924 -12.176   0.000  1.00  0.00     0.102 C 
HETATM   57  C34 UNL     1      -9.407 -11.952   0.000  1.00  0.00     0.030 C 
HETATM   58  C35 UNL     1      -6.441 -12.399   0.000  1.00  0.00     0.030 C 
HETATM   59  C36 UNL     1      -8.148 -13.659   0.000  1.00  0.00     0.030 C 
ENDBRANCH  55  56
ENDBRANCH  53  55
ENDBRANCH  11  52
TORSDOF 7
