REMARK  31 active torsions:
REMARK  status: ('A' for Active; 'I' for Inactive)
REMARK    1  A    between atoms: C1_1  and  C12_20 
REMARK    2  A    between atoms: C1_1  and  F1_27 
REMARK    3  A    between atoms: C3_3  and  C5_5 
REMARK    4  A    between atoms: C3_3  and  N3_13 
REMARK    5  A    between atoms: C3_3  and  O3_17 
REMARK    6  A    between atoms: C3_3  and  C13_22 
REMARK    7  A    between atoms: C3_3  and  C19_33 
REMARK    8  A    between atoms: C4_4  and  N2_7 
REMARK    9  A    between atoms: C4_4  and  C8_10 
REMARK   10  A    between atoms: C5_5  and  O5_19 
REMARK   11  A    between atoms: C5_5  and  C17_31 
REMARK   12  A    between atoms: N1_6  and  C8_10 
REMARK   13  A    between atoms: N1_6  and  O8_25 
REMARK   14  A    between atoms: N2_7  and  C13_22 
REMARK   15  A    between atoms: C6_8  and  O5_19 
REMARK   16  A    between atoms: C7_9  and  O2_16 
REMARK   17  A    between atoms: C8_10  and  O4_18 
REMARK   18  A    between atoms: C9_11  and  N3_13 
REMARK   19  A    between atoms: C10_12  and  O4_18 
REMARK   20  A    between atoms: N3_13  and  O7_23 
REMARK   21  A    between atoms: O2_16  and  C12_20 
REMARK   22  A    between atoms: O2_16  and  F1_27 
REMARK   23  A    between atoms: O3_17  and  O5_19 
REMARK   24  A    between atoms: O3_17  and  C17_31 
REMARK   25  A    between atoms: O3_17  and  C19_33 
REMARK   26  A    between atoms: O5_19  and  C13_22 
REMARK   27  A    between atoms: O5_19  and  C15_29 
REMARK   28  A    between atoms: O5_19  and  C19_33 
REMARK   29  A    between atoms: C16_30  and  C18_32 
REMARK   30  A    between atoms: C17_31  and  C18_32 
REMARK   31  A    between atoms: C19_33  and  C20_34 
ROOT
HETATM    1  C1  UNL     1       9.904  -5.867   0.000  1.00  0.00     0.215 A 
HETATM    2  C2  UNL     1       9.188  -5.454   0.000  1.00  0.00     0.170 A 
HETATM    3  C3  UNL     1       5.592  -5.867   0.000  1.00  0.00     0.026 A 
HETATM    4  C4  UNL     1       7.750  -5.454   0.000  1.00  0.00     0.066 A 
HETATM    5  C5  UNL     1       4.154  -6.692   0.000  1.00  0.00     0.007 A 
HETATM    6  N1  UNL     1       8.467  -5.867   0.000  1.00  0.00     0.000 N 
HETATM    7  N2  UNL     1       6.317  -5.454   0.000  1.00  0.00     0.000 N 
HETATM    8  C6  UNL     1       4.879  -5.454   0.000  1.00  0.00     0.055 A 
HETATM    9  C7  UNL     1       9.904  -6.692   0.000  1.00  0.00     0.184 A 
HETATM   10  C8  UNL     1       9.188  -4.617   0.000  1.00  0.00     0.199 A 
HETATM   11  C9  UNL     1       4.879  -4.629   0.000  1.00  0.00     0.120 A 
HETATM   12  C10 UNL     1       7.029  -5.867   0.000  1.00  0.00     0.008 A 
HETATM   13  N3  UNL     1       4.154  -5.867   0.000  1.00  0.00     0.000 N 
HETATM   14  C11 UNL     1       4.162  -4.217   0.000  1.00  0.00     0.142 A 
HETATM   15  O1  UNL     1       3.450  -7.104   0.000  1.00  0.00     0.000 OA
HETATM   16  O2  UNL     1      10.617  -5.450   0.000  1.00  0.00     0.000 OA
HETATM   17  O3  UNL     1       4.875  -7.092   0.000  1.00  0.00     0.000 OA
HETATM   18  O4  UNL     1       7.750  -4.617   0.000  1.00  0.00     0.000 OA
HETATM   19  O5  UNL     1       5.592  -6.692   0.000  1.00  0.00     0.000 OA
HETATM   20  C12 UNL     1       9.904  -4.204   0.000  1.00  0.00     0.234 A 
HETATM   21  O6  UNL     1      10.617  -7.100   0.000  1.00  0.00    -0.329 OA
HETATM   22  C13 UNL     1       7.029  -6.692   0.000  1.00  0.00     0.007 A 
HETATM   23  O7  UNL     1       3.442  -4.629   0.000  1.00  0.00     0.000 OA
HETATM   24  C14 UNL     1       3.454  -7.929   0.000  1.00  0.00     0.000 A 
HETATM   25  O8  UNL     1       9.192  -7.104   0.000  1.00  0.00     0.000 OA
HETATM   26  O9  UNL     1       4.162  -3.392   0.000  1.00  0.00    -0.357 OA
HETATM   27  F1  UNL     1      10.625  -4.617   0.000  1.00  0.00    -0.418 F 
HETATM   28  F2  UNL     1       9.904  -3.379   0.000  1.00  0.00    -0.333 F 
HETATM   29  C15 UNL     1       6.617  -7.404   0.000  1.00  0.00     0.001 A 
HETATM   30  C16 UNL     1       3.454  -8.754   0.000  1.00  0.00     0.000 A 
HETATM   31  C17 UNL     1       4.175  -8.338   0.000  1.00  0.00     0.000 A 
HETATM   32  C18 UNL     1       2.742  -8.350   0.000  1.00  0.00     0.000 A 
HETATM   33  C19 UNL     1       5.792  -7.392   0.000  1.00  0.00     0.003 A 
HETATM   34  C20 UNL     1       7.025  -8.117   0.000  1.00  0.00     0.000 A 
ENDROOT
TORSDOF 31
