REMARK  21 active torsions:
REMARK  status: ('A' for Active; 'I' for Inactive)
REMARK    1  A    between atoms: O1_2  and  C2_3 
REMARK    2  A    between atoms: C4_5  and  O2_6 
REMARK    3  A    between atoms: O2_6  and  C5_7 
REMARK    4  A    between atoms: C8_10  and  C11_13 
REMARK    5  A    between atoms: C11_13  and  N1_14 
REMARK    6  A    between atoms: C11_13  and  C26_33 
REMARK       I    between atoms: N1_14  and  C12_15 
REMARK    7  A    between atoms: C12_15  and  C13_17 
REMARK    8  A    between atoms: C15_19  and  C16_20 
REMARK    9  A    between atoms: C16_20  and  C17_21 
REMARK   10  A    between atoms: C17_21  and  C18_22 
REMARK   11  A    between atoms: C18_22  and  C19_23 
REMARK   12  A    between atoms: C21_26  and  O5_28 
REMARK   13  A    between atoms: O5_28  and  C22_29 
REMARK       I    between atoms: C26_33  and  N3_35 
REMARK   14  A    between atoms: N3_35  and  C27_36 
REMARK   15  A    between atoms: C32_41  and  C33_42 
REMARK       I    between atoms: C33_42  and  N4_44 
REMARK   16  A    between atoms: N4_44  and  S1_45 
REMARK   17  A    between atoms: S1_45  and  C34_48 
REMARK   18  A    between atoms: C34_48  and  C35_49 
REMARK   19  A    between atoms: C35_49  and  C36_50 
REMARK   20  A    between atoms: C36_50  and  C37_51 
REMARK   21  A    between atoms: C39_54  and  C40_56 
ROOT
HETATM    1  C11 UNL     1      -7.500  -2.598   0.000  1.00  0.00     0.119 C 
ENDROOT
BRANCH   1   2
HETATM    2  C8  UNL     1      -6.000  -2.598   0.000  1.00  0.00    -0.023 A 
HETATM    3  C7  UNL     1      -5.250  -1.299   0.000  1.00  0.00     0.026 A 
HETATM    4  C6  UNL     1      -3.750  -1.299   0.000  1.00  0.00     0.035 A 
HETATM    5  C5  UNL     1      -3.000  -2.598   0.000  1.00  0.00     0.123 A 
HETATM    6  C10 UNL     1      -3.750  -3.897   0.000  1.00  0.00     0.035 A 
HETATM    7  C9  UNL     1      -5.250  -3.897   0.000  1.00  0.00     0.026 A 
BRANCH   5   8
HETATM    8  O2  UNL     1      -1.500  -2.598   0.000  1.00  0.00    -0.320 OA
BRANCH   8   9
HETATM    9  C4  UNL     1      -0.750  -1.299   0.000  1.00  0.00     0.164 A 
HETATM   10  C3  UNL     1       0.750  -1.299   0.000  1.00  0.00     0.142 A 
HETATM   11  C2  UNL     1       1.500   0.000   0.000  1.00  0.00     0.164 A 
HETATM   12  N6  UNL     1       0.750   1.299   0.000  1.00  0.00    -0.208 NA
HETATM   13  C39 UNL     1      -0.750   1.299   0.000  1.00  0.00     0.158 A 
HETATM   14  N5  UNL     1      -1.500   0.000   0.000  1.00  0.00    -0.208 NA
BRANCH  11  15
HETATM   15  O1  UNL     1       3.000   0.000   0.000  1.00  0.00    -0.315 OA
HETATM   16  C1  UNL     1       3.750  -1.299   0.000  1.00  0.00     0.183 C 
ENDBRANCH  11  15
BRANCH  13  17
HETATM   17  C40 UNL     1      -1.500   2.598   0.000  1.00  0.00    -0.008 A 
HETATM   18  C41 UNL     1      -0.750   3.897   0.000  1.00  0.00     0.025 A 
HETATM   19  C42 UNL     1      -1.500   5.196   0.000  1.00  0.00     0.004 A 
HETATM   20  C43 UNL     1      -3.000   5.196   0.000  1.00  0.00     0.001 A 
HETATM   21  C44 UNL     1      -3.750   3.897   0.000  1.00  0.00     0.004 A 
HETATM   22  C45 UNL     1      -3.000   2.598   0.000  1.00  0.00     0.025 A 
ENDBRANCH  13  17
ENDBRANCH   8   9
ENDBRANCH   5   8
ENDBRANCH   1   2
BRANCH   1  23
HETATM   23  N1  UNL     1      -8.250  -3.897   0.000  1.00  0.00    -0.216 NA
HETATM   24  C12 UNL     1      -9.750  -3.897   0.000  1.00  0.00     0.227 C 
HETATM   25  O3  UNL     1     -10.500  -2.598   0.000  1.00  0.00    -0.168 OA
BRANCH  24  26
HETATM   26  C13 UNL     1     -10.500  -5.196   0.000  1.00  0.00     0.109 A 
HETATM   27  C14 UNL     1     -12.000  -5.196   0.000  1.00  0.00     0.080 A 
HETATM   28  C15 UNL     1     -12.750  -6.495   0.000  1.00  0.00     0.131 A 
HETATM   29  O4  UNL     1     -12.000  -7.794   0.000  1.00  0.00    -0.298 OA
HETATM   30  C21 UNL     1     -10.500  -7.794   0.000  1.00  0.00     0.289 A 
HETATM   31  N2  UNL     1      -9.750  -6.495   0.000  1.00  0.00    -0.201 NA
BRANCH  28  32
HETATM   32  C16 UNL     1     -14.250  -6.495   0.000  1.00  0.00     0.031 C 
BRANCH  32  33
HETATM   33  C17 UNL     1     -15.000  -7.794   0.000  1.00  0.00     0.003 C 
BRANCH  33  34
HETATM   34  C18 UNL     1     -16.500  -7.794   0.000  1.00  0.00     0.000 C 
BRANCH  34  35
HETATM   35  C19 UNL     1     -17.250  -9.093   0.000  1.00  0.00     0.000 C 
HETATM   36  C20 UNL     1     -18.750  -9.093   0.000  1.00  0.00     0.000 C 
ENDBRANCH  34  35
ENDBRANCH  33  34
ENDBRANCH  32  33
ENDBRANCH  28  32
BRANCH  30  37
HETATM   37  O5  UNL     1      -9.750  -9.093   0.000  1.00  0.00    -0.301 OA
BRANCH  37  38
HETATM   38  C22 UNL     1     -10.500 -10.392   0.000  1.00  0.00     0.102 C 
HETATM   39  C23 UNL     1      -9.201 -11.142   0.000  1.00  0.00     0.030 C 
HETATM   40  C24 UNL     1     -11.799  -9.642   0.000  1.00  0.00     0.030 C 
HETATM   41  C25 UNL     1     -11.250 -11.691   0.000  1.00  0.00     0.030 C 
ENDBRANCH  37  38
ENDBRANCH  30  37
ENDBRANCH  24  26
ENDBRANCH   1  23
BRANCH   1  42
HETATM   42  C26 UNL     1      -8.250  -1.299   0.000  1.00  0.00     0.230 C 
HETATM   43  O6  UNL     1      -7.500   0.000   0.000  1.00  0.00    -0.168 OA
HETATM   44  N3  UNL     1      -9.750  -1.299   0.000  1.00  0.00    -0.223 NA
BRANCH  44  45
HETATM   45  C27 UNL     1     -10.500   0.000   0.000  1.00  0.00     0.061 A 
HETATM   46  C28 UNL     1      -9.750   1.299   0.000  1.00  0.00     0.046 A 
HETATM   47  C29 UNL     1     -10.500   2.598   0.000  1.00  0.00     0.007 A 
HETATM   48  C30 UNL     1     -12.000   2.598   0.000  1.00  0.00     0.005 A 
HETATM   49  C31 UNL     1     -12.750   1.299   0.000  1.00  0.00     0.031 A 
HETATM   50  C32 UNL     1     -12.000   0.000   0.000  1.00  0.00     0.036 A 
BRANCH  50  51
HETATM   51  C33 UNL     1     -12.750  -1.299   0.000  1.00  0.00     0.221 C 
HETATM   52  O7  UNL     1     -12.000  -2.598   0.000  1.00  0.00    -0.169 OA
HETATM   53  N4  UNL     1     -14.250  -1.299   0.000  1.00  0.00    -0.135 NA
BRANCH  53  54
HETATM   54  S1  UNL     1     -15.000  -2.598   0.000  1.00  0.00     0.266 S 
HETATM   55  O8  UNL     1     -13.701  -3.348   0.000  1.00  0.00    -0.203 OA
HETATM   56  O9  UNL     1     -16.299  -1.848   0.000  1.00  0.00    -0.203 OA
BRANCH  54  57
HETATM   57  C34 UNL     1     -15.750  -3.897   0.000  1.00  0.00     0.146 C 
BRANCH  57  58
HETATM   58  C35 UNL     1     -17.250  -3.897   0.000  1.00  0.00     0.019 C 
BRANCH  58  59
HETATM   59  C36 UNL     1     -18.000  -5.196   0.000  1.00  0.00     0.001 C 
BRANCH  59  60
HETATM   60  C37 UNL     1     -19.500  -5.196   0.000  1.00  0.00     0.000 C 
HETATM   61  C38 UNL     1     -20.250  -6.495   0.000  1.00  0.00     0.000 C 
ENDBRANCH  59  60
ENDBRANCH  58  59
ENDBRANCH  57  58
ENDBRANCH  54  57
ENDBRANCH  53  54
ENDBRANCH  50  51
ENDBRANCH  44  45
ENDBRANCH   1  42
TORSDOF 21
