REMARK  17 active torsions:
REMARK  status: ('A' for Active; 'I' for Inactive)
REMARK    1  A    between atoms: C3_3  and  N2_10 
REMARK    2  A    between atoms: C19_25  and  C20_26 
REMARK    3  A    between atoms: C20_26  and  C21_27 
REMARK    4  A    between atoms: C21_27  and  C22_28 
REMARK    5  A    between atoms: C25_35  and  O12_52 
REMARK    6  A    between atoms: C25_35  and  F3_59 
REMARK    7  A    between atoms: O7_37  and  O9_41 
REMARK    8  A    between atoms: C27_40  and  C38_56 
REMARK    9  A    between atoms: O9_41  and  C37_55 
REMARK   10  A    between atoms: O9_41  and  C39_60 
REMARK   11  A    between atoms: C29_43  and  C30_44 
REMARK   12  A    between atoms: C35_51  and  F3_59 
REMARK   13  A    between atoms: O12_52  and  C38_56 
REMARK   14  A    between atoms: O12_52  and  F3_59 
REMARK   15  A    between atoms: C39_60  and  C40_62 
REMARK       I    between atoms: C40_62  and  N7_64 
REMARK   16  A    between atoms: N7_64  and  C41_65 
REMARK   17  A    between atoms: C41_65  and  C43_67 
ROOT
HETATM    1  C1  UNL     1      -8.542  -6.715   0.000  1.00  0.00     0.026 A 
HETATM    2  C2  UNL     1      -7.500  -7.794   0.000  1.00  0.00     0.041 A 
HETATM    3  C3  UNL     1      -8.054  -8.368   0.000  1.00  0.00     0.011 A 
HETATM    4  C4  UNL     1      -6.000  -7.794   0.000  1.00  0.00     0.150 A 
HETATM    5  C5  UNL     1      -5.250  -9.093   0.000  1.00  0.00     0.216 A 
HETATM    6  N1  UNL     1      -6.000 -10.392   0.000  1.00  0.00    -0.242 NA
HETATM    7  C6  UNL     1      -7.500 -10.392   0.000  1.00  0.00     0.185 A 
HETATM    8  O1  UNL     1      -8.250 -11.691   0.000  1.00  0.00    -0.174 OA
HETATM    9  C7  UNL     1      -8.250  -9.093   0.000  1.00  0.00     0.066 A 
HETATM   10  N2  UNL     1      -7.500  -7.794   0.000  1.00  0.00     0.000 N 
HETATM   11  C8  UNL     1      -8.250  -6.495   0.000  1.00  0.00     0.043 A 
HETATM   12  O2  UNL     1      -9.750  -6.495   0.000  1.00  0.00     0.000 OA
HETATM   13  C9  UNL     1      -7.500  -5.196   0.000  1.00  0.00     0.036 A 
HETATM   14  C10 UNL     1      -8.250  -3.897   0.000  1.00  0.00     0.062 A 
HETATM   15  C11 UNL     1      -7.500  -2.598   0.000  1.00  0.00    -0.044 A 
HETATM   16  C12 UNL     1      -6.000  -2.598   0.000  1.00  0.00     0.046 A 
HETATM   17  C13 UNL     1      -5.250  -1.299   0.000  1.00  0.00     0.007 A 
HETATM   18  C14 UNL     1      -6.000  -0.000   0.000  1.00  0.00     0.005 A 
HETATM   19  C15 UNL     1      -7.500  -0.000   0.000  1.00  0.00     0.021 A 
HETATM   20  C16 UNL     1      -8.250  -1.299   0.000  1.00  0.00    -0.051 A 
HETATM   21  C17 UNL     1      -9.750  -1.299   0.000  1.00  0.00     0.026 C 
HETATM   22  N3  UNL     1      -6.000  -5.196   0.000  1.00  0.00    -0.275 NA
HETATM   23  C18 UNL     1      -5.250  -3.897   0.000  1.00  0.00     0.141 A 
HETATM   24  O3  UNL     1      -5.663  -2.455   0.000  1.00  0.00     0.000 OA
HETATM   25  C19 UNL     1      -3.750  -3.897   0.000  1.00  0.00     0.060 A 
HETATM   26  N4  UNL     1      -3.000  -5.196   0.000  1.00  0.00    -0.225 NA
HETATM   27  C23 UNL     1      -3.750  -6.495   0.000  1.00  0.00     0.325 A 
HETATM   28  O6  UNL     1      -5.250  -6.495   0.000  1.00  0.00    -0.313 OA
HETATM   29  C24 UNL     1      -3.000  -7.794   0.000  1.00  0.00     0.279 A 
HETATM   30  C25 UNL     1      -3.750  -9.093   0.000  1.00  0.00     0.317 C 
HETATM   31  C26 UNL     1      -3.000 -10.392   0.000  1.00  0.00     0.363 A 
HETATM   32  O7  UNL     1      -1.600 -10.930   0.000  1.00  0.00     0.000 OA
HETATM   33  O8  UNL     1      -3.750 -11.691   0.000  1.00  0.00    -0.187 OA
HETATM   34  N5  UNL     1      -1.500  -7.794   0.000  1.00  0.00     0.000 N 
HETATM   35  C27 UNL     1      -0.750  -9.093   0.000  1.00  0.00     0.111 A 
HETATM   36  O9  UNL     1      -0.985 -10.575   0.000  1.00  0.00     0.000 OA
HETATM   37  C28 UNL     1       0.750  -9.093   0.000  1.00  0.00     0.057 A 
HETATM   38  C29 UNL     1       1.500 -10.392   0.000  1.00  0.00     0.203 A 
HETATM   39  C31 UNL     1      -9.750  -9.093   0.000  1.00  0.00     0.021 A 
HETATM   40  C32 UNL     1      -9.750  -7.593   0.000  1.00  0.00    -0.052 A 
HETATM   41  C33 UNL     1      -9.750 -10.593   0.000  1.00  0.00     0.004 C 
HETATM   42  C34 UNL     1     -11.250  -9.093   0.000  1.00  0.00     0.004 C 
HETATM   43  C35 UNL     1      -3.750  -9.093   0.000  1.00  0.00     0.317 A 
HETATM   44  O12 UNL     1      -2.584  -8.149   0.000  1.00  0.00     0.000 OA
HETATM   45  N6  UNL     1      -3.000 -10.392   0.000  1.00  0.00     0.071 N 
HETATM   46  C36 UNL     1      -1.500 -10.392   0.000  1.00  0.00     0.245 A 
HETATM   47  C37 UNL     1      -0.750  -9.093   0.000  1.00  0.00     0.111 C 
HETATM   48  C38 UNL     1      -1.500  -7.794   0.000  1.00  0.00     0.224 A 
HETATM   49  F1  UNL     1      -2.250  -6.495   0.000  1.00  0.00    -0.385 F 
HETATM   50  F2  UNL     1      -0.201  -7.044   0.000  1.00  0.00    -0.192 F 
HETATM   51  F3  UNL     1      -2.444  -8.960   0.000  1.00  0.00    -0.449 F 
HETATM   52  C39 UNL     1      -0.750 -11.691   0.000  1.00  0.00     0.212 A 
HETATM   53  O13 UNL     1       0.750 -11.691   0.000  1.00  0.00    -0.338 OA
ENDROOT
BRANCH  52  54
HETATM   54  C40 UNL     1      -1.500 -12.990   0.000  1.00  0.00     0.218 C 
HETATM   55  O14 UNL     1      -3.000 -12.990   0.000  1.00  0.00    -0.171 OA
HETATM   56  N7  UNL     1      -0.750 -14.289   0.000  1.00  0.00    -0.227 NA
BRANCH  56  57
HETATM   57  C41 UNL     1      -1.500 -15.588   0.000  1.00  0.00     0.054 C 
HETATM   58  C42 UNL     1      -3.000 -15.588   0.000  1.00  0.00     0.051 C 
BRANCH  57  59
HETATM   59  C43 UNL     1      -0.750 -16.887   0.000  1.00  0.00    -0.026 A 
HETATM   60  C44 UNL     1       0.750 -16.887   0.000  1.00  0.00     0.028 A 
HETATM   61  C45 UNL     1       1.500 -18.186   0.000  1.00  0.00     0.026 A 
HETATM   62  C46 UNL     1       0.750 -19.486   0.000  1.00  0.00    -0.051 A 
HETATM   63  C47 UNL     1       1.500 -20.785   0.000  1.00  0.00     0.021 A 
HETATM   64  C51 UNL     1      -0.750 -19.486   0.000  1.00  0.00    -0.048 A 
HETATM   65  C48 UNL     1       0.750 -22.084   0.000  1.00  0.00     0.005 A 
HETATM   66  C49 UNL     1      -0.750 -22.084   0.000  1.00  0.00     0.005 A 
HETATM   67  C50 UNL     1      -1.500 -20.785   0.000  1.00  0.00     0.022 A 
HETATM   68  C52 UNL     1      -1.500 -18.186   0.000  1.00  0.00     0.044 A 
ENDBRANCH  57  59
ENDBRANCH  56  57
ENDBRANCH  52  54
BRANCH  38  69
HETATM   69  C30 UNL     1       3.000 -10.392   0.000  1.00  0.00     0.214 C 
HETATM   70  O10 UNL     1       3.750  -9.093   0.000  1.00  0.00    -0.646 OA
HETATM   71  O11 UNL     1       3.750 -11.691   0.000  1.00  0.00    -0.646 OA
ENDBRANCH  38  69
BRANCH  25  72
HETATM   72  C20 UNL     1      -3.000  -2.598   0.000  1.00  0.00     0.054 C 
BRANCH  72  73
HETATM   73  C21 UNL     1      -1.500  -2.598   0.000  1.00  0.00     0.104 C 
BRANCH  73  74
HETATM   74  C22 UNL     1      -0.750  -1.299   0.000  1.00  0.00     0.186 C 
HETATM   75  O4  UNL     1      -1.500   0.000   0.000  1.00  0.00    -0.647 OA
HETATM   76  O5  UNL     1       0.750  -1.299   0.000  1.00  0.00    -0.647 OA
ENDBRANCH  73  74
ENDBRANCH  72  73
ENDBRANCH  25  72
TORSDOF 17
