REMARK  9 active torsions:
REMARK  status: ('A' for Active; 'I' for Inactive)
REMARK    1  A    between atoms: C4_4  and  N1_5 
REMARK       I    between atoms: N1_5  and  C5_6 
REMARK    2  A    between atoms: C5_6  and  C6_8 
REMARK    3  A    between atoms: C7_9  and  C8_10 
REMARK    4  A    between atoms: C8_10  and  C9_11 
REMARK       I    between atoms: N2_19  and  C17_20 
REMARK    5  A    between atoms: C17_20  and  C18_22 
REMARK    6  A    between atoms: C19_24  and  C20_26 
REMARK    7  A    between atoms: C21_28  and  C22_30 
REMARK    8  A    between atoms: C37_48  and  N7_50 
REMARK    9  A    between atoms: N7_50  and  C38_51 
ROOT
HETATM    1  C6  UNL     1      -0.742  -4.054   0.000  1.00  0.00     0.098 A 
HETATM    2  C7  UNL     1       0.750  -3.897   0.000  1.00  0.00    -0.023 A 
HETATM    3  C15 UNL     1       1.360  -5.267   0.000  1.00  0.00     0.048 A 
HETATM    4  C16 UNL     1       0.245  -6.271   0.000  1.00  0.00     0.113 A 
HETATM    5  N2  UNL     1      -1.054  -5.521   0.000  1.00  0.00    -0.303 N 
HETATM    6  C17 UNL     1      -2.424  -6.131   0.000  1.00  0.00     0.209 C 
HETATM    7  O2  UNL     1      -3.638  -5.250   0.000  1.00  0.00    -0.170 OA
ENDROOT
BRANCH   1   8
HETATM    8  C5  UNL     1      -1.746  -2.939   0.000  1.00  0.00     0.228 C 
HETATM    9  N1  UNL     1      -3.213  -3.251   0.000  1.00  0.00    -0.221 NA
HETATM   10  O1  UNL     1      -1.282  -1.513   0.000  1.00  0.00    -0.168 OA
BRANCH   9  11
HETATM   11  C4  UNL     1      -4.216  -2.136   0.000  1.00  0.00     0.092 A 
HETATM   12  C3  UNL     1      -5.684  -2.448   0.000  1.00  0.00     0.078 A 
HETATM   13  C2  UNL     1      -6.687  -1.333   0.000  1.00  0.00     0.129 A 
HETATM   14  C1  UNL     1      -8.155  -1.645   0.000  1.00  0.00     0.033 C 
HETATM   15  O6  UNL     1      -6.224   0.093   0.000  1.00  0.00    -0.315 OA
HETATM   16  C37 UNL     1      -4.757   0.405   0.000  1.00  0.00     0.205 A 
HETATM   17  C36 UNL     1      -3.753  -0.710   0.000  1.00  0.00     0.185 A 
HETATM   18  O5  UNL     1      -2.286  -0.398   0.000  1.00  0.00    -0.185 OA
BRANCH  16  19
HETATM   19  N7  UNL     1      -4.293   1.831   0.000  1.00  0.00    -0.229 NA
BRANCH  19  20
HETATM   20  C38 UNL     1      -5.297   2.946   0.000  1.00  0.00     0.040 A 
HETATM   21  C39 UNL     1      -6.723   3.410   0.000  1.00  0.00     0.047 A 
HETATM   22  C40 UNL     1      -5.609   4.413   0.000  1.00  0.00     0.047 A 
ENDBRANCH  19  20
ENDBRANCH  16  19
ENDBRANCH   9  11
ENDBRANCH   1   8
BRANCH   6  23
HETATM   23  C18 UNL     1      -2.581  -7.623   0.000  1.00  0.00     0.115 A 
HETATM   24  N3  UNL     1      -1.367  -8.505   0.000  1.00  0.00    -0.220 NA
HETATM   25  C19 UNL     1      -1.524  -9.996   0.000  1.00  0.00     0.209 A 
HETATM   26  O3  UNL     1      -2.894 -10.607   0.000  1.00  0.00    -0.250 OA
HETATM   27  C33 UNL     1      -3.341  -9.603   0.000  1.00  0.00     0.001 A 
HETATM   28  C32 UNL     1      -3.951  -8.233   0.000  1.00  0.00     0.108 A 
HETATM   29  C34 UNL     1      -4.561  -6.863   0.000  1.00  0.00     0.021 C 
HETATM   30  C35 UNL     1      -5.321  -8.843   0.000  1.00  0.00     0.021 C 
BRANCH  25  31
HETATM   31  C20 UNL     1      -0.310 -10.878   0.000  1.00  0.00     0.123 A 
HETATM   32  N4  UNL     1       1.060 -10.268   0.000  1.00  0.00    -0.218 NA
HETATM   33  C21 UNL     1       2.273 -11.150   0.000  1.00  0.00     0.198 A 
HETATM   34  O4  UNL     1       2.116 -12.642   0.000  1.00  0.00    -0.293 OA
HETATM   35  C31 UNL     1       0.746 -13.252   0.000  1.00  0.00     0.077 A 
HETATM   36  C26 UNL     1      -0.467 -12.370   0.000  1.00  0.00     0.018 A 
HETATM   37  C30 UNL     1       0.589 -14.743   0.000  1.00  0.00     0.051 A 
HETATM   38  C27 UNL     1      -1.838 -12.980   0.000  1.00  0.00     0.030 A 
HETATM   39  C28 UNL     1      -1.994 -14.472   0.000  1.00  0.00     0.005 A 
HETATM   40  C29 UNL     1      -0.781 -15.354   0.000  1.00  0.00     0.007 A 
BRANCH  33  41
HETATM   41  C22 UNL     1       3.644 -10.540   0.000  1.00  0.00     0.119 A 
HETATM   42  C23 UNL     1       4.857 -11.421   0.000  1.00  0.00     0.169 A 
HETATM   43  N5  UNL     1       6.228 -10.811   0.000  1.00  0.00    -0.287 NA
HETATM   44  C24 UNL     1       6.384  -9.319   0.000  1.00  0.00     0.146 A 
HETATM   45  C25 UNL     1       5.171  -8.438   0.000  1.00  0.00     0.151 A 
HETATM   46  N6  UNL     1       3.800  -9.048   0.000  1.00  0.00    -0.267 NA
ENDBRANCH  33  41
ENDBRANCH  25  31
ENDBRANCH   6  23
BRANCH   2  47
HETATM   47  C8  UNL     1       1.500  -2.598   0.000  1.00  0.00     0.024 C 
BRANCH  47  48
HETATM   48  C9  UNL     1       3.000  -2.598   0.000  1.00  0.00     0.004 A 
HETATM   49  C10 UNL     1       3.750  -1.299   0.000  1.00  0.00     0.000 A 
HETATM   50  C11 UNL     1       5.250  -1.299   0.000  1.00  0.00     0.000 A 
HETATM   51  C12 UNL     1       6.000  -2.598   0.000  1.00  0.00     0.000 A 
HETATM   52  C13 UNL     1       5.250  -3.897   0.000  1.00  0.00     0.000 A 
HETATM   53  C14 UNL     1       3.750  -3.897   0.000  1.00  0.00     0.000 A 
ENDBRANCH  47  48
ENDBRANCH   2  47
TORSDOF 9
