REMARK  13 active torsions:
REMARK  status: ('A' for Active; 'I' for Inactive)
REMARK    1  A    between atoms: O1_2  and  C2_3 
REMARK    2  A    between atoms: C4_5  and  O2_6 
REMARK    3  A    between atoms: O2_6  and  C5_7 
REMARK    4  A    between atoms: C8_10  and  C11_13 
REMARK    5  A    between atoms: C14_19  and  O5_21 
REMARK    6  A    between atoms: O5_21  and  C15_22 
REMARK    7  A    between atoms: C30_39  and  N4_41 
REMARK    8  A    between atoms: N4_41  and  S1_42 
REMARK    9  A    between atoms: S1_42  and  C31_45 
REMARK   10  A    between atoms: C31_45  and  C32_46 
REMARK   11  A    between atoms: C32_46  and  C33_47 
REMARK   12  A    between atoms: C33_47  and  C34_48 
REMARK   13  A    between atoms: C36_51  and  C37_53 
ROOT
HETATM    1  C11 UNL     1      -7.500  -2.598   0.000  1.00  0.00     0.119 C 
HETATM    2  N1  UNL     1      -8.250  -3.897   0.000  1.00  0.00    -0.216 NA
HETATM    3  C12 UNL     1      -9.750  -3.897   0.000  1.00  0.00     0.229 C 
HETATM    4  O3  UNL     1     -10.500  -2.598   0.000  1.00  0.00    -0.168 OA
HETATM    5  C13 UNL     1     -10.500  -5.196   0.000  1.00  0.00     0.131 A 
HETATM    6  N2  UNL     1      -9.750  -6.495   0.000  1.00  0.00    -0.199 NA
HETATM    7  C14 UNL     1     -10.500  -7.794   0.000  1.00  0.00     0.301 A 
HETATM    8  O4  UNL     1     -12.000  -7.794   0.000  1.00  0.00    -0.230 OA
HETATM    9  C19 UNL     1     -12.000  -5.196   0.000  1.00  0.00     0.177 A 
HETATM   10  C20 UNL     1     -12.000  -6.696   0.000  1.00  0.00     0.017 A 
HETATM   11  C21 UNL     1     -12.000  -3.696   0.000  1.00  0.00     0.015 C 
HETATM   12  C22 UNL     1     -13.500  -5.196   0.000  1.00  0.00     0.035 C 
HETATM   13  C23 UNL     1      -8.250  -1.299   0.000  1.00  0.00     0.230 C 
HETATM   14  O6  UNL     1      -7.500   0.000   0.000  1.00  0.00    -0.168 OA
HETATM   15  N3  UNL     1      -9.750  -1.299   0.000  1.00  0.00    -0.223 NA
HETATM   16  C24 UNL     1     -10.500   0.000   0.000  1.00  0.00     0.061 A 
HETATM   17  C25 UNL     1      -9.750   1.299   0.000  1.00  0.00     0.046 A 
HETATM   18  C26 UNL     1     -10.500   2.598   0.000  1.00  0.00     0.007 A 
HETATM   19  C27 UNL     1     -12.000   2.598   0.000  1.00  0.00     0.005 A 
HETATM   20  C28 UNL     1     -12.750   1.299   0.000  1.00  0.00     0.031 A 
HETATM   21  C29 UNL     1     -12.000   0.000   0.000  1.00  0.00     0.034 A 
HETATM   22  C30 UNL     1     -12.750  -1.299   0.000  1.00  0.00     0.199 C 
HETATM   23  O7  UNL     1     -12.000  -2.598   0.000  1.00  0.00    -0.250 OA
ENDROOT
BRANCH   1  24
HETATM   24  C8  UNL     1      -6.000  -2.598   0.000  1.00  0.00    -0.023 A 
HETATM   25  C7  UNL     1      -5.250  -1.299   0.000  1.00  0.00     0.026 A 
HETATM   26  C6  UNL     1      -3.750  -1.299   0.000  1.00  0.00     0.035 A 
HETATM   27  C5  UNL     1      -3.000  -2.598   0.000  1.00  0.00     0.123 A 
HETATM   28  C10 UNL     1      -3.750  -3.897   0.000  1.00  0.00     0.035 A 
HETATM   29  C9  UNL     1      -5.250  -3.897   0.000  1.00  0.00     0.026 A 
BRANCH  27  30
HETATM   30  O2  UNL     1      -1.500  -2.598   0.000  1.00  0.00    -0.320 OA
BRANCH  30  31
HETATM   31  C4  UNL     1      -0.750  -1.299   0.000  1.00  0.00     0.164 A 
HETATM   32  C3  UNL     1       0.750  -1.299   0.000  1.00  0.00     0.142 A 
HETATM   33  C2  UNL     1       1.500   0.000   0.000  1.00  0.00     0.164 A 
HETATM   34  N6  UNL     1       0.750   1.299   0.000  1.00  0.00    -0.208 NA
HETATM   35  C36 UNL     1      -0.750   1.299   0.000  1.00  0.00     0.158 A 
HETATM   36  N5  UNL     1      -1.500   0.000   0.000  1.00  0.00    -0.208 NA
BRANCH  33  37
HETATM   37  O1  UNL     1       3.000   0.000   0.000  1.00  0.00    -0.315 OA
HETATM   38  C1  UNL     1       3.750  -1.299   0.000  1.00  0.00     0.183 C 
ENDBRANCH  33  37
BRANCH  35  39
HETATM   39  C37 UNL     1      -1.500   2.598   0.000  1.00  0.00    -0.008 A 
HETATM   40  C38 UNL     1      -0.750   3.897   0.000  1.00  0.00     0.025 A 
HETATM   41  C39 UNL     1      -1.500   5.196   0.000  1.00  0.00     0.004 A 
HETATM   42  C40 UNL     1      -3.000   5.196   0.000  1.00  0.00     0.001 A 
HETATM   43  C41 UNL     1      -3.750   3.897   0.000  1.00  0.00     0.004 A 
HETATM   44  C42 UNL     1      -3.000   2.598   0.000  1.00  0.00     0.025 A 
ENDBRANCH  35  39
ENDBRANCH  30  31
ENDBRANCH  27  30
ENDBRANCH   1  24
BRANCH   7  45
HETATM   45  O5  UNL     1      -9.750  -9.093   0.000  1.00  0.00    -0.300 OA
BRANCH  45  46
HETATM   46  C15 UNL     1     -10.500 -10.392   0.000  1.00  0.00     0.102 C 
HETATM   47  C16 UNL     1      -9.201 -11.142   0.000  1.00  0.00     0.030 C 
HETATM   48  C17 UNL     1     -11.799  -9.642   0.000  1.00  0.00     0.030 C 
HETATM   49  C18 UNL     1     -11.250 -11.691   0.000  1.00  0.00     0.030 C 
ENDBRANCH  45  46
ENDBRANCH   7  45
BRANCH  22  50
HETATM   50  N4  UNL     1     -14.250  -1.299   0.000  1.00  0.00    -0.137 NA
BRANCH  50  51
HETATM   51  S1  UNL     1     -15.000  -2.598   0.000  1.00  0.00     0.266 S 
HETATM   52  O8  UNL     1     -13.701  -3.348   0.000  1.00  0.00    -0.203 OA
HETATM   53  O9  UNL     1     -16.299  -1.848   0.000  1.00  0.00    -0.203 OA
BRANCH  51  54
HETATM   54  C31 UNL     1     -15.750  -3.897   0.000  1.00  0.00     0.146 C 
BRANCH  54  55
HETATM   55  C32 UNL     1     -17.250  -3.897   0.000  1.00  0.00     0.019 C 
BRANCH  55  56
HETATM   56  C33 UNL     1     -18.000  -5.196   0.000  1.00  0.00     0.001 C 
BRANCH  56  57
HETATM   57  C34 UNL     1     -19.500  -5.196   0.000  1.00  0.00     0.000 C 
HETATM   58  C35 UNL     1     -20.250  -6.495   0.000  1.00  0.00     0.000 C 
ENDBRANCH  56  57
ENDBRANCH  55  56
ENDBRANCH  54  55
ENDBRANCH  51  54
ENDBRANCH  50  51
ENDBRANCH  22  50
TORSDOF 13
