REMARK  12 active torsions:
REMARK  status: ('A' for Active; 'I' for Inactive)
REMARK    1  A    between atoms: O1_2  and  C2_3 
REMARK    2  A    between atoms: C4_5  and  O2_6 
REMARK    3  A    between atoms: O2_6  and  C5_7 
REMARK    4  A    between atoms: C8_10  and  C13_15 
REMARK    5  A    between atoms: C10_12  and  C11_13 
REMARK    6  A    between atoms: C26_33  and  N3_35 
REMARK    7  A    between atoms: N3_35  and  S1_36 
REMARK    8  A    between atoms: S1_36  and  C27_39 
REMARK    9  A    between atoms: C27_39  and  C28_40 
REMARK   10  A    between atoms: C28_40  and  C29_41 
REMARK   11  A    between atoms: C29_41  and  C30_42 
REMARK   12  A    between atoms: C32_45  and  C33_47 
ROOT
HETATM    1  C13 UNL     1      -7.500  -2.598   0.000  1.00  0.00     0.121 C 
HETATM    2  N1  UNL     1      -8.250  -3.897   0.000  1.00  0.00    -0.196 NA
HETATM    3  C14 UNL     1      -9.750  -3.897   0.000  1.00  0.00     0.320 C 
HETATM    4  O3  UNL     1     -10.500  -2.598   0.000  1.00  0.00    -0.141 OA
HETATM    5  O4  UNL     1     -10.500  -5.196   0.000  1.00  0.00    -0.285 OA
HETATM    6  C15 UNL     1     -12.000  -5.196   0.000  1.00  0.00     0.170 C 
HETATM    7  C16 UNL     1     -12.000  -6.696   0.000  1.00  0.00     0.045 C 
HETATM    8  C17 UNL     1     -12.000  -3.696   0.000  1.00  0.00     0.024 C 
HETATM    9  C18 UNL     1     -13.500  -5.196   0.000  1.00  0.00     0.045 C 
HETATM   10  C19 UNL     1      -8.250  -1.299   0.000  1.00  0.00     0.230 C 
HETATM   11  O5  UNL     1      -7.500   0.000   0.000  1.00  0.00    -0.168 OA
HETATM   12  N2  UNL     1      -9.750  -1.299   0.000  1.00  0.00    -0.223 NA
HETATM   13  C20 UNL     1     -10.500   0.000   0.000  1.00  0.00     0.061 A 
HETATM   14  C21 UNL     1      -9.750   1.299   0.000  1.00  0.00     0.046 A 
HETATM   15  C22 UNL     1     -10.500   2.598   0.000  1.00  0.00     0.007 A 
HETATM   16  C23 UNL     1     -12.000   2.598   0.000  1.00  0.00     0.005 A 
HETATM   17  C24 UNL     1     -12.750   1.299   0.000  1.00  0.00     0.031 A 
HETATM   18  C25 UNL     1     -12.000   0.000   0.000  1.00  0.00     0.034 A 
HETATM   19  C26 UNL     1     -12.750  -1.299   0.000  1.00  0.00     0.199 C 
HETATM   20  O6  UNL     1     -12.000  -2.598   0.000  1.00  0.00    -0.249 OA
ENDROOT
BRANCH   1  21
HETATM   21  C8  UNL     1      -6.000  -2.598   0.000  1.00  0.00    -0.018 A 
HETATM   22  C7  UNL     1      -5.250  -1.299   0.000  1.00  0.00     0.031 A 
HETATM   23  C6  UNL     1      -3.750  -1.299   0.000  1.00  0.00     0.055 A 
HETATM   24  C5  UNL     1      -3.000  -2.598   0.000  1.00  0.00     0.072 A 
HETATM   25  C10 UNL     1      -3.750  -3.897   0.000  1.00  0.00    -0.021 A 
HETATM   26  C9  UNL     1      -5.250  -3.897   0.000  1.00  0.00     0.047 A 
BRANCH  24  27
HETATM   27  O2  UNL     1      -1.500  -2.598   0.000  1.00  0.00    -0.297 OA
BRANCH  27  28
HETATM   28  C4  UNL     1      -0.750  -1.299   0.000  1.00  0.00     0.168 A 
HETATM   29  C3  UNL     1       0.750  -1.299   0.000  1.00  0.00     0.143 A 
HETATM   30  C2  UNL     1       1.500   0.000   0.000  1.00  0.00     0.164 A 
HETATM   31  N5  UNL     1       0.750   1.299   0.000  1.00  0.00    -0.208 NA
HETATM   32  C32 UNL     1      -0.750   1.299   0.000  1.00  0.00     0.158 A 
HETATM   33  N4  UNL     1      -1.500   0.000   0.000  1.00  0.00    -0.207 NA
BRANCH  30  34
HETATM   34  O1  UNL     1       3.000   0.000   0.000  1.00  0.00    -0.315 OA
HETATM   35  C1  UNL     1       3.750  -1.299   0.000  1.00  0.00     0.183 C 
ENDBRANCH  30  34
BRANCH  32  36
HETATM   36  C33 UNL     1      -1.500   2.598   0.000  1.00  0.00    -0.008 A 
HETATM   37  C34 UNL     1      -0.750   3.897   0.000  1.00  0.00     0.025 A 
HETATM   38  C35 UNL     1      -1.500   5.196   0.000  1.00  0.00     0.004 A 
HETATM   39  C36 UNL     1      -3.000   5.196   0.000  1.00  0.00     0.001 A 
HETATM   40  C37 UNL     1      -3.750   3.897   0.000  1.00  0.00     0.004 A 
HETATM   41  C38 UNL     1      -3.000   2.598   0.000  1.00  0.00     0.025 A 
ENDBRANCH  32  36
ENDBRANCH  27  28
ENDBRANCH  24  27
BRANCH  25  42
HETATM   42  C11 UNL     1      -3.000  -5.196   0.000  1.00  0.00     0.024 C 
HETATM   43  C12 UNL     1      -3.750  -6.495   0.000  1.00  0.00     0.005 C 
ENDBRANCH  25  42
ENDBRANCH   1  21
BRANCH  19  44
HETATM   44  N3  UNL     1     -14.250  -1.299   0.000  1.00  0.00    -0.137 NA
BRANCH  44  45
HETATM   45  S1  UNL     1     -15.000  -2.598   0.000  1.00  0.00     0.266 S 
HETATM   46  O7  UNL     1     -13.701  -3.348   0.000  1.00  0.00    -0.203 OA
HETATM   47  O8  UNL     1     -16.299  -1.848   0.000  1.00  0.00    -0.203 OA
BRANCH  45  48
HETATM   48  C27 UNL     1     -15.750  -3.897   0.000  1.00  0.00     0.146 C 
BRANCH  48  49
HETATM   49  C28 UNL     1     -17.250  -3.897   0.000  1.00  0.00     0.019 C 
BRANCH  49  50
HETATM   50  C29 UNL     1     -18.000  -5.196   0.000  1.00  0.00     0.001 C 
BRANCH  50  51
HETATM   51  C30 UNL     1     -19.500  -5.196   0.000  1.00  0.00     0.000 C 
HETATM   52  C31 UNL     1     -20.250  -6.495   0.000  1.00  0.00     0.000 C 
ENDBRANCH  50  51
ENDBRANCH  49  50
ENDBRANCH  48  49
ENDBRANCH  45  48
ENDBRANCH  44  45
ENDBRANCH  19  44
TORSDOF 12
