REMARK  6 active torsions:
REMARK  status: ('A' for Active; 'I' for Inactive)
REMARK    1  A    between atoms: O1_2  and  C2_3 
REMARK    2  A    between atoms: C5_6  and  C8_9 
REMARK    3  A    between atoms: C8_9  and  C9_11 
REMARK       I    between atoms: C9_11  and  N1_13 
REMARK    4  A    between atoms: N1_13  and  C10_14 
REMARK    5  A    between atoms: C16_22  and  C19_27 
REMARK    6  A    between atoms: C19_27  and  C20_29 
ROOT
HETATM    1  C10 UNL     1      -6.000   2.598   0.000  1.00  0.00     0.108 A 
HETATM    2  C11 UNL     1      -7.500   2.598   0.000  1.00  0.00     0.075 A 
HETATM    3  C12 UNL     1      -8.250   3.897   0.000  1.00  0.00     0.004 A 
HETATM    4  C13 UNL     1      -9.750   3.897   0.000  1.00  0.00     0.031 C 
HETATM    5  C14 UNL     1      -7.500   5.196   0.000  1.00  0.00     0.170 A 
HETATM    6  C15 UNL     1      -5.250   3.897   0.000  1.00  0.00     0.214 A 
HETATM    7  O4  UNL     1      -3.750   3.897   0.000  1.00  0.00    -0.169 OA
HETATM    8  N2  UNL     1      -6.000   5.196   0.000  1.00  0.00    -0.265 N 
HETATM    9  C16 UNL     1      -5.250   6.495   0.000  1.00  0.00     0.086 A 
HETATM   10  C17 UNL     1      -6.000   7.794   0.000  1.00  0.00     0.132 A 
HETATM   11  C18 UNL     1      -7.500   7.794   0.000  1.00  0.00     0.232 A 
HETATM   12  F1  UNL     1      -8.250   9.093   0.000  1.00  0.00    -0.179 F 
HETATM   13  F2  UNL     1      -8.250   6.495   0.000  1.00  0.00    -0.290 F 
ENDROOT
BRANCH   1  14
HETATM   14  N1  UNL     1      -5.250   1.299   0.000  1.00  0.00    -0.219 NA
HETATM   15  C9  UNL     1      -3.750   1.299   0.000  1.00  0.00     0.237 C 
HETATM   16  O3  UNL     1      -3.000   2.598   0.000  1.00  0.00    -0.167 OA
BRANCH  15  17
HETATM   17  C8  UNL     1      -3.000   0.000   0.000  1.00  0.00     0.167 C 
HETATM   18  O2  UNL     1      -3.750  -1.299   0.000  1.00  0.00    -0.187 OA
BRANCH  17  19
HETATM   19  C5  UNL     1      -1.500   0.000   0.000  1.00  0.00    -0.015 A 
HETATM   20  C4  UNL     1      -0.750  -1.299   0.000  1.00  0.00     0.027 A 
HETATM   21  C3  UNL     1       0.750  -1.299   0.000  1.00  0.00     0.034 A 
HETATM   22  C2  UNL     1       1.500   0.000   0.000  1.00  0.00     0.116 A 
HETATM   23  C7  UNL     1       0.750   1.299   0.000  1.00  0.00     0.034 A 
HETATM   24  C6  UNL     1      -0.750   1.299   0.000  1.00  0.00     0.027 A 
BRANCH  22  25
HETATM   25  O1  UNL     1       3.000   0.000   0.000  1.00  0.00    -0.354 OA
HETATM   26  C1  UNL     1       3.750  -1.299   0.000  1.00  0.00     0.174 C 
ENDBRANCH  22  25
ENDBRANCH  17  19
ENDBRANCH  15  17
ENDBRANCH   1  14
BRANCH   9  27
HETATM   27  C19 UNL     1      -3.750   6.495   0.000  1.00  0.00     0.207 C 
HETATM   28  O5  UNL     1      -3.000   5.196   0.000  1.00  0.00    -0.182 OA
BRANCH  27  29
HETATM   29  C20 UNL     1      -3.000   7.794   0.000  1.00  0.00     0.239 C 
HETATM   30  O6  UNL     1      -3.750   9.093   0.000  1.00  0.00    -0.642 OA
HETATM   31  O7  UNL     1      -1.500   7.794   0.000  1.00  0.00    -0.642 OA
ENDBRANCH  27  29
ENDBRANCH   9  27
TORSDOF 6
