REMARK  4 active torsions:
REMARK  status: ('A' for Active; 'I' for Inactive)
REMARK    1  A    between atoms: C6_8  and  C7_9 
REMARK    2  A    between atoms: C7_9  and  C8_10 
REMARK    3  A    between atoms: C12_16  and  C20_24 
REMARK    4  A    between atoms: C27_36  and  C28_37 
ROOT
HETATM    1  C1  UNL     1      14.250   6.495   0.000  1.00  0.00     0.033 C 
HETATM    2  C2  UNL     1      12.750   6.495   0.000  1.00  0.00     0.129 A 
HETATM    3  C3  UNL     1      12.000   5.196   0.000  1.00  0.00     0.078 A 
HETATM    4  C4  UNL     1      10.500   5.196   0.000  1.00  0.00     0.092 A 
HETATM    5  N1  UNL     1       9.750   6.495   0.000  1.00  0.00    -0.224 NA
HETATM    6  C5  UNL     1      10.500   7.794   0.000  1.00  0.00     0.192 A 
HETATM    7  O1  UNL     1      12.000   7.794   0.000  1.00  0.00    -0.316 OA
HETATM    8  C6  UNL     1       9.750   9.093   0.000  1.00  0.00     0.102 A 
HETATM    9  N2  UNL     1       8.250   9.093   0.000  1.00  0.00    -0.221 NA
HETATM   10  C11 UNL     1       7.500   7.794   0.000  1.00  0.00     0.208 A 
HETATM   11  O2  UNL     1       8.250   6.495   0.000  1.00  0.00    -0.170 OA
HETATM   12  C12 UNL     1       6.000   7.794   0.000  1.00  0.00     0.014 A 
HETATM   13  C13 UNL     1       5.250   6.495   0.000  1.00  0.00     0.029 A 
HETATM   14  C14 UNL     1       3.750   6.495   0.000  1.00  0.00     0.005 A 
HETATM   15  C15 UNL     1       3.000   5.196   0.000  1.00  0.00     0.000 A 
HETATM   16  C16 UNL     1       1.500   5.196   0.000  1.00  0.00     0.000 A 
HETATM   17  C17 UNL     1       0.750   3.897   0.000  1.00  0.00     0.004 A 
HETATM   18  C18 UNL     1      -0.750   3.897   0.000  1.00  0.00     0.000 C 
HETATM   19  C19 UNL     1       1.500   2.598   0.000  1.00  0.00     0.022 A 
HETATM   20  C23 UNL     1       9.750   3.897   0.000  1.00  0.00     0.188 A 
HETATM   21  O3  UNL     1      10.500   2.598   0.000  1.00  0.00    -0.185 OA
HETATM   22  C24 UNL     1       8.250   3.897   0.000  1.00  0.00     0.236 A 
HETATM   23  O4  UNL     1       7.500   5.196   0.000  1.00  0.00    -0.167 OA
HETATM   24  N3  UNL     1       7.500   2.598   0.000  1.00  0.00    -0.235 NA
HETATM   25  C25 UNL     1       6.000   2.598   0.000  1.00  0.00     0.202 A 
HETATM   26  C26 UNL     1       5.250   1.299   0.000  1.00  0.00     0.214 A 
HETATM   27  O5  UNL     1       6.000  -0.000   0.000  1.00  0.00    -0.172 OA
HETATM   28  N4  UNL     1       3.750   1.299   0.000  1.00  0.00    -0.216 NA
HETATM   29  C27 UNL     1       3.000   0.000   0.000  1.00  0.00     0.143 A 
HETATM   30  C29 UNL     1       1.500   0.000   0.000  1.00  0.00    -0.006 A 
HETATM   31  C30 UNL     1       0.750  -1.299   0.000  1.00  0.00     0.028 A 
HETATM   32  C31 UNL     1      -0.750  -1.299   0.000  1.00  0.00     0.005 A 
HETATM   33  C32 UNL     1      -1.500   0.000   0.000  1.00  0.00     0.005 A 
HETATM   34  C33 UNL     1      -0.750   1.299   0.000  1.00  0.00     0.022 A 
HETATM   35  C34 UNL     1       0.750   1.299   0.000  1.00  0.00    -0.046 A 
ENDROOT
BRANCH   8  36
HETATM   36  C7  UNL     1      10.500  10.392   0.000  1.00  0.00     0.050 C 
BRANCH  36  37
HETATM   37  C8  UNL     1       9.750  11.691   0.000  1.00  0.00     0.006 C 
HETATM   38  C9  UNL     1      10.500  12.990   0.000  1.00  0.00     0.000 C 
HETATM   39  C10 UNL     1       8.250  11.691   0.000  1.00  0.00     0.000 C 
ENDBRANCH  36  37
ENDBRANCH   8  36
BRANCH  12  40
HETATM   40  C20 UNL     1       5.250   9.093   0.000  1.00  0.00    -0.044 C 
HETATM   41  C21 UNL     1       3.750   9.093   0.000  1.00  0.00     0.026 C 
HETATM   42  C22 UNL     1       6.000  10.392   0.000  1.00  0.00     0.026 C 
ENDBRANCH  12  40
BRANCH  29  43
HETATM   43  C28 UNL     1       3.750  -1.299   0.000  1.00  0.00     0.229 C 
HETATM   44  O6  UNL     1       3.000  -2.598   0.000  1.00  0.00    -0.643 OA
HETATM   45  O7  UNL     1       5.250  -1.299   0.000  1.00  0.00    -0.643 OA
ENDBRANCH  29  43
TORSDOF 4
