REMARK  6 active torsions:
REMARK  status: ('A' for Active; 'I' for Inactive)
REMARK    1  A    between atoms: C2_2  and  C3_3 
REMARK    2  A    between atoms: C5_5  and  N1_6 
REMARK       I    between atoms: N1_6  and  C6_7 
REMARK    3  A    between atoms: C6_7  and  C7_9 
REMARK       I    between atoms: N2_13  and  C11_14 
REMARK    4  A    between atoms: C11_14  and  C12_16 
REMARK    5  A    between atoms: C13_18  and  O4_20 
REMARK    6  A    between atoms: O4_20  and  C14_21 
ROOT
HETATM    1  C7  UNL     1      -1.860  -1.214   0.000  1.00  0.00     0.082 A 
HETATM    2  C8  UNL     1      -0.433  -0.750   0.000  1.00  0.00     0.044 A 
HETATM    3  C9  UNL     1      -0.433   0.750   0.000  1.00  0.00     0.029 A 
HETATM    4  C10 UNL     1      -1.860   1.214   0.000  1.00  0.00     0.108 A 
HETATM    5  N2  UNL     1      -2.741   0.000   0.000  1.00  0.00    -0.306 N 
HETATM    6  C11 UNL     1      -4.241   0.000   0.000  1.00  0.00     0.209 C 
HETATM    7  O2  UNL     1      -4.991  -1.299   0.000  1.00  0.00    -0.170 OA
HETATM    8  C22 UNL     1       0.866   0.000   0.000  1.00  0.00     0.007 A 
HETATM    9  C23 UNL     1       1.830   1.149   0.000  1.00  0.00     0.001 C 
HETATM   10  C24 UNL     1       1.830  -1.149   0.000  1.00  0.00     0.001 C 
ENDROOT
BRANCH   1  11
HETATM   11  C6  UNL     1      -2.323  -2.640   0.000  1.00  0.00     0.224 C 
HETATM   12  N1  UNL     1      -3.790  -2.952   0.000  1.00  0.00    -0.221 NA
HETATM   13  O1  UNL     1      -1.319  -3.755   0.000  1.00  0.00    -0.168 OA
BRANCH  12  14
HETATM   14  C5  UNL     1      -4.254  -4.379   0.000  1.00  0.00     0.092 A 
HETATM   15  C4  UNL     1      -5.721  -4.690   0.000  1.00  0.00     0.078 A 
HETATM   16  C3  UNL     1      -6.185  -6.117   0.000  1.00  0.00     0.129 A 
HETATM   17  O6  UNL     1      -5.181  -7.232   0.000  1.00  0.00    -0.319 OA
HETATM   18  C26 UNL     1      -3.714  -6.920   0.000  1.00  0.00     0.192 A 
HETATM   19  C25 UNL     1      -3.250  -5.493   0.000  1.00  0.00     0.180 A 
HETATM   20  N4  UNL     1      -2.710  -8.035   0.000  1.00  0.00    -0.072 NA
HETATM   21  O5  UNL     1      -1.783  -5.181   0.000  1.00  0.00    -0.186 OA
BRANCH  16  22
HETATM   22  C2  UNL     1      -7.652  -6.429   0.000  1.00  0.00     0.031 C 
HETATM   23  C1  UNL     1      -8.115  -7.856   0.000  1.00  0.00     0.003 C 
ENDBRANCH  16  22
ENDBRANCH  12  14
ENDBRANCH   1  11
BRANCH   6  24
HETATM   24  C12 UNL     1      -4.991   1.299   0.000  1.00  0.00     0.117 A 
HETATM   25  N3  UNL     1      -4.241   2.598   0.000  1.00  0.00    -0.200 NA
HETATM   26  C13 UNL     1      -4.991   3.897   0.000  1.00  0.00     0.301 A 
HETATM   27  O3  UNL     1      -6.491   3.897   0.000  1.00  0.00    -0.231 OA
HETATM   28  C19 UNL     1      -6.491   2.799   0.000  1.00  0.00     0.003 A 
HETATM   29  C18 UNL     1      -6.491   1.299   0.000  1.00  0.00     0.108 A 
HETATM   30  C20 UNL     1      -6.491  -0.201   0.000  1.00  0.00     0.021 C 
HETATM   31  C21 UNL     1      -7.991   1.299   0.000  1.00  0.00     0.021 C 
BRANCH  26  32
HETATM   32  O4  UNL     1      -4.241   5.196   0.000  1.00  0.00    -0.300 OA
BRANCH  32  33
HETATM   33  C14 UNL     1      -4.991   6.495   0.000  1.00  0.00     0.102 C 
HETATM   34  C15 UNL     1      -3.692   7.245   0.000  1.00  0.00     0.030 C 
HETATM   35  C16 UNL     1      -6.290   5.745   0.000  1.00  0.00     0.030 C 
HETATM   36  C17 UNL     1      -5.741   7.794   0.000  1.00  0.00     0.030 C 
ENDBRANCH  32  33
ENDBRANCH  26  32
ENDBRANCH   6  24
TORSDOF 6
