REMARK  14 active torsions:
REMARK  status: ('A' for Active; 'I' for Inactive)
REMARK    1  A    between atoms: C2_2  and  C3_3 
REMARK    2  A    between atoms: C8_9  and  C9_10 
REMARK    3  A    between atoms: C9_10  and  C10_11 
REMARK    4  A    between atoms: C10_11  and  N2_12 
REMARK       I    between atoms: N2_12  and  C11_13 
REMARK    5  A    between atoms: C11_13  and  C12_15 
REMARK    6  A    between atoms: C12_15  and  C13_16 
REMARK    7  A    between atoms: C12_15  and  N3_20 
REMARK    8  A    between atoms: C13_16  and  C14_17 
REMARK       I    between atoms: N3_20  and  C15_21 
REMARK    9  A    between atoms: C15_21  and  C16_23 
REMARK   10  A    between atoms: C18_25  and  C30_42 
REMARK       I    between atoms: N4_27  and  C20_28 
REMARK   11  A    between atoms: C20_28  and  C21_30 
REMARK   12  A    between atoms: C22_32  and  O5_34 
REMARK   13  A    between atoms: O5_34  and  C23_35 
REMARK   14  A    between atoms: C23_35  and  C24_36 
ROOT
HETATM    1  N3  UNL     1      -3.000   7.794   0.000  1.00  0.00    -0.219 NA
HETATM    2  C15 UNL     1      -3.750   9.093   0.000  1.00  0.00     0.225 C 
HETATM    3  O2  UNL     1      -3.000  10.392   0.000  1.00  0.00    -0.168 OA
ENDROOT
BRANCH   2   4
HETATM    4  C16 UNL     1      -5.250   9.093   0.000  1.00  0.00     0.087 A 
HETATM    5  C17 UNL     1      -6.132   7.880   0.000  1.00  0.00     0.071 A 
HETATM    6  C18 UNL     1      -7.558   8.343   0.000  1.00  0.00    -0.024 A 
HETATM    7  C19 UNL     1      -7.558   9.843   0.000  1.00  0.00     0.130 A 
HETATM    8  N4  UNL     1      -6.132  10.307   0.000  1.00  0.00    -0.302 N 
HETATM    9  C20 UNL     1      -5.668  11.733   0.000  1.00  0.00     0.212 C 
HETATM   10  O3  UNL     1      -4.201  12.045   0.000  1.00  0.00    -0.169 OA
BRANCH   6  11
HETATM   11  C30 UNL     1      -8.772   7.462   0.000  1.00  0.00    -0.050 A 
HETATM   12  C31 UNL     1     -10.142   8.072   0.000  1.00  0.00     0.021 A 
HETATM   13  C32 UNL     1     -11.356   7.190   0.000  1.00  0.00     0.004 A 
HETATM   14  C33 UNL     1     -11.199   5.698   0.000  1.00  0.00     0.001 A 
HETATM   15  C34 UNL     1      -9.829   5.088   0.000  1.00  0.00     0.004 A 
HETATM   16  C35 UNL     1      -8.615   5.970   0.000  1.00  0.00     0.021 A 
ENDBRANCH   6  11
BRANCH   9  17
HETATM   17  C21 UNL     1      -6.672  12.848   0.000  1.00  0.00     0.122 A 
HETATM   18  N5  UNL     1      -8.139  12.536   0.000  1.00  0.00    -0.198 NA
HETATM   19  C22 UNL     1      -9.143  13.651   0.000  1.00  0.00     0.290 A 
HETATM   20  O4  UNL     1      -8.679  15.078   0.000  1.00  0.00    -0.291 OA
HETATM   21  C28 UNL     1      -7.212  15.389   0.000  1.00  0.00     0.176 A 
HETATM   22  C27 UNL     1      -6.208  14.275   0.000  1.00  0.00     0.007 A 
HETATM   23  C29 UNL     1      -4.741  14.586   0.000  1.00  0.00     0.031 C 
BRANCH  19  24
HETATM   24  O5  UNL     1     -10.610  13.339   0.000  1.00  0.00    -0.296 OA
BRANCH  24  25
HETATM   25  C23 UNL     1     -11.614  14.454   0.000  1.00  0.00     0.152 C 
BRANCH  25  26
HETATM   26  C24 UNL     1     -13.081  14.142   0.000  1.00  0.00     0.030 C 
HETATM   27  C25 UNL     1     -14.085  15.257   0.000  1.00  0.00     0.003 C 
HETATM   28  C26 UNL     1     -13.544  12.715   0.000  1.00  0.00     0.003 C 
ENDBRANCH  25  26
ENDBRANCH  24  25
ENDBRANCH  19  24
ENDBRANCH   9  17
ENDBRANCH   2   4
BRANCH   1  29
HETATM   29  C12 UNL     1      -1.500   7.794   0.000  1.00  0.00     0.114 C 
BRANCH  29  30
HETATM   30  C11 UNL     1      -0.750   9.093   0.000  1.00  0.00     0.223 C 
HETATM   31  N2  UNL     1      -1.500  10.392   0.000  1.00  0.00    -0.245 NA
HETATM   32  O1  UNL     1       0.750   9.093   0.000  1.00  0.00    -0.168 OA
BRANCH  31  33
HETATM   33  C10 UNL     1      -0.750  11.691   0.000  1.00  0.00     0.128 C 
BRANCH  33  34
HETATM   34  C9  UNL     1      -1.500  12.990   0.000  1.00  0.00     0.027 C 
BRANCH  34  35
HETATM   35  C8  UNL     1      -0.750  14.289   0.000  1.00  0.00     0.008 A 
HETATM   36  C7  UNL     1      -1.500  15.588   0.000  1.00  0.00     0.007 A 
HETATM   37  C6  UNL     1      -0.750  16.887   0.000  1.00  0.00     0.053 A 
HETATM   38  C5  UNL     1       0.750  16.887   0.000  1.00  0.00     0.093 A 
HETATM   39  C4  UNL     1       1.500  15.588   0.000  1.00  0.00     0.077 A 
HETATM   40  O6  UNL     1       1.500  18.186   0.000  1.00  0.00    -0.286 OA
HETATM   41  N1  UNL     1       3.000  15.588   0.000  1.00  0.00    -0.248 NA
HETATM   42  C36 UNL     1       0.750  14.289   0.000  1.00  0.00     0.048 A 
HETATM   43  C3  UNL     1       3.750  16.887   0.000  1.00  0.00     0.108 A 
HETATM   44  C37 UNL     1       3.000  18.186   0.000  1.00  0.00     0.246 A 
HETATM   45  O7  UNL     1       3.750  19.486   0.000  1.00  0.00    -0.162 OA
BRANCH  43  46
HETATM   46  C2  UNL     1       5.250  16.887   0.000  1.00  0.00     0.050 C 
HETATM   47  C1  UNL     1       6.000  18.186   0.000  1.00  0.00     0.007 C 
ENDBRANCH  43  46
ENDBRANCH  34  35
ENDBRANCH  33  34
ENDBRANCH  31  33
ENDBRANCH  29  30
BRANCH  29  48
HETATM   48  C13 UNL     1      -0.750   6.495   0.000  1.00  0.00     0.137 C 
BRANCH  48  49
HETATM   49  C14 UNL     1      -1.500   5.196   0.000  1.00  0.00     0.262 C 
HETATM   50  F1  UNL     1      -0.750   3.897   0.000  1.00  0.00    -0.176 F 
HETATM   51  F2  UNL     1      -3.000   5.196   0.000  1.00  0.00    -0.176 F 
ENDBRANCH  48  49
ENDBRANCH  29  48
ENDBRANCH   1  29
TORSDOF 14
