REMARK  13 active torsions:
REMARK  status: ('A' for Active; 'I' for Inactive)
REMARK    1  A    between atoms: C2_2  and  C3_3 
REMARK    2  A    between atoms: C3_3  and  N1_4 
REMARK    3  A    between atoms: C3_3  and  C44_62 
REMARK       I    between atoms: N1_4  and  C4_5 
REMARK    4  A    between atoms: C4_5  and  C5_7 
REMARK    5  A    between atoms: C5_7  and  C6_8 
REMARK    6  A    between atoms: C5_7  and  N2_15 
REMARK    7  A    between atoms: C6_8  and  C7_9 
REMARK       I    between atoms: N2_15  and  C13_16 
REMARK    8  A    between atoms: C13_16  and  C14_18 
REMARK    9  A    between atoms: C18_25  and  C19_27 
REMARK   10  A    between atoms: C23_33  and  C24_34 
REMARK   11  A    between atoms: C26_40  and  C27_41 
REMARK   12  A    between atoms: C27_41  and  C28_42 
REMARK   13  A    between atoms: C31_49  and  C38_56 
ROOT
HETATM    1  C14 UNL     1      -3.000  -5.196   0.000  1.00  0.00     0.107 A 
HETATM    2  C15 UNL     1      -3.750  -6.495   0.000  1.00  0.00     0.080 A 
HETATM    3  C16 UNL     1      -5.250  -6.495   0.000  1.00  0.00     0.034 A 
HETATM    4  C17 UNL     1      -6.000  -7.794   0.000  1.00  0.00     0.229 A 
HETATM    5  O3  UNL     1      -5.250  -9.093   0.000  1.00  0.00    -0.163 OA
HETATM    6  O4  UNL     1      -7.500  -7.794   0.000  1.00  0.00    -0.288 OA
HETATM    7  N3  UNL     1      -3.750  -3.897   0.000  1.00  0.00    -0.243 NA
HETATM    8  C18 UNL     1      -5.250  -3.897   0.000  1.00  0.00     0.117 A 
HETATM    9  O5  UNL     1      -6.000  -5.196   0.000  1.00  0.00     0.000 OA
HETATM   10  C38 UNL     1      -8.250  -3.897   0.000  1.00  0.00    -0.020 A 
HETATM   11  C39 UNL     1      -9.750  -3.897   0.000  1.00  0.00     0.027 A 
HETATM   12  C40 UNL     1     -10.500  -5.196   0.000  1.00  0.00     0.011 A 
HETATM   13  C41 UNL     1      -9.750  -6.495   0.000  1.00  0.00     0.052 A 
HETATM   14  C42 UNL     1      -8.250  -6.495   0.000  1.00  0.00     0.080 A 
HETATM   15  C43 UNL     1      -7.500  -5.196   0.000  1.00  0.00     0.016 A 
ENDROOT
BRANCH   1  16
HETATM   16  C13 UNL     1      -1.500  -5.196   0.000  1.00  0.00     0.227 C 
HETATM   17  N2  UNL     1      -0.750  -6.495   0.000  1.00  0.00    -0.220 NA
HETATM   18  O2  UNL     1      -0.750  -3.897   0.000  1.00  0.00    -0.168 OA
BRANCH  17  19
HETATM   19  C5  UNL     1       0.750  -6.495   0.000  1.00  0.00     0.105 C 
BRANCH  19  20
HETATM   20  C4  UNL     1       1.500  -5.196   0.000  1.00  0.00     0.226 C 
HETATM   21  N1  UNL     1       0.750  -3.897   0.000  1.00  0.00    -0.217 NA
HETATM   22  O1  UNL     1       3.000  -5.196   0.000  1.00  0.00    -0.168 OA
BRANCH  21  23
HETATM   23  C3  UNL     1       1.500  -2.598   0.000  1.00  0.00     0.125 C 
BRANCH  23  24
HETATM   24  C2  UNL     1       0.750  -1.299   0.000  1.00  0.00     0.052 C 
HETATM   25  C1  UNL     1       1.500   0.000   0.000  1.00  0.00     0.007 C 
ENDBRANCH  23  24
BRANCH  23  26
HETATM   26  C44 UNL     1       3.000  -2.598   0.000  1.00  0.00     0.225 C 
HETATM   27  O13 UNL     1       3.750  -3.897   0.000  1.00  0.00    -0.643 OA
HETATM   28  O14 UNL     1       3.750  -1.299   0.000  1.00  0.00    -0.643 OA
ENDBRANCH  23  26
ENDBRANCH  21  23
ENDBRANCH  19  20
BRANCH  19  29
HETATM   29  C6  UNL     1       1.500  -7.794   0.000  1.00  0.00     0.050 C 
BRANCH  29  30
HETATM   30  C7  UNL     1       0.750  -9.093   0.000  1.00  0.00     0.006 A 
HETATM   31  C8  UNL     1       1.500 -10.392   0.000  1.00  0.00     0.000 A 
HETATM   32  C9  UNL     1       0.750 -11.691   0.000  1.00  0.00     0.000 A 
HETATM   33  C10 UNL     1      -0.750 -11.691   0.000  1.00  0.00     0.000 A 
HETATM   34  C11 UNL     1      -1.500 -10.392   0.000  1.00  0.00     0.000 A 
HETATM   35  C12 UNL     1      -0.750  -9.093   0.000  1.00  0.00     0.000 A 
ENDBRANCH  29  30
ENDBRANCH  19  29
ENDBRANCH  17  19
ENDBRANCH   1  16
BRANCH   8  36
HETATM   36  C19 UNL     1      -6.000  -2.598   0.000  1.00  0.00     0.097 A 
HETATM   37  N4  UNL     1      -5.250  -1.299   0.000  1.00  0.00    -0.238 NA
HETATM   38  C20 UNL     1      -6.000   0.000   0.000  1.00  0.00     0.238 A 
HETATM   39  O6  UNL     1      -6.774   0.193   0.000  1.00  0.00    -0.326 OA
HETATM   40  C21 UNL     1      -5.250   1.299   0.000  1.00  0.00     0.090 A 
HETATM   41  C37 UNL     1      -7.500   0.000   0.000  1.00  0.00     0.183 A 
HETATM   42  C22 UNL     1      -3.750   1.299   0.000  1.00  0.00     0.087 A 
HETATM   43  N5  UNL     1      -6.000   2.598   0.000  1.00  0.00    -0.226 NA
HETATM   44  C23 UNL     1      -3.000   2.598   0.000  1.00  0.00     0.215 A 
HETATM   45  O9  UNL     1      -3.750   3.897   0.000  1.00  0.00    -0.305 OA
HETATM   46  C25 UNL     1      -5.250   3.897   0.000  1.00  0.00     0.193 A 
HETATM   47  C26 UNL     1      -6.000   5.196   0.000  1.00  0.00     0.112 A 
HETATM   48  N6  UNL     1      -7.500   5.196   0.000  1.00  0.00    -0.227 NA
HETATM   49  C29 UNL     1      -8.250   3.897   0.000  1.00  0.00     0.154 A 
HETATM   50  O12 UNL     1      -7.500   2.598   0.000  1.00  0.00    -0.318 OA
HETATM   51  C30 UNL     1      -9.750   3.897   0.000  1.00  0.00     0.080 C 
HETATM   52  C36 UNL     1      -8.250   1.299   0.000  1.00  0.00     0.156 A 
HETATM   53  C35 UNL     1      -9.750   1.299   0.000  1.00  0.00     0.034 A 
HETATM   54  C34 UNL     1     -10.500  -0.000   0.000  1.00  0.00     0.007 A 
HETATM   55  C33 UNL     1      -9.750  -1.299   0.000  1.00  0.00     0.025 A 
HETATM   56  C32 UNL     1      -8.250  -1.299   0.000  1.00  0.00    -0.012 A 
HETATM   57  C31 UNL     1      -7.500  -2.598   0.000  1.00  0.00     0.009 A 
BRANCH  44  58
HETATM   58  C24 UNL     1      -1.500   2.598   0.000  1.00  0.00     0.215 C 
HETATM   59  O7  UNL     1      -0.750   1.299   0.000  1.00  0.00    -0.646 OA
HETATM   60  O8  UNL     1      -0.750   3.897   0.000  1.00  0.00    -0.646 OA
ENDBRANCH  44  58
BRANCH  47  61
HETATM   61  C27 UNL     1      -5.250   6.495   0.000  1.00  0.00     0.147 C 
BRANCH  61  62
HETATM   62  C28 UNL     1      -6.000   7.794   0.000  1.00  0.00     0.192 C 
HETATM   63  O10 UNL     1      -7.500   7.794   0.000  1.00  0.00    -0.647 OA
HETATM   64  O11 UNL     1      -5.250   9.093   0.000  1.00  0.00    -0.647 OA
ENDBRANCH  61  62
ENDBRANCH  47  61
ENDBRANCH   8  36
TORSDOF 13
