REMARK WARNING: 32 MAX_TORS EXCEEDED!!!
REMARK  37 active torsions:
REMARK  status: ('A' for Active; 'I' for Inactive)
REMARK    1  A    between atoms: C2_2  and  N3_12 
REMARK    2  A    between atoms: C2_2  and  C11_20 
REMARK    3  A    between atoms: C2_2  and  C17_29 
REMARK    4  A    between atoms: C4_4  and  N2_6 
REMARK    5  A    between atoms: C4_4  and  C7_9 
REMARK    6  A    between atoms: N1_5  and  C7_9 
REMARK    7  A    between atoms: N1_5  and  C21_33 
REMARK    8  A    between atoms: N2_6  and  C11_20 
REMARK    9  A    between atoms: N2_6  and  C17_29 
REMARK   10  A    between atoms: C5_7  and  C12_21 
REMARK   11  A    between atoms: C5_7  and  C16_28 
REMARK   12  A    between atoms: C6_8  and  C7_9 
REMARK   13  A    between atoms: C6_8  and  O1_13 
REMARK   14  A    between atoms: C6_8  and  C10_16 
REMARK   15  A    between atoms: C6_8  and  F1_23 
REMARK   16  A    between atoms: C7_9  and  O3_15 
REMARK   17  A    between atoms: C7_9  and  O5_18 
REMARK   18  A    between atoms: C8_10  and  O2_14 
REMARK   19  A    between atoms: C9_11  and  O3_15 
REMARK   20  A    between atoms: N3_12  and  C12_21 
REMARK   21  A    between atoms: O2_14  and  C11_20 
REMARK   22  A    between atoms: C10_16  and  O5_18 
REMARK   23  A    between atoms: O4_17  and  C12_21 
REMARK   24  A    between atoms: O4_17  and  C16_28 
REMARK   25  A    between atoms: O4_17  and  C22_34 
REMARK   26  A    between atoms: O5_18  and  F1_23 
REMARK   27  A    between atoms: F1_23  and  F2_24 
REMARK   28  A    between atoms: C14_26  and  C25_37 
REMARK   29  A    between atoms: C16_28  and  C17_29 
REMARK   30  A    between atoms: C17_29  and  C22_34 
REMARK   31  A    between atoms: C18_30  and  C19_31 
REMARK   32  A    between atoms: C18_30  and  C23_35 
REMARK   33  A    between atoms: C18_30  and  C25_37 
REMARK   34  A    between atoms: C19_31  and  C24_36 
REMARK   35  A    between atoms: C20_32  and  C21_33 
REMARK   36  A    between atoms: C23_35  and  C24_36 
REMARK   37  A    between atoms: C24_36  and  C25_37 
ROOT
HETATM    1  C1  UNL     1       8.992  -0.667   0.000  1.00  0.00     0.200 A 
HETATM    2  C2  UNL     1       4.717  -0.679   0.000  1.00  0.00     0.000 A 
HETATM    3  C3  UNL     1       8.279  -0.254   0.000  1.00  0.00     0.170 A 
HETATM    4  C4  UNL     1       6.854  -0.263   0.000  1.00  0.00     0.064 A 
HETATM    5  N1  UNL     1       7.567  -0.667   0.000  1.00  0.00     0.000 N 
HETATM    6  N2  UNL     1       5.429  -0.267   0.000  1.00  0.00     0.000 N 
HETATM    7  C5  UNL     1       2.579  -0.275   0.000  1.00  0.00     0.000 A 
HETATM    8  C6  UNL     1       9.704  -0.254   0.000  1.00  0.00     0.216 A 
HETATM    9  C7  UNL     1       8.279   0.571   0.000  1.00  0.00     0.187 A 
HETATM   10  C8  UNL     1       4.004  -0.267   0.000  1.00  0.00     0.000 A 
HETATM   11  C9  UNL     1       6.142  -0.675   0.000  1.00  0.00     0.005 A 
HETATM   12  N3  UNL     1       3.292  -0.679   0.000  1.00  0.00     0.000 N 
HETATM   13  O1  UNL     1       8.992  -1.492   0.000  1.00  0.00     0.000 OA
HETATM   14  O2  UNL     1       4.717  -1.504   0.000  1.00  0.00     0.000 OA
HETATM   15  O3  UNL     1       6.854   0.562   0.000  1.00  0.00     0.000 OA
HETATM   16  C10 UNL     1       8.854   1.158   0.000  1.00  0.00     0.232 A 
HETATM   17  O4  UNL     1       2.579   0.550   0.000  1.00  0.00     0.000 OA
HETATM   18  O5  UNL     1       9.704   0.571   0.000  1.00  0.00     0.000 OA
HETATM   19  O6  UNL     1       1.867  -0.688   0.000  1.00  0.00     0.000 OA
HETATM   20  C11 UNL     1       6.142  -1.500   0.000  1.00  0.00     0.005 A 
HETATM   21  C12 UNL     1       4.004   0.558   0.000  1.00  0.00     0.000 A 
HETATM   22  O7  UNL     1      10.417  -0.662   0.000  1.00  0.00    -0.326 OA
HETATM   23  F1  UNL     1       9.679   1.158   0.000  1.00  0.00    -0.401 F 
HETATM   24  F2  UNL     1       8.642   1.958   0.000  1.00  0.00    -0.354 F 
HETATM   25  C13 UNL     1       1.154  -0.279   0.000  1.00  0.00     0.000 A 
HETATM   26  C14 UNL     1       0.442  -0.692   0.000  1.00  0.00     0.000 A 
HETATM   27  C15 UNL     1       6.554  -2.204   0.000  1.00  0.00     0.000 A 
HETATM   28  C16 UNL     1       3.292   0.983   0.000  1.00  0.00     0.000 A 
HETATM   29  C17 UNL     1       4.729   0.946   0.000  1.00  0.00     0.000 A 
HETATM   30  C18 UNL     1      -0.271  -0.279   0.000  1.00  0.00     0.000 A 
HETATM   31  C19 UNL     1       0.442  -1.504   0.000  1.00  0.00     0.000 A 
HETATM   32  C20 UNL     1       6.142  -2.913   0.000  1.00  0.00     0.000 A 
HETATM   33  C21 UNL     1       7.367  -2.204   0.000  1.00  0.00     0.000 A 
HETATM   34  C22 UNL     1       3.317   1.808   0.000  1.00  0.00     0.000 A 
HETATM   35  C23 UNL     1      -0.258  -1.917   0.000  1.00  0.00     0.000 A 
HETATM   36  C24 UNL     1      -0.983  -0.692   0.000  1.00  0.00     0.000 A 
HETATM   37  C25 UNL     1      -0.971  -1.504   0.000  1.00  0.00     0.000 A 
ENDROOT
TORSDOF 37
