REMARK  7 active torsions:
REMARK  status: ('A' for Active; 'I' for Inactive)
REMARK    1  A    between atoms: C6_9  and  C20_30 
REMARK    2  A    between atoms: C16_26  and  C17_27 
REMARK    3  A    between atoms: C17_27  and  C18_28 
REMARK    4  A    between atoms: C23_33  and  O7_34 
REMARK    5  A    between atoms: O7_34  and  C24_35 
REMARK    6  A    between atoms: C26_37  and  C27_38 
REMARK    7  A    between atoms: C29_41  and  C30_43 
ROOT
HETATM    1  C1  UNL     1      -0.750  -7.995   0.000  1.00  0.00     0.058 C 
HETATM    2  C2  UNL     1      -0.750  -6.495   0.000  1.00  0.00     0.213 C 
HETATM    3  C3  UNL     1      -0.750  -4.995   0.000  1.00  0.00     0.035 C 
HETATM    4  C4  UNL     1      -2.250  -6.495   0.000  1.00  0.00    -0.115 C 
HETATM    5  O1  UNL     1       0.750  -6.495   0.000  1.00  0.00    -0.275 OA
HETATM    6  C5  UNL     1       1.500  -5.196   0.000  1.00  0.00     0.320 C 
HETATM    7  O2  UNL     1       0.750  -3.897   0.000  1.00  0.00    -0.141 OA
HETATM    8  N1  UNL     1       3.000  -5.196   0.000  1.00  0.00    -0.196 NA
HETATM    9  C6  UNL     1       3.750  -3.897   0.000  1.00  0.00     0.121 C 
HETATM   10  C7  UNL     1       3.000  -2.598   0.000  1.00  0.00     0.230 C 
HETATM   11  O3  UNL     1       3.750  -1.299   0.000  1.00  0.00    -0.168 OA
HETATM   12  N2  UNL     1       1.500  -2.598   0.000  1.00  0.00    -0.223 NA
HETATM   13  C8  UNL     1       0.750  -1.299   0.000  1.00  0.00     0.061 A 
HETATM   14  C9  UNL     1       1.500   0.000   0.000  1.00  0.00     0.046 A 
HETATM   15  C10 UNL     1       0.750   1.299   0.000  1.00  0.00     0.007 A 
HETATM   16  C11 UNL     1      -0.750   1.299   0.000  1.00  0.00     0.005 A 
HETATM   17  C12 UNL     1      -1.500   0.000   0.000  1.00  0.00     0.031 A 
HETATM   18  C13 UNL     1      -0.750  -1.299   0.000  1.00  0.00     0.034 A 
HETATM   19  C14 UNL     1      -1.500  -2.598   0.000  1.00  0.00     0.199 C 
HETATM   20  O4  UNL     1      -0.750  -3.897   0.000  1.00  0.00    -0.248 OA
HETATM   21  N3  UNL     1      -3.000  -2.598   0.000  1.00  0.00    -0.137 NA
HETATM   22  S1  UNL     1      -3.750  -3.897   0.000  1.00  0.00     0.267 S 
HETATM   23  O5  UNL     1      -2.451  -4.647   0.000  1.00  0.00    -0.203 OA
HETATM   24  O6  UNL     1      -5.049  -3.147   0.000  1.00  0.00    -0.203 OA
HETATM   25  C15 UNL     1      -4.500  -5.196   0.000  1.00  0.00     0.158 C 
HETATM   26  C16 UNL     1      -3.750  -6.495   0.000  1.00  0.00     0.073 C 
ENDROOT
BRANCH   9  27
HETATM   27  C20 UNL     1       5.250  -3.897   0.000  1.00  0.00    -0.023 A 
HETATM   28  C21 UNL     1       6.000  -5.196   0.000  1.00  0.00     0.026 A 
HETATM   29  C22 UNL     1       7.500  -5.196   0.000  1.00  0.00     0.035 A 
HETATM   30  C23 UNL     1       8.250  -3.897   0.000  1.00  0.00     0.123 A 
HETATM   31  C36 UNL     1       7.500  -2.598   0.000  1.00  0.00     0.035 A 
HETATM   32  C37 UNL     1       6.000  -2.598   0.000  1.00  0.00     0.026 A 
BRANCH  30  33
HETATM   33  O7  UNL     1       9.750  -3.897   0.000  1.00  0.00    -0.320 OA
BRANCH  33  34
HETATM   34  C24 UNL     1      10.500  -5.196   0.000  1.00  0.00     0.161 A 
HETATM   35  C25 UNL     1       9.750  -6.495   0.000  1.00  0.00     0.113 A 
HETATM   36  C26 UNL     1      10.500  -7.794   0.000  1.00  0.00     0.047 A 
HETATM   37  N4  UNL     1      12.000  -7.794   0.000  1.00  0.00    -0.235 NA
HETATM   38  C29 UNL     1      12.750  -6.495   0.000  1.00  0.00     0.155 A 
HETATM   39  N5  UNL     1      12.000  -5.196   0.000  1.00  0.00    -0.208 NA
BRANCH  36  40
HETATM   40  C27 UNL     1       9.750  -9.093   0.000  1.00  0.00     0.042 C 
HETATM   41  C28 UNL     1       8.250  -9.093   0.000  1.00  0.00     0.006 C 
ENDBRANCH  36  40
BRANCH  38  42
HETATM   42  C30 UNL     1      14.250  -6.495   0.000  1.00  0.00    -0.008 A 
HETATM   43  C31 UNL     1      15.000  -7.794   0.000  1.00  0.00     0.025 A 
HETATM   44  C32 UNL     1      16.500  -7.794   0.000  1.00  0.00     0.004 A 
HETATM   45  C33 UNL     1      17.250  -6.495   0.000  1.00  0.00     0.001 A 
HETATM   46  C34 UNL     1      16.500  -5.196   0.000  1.00  0.00     0.004 A 
HETATM   47  C35 UNL     1      15.000  -5.196   0.000  1.00  0.00     0.025 A 
ENDBRANCH  38  42
ENDBRANCH  33  34
ENDBRANCH  30  33
ENDBRANCH   9  27
BRANCH  26  48
HETATM   48  C17 UNL     1      -4.500  -7.794   0.000  1.00  0.00     0.013 C 
BRANCH  48  49
HETATM   49  C18 UNL     1      -3.750  -9.093   0.000  1.00  0.00     0.001 C 
HETATM   50  C19 UNL     1      -4.500 -10.392   0.000  1.00  0.00     0.000 C 
ENDBRANCH  48  49
ENDBRANCH  26  48
TORSDOF 7
