REMARK WARNING: 32 MAX_TORS EXCEEDED!!!
REMARK  79 active torsions:
REMARK  status: ('A' for Active; 'I' for Inactive)
REMARK    1  A    between atoms: C2_2  and  C44_60 
REMARK    2  A    between atoms: C2_2  and  C46_64 
REMARK    3  A    between atoms: C3_3  and  C44_60 
REMARK    4  A    between atoms: C3_3  and  C45_62 
REMARK    5  A    between atoms: C4_4  and  C8_9 
REMARK    6  A    between atoms: C5_5  and  C8_9 
REMARK    7  A    between atoms: C5_5  and  C20_26 
REMARK    8  A    between atoms: C5_5  and  C23_30 
REMARK    9  A    between atoms: C6_6  and  C7_8 
REMARK   10  A    between atoms: N1_7  and  C7_8 
REMARK   11  A    between atoms: N1_7  and  C13_14 
REMARK   12  A    between atoms: N1_7  and  CL1_39 
REMARK   13  A    between atoms: C7_8  and  C8_9 
REMARK   14  A    between atoms: C7_8  and  C9_10 
REMARK   15  A    between atoms: C7_8  and  C10_11 
REMARK   16  A    between atoms: C7_8  and  C11_12 
REMARK   17  A    between atoms: C7_8  and  O2_25 
REMARK   18  A    between atoms: C8_9  and  C11_12 
REMARK   19  A    between atoms: C8_9  and  C12_13 
REMARK   20  A    between atoms: C9_10  and  C12_13 
REMARK   21  A    between atoms: C10_11  and  C12_13 
REMARK   22  A    between atoms: C10_11  and  CL1_39 
REMARK   23  A    between atoms: C11_12  and  C12_13 
REMARK   24  A    between atoms: C11_12  and  O1_19 
REMARK   25  A    between atoms: C11_12  and  C16_20 
REMARK   26  A    between atoms: C13_14  and  S1_17 
REMARK   27  A    between atoms: N2_15  and  C15_18 
REMARK   28  A    between atoms: N2_15  and  C19_24 
REMARK   29  A    between atoms: C14_16  and  C15_18 
REMARK   30  A    between atoms: C14_16  and  C19_24 
REMARK   31  A    between atoms: S1_17  and  C15_18 
REMARK   32  A    between atoms: S1_17  and  N3_21 
REMARK   33  A    between atoms: O1_19  and  CL1_39 
REMARK   34  A    between atoms: C16_20  and  N7_61 
REMARK   35  A    between atoms: C16_20  and  C47_65 
REMARK   36  A    between atoms: C18_23  and  C19_24 
REMARK   37  A    between atoms: C19_24  and  O4_38 
REMARK   38  A    between atoms: C19_24  and  O8_52 
REMARK   39  A    between atoms: C20_26  and  C22_29 
REMARK   40  A    between atoms: C21_27  and  C23_30 
REMARK   41  A    between atoms: C21_27  and  N5_34 
REMARK   42  A    between atoms: N4_28  and  C23_30 
REMARK   43  A    between atoms: C22_29  and  C23_30 
REMARK   44  A    between atoms: C22_29  and  C24_31 
REMARK   45  A    between atoms: C23_30  and  C27_36 
REMARK   46  A    between atoms: C24_31  and  C29_41 
REMARK   47  A    between atoms: C25_32  and  O3_33 
REMARK   48  A    between atoms: O3_33  and  N6_37 
REMARK   49  A    between atoms: O3_33  and  C29_41 
REMARK   50  A    between atoms: N5_34  and  C26_35 
REMARK   51  A    between atoms: C27_36  and  C36_50 
REMARK   52  A    between atoms: C27_36  and  O8_52 
REMARK   53  A    between atoms: N6_37  and  O4_38 
REMARK   54  A    between atoms: O4_38  and  C36_50 
REMARK   55  A    between atoms: O4_38  and  O8_52 
REMARK   56  A    between atoms: C28_40  and  C29_41 
REMARK   57  A    between atoms: C28_40  and  C30_42 
REMARK   58  A    between atoms: C28_40  and  C31_43 
REMARK   59  A    between atoms: C28_40  and  O6_45 
REMARK   60  A    between atoms: C29_41  and  C30_42 
REMARK   61  A    between atoms: C29_41  and  C38_54 
REMARK   62  A    between atoms: O6_45  and  C40_56 
REMARK   63  A    between atoms: C34_48  and  C36_50 
REMARK   64  A    between atoms: C35_49  and  C36_50 
REMARK   65  A    between atoms: C35_49  and  O7_51 
REMARK   66  A    between atoms: C35_49  and  C37_53 
REMARK   67  A    between atoms: C39_55  and  C40_56 
REMARK   68  A    between atoms: C39_55  and  C41_57 
REMARK   69  A    between atoms: C39_55  and  C43_59 
REMARK   70  A    between atoms: C40_56  and  C42_58 
REMARK   71  A    between atoms: C41_57  and  C42_58 
REMARK   72  A    between atoms: C42_58  and  C43_59 
REMARK   73  A    between atoms: C44_60  and  N7_61 
REMARK   74  A    between atoms: C44_60  and  C47_65 
REMARK   75  A    between atoms: N7_61  and  C45_62 
REMARK   76  A    between atoms: N7_61  and  C46_64 
REMARK   77  A    between atoms: C45_62  and  C47_65 
REMARK   78  A    between atoms: O9_63  and  C47_65 
REMARK   79  A    between atoms: C46_64  and  C47_65 
ROOT
HETATM    1  C1  UNL     1       9.475 -18.250   0.000  1.00  0.00     0.000 A 
HETATM    2  C2  UNL     1       9.892 -18.967   0.000  1.00  0.00     0.000 A 
HETATM    3  C3  UNL     1      10.304 -18.247   0.000  1.00  0.00     0.000 A 
HETATM    4  N7  UNL     1      10.610 -19.380   0.000  1.00  0.00     0.000 N 
HETATM    5  C45 UNL     1       9.182 -19.378   0.000  1.00  0.00     0.000 A 
HETATM    6  O9  UNL     1       9.178 -20.203   0.000  1.00  0.00     0.000 OA
HETATM    7  C46 UNL     1       9.892 -20.618   0.000  1.00  0.00     0.000 A 
HETATM    8  C47 UNL     1      10.611 -20.207   0.000  1.00  0.00     0.001 A 
ENDROOT
BRANCH   2   9
HETATM    9  C44 UNL     1      11.324 -18.967   0.000  1.00  0.00     0.001 A 
HETATM   10  C16 UNL     1      12.039 -19.380   0.000  1.00  0.00     0.013 A 
HETATM   11  O1  UNL     1      12.753 -18.967   0.000  1.00  0.00     0.000 OA
HETATM   12  C10 UNL     1      13.467 -19.379   0.000  1.00  0.00     0.038 A 
HETATM   13  C9  UNL     1      14.183 -18.968   0.000  1.00  0.00     0.044 A 
HETATM   14  C8  UNL     1      14.896 -19.381   0.000  1.00  0.00     0.031 A 
HETATM   15 CL1  UNL     1      14.184 -18.143   0.000  1.00  0.00    -0.254 Cl
HETATM   16  N1  UNL     1      15.606 -18.966   0.000  1.00  0.00     0.000 N 
HETATM   17  C11 UNL     1      13.469 -20.208   0.000  1.00  0.00     0.030 A 
HETATM   18  C6  UNL     1      16.322 -19.375   0.000  1.00  0.00     0.027 A 
HETATM   19  C5  UNL     1      16.325 -20.206   0.000  1.00  0.00     0.018 A 
HETATM   20  C13 UNL     1      17.032 -18.962   0.000  1.00  0.00     0.042 A 
HETATM   21  C4  UNL     1      15.608 -20.619   0.000  1.00  0.00     0.016 A 
HETATM   22  N2  UNL     1      17.810 -19.239   0.000  1.00  0.00     0.000 N 
HETATM   23  C15 UNL     1      17.056 -18.137   0.000  1.00  0.00     0.048 A 
HETATM   24  C7  UNL     1      14.893 -20.206   0.000  1.00  0.00     0.029 A 
HETATM   25  O2  UNL     1      15.608 -21.444   0.000  1.00  0.00     0.000 OA
HETATM   26  C12 UNL     1      14.182 -20.617   0.000  1.00  0.00     0.030 A 
HETATM   27  C20 UNL     1      16.322 -21.857   0.000  1.00  0.00     0.003 A 
HETATM   28  C21 UNL     1      16.330 -22.685   0.000  1.00  0.00     0.000 A 
HETATM   29  C23 UNL     1      17.102 -21.596   0.000  1.00  0.00     0.002 A 
HETATM   30  N4  UNL     1      17.118 -22.931   0.000  1.00  0.00     0.000 N 
HETATM   31  C22 UNL     1      17.595 -22.258   0.000  1.00  0.00     0.000 A 
HETATM   32  C24 UNL     1      17.382 -23.712   0.000  1.00  0.00     0.000 A 
HETATM   33  C25 UNL     1      16.837 -24.332   0.000  1.00  0.00     0.000 A 
HETATM   34  O3  UNL     1      18.191 -23.874   0.000  1.00  0.00     0.000 OA
HETATM   35  C27 UNL     1      18.420 -22.248   0.000  1.00  0.00     0.000 A 
HETATM   36  N6  UNL     1      18.841 -22.957   0.000  1.00  0.00     0.000 N 
HETATM   37  O4  UNL     1      18.824 -21.529   0.000  1.00  0.00     0.000 OA
HETATM   38  C33 UNL     1      19.666 -22.947   0.000  1.00  0.00     0.000 A 
HETATM   39  C34 UNL     1      20.080 -23.657   0.000  1.00  0.00     0.000 A 
HETATM   40  C36 UNL     1      19.875 -22.146   0.000  1.00  0.00     0.000 A 
HETATM   41  C35 UNL     1      20.489 -22.941   0.000  1.00  0.00     0.000 A 
HETATM   42  O7  UNL     1      20.671 -21.927   0.000  1.00  0.00     0.000 OA
HETATM   43  O8  UNL     1      19.288 -21.566   0.000  1.00  0.00     0.000 OA
HETATM   44  C37 UNL     1      20.084 -24.482   0.000  1.00  0.00     0.000 A 
HETATM   45  C38 UNL     1      19.372 -24.898   0.000  1.00  0.00     0.000 A 
HETATM   46  N5  UNL     1      16.028 -24.170   0.000  1.00  0.00     0.000 N 
HETATM   47  C26 UNL     1      17.101 -25.113   0.000  1.00  0.00     0.000 A 
HETATM   48  C31 UNL     1      15.414 -24.721   0.000  1.00  0.00     0.000 A 
HETATM   49  O5  UNL     1      14.630 -24.465   0.000  1.00  0.00     0.000 OA
HETATM   50  O6  UNL     1      15.584 -25.529   0.000  1.00  0.00     0.000 OA
HETATM   51  C32 UNL     1      14.016 -25.016   0.000  1.00  0.00     0.000 A 
HETATM   52  C39 UNL     1      13.211 -24.847   0.000  1.00  0.00     0.000 A 
HETATM   53  C40 UNL     1      14.103 -25.841   0.000  1.00  0.00     0.000 A 
HETATM   54  C41 UNL     1      13.349 -26.175   0.000  1.00  0.00     0.000 A 
HETATM   55  C42 UNL     1      12.797 -25.565   0.000  1.00  0.00     0.000 A 
HETATM   56  C43 UNL     1      12.544 -26.348   0.000  1.00  0.00     0.000 A 
HETATM   57  C28 UNL     1      16.556 -25.733   0.000  1.00  0.00     0.000 A 
HETATM   58  C29 UNL     1      17.910 -25.276   0.000  1.00  0.00     0.000 A 
HETATM   59  C30 UNL     1      17.312 -25.908   0.000  1.00  0.00     0.000 A 
HETATM   60  C14 UNL     1      18.313 -18.586   0.000  1.00  0.00     0.040 A 
HETATM   61  S1  UNL     1      17.848 -17.904   0.000  1.00  0.00    -0.181 SA
HETATM   62  N3  UNL     1      19.138 -18.609   0.000  1.00  0.00     0.000 N 
HETATM   63  C17 UNL     1      19.530 -19.335   0.000  1.00  0.00     0.010 A 
HETATM   64  C18 UNL     1      20.355 -19.359   0.000  1.00  0.00     0.002 A 
HETATM   65  C19 UNL     1      19.097 -20.038   0.000  1.00  0.00     0.010 A 
ENDBRANCH   2   9
TORSDOF 79
