REMARK  1 active torsions:
REMARK  status: ('A' for Active; 'I' for Inactive)
REMARK       I    between atoms: C2_2  and  N1_4 
REMARK    1  A    between atoms: N1_4  and  C3_5 
ROOT
HETATM    1  C3  UNL     1      -0.010   2.040   0.000  1.00  0.00     0.085 A 
HETATM    2  C4  UNL     1      -0.880   1.530   0.000  1.00  0.00     0.019 A 
HETATM    3  C5  UNL     1      -1.750   2.030   0.000  1.00  0.00     0.002 A 
HETATM    4  C6  UNL     1      -2.630   1.530   0.000  1.00  0.00     0.000 C 
HETATM    5  C7  UNL     1      -1.740   3.030   0.000  1.00  0.00     0.000 A 
HETATM    6  C8  UNL     1      -0.860   3.530   0.000  1.00  0.00     0.002 A 
HETATM    7  C9  UNL     1      -0.850   4.540   0.000  1.00  0.00     0.000 C 
HETATM    8  C10 UNL     1       0.020   3.020   0.000  1.00  0.00     0.019 A 
ENDROOT
BRANCH   1   9
HETATM    9  N1  UNL     1       0.870   1.530   0.000  1.00  0.00    -0.208 NA
HETATM   10  C2  UNL     1       1.750   2.040   0.000  1.00  0.00     0.279 C 
HETATM   11  C1  UNL     1       2.630   1.530   0.000  1.00  0.00     0.068 C 
HETATM   12  O1  UNL     1       1.760   3.050   0.000  1.00  0.00    -0.265 OA
ENDBRANCH   1   9
TORSDOF 1
