REMARK  4 active torsions:
REMARK  status: ('A' for Active; 'I' for Inactive)
REMARK    1  A    between atoms: C6_6  and  C7_7 
REMARK    2  A    between atoms: C7_7  and  O1_8 
REMARK    3  A    between atoms: O1_8  and  C8_9 
REMARK    4  A    between atoms: C9_11  and  C13_18 
ROOT
HETATM    1  O1  UNL     1       0.544   0.370   0.635  1.00  0.00    -0.326 OA
ENDROOT
BRANCH   1   2
HETATM    2  C7  UNL     1       0.128  -0.562  -0.333  1.00  0.00     0.175 C 
BRANCH   2   3
HETATM    3  C6  UNL     1       0.902  -0.300  -1.625  1.00  0.00     0.154 C 
HETATM    4  C1  UNL     1       2.356  -0.780  -1.535  1.00  0.00     0.031 C 
HETATM    5  C2  UNL     1       2.617  -2.278  -1.892  1.00  0.00     0.002 C 
HETATM    6  C14 UNL     1       3.074  -0.435  -2.874  1.00  0.00     0.003 C 
HETATM    7  C3  UNL     1       2.541  -1.803  -3.368  1.00  0.00     0.000 C 
HETATM    8  C15 UNL     1       4.020  -2.769  -1.478  1.00  0.00     0.000 C 
HETATM    9  C16 UNL     1       1.608  -3.356  -1.475  1.00  0.00     0.000 C 
HETATM   10  C4  UNL     1       1.108  -1.604  -3.878  1.00  0.00     0.003 C 
HETATM   11  C5  UNL     1       0.195  -0.864  -2.874  1.00  0.00     0.033 C 
HETATM   12  O7  UNL     1       0.930   1.104  -1.743  1.00  0.00    -0.223 OA
ENDBRANCH   2   3
ENDBRANCH   1   2
BRANCH   1  13
HETATM   13  C8  UNL     1      -0.028   0.199   1.916  1.00  0.00     0.270 C 
HETATM   14  O2  UNL     1       0.954   0.691   2.814  1.00  0.00    -0.326 OA
HETATM   15  C9  UNL     1       1.198   2.073   2.707  1.00  0.00     0.184 C 
HETATM   16  C10 UNL     1      -0.086   2.870   2.905  1.00  0.00     0.215 C 
HETATM   17  C11 UNL     1      -1.151   2.409   1.935  1.00  0.00     0.220 C 
HETATM   18  O5  UNL     1       0.127   4.243   2.681  1.00  0.00    -0.218 OA
HETATM   19  C12 UNL     1      -1.339   0.924   2.135  1.00  0.00     0.241 C 
HETATM   20  O4  UNL     1      -2.354   3.080   2.209  1.00  0.00    -0.218 OA
HETATM   21  O3  UNL     1      -2.365   0.475   1.288  1.00  0.00    -0.215 OA
BRANCH  15  22
HETATM   22  C13 UNL     1       2.240   2.463   3.748  1.00  0.00     0.214 C 
HETATM   23  O6  UNL     1       3.466   1.814   3.474  1.00  0.00    -0.218 OA
ENDBRANCH  15  22
ENDBRANCH   1  13
TORSDOF 4
