REMARK  2 active torsions:
REMARK  status: ('A' for Active; 'I' for Inactive)
REMARK    1  A    between atoms: C1_1  and  O1_11 
REMARK    2  A    between atoms: O1_11  and  C11_12 
ROOT
HETATM    1  C1  UNL     1       0.120   0.562   0.757  1.00  0.00     0.128 C 
HETATM    2  C2  UNL     1       0.131  -0.988   0.698  1.00  0.00     0.029 C 
HETATM    3  C3  UNL     1       1.594  -1.463   0.652  1.00  0.00     0.007 C 
HETATM    4  C4  UNL     1       2.463  -0.549  -0.243  1.00  0.00     0.022 C 
HETATM    5  C5  UNL     1       1.625   0.282  -1.195  1.00  0.00    -0.042 C 
HETATM    6  C6  UNL     1       0.181   0.470  -0.789  1.00  0.00     0.046 C 
HETATM    7  C7  UNL     1      -0.517  -0.916  -0.716  1.00  0.00     0.008 C 
HETATM    8  C8  UNL     1      -2.056  -0.887  -0.718  1.00  0.00     0.001 C 
HETATM    9  C9  UNL     1      -0.073  -1.953  -1.761  1.00  0.00     0.001 C 
HETATM   10  C10 UNL     1       2.127   0.812  -2.321  1.00  0.00    -0.009 C 
ENDROOT
BRANCH   1  11
HETATM   11  O1  UNL     1      -1.081   1.090   1.223  1.00  0.00    -0.304 OA
BRANCH  11  12
HETATM   12  C11 UNL     1      -1.054   2.066   2.168  1.00  0.00     0.272 C 
HETATM   13  C12 UNL     1      -2.459   2.523   2.509  1.00  0.00     0.106 C 
HETATM   14  O2  UNL     1      -0.058   2.529   2.677  1.00  0.00    -0.264 OA
ENDBRANCH  11  12
ENDBRANCH   1  11
TORSDOF 2
