MODEL 1
REMARK VINA RESULT:      -0.0      0.000      0.000
REMARK  0 active torsions:
REMARK  status: ('A' for Active; 'I' for Inactive)
ROOT
ATOM      1  C1  <1> d           1.340   1.438   0.716  0.00  0.00    -0.000 C 
ATOM      2  C2  <1> d           0.445   0.472   1.545  0.00  0.00    -0.000 C 
ENDROOT
TORSDOF 0
ENDMDL
MODEL 2
REMARK VINA RESULT:      -0.0      0.168      1.564
REMARK  0 active torsions:
REMARK  status: ('A' for Active; 'I' for Inactive)
ROOT
ATOM      1  C1  <1> d           0.587   0.556   1.560  0.00  0.00    -0.000 C 
ATOM      2  C2  <1> d           1.506   1.451   0.680  0.00  0.00    -0.000 C 
ENDROOT
TORSDOF 0
ENDMDL
