REMARK  19 active torsions:
REMARK  status: ('A' for Active; 'I' for Inactive)
REMARK    1  A    between atoms: O2_3  and  N1_10 
REMARK    2  A    between atoms: C2_4  and  C5_7 
REMARK    3  A    between atoms: C2_4  and  C6_8 
REMARK    4  A    between atoms: C3_5  and  C6_8 
REMARK    5  A    between atoms: C3_5  and  C7_9 
REMARK    6  A    between atoms: C4_6  and  C7_9 
REMARK    7  A    between atoms: C5_7  and  C7_9 
REMARK    8  A    between atoms: C6_8  and  C7_9 
REMARK    9  A    between atoms: C6_8  and  N1_10 
REMARK   10  A    between atoms: C6_8  and  C8_11 
REMARK   11  A    between atoms: C6_8  and  C13_16 
REMARK   12  A    between atoms: C7_9  and  C13_16 
REMARK   13  A    between atoms: C8_11  and  C11_14 
REMARK   14  A    between atoms: C8_11  and  C12_15 
REMARK   15  A    between atoms: C9_12  and  C12_15 
REMARK   16  A    between atoms: C9_12  and  C13_16 
REMARK   17  A    between atoms: C10_13  and  C13_16 
REMARK   18  A    between atoms: C11_14  and  C13_16 
REMARK   19  A    between atoms: C12_15  and  C13_16 
ROOT
HETATM    1  O1  UNL     1       1.429   0.000   0.000  1.00  0.00    -0.365 OA
HETATM    2  C1  UNL     1       2.143  -0.412   0.000  1.00  0.00     0.113 A 
HETATM    3  O2  UNL     1       2.858   0.000   0.000  1.00  0.00     0.000 OA
HETATM    4  C2  UNL     1       2.143  -1.238   0.000  1.00  0.00     0.068 A 
HETATM    5  C3  UNL     1       1.429  -1.650   0.000  1.00  0.00     0.046 A 
HETATM    6  C4  UNL     1       1.429  -2.475   0.000  1.00  0.00     0.030 A 
HETATM    7  C5  UNL     1       2.143  -2.888   0.000  1.00  0.00     0.030 A 
HETATM    8  C6  UNL     1       2.858  -2.475   0.000  1.00  0.00     0.026 A 
HETATM    9  C7  UNL     1       2.858  -1.650   0.000  1.00  0.00     0.040 A 
HETATM   10  N1  UNL     1       3.572  -1.238   0.000  1.00  0.00     0.000 N 
HETATM   11  C8  UNL     1       4.287  -1.650   0.000  1.00  0.00     0.006 A 
HETATM   12  C9  UNL     1       5.001  -1.238   0.000  1.00  0.00     0.000 A 
HETATM   13  C10 UNL     1       5.716  -1.650   0.000  1.00  0.00     0.000 A 
HETATM   14  C11 UNL     1       5.716  -2.475   0.000  1.00  0.00     0.000 A 
HETATM   15  C12 UNL     1       5.001  -2.888   0.000  1.00  0.00     0.000 A 
HETATM   16  C13 UNL     1       4.287  -2.475   0.000  1.00  0.00     0.006 A 
ENDROOT
TORSDOF 19
