REMARK WARNING: 32 MAX_TORS EXCEEDED!!!
REMARK  45 active torsions:
REMARK  status: ('A' for Active; 'I' for Inactive)
REMARK    1  A    between atoms: C1_1  and  C11_14 
REMARK    2  A    between atoms: C1_1  and  N3_15 
REMARK    3  A    between atoms: C1_1  and  C12_16 
REMARK    4  A    between atoms: C1_1  and  C13_17 
REMARK    5  A    between atoms: C2_2  and  C8_9 
REMARK    6  A    between atoms: C2_2  and  C9_10 
REMARK    7  A    between atoms: C2_2  and  C11_14 
REMARK    8  A    between atoms: C2_2  and  N3_15 
REMARK    9  A    between atoms: O1_3  and  N3_15 
REMARK   10  A    between atoms: C3_4  and  C6_7 
REMARK   11  A    between atoms: C3_4  and  C7_8 
REMARK   12  A    between atoms: C4_5  and  C7_8 
REMARK   13  A    between atoms: C4_5  and  C8_9 
REMARK   14  A    between atoms: C5_6  and  C8_9 
REMARK   15  A    between atoms: C5_6  and  O3_29 
REMARK   16  A    between atoms: C6_7  and  C8_9 
REMARK   17  A    between atoms: C7_8  and  C8_9 
REMARK   18  A    between atoms: C7_8  and  C9_10 
REMARK   19  A    between atoms: C7_8  and  S1_27 
REMARK   20  A    between atoms: C7_8  and  O2_28 
REMARK   21  A    between atoms: C9_10  and  C10_13 
REMARK   22  A    between atoms: C9_10  and  C11_14 
REMARK   23  A    between atoms: N1_11  and  N3_15 
REMARK   24  A    between atoms: C10_13  and  N3_15 
REMARK   25  A    between atoms: C10_13  and  N4_18 
REMARK   26  A    between atoms: C11_14  and  N3_15 
REMARK   27  A    between atoms: N3_15  and  C12_16 
REMARK   28  A    between atoms: C12_16  and  N5_19 
REMARK   29  A    between atoms: C13_17  and  N4_18 
REMARK   30  A    between atoms: N4_18  and  N5_19 
REMARK   31  A    between atoms: N4_18  and  C14_20 
REMARK   32  A    between atoms: C14_20  and  C17_23 
REMARK   33  A    between atoms: C14_20  and  C19_25 
REMARK   34  A    between atoms: C15_21  and  C19_25 
REMARK   35  A    between atoms: C15_21  and  C20_26 
REMARK   36  A    between atoms: C16_22  and  C20_26 
REMARK   37  A    between atoms: C17_23  and  C20_26 
REMARK   38  A    between atoms: C18_24  and  C19_25 
REMARK   39  A    between atoms: C19_25  and  C20_26 
REMARK   40  A    between atoms: S1_27  and  C22_32 
REMARK   41  A    between atoms: O3_29  and  N6_30 
REMARK   42  A    between atoms: O3_29  and  C21_31 
REMARK   43  A    between atoms: O3_29  and  C22_32 
REMARK   44  A    between atoms: C22_32  and  C23_33 
REMARK   45  A    between atoms: C22_32  and  C24_34 
ROOT
HETATM    1  C1  UNL     1       1.923   3.585   0.000  1.00  0.00     0.035 A 
HETATM    2  C2  UNL     1       2.638   3.173   0.000  1.00  0.00     0.058 A 
HETATM    3  O1  UNL     1       3.352   3.585   0.000  1.00  0.00     0.000 OA
HETATM    4  C3  UNL     1       4.067   3.173   0.000  1.00  0.00     0.046 A 
HETATM    5  C4  UNL     1       4.781   3.585   0.000  1.00  0.00     0.026 A 
HETATM    6  C5  UNL     1       5.496   3.173   0.000  1.00  0.00     0.028 A 
HETATM    7  C6  UNL     1       5.496   2.348   0.000  1.00  0.00     0.028 A 
HETATM    8  C7  UNL     1       4.781   1.935   0.000  1.00  0.00     0.044 A 
HETATM    9  C8  UNL     1       4.067   2.348   0.000  1.00  0.00     0.046 A 
HETATM   10  C9  UNL     1       3.352   1.935   0.000  1.00  0.00     0.180 A 
HETATM   11  N1  UNL     1       3.352   1.110   0.000  1.00  0.00     0.000 N 
HETATM   12  N2  UNL     1       2.638   0.698   0.000  1.00  0.00     0.125 N 
HETATM   13  C10 UNL     1       1.923   1.110   0.000  1.00  0.00     0.215 A 
HETATM   14  C11 UNL     1       1.923   1.935   0.000  1.00  0.00     0.176 A 
HETATM   15  N3  UNL     1       2.638   2.348   0.000  1.00  0.00     0.000 N 
HETATM   16  C12 UNL     1       1.139   2.190   0.000  1.00  0.00     0.059 A 
HETATM   17  C13 UNL     1       0.884   2.975   0.000  1.00  0.00     0.033 A 
HETATM   18  N4  UNL     1       0.654   1.523   0.000  1.00  0.00     0.000 N 
HETATM   19  N5  UNL     1       1.139   0.856   0.000  1.00  0.00     0.000 N 
HETATM   20  C14 UNL     1       0.884   0.071   0.000  1.00  0.00     0.026 A 
HETATM   21  C15 UNL     1       1.436  -0.542   0.000  1.00  0.00     0.002 A 
HETATM   22  C16 UNL     1       1.181  -1.327   0.000  1.00  0.00     0.002 A 
HETATM   23  C17 UNL     1       0.374  -1.498   0.000  1.00  0.00     0.002 A 
HETATM   24  C18 UNL     1       0.119  -2.283   0.000  1.00  0.00     0.000 A 
HETATM   25  C19 UNL     1      -0.178  -0.885   0.000  1.00  0.00     0.002 A 
HETATM   26  C20 UNL     1       0.077  -0.101   0.000  1.00  0.00     0.002 A 
HETATM   27  S1  UNL     1       6.210   1.935   0.000  1.00  0.00    -0.225 SA
HETATM   28  O2  UNL     1       5.798   1.221   0.000  1.00  0.00     0.000 OA
HETATM   29  O3  UNL     1       6.623   2.650   0.000  1.00  0.00     0.000 OA
HETATM   30  N6  UNL     1       6.925   1.523   0.000  1.00  0.00     0.000 N 
HETATM   31  C21 UNL     1       7.639   1.935   0.000  1.00  0.00     0.027 A 
HETATM   32  C22 UNL     1       7.639   2.760   0.000  1.00  0.00     0.027 A 
HETATM   33  C23 UNL     1       8.354   1.523   0.000  1.00  0.00     0.017 A 
HETATM   34  C24 UNL     1       9.068   1.935   0.000  1.00  0.00     0.017 A 
ENDROOT
TORSDOF 45
