REMARK  25 active torsions:
REMARK  status: ('A' for Active; 'I' for Inactive)
REMARK    1  A    between atoms: O1_3  and  C14_22 
REMARK    2  A    between atoms: O2_4  and  C1_5 
REMARK    3  A    between atoms: O2_4  and  C2_6 
REMARK    4  A    between atoms: C1_5  and  C4_8 
REMARK    5  A    between atoms: C1_5  and  C13_21 
REMARK    6  A    between atoms: C2_6  and  C13_21 
REMARK    7  A    between atoms: C2_6  and  C14_22 
REMARK    8  A    between atoms: C3_7  and  C14_22 
REMARK    9  A    between atoms: C4_8  and  S2_14 
REMARK   10  A    between atoms: C4_8  and  C14_22 
REMARK   11  A    between atoms: N2_9  and  C13_21 
REMARK   12  A    between atoms: C5_10  and  C7_13 
REMARK   13  A    between atoms: C5_10  and  C13_21 
REMARK   14  A    between atoms: N3_11  and  S2_14 
REMARK   15  A    between atoms: C6_12  and  S2_14 
REMARK   16  A    between atoms: C7_13  and  S2_14 
REMARK   17  A    between atoms: C7_13  and  N4_15 
REMARK   18  A    between atoms: S2_14  and  C13_21 
REMARK   19  A    between atoms: N4_15  and  C11_19 
REMARK   20  A    between atoms: C8_16  and  C11_19 
REMARK   21  A    between atoms: C8_16  and  C12_20 
REMARK   22  A    between atoms: C9_17  and  C12_20 
REMARK   23  A    between atoms: C10_18  and  C12_20 
REMARK   24  A    between atoms: C11_19  and  C12_20 
REMARK   25  A    between atoms: C13_21  and  C14_22 
ROOT
HETATM    1  N1  UNL     1      -2.858   1.650   0.000  1.00  0.00    -0.082 NA
HETATM    2  S1  UNL     1      -2.143   1.238   0.000  1.00  0.00    -0.124 SA
HETATM    3  O1  UNL     1      -2.556   0.523   0.000  1.00  0.00     0.000 OA
HETATM    4  O2  UNL     1      -1.731   1.952   0.000  1.00  0.00     0.000 OA
HETATM    5  C1  UNL     1      -1.429   0.825   0.000  1.00  0.00     0.056 A 
HETATM    6  C2  UNL     1      -0.715   1.238   0.000  1.00  0.00     0.056 A 
HETATM    7  C3  UNL     1       0.000   0.825   0.000  1.00  0.00     0.042 A 
HETATM    8  C4  UNL     1       0.000  -0.000   0.000  1.00  0.00     0.042 A 
HETATM    9  N2  UNL     1       0.715  -0.412   0.000  1.00  0.00     0.000 N 
HETATM   10  C5  UNL     1       0.715  -1.238   0.000  1.00  0.00     0.041 A 
HETATM   11  N3  UNL     1       1.382  -1.722   0.000  1.00  0.00     0.000 N 
HETATM   12  C6  UNL     1       1.127  -2.507   0.000  1.00  0.00     0.029 A 
HETATM   13  C7  UNL     1       0.302  -2.507   0.000  1.00  0.00     0.042 A 
HETATM   14  S2  UNL     1       0.047  -1.722   0.000  1.00  0.00    -0.220 SA
HETATM   15  N4  UNL     1       1.612  -3.175   0.000  1.00  0.00     0.000 N 
HETATM   16  C8  UNL     1       2.432  -3.088   0.000  1.00  0.00     0.007 A 
HETATM   17  C9  UNL     1       2.917  -3.756   0.000  1.00  0.00     0.002 A 
HETATM   18  C10 UNL     1       2.582  -4.509   0.000  1.00  0.00     0.002 A 
HETATM   19  C11 UNL     1       1.761  -4.596   0.000  1.00  0.00     0.002 A 
HETATM   20  C12 UNL     1       1.276  -3.928   0.000  1.00  0.00     0.007 A 
HETATM   21  C13 UNL     1      -0.715  -0.412   0.000  1.00  0.00     0.042 A 
HETATM   22  C14 UNL     1      -1.429  -0.000   0.000  1.00  0.00     0.056 A 
ENDROOT
TORSDOF 25
