REMARK  29 active torsions:
REMARK  status: ('A' for Active; 'I' for Inactive)
REMARK    1  A    between atoms: C2_2  and  C4_5 
REMARK    2  A    between atoms: C3_3  and  O1_9 
REMARK    3  A    between atoms: C4_5  and  S1_8 
REMARK    4  A    between atoms: C4_5  and  O2_10 
REMARK    5  A    between atoms: C5_6  and  S1_8 
REMARK    6  A    between atoms: C5_6  and  O2_10 
REMARK    7  A    between atoms: O1_9  and  C12_16 
REMARK    8  A    between atoms: O2_10  and  C7_11 
REMARK    9  A    between atoms: O2_10  and  C8_12 
REMARK   10  A    between atoms: C7_11  and  C10_14 
REMARK   11  A    between atoms: C7_11  and  C11_15 
REMARK   12  A    between atoms: C8_12  and  C11_15 
REMARK   13  A    between atoms: C8_12  and  C12_16 
REMARK   14  A    between atoms: C9_13  and  C12_16 
REMARK   15  A    between atoms: C10_14  and  C12_16 
REMARK   16  A    between atoms: C11_15  and  C12_16 
REMARK   17  A    between atoms: C11_15  and  C13_17 
REMARK   18  A    between atoms: C13_17  and  C19_26 
REMARK   19  A    between atoms: C13_17  and  N4_28 
REMARK   20  A    between atoms: O3_18  and  N2_19 
REMARK   21  A    between atoms: O3_18  and  C19_26 
REMARK   22  A    between atoms: O3_18  and  N4_28 
REMARK   23  A    between atoms: C15_21  and  C19_26 
REMARK   24  A    between atoms: C16_22  and  C19_26 
REMARK   25  A    between atoms: C16_22  and  O4_27 
REMARK   26  A    between atoms: O4_27  and  N4_28 
REMARK   27  A    between atoms: O5_29  and  F3_35 
REMARK   28  A    between atoms: O6_31  and  F2_34 
REMARK   29  A    between atoms: F1_33  and  F3_35 
ROOT
HETATM    1  O5  UNL     1       7.627  -0.884   0.000  1.00  0.00     0.000 OA
HETATM    2  C20 UNL     1       8.341  -0.471   0.000  1.00  0.00     0.355 A 
HETATM    3  O6  UNL     1       9.056  -0.884   0.000  1.00  0.00     0.000 OA
HETATM    4  C21 UNL     1       8.341   0.354   0.000  1.00  0.00     0.407 A 
HETATM    5  F1  UNL     1       8.341   1.179   0.000  1.00  0.00    -0.216 F 
HETATM    6  F2  UNL     1       9.166   0.354   0.000  1.00  0.00    -0.273 F 
HETATM    7  F3  UNL     1       7.516   0.354   0.000  1.00  0.00    -0.273 F 
ENDROOT
TORSDOF 29
