REMARK  25 active torsions:
REMARK  status: ('A' for Active; 'I' for Inactive)
REMARK    1  A    between atoms: C2_2  and  C5_5 
REMARK    2  A    between atoms: C2_2  and  C15_22 
REMARK    3  A    between atoms: C3_3  and  C15_22 
REMARK    4  A    between atoms: C3_3  and  C16_23 
REMARK    5  A    between atoms: C4_4  and  C16_23 
REMARK    6  A    between atoms: C5_5  and  C14_20 
REMARK    7  A    between atoms: C5_5  and  C16_23 
REMARK    8  A    between atoms: C6_6  and  C15_22 
REMARK    9  A    between atoms: N1_8  and  C15_22 
REMARK   10  A    between atoms: C7_9  and  C14_20 
REMARK   11  A    between atoms: C8_10  and  C11_13 
REMARK   12  A    between atoms: C8_10  and  C12_14 
REMARK   13  A    between atoms: C9_11  and  C12_14 
REMARK   14  A    between atoms: C9_11  and  C13_15 
REMARK   15  A    between atoms: C10_12  and  C13_15 
REMARK   16  A    between atoms: C10_12  and  N2_19 
REMARK   17  A    between atoms: C11_13  and  C13_15 
REMARK   18  A    between atoms: C12_14  and  C13_15 
REMARK   19  A    between atoms: C12_14  and  S1_16 
REMARK   20  A    between atoms: C12_14  and  O3_18 
REMARK   21  A    between atoms: C13_15  and  C14_20 
REMARK   22  A    between atoms: C13_15  and  O4_21 
REMARK   23  A    between atoms: O2_17  and  N2_19 
REMARK   24  A    between atoms: C14_20  and  C16_23 
REMARK   25  A    between atoms: C15_22  and  C16_23 
ROOT
HETATM    1  C1  UNL     1       4.067   2.348   0.000  1.00  0.00     0.007 A 
HETATM    2  C2  UNL     1       3.352   1.935   0.000  1.00  0.00     0.026 A 
HETATM    3  C3  UNL     1       3.352   1.110   0.000  1.00  0.00     0.026 A 
HETATM    4  C4  UNL     1       2.638   0.698   0.000  1.00  0.00     0.041 A 
HETATM    5  C5  UNL     1       1.923   1.110   0.000  1.00  0.00     0.056 A 
HETATM    6  C6  UNL     1       1.139   0.856   0.000  1.00  0.00     0.076 A 
HETATM    7  O1  UNL     1       0.884   0.071   0.000  1.00  0.00    -0.371 OA
HETATM    8  N1  UNL     1       0.654   1.523   0.000  1.00  0.00     0.000 N 
HETATM    9  C7  UNL     1      -0.171   1.523   0.000  1.00  0.00     0.040 A 
HETATM   10  C8  UNL     1      -0.584   2.237   0.000  1.00  0.00     0.083 A 
HETATM   11  C9  UNL     1      -1.409   2.237   0.000  1.00  0.00     0.083 A 
HETATM   12  C10 UNL     1      -1.821   2.952   0.000  1.00  0.00     0.210 A 
HETATM   13  C11 UNL     1      -1.409   3.666   0.000  1.00  0.00     0.210 A 
HETATM   14  C12 UNL     1      -0.584   3.666   0.000  1.00  0.00     0.110 A 
HETATM   15  C13 UNL     1      -0.171   2.952   0.000  1.00  0.00     0.081 A 
HETATM   16  S1  UNL     1      -1.821   4.381   0.000  1.00  0.00     0.037 SA
HETATM   17  O2  UNL     1      -2.234   5.095   0.000  1.00  0.00     0.000 OA
HETATM   18  O3  UNL     1      -1.107   4.793   0.000  1.00  0.00     0.000 OA
HETATM   19  N2  UNL     1      -2.536   3.968   0.000  1.00  0.00     0.173 N 
HETATM   20  C14 UNL     1       1.139   2.190   0.000  1.00  0.00     0.045 A 
HETATM   21  O4  UNL     1       0.884   2.975   0.000  1.00  0.00     0.000 OA
HETATM   22  C15 UNL     1       1.923   1.935   0.000  1.00  0.00     0.041 A 
HETATM   23  C16 UNL     1       2.638   2.348   0.000  1.00  0.00     0.027 A 
ENDROOT
TORSDOF 25
