REMARK WARNING: 32 MAX_TORS EXCEEDED!!!
REMARK  43 active torsions:
REMARK  status: ('A' for Active; 'I' for Inactive)
REMARK    1  A    between atoms: C4_6  and  C15_26 
REMARK    2  A    between atoms: C4_6  and  C18_31 
REMARK    3  A    between atoms: O3_7  and  C21_36 
REMARK    4  A    between atoms: C5_8  and  C16_28 
REMARK    5  A    between atoms: C5_8  and  O7_29 
REMARK    6  A    between atoms: C5_8  and  C21_36 
REMARK    7  A    between atoms: S1_9  and  N3_15 
REMARK    8  A    between atoms: S1_9  and  C15_26 
REMARK    9  A    between atoms: S1_9  and  O6_27 
REMARK   10  A    between atoms: S1_9  and  C16_28 
REMARK   11  A    between atoms: S1_9  and  O7_29 
REMARK   12  A    between atoms: C6_10  and  O7_29 
REMARK   13  A    between atoms: C7_11  and  N2_14 
REMARK   14  A    between atoms: C8_12  and  N3_15 
REMARK   15  A    between atoms: N1_13  and  N3_15 
REMARK   16  A    between atoms: N2_14  and  N3_15 
REMARK   17  A    between atoms: N2_14  and  C9_16 
REMARK   18  A    between atoms: C9_16  and  C12_19 
REMARK   19  A    between atoms: C9_16  and  C13_20 
REMARK   20  A    between atoms: C10_17  and  C13_20 
REMARK   21  A    between atoms: C10_17  and  C14_21 
REMARK   22  A    between atoms: C11_18  and  C14_21 
REMARK   23  A    between atoms: C11_18  and  N4_25 
REMARK   24  A    between atoms: C12_19  and  C14_21 
REMARK   25  A    between atoms: C13_20  and  C14_21 
REMARK   26  A    between atoms: C13_20  and  S2_22 
REMARK   27  A    between atoms: C13_20  and  O5_24 
REMARK   28  A    between atoms: O4_23  and  N4_25 
REMARK   29  A    between atoms: C15_26  and  C19_33 
REMARK   30  A    between atoms: C15_26  and  O9_34 
REMARK   31  A    between atoms: C15_26  and  C21_36 
REMARK   32  A    between atoms: O6_27  and  C18_31 
REMARK   33  A    between atoms: O6_27  and  C19_33 
REMARK   34  A    between atoms: O6_27  and  O9_34 
REMARK   35  A    between atoms: C16_28  and  O9_34 
REMARK   36  A    between atoms: C18_31  and  C21_36 
REMARK   37  A    between atoms: C18_31  and  O10_37 
REMARK   38  A    between atoms: C18_31  and  C22_38 
REMARK   39  A    between atoms: C18_31  and  O11_39 
REMARK   40  A    between atoms: O8_32  and  C21_36 
REMARK   41  A    between atoms: O8_32  and  C22_38 
REMARK   42  A    between atoms: O8_32  and  O11_39 
REMARK   43  A    between atoms: C19_33  and  O11_39 
ROOT
HETATM    1  C1  UNL     1       2.143   4.537   0.000  1.00  0.00     0.172 A 
HETATM    2  C2  UNL     1       2.143   3.712   0.000  1.00  0.00     0.145 A 
HETATM    3  O1  UNL     1       2.858   3.300   0.000  1.00  0.00    -0.352 OA
HETATM    4  O2  UNL     1       1.429   3.300   0.000  1.00  0.00     0.000 OA
HETATM    5  C3  UNL     1       1.429   2.475   0.000  1.00  0.00     0.033 A 
HETATM    6  C4  UNL     1       0.715   2.062   0.000  1.00  0.00     0.016 A 
HETATM    7  O3  UNL     1       0.715   1.238   0.000  1.00  0.00     0.000 OA
HETATM    8  C5  UNL     1       0.000   0.825   0.000  1.00  0.00     0.023 A 
HETATM    9  S1  UNL     1       0.000  -0.000   0.000  1.00  0.00    -0.224 SA
HETATM   10  C6  UNL     1       0.715  -0.412   0.000  1.00  0.00     0.034 A 
HETATM   11  C7  UNL     1       0.715  -1.238   0.000  1.00  0.00     0.035 A 
HETATM   12  C8  UNL     1       1.382  -1.722   0.000  1.00  0.00     0.023 A 
HETATM   13  N1  UNL     1       1.127  -2.507   0.000  1.00  0.00     0.000 N 
HETATM   14  N2  UNL     1       0.302  -2.507   0.000  1.00  0.00     0.000 N 
HETATM   15  N3  UNL     1       0.047  -1.722   0.000  1.00  0.00     0.000 N 
HETATM   16  C9  UNL     1       1.612  -3.175   0.000  1.00  0.00     0.082 A 
HETATM   17  C10 UNL     1       2.432  -3.088   0.000  1.00  0.00     0.086 A 
HETATM   18  C11 UNL     1       2.917  -3.756   0.000  1.00  0.00     0.211 A 
HETATM   19  C12 UNL     1       2.582  -4.509   0.000  1.00  0.00     0.211 A 
HETATM   20  C13 UNL     1       1.761  -4.596   0.000  1.00  0.00     0.111 A 
HETATM   21  C14 UNL     1       1.276  -3.928   0.000  1.00  0.00     0.086 A 
HETATM   22  S2  UNL     1       3.067  -5.177   0.000  1.00  0.00     0.037 SA
HETATM   23  O4  UNL     1       3.552  -5.844   0.000  1.00  0.00     0.000 OA
HETATM   24  O5  UNL     1       2.399  -5.662   0.000  1.00  0.00     0.000 OA
HETATM   25  N4  UNL     1       3.734  -4.692   0.000  1.00  0.00     0.173 N 
HETATM   26  C15 UNL     1      -0.715   1.238   0.000  1.00  0.00     0.018 A 
HETATM   27  O6  UNL     1      -1.429   0.825   0.000  1.00  0.00     0.000 OA
HETATM   28  C16 UNL     1      -1.429  -0.000   0.000  1.00  0.00     0.031 A 
HETATM   29  O7  UNL     1      -0.715  -0.412   0.000  1.00  0.00     0.000 OA
HETATM   30  C17 UNL     1      -2.143  -0.412   0.000  1.00  0.00     0.010 A 
HETATM   31  C18 UNL     1      -0.715   2.062   0.000  1.00  0.00     0.014 A 
HETATM   32  O8  UNL     1      -1.429   2.475   0.000  1.00  0.00     0.000 OA
HETATM   33  C19 UNL     1      -2.143   2.062   0.000  1.00  0.00     0.008 A 
HETATM   34  O9  UNL     1      -2.143   1.238   0.000  1.00  0.00     0.000 OA
HETATM   35  C20 UNL     1      -2.858   2.475   0.000  1.00  0.00     0.001 A 
HETATM   36  C21 UNL     1       0.000   2.475   0.000  1.00  0.00     0.015 A 
HETATM   37  O10 UNL     1      -0.000   3.300   0.000  1.00  0.00     0.000 OA
HETATM   38  C22 UNL     1      -0.715   3.712   0.000  1.00  0.00     0.003 A 
HETATM   39  O11 UNL     1      -1.429   3.300   0.000  1.00  0.00     0.000 OA
HETATM   40  C23 UNL     1      -0.715   4.537   0.000  1.00  0.00     0.000 A 
ENDROOT
TORSDOF 43
