REMARK  17 active torsions:
REMARK  status: ('A' for Active; 'I' for Inactive)
REMARK    1  A    between atoms: N1_1  and  BR1_4 
REMARK    2  A    between atoms: N1_1  and  I1_9 
REMARK    3  A    between atoms: C1_2  and  C4_6 
REMARK    4  A    between atoms: C1_2  and  C5_7 
REMARK    5  A    between atoms: C2_3  and  C5_7 
REMARK    6  A    between atoms: C2_3  and  C6_8 
REMARK    7  A    between atoms: C2_3  and  I1_9 
REMARK    8  A    between atoms: BR1_4  and  C3_5 
REMARK    9  A    between atoms: C3_5  and  C6_8 
REMARK   10  A    between atoms: C3_5  and  N2_13 
REMARK   11  A    between atoms: C4_6  and  C6_8 
REMARK   12  A    between atoms: C4_6  and  I1_9 
REMARK   13  A    between atoms: C5_7  and  C6_8 
REMARK   14  A    between atoms: C5_7  and  I1_9 
REMARK   15  A    between atoms: C5_7  and  S1_10 
REMARK   16  A    between atoms: C5_7  and  O2_12 
REMARK   17  A    between atoms: O1_11  and  N2_13 
ROOT
HETATM    1  N1  UNL     1       0.715   2.062   0.000  1.00  0.00     0.000 N 
HETATM    2  C1  UNL     1       0.715   1.238   0.000  1.00  0.00     0.133 A 
HETATM    3  C2  UNL     1       1.429   0.825   0.000  1.00  0.00     0.133 A 
HETATM    4 BR1  UNL     1       2.143   1.238   0.000  1.00  0.00    -0.123 Br
HETATM    5  C3  UNL     1       1.429  -0.000   0.000  1.00  0.00     0.234 A 
HETATM    6  C4  UNL     1       0.715  -0.412   0.000  1.00  0.00     0.229 A 
HETATM    7  C5  UNL     1       0.000   0.000   0.000  1.00  0.00     0.148 A 
HETATM    8  C6  UNL     1       0.000   0.825   0.000  1.00  0.00     0.133 A 
HETATM    9  I1  UNL     1      -0.715   1.238   0.000  1.00  0.00    -0.135 I 
HETATM   10  S1  UNL     1       0.715  -1.238   0.000  1.00  0.00     0.060 SA
HETATM   11  O1  UNL     1       0.715  -2.062   0.000  1.00  0.00     0.000 OA
HETATM   12  O2  UNL     1      -0.111  -1.238   0.000  1.00  0.00     0.000 OA
HETATM   13  N2  UNL     1       1.540  -1.238   0.000  1.00  0.00     0.190 N 
ENDROOT
TORSDOF 17
