REMARK  25 active torsions:
REMARK  status: ('A' for Active; 'I' for Inactive)
REMARK    1  A    between atoms: C1_1  and  C21_26 
REMARK    2  A    between atoms: C1_1  and  O6_27 
REMARK    3  A    between atoms: C2_3  and  C19_24 
REMARK    4  A    between atoms: C2_3  and  C20_25 
REMARK    5  A    between atoms: C3_4  and  C20_25 
REMARK    6  A    between atoms: C3_4  and  C21_26 
REMARK    7  A    between atoms: C4_5  and  C21_26 
REMARK    8  A    between atoms: C5_6  and  C19_24 
REMARK    9  A    between atoms: C6_7  and  C19_24 
REMARK   10  A    between atoms: C8_9  and  O5_23 
REMARK   11  A    between atoms: O2_11  and  C10_12 
REMARK   12  A    between atoms: C10_12  and  C18_22 
REMARK   13  A    between atoms: C12_14  and  C15_17 
REMARK   14  A    between atoms: C12_14  and  C16_19 
REMARK   15  A    between atoms: C13_15  and  C16_19 
REMARK   16  A    between atoms: C13_15  and  C18_22 
REMARK   17  A    between atoms: C14_16  and  C18_22 
REMARK   18  A    between atoms: C15_17  and  C18_22 
REMARK   19  A    between atoms: O3_18  and  C16_19 
REMARK   20  A    between atoms: C16_19  and  C18_22 
REMARK   21  A    between atoms: O4_20  and  C18_22 
REMARK   22  A    between atoms: C17_21  and  C18_22 
REMARK   23  A    between atoms: C19_24  and  C21_26 
REMARK   24  A    between atoms: C20_25  and  C21_26 
REMARK   25  A    between atoms: C20_25  and  O6_27 
ROOT
HETATM    1  C1  UNL     1       3.572  -3.712   0.000  1.00  0.00     0.000 A 
HETATM    2  O1  UNL     1       4.287  -4.125   0.000  1.00  0.00     0.000 OA
HETATM    3  C2  UNL     1       4.287  -4.950   0.000  1.00  0.00     0.000 A 
HETATM    4  C3  UNL     1       5.001  -5.362   0.000  1.00  0.00     0.000 A 
HETATM    5  C4  UNL     1       5.001  -6.188   0.000  1.00  0.00     0.000 A 
HETATM    6  C5  UNL     1       5.716  -6.600   0.000  1.00  0.00     0.000 A 
HETATM    7  C6  UNL     1       5.716  -7.425   0.000  1.00  0.00     0.000 A 
HETATM    8  C7  UNL     1       6.430  -7.838   0.000  1.00  0.00     0.000 A 
HETATM    9  C8  UNL     1       6.430  -8.662   0.000  1.00  0.00     0.000 A 
HETATM   10  C9  UNL     1       7.145  -9.075   0.000  1.00  0.00     0.000 A 
HETATM   11  O2  UNL     1       7.859  -8.662   0.000  1.00  0.00     0.000 OA
HETATM   12  C10 UNL     1       7.145  -9.900   0.000  1.00  0.00     0.000 A 
HETATM   13  C11 UNL     1       7.859 -10.312   0.000  1.00  0.00     0.000 A 
HETATM   14  C12 UNL     1       7.859 -11.137   0.000  1.00  0.00     0.000 A 
HETATM   15  C13 UNL     1       8.574 -11.550   0.000  1.00  0.00     0.000 A 
HETATM   16  C14 UNL     1       8.574 -12.375   0.000  1.00  0.00     0.000 A 
HETATM   17  C15 UNL     1       7.859 -12.787   0.000  1.00  0.00     0.000 A 
HETATM   18  O3  UNL     1       7.859 -13.613   0.000  1.00  0.00     0.000 OA
HETATM   19  C16 UNL     1       7.145 -12.375   0.000  1.00  0.00     0.000 A 
HETATM   20  O4  UNL     1       6.430 -12.787   0.000  1.00  0.00     0.000 OA
HETATM   21  C17 UNL     1       5.716 -12.375   0.000  1.00  0.00     0.000 A 
HETATM   22  C18 UNL     1       7.145 -11.550   0.000  1.00  0.00     0.000 A 
HETATM   23  O5  UNL     1       7.145  -7.425   0.000  1.00  0.00     0.000 OA
HETATM   24  C19 UNL     1       4.287  -6.600   0.000  1.00  0.00     0.000 A 
HETATM   25  C20 UNL     1       3.572  -6.188   0.000  1.00  0.00     0.000 A 
HETATM   26  C21 UNL     1       3.572  -5.362   0.000  1.00  0.00     0.000 A 
HETATM   27  O6  UNL     1       2.858  -4.950   0.000  1.00  0.00     0.000 OA
ENDROOT
TORSDOF 25
