REMARK  20 active torsions:
REMARK  status: ('A' for Active; 'I' for Inactive)
REMARK    1  A    between atoms: C3_3  and  C4_4 
REMARK    2  A    between atoms: C4_4  and  O1_5 
REMARK    3  A    between atoms: C4_4  and  C5_6 
REMARK    4  A    between atoms: C4_4  and  O2_7 
REMARK    5  A    between atoms: C7_10  and  N3_13 
REMARK    6  A    between atoms: C8_11  and  N4_14 
REMARK    7  A    between atoms: N2_12  and  N4_14 
REMARK    8  A    between atoms: N3_13  and  N4_14 
REMARK    9  A    between atoms: N3_13  and  C9_15 
REMARK   10  A    between atoms: C9_15  and  C12_18 
REMARK   11  A    between atoms: C9_15  and  C13_19 
REMARK   12  A    between atoms: C10_16  and  C13_19 
REMARK   13  A    between atoms: C10_16  and  C14_20 
REMARK   14  A    between atoms: C11_17  and  C14_20 
REMARK   15  A    between atoms: C11_17  and  N5_24 
REMARK   16  A    between atoms: C12_18  and  C14_20 
REMARK   17  A    between atoms: C13_19  and  C14_20 
REMARK   18  A    between atoms: C13_19  and  S1_21 
REMARK   19  A    between atoms: C13_19  and  O4_23 
REMARK   20  A    between atoms: O3_22  and  N5_24 
ROOT
HETATM    1  C1  UNL     1      -0.715   2.888   0.000  1.00  0.00     0.000 A 
HETATM    2  C2  UNL     1      -0.715   2.062   0.000  1.00  0.00     0.000 A 
HETATM    3  C3  UNL     1      -1.540   2.062   0.000  1.00  0.00     0.000 A 
HETATM    4  C4  UNL     1       0.111   2.062   0.000  1.00  0.00     0.000 A 
HETATM    5  O1  UNL     1      -0.715   1.238   0.000  1.00  0.00     0.000 OA
HETATM    6  C5  UNL     1       0.000   0.825   0.000  1.00  0.00     0.000 A 
HETATM    7  O2  UNL     1       0.715   1.238   0.000  1.00  0.00     0.000 OA
HETATM    8  N1  UNL     1       0.000  -0.000   0.000  1.00  0.00     0.000 N 
HETATM    9  C6  UNL     1       0.715  -0.412   0.000  1.00  0.00     0.000 A 
HETATM   10  C7  UNL     1       0.715  -1.238   0.000  1.00  0.00     0.000 A 
HETATM   11  C8  UNL     1       1.382  -1.722   0.000  1.00  0.00     0.006 A 
HETATM   12  N2  UNL     1       1.127  -2.507   0.000  1.00  0.00     0.000 N 
HETATM   13  N3  UNL     1       0.302  -2.507   0.000  1.00  0.00     0.000 N 
HETATM   14  N4  UNL     1       0.047  -1.722   0.000  1.00  0.00     0.000 N 
HETATM   15  C9  UNL     1       1.612  -3.175   0.000  1.00  0.00     0.080 A 
HETATM   16  C10 UNL     1       2.432  -3.088   0.000  1.00  0.00     0.086 A 
HETATM   17  C11 UNL     1       2.917  -3.756   0.000  1.00  0.00     0.211 A 
HETATM   18  C12 UNL     1       2.582  -4.509   0.000  1.00  0.00     0.211 A 
HETATM   19  C13 UNL     1       1.761  -4.596   0.000  1.00  0.00     0.111 A 
HETATM   20  C14 UNL     1       1.276  -3.928   0.000  1.00  0.00     0.086 A 
HETATM   21  S1  UNL     1       3.067  -5.177   0.000  1.00  0.00     0.037 SA
HETATM   22  O3  UNL     1       3.552  -5.844   0.000  1.00  0.00     0.000 OA
HETATM   23  O4  UNL     1       2.399  -5.662   0.000  1.00  0.00     0.000 OA
HETATM   24  N5  UNL     1       3.734  -4.692   0.000  1.00  0.00     0.173 N 
ENDROOT
TORSDOF 20
