REMARK  28 active torsions:
REMARK  status: ('A' for Active; 'I' for Inactive)
REMARK    1  A    between atoms: O1_3  and  C6_10 
REMARK    2  A    between atoms: O2_4  and  C1_5 
REMARK    3  A    between atoms: O2_4  and  C2_6 
REMARK    4  A    between atoms: C1_5  and  C4_8 
REMARK    5  A    between atoms: C1_5  and  C5_9 
REMARK    6  A    between atoms: C2_6  and  C5_9 
REMARK    7  A    between atoms: C2_6  and  C6_10 
REMARK    8  A    between atoms: C3_7  and  C6_10 
REMARK    9  A    between atoms: C3_7  and  C7_12 
REMARK   10  A    between atoms: C4_8  and  C6_10 
REMARK   11  A    between atoms: C5_9  and  C6_10 
REMARK   12  A    between atoms: C5_9  and  N2_11 
REMARK   13  A    between atoms: N2_11  and  O4_23 
REMARK   14  A    between atoms: C8_13  and  C10_16 
REMARK   15  A    between atoms: C8_13  and  C15_21 
REMARK   16  A    between atoms: C9_14  and  C15_21 
REMARK   17  A    between atoms: C9_14  and  C16_22 
REMARK   18  A    between atoms: C10_16  and  C13_19 
REMARK   19  A    between atoms: C10_16  and  C14_20 
REMARK   20  A    between atoms: C10_16  and  C16_22 
REMARK   21  A    between atoms: C11_17  and  C14_20 
REMARK   22  A    between atoms: C11_17  and  C15_21 
REMARK   23  A    between atoms: C12_18  and  C15_21 
REMARK   24  A    between atoms: C13_19  and  C15_21 
REMARK   25  A    between atoms: C14_20  and  C15_21 
REMARK   26  A    between atoms: C14_20  and  C16_22 
REMARK   27  A    between atoms: C15_21  and  C16_22 
REMARK   28  A    between atoms: C15_21  and  O4_23 
ROOT
HETATM    1  N1  UNL     1      -3.572  -4.537   0.000  1.00  0.00    -0.082 NA
HETATM    2  S1  UNL     1      -2.858  -4.125   0.000  1.00  0.00    -0.128 SA
HETATM    3  O1  UNL     1      -2.445  -4.840   0.000  1.00  0.00     0.000 OA
HETATM    4  O2  UNL     1      -3.270  -3.410   0.000  1.00  0.00     0.000 OA
HETATM    5  C1  UNL     1      -2.143  -3.712   0.000  1.00  0.00     0.043 A 
HETATM    6  C2  UNL     1      -2.143  -2.888   0.000  1.00  0.00     0.043 A 
HETATM    7  C3  UNL     1      -1.429  -2.475   0.000  1.00  0.00     0.025 A 
HETATM    8  C4  UNL     1      -0.715  -2.888   0.000  1.00  0.00     0.025 A 
HETATM    9  C5  UNL     1      -0.715  -3.712   0.000  1.00  0.00     0.027 A 
HETATM   10  C6  UNL     1      -1.429  -4.125   0.000  1.00  0.00     0.043 A 
HETATM   11  N2  UNL     1       0.000  -2.475   0.000  1.00  0.00     0.000 N 
HETATM   12  C7  UNL     1       0.000  -1.650   0.000  1.00  0.00     0.004 A 
HETATM   13  C8  UNL     1       0.715  -1.238   0.000  1.00  0.00     0.000 A 
HETATM   14  C9  UNL     1       0.715  -0.412   0.000  1.00  0.00     0.000 A 
HETATM   15  O3  UNL     1       1.429   0.000   0.000  1.00  0.00     0.000 OA
HETATM   16  C10 UNL     1       2.143  -0.412   0.000  1.00  0.00     0.000 A 
HETATM   17  C11 UNL     1       2.858   0.000   0.000  1.00  0.00     0.000 A 
HETATM   18  C12 UNL     1       3.572  -0.412   0.000  1.00  0.00     0.000 A 
HETATM   19  C13 UNL     1       3.572  -1.238   0.000  1.00  0.00     0.000 A 
HETATM   20  C14 UNL     1       2.858  -1.650   0.000  1.00  0.00     0.000 A 
HETATM   21  C15 UNL     1       2.143  -1.238   0.000  1.00  0.00     0.000 A 
HETATM   22  C16 UNL     1       1.429  -1.650   0.000  1.00  0.00     0.000 A 
HETATM   23  O4  UNL     1       1.429  -2.475   0.000  1.00  0.00     0.000 OA
ENDROOT
TORSDOF 28
