REMARK WARNING: 32 MAX_TORS EXCEEDED!!!
REMARK  35 active torsions:
REMARK  status: ('A' for Active; 'I' for Inactive)
REMARK    1  A    between atoms: C2_2  and  C5_5 
REMARK    2  A    between atoms: C2_2  and  C6_6 
REMARK    3  A    between atoms: C3_3  and  C6_6 
REMARK    4  A    between atoms: C3_3  and  C7_7 
REMARK    5  A    between atoms: C4_4  and  C7_7 
REMARK    6  A    between atoms: C5_5  and  C7_7 
REMARK    7  A    between atoms: C6_6  and  C7_7 
REMARK    8  A    between atoms: C6_6  and  C8_8 
REMARK    9  A    between atoms: C6_6  and  C11_13 
REMARK   10  A    between atoms: C6_6  and  N4_21 
REMARK   11  A    between atoms: C8_8  and  C9_11 
REMARK   12  A    between atoms: N1_9  and  C10_12 
REMARK   13  A    between atoms: N2_10  and  C10_12 
REMARK   14  A    between atoms: C9_11  and  C10_12 
REMARK   15  A    between atoms: C9_11  and  C11_13 
REMARK   16  A    between atoms: C9_11  and  C18_22 
REMARK   17  A    between atoms: C11_13  and  C17_20 
REMARK   18  A    between atoms: N3_14  and  N4_21 
REMARK   19  A    between atoms: C12_15  and  C15_18 
REMARK   20  A    between atoms: C12_15  and  C16_19 
REMARK   21  A    between atoms: C12_15  and  N4_21 
REMARK   22  A    between atoms: C13_16  and  C16_19 
REMARK   23  A    between atoms: C13_16  and  C17_20 
REMARK   24  A    between atoms: C14_17  and  C17_20 
REMARK   25  A    between atoms: C15_18  and  C17_20 
REMARK   26  A    between atoms: C16_19  and  C17_20 
REMARK   27  A    between atoms: C16_19  and  N4_21 
REMARK   28  A    between atoms: C17_20  and  N4_21 
REMARK   29  A    between atoms: C18_22  and  C21_25 
REMARK   30  A    between atoms: C18_22  and  C22_26 
REMARK   31  A    between atoms: C19_23  and  C22_26 
REMARK   32  A    between atoms: C19_23  and  C23_27 
REMARK   33  A    between atoms: C20_24  and  C23_27 
REMARK   34  A    between atoms: C21_25  and  C23_27 
REMARK   35  A    between atoms: C22_26  and  C23_27 
ROOT
HETATM    1  C1  UNL     1       0.364  -4.504   0.000  1.00  0.00     0.000 A 
HETATM    2  C2  UNL     1       0.109  -3.719   0.000  1.00  0.00     0.000 A 
HETATM    3  C3  UNL     1      -0.698  -3.548   0.000  1.00  0.00     0.000 A 
HETATM    4  C4  UNL     1      -0.953  -2.763   0.000  1.00  0.00     0.000 A 
HETATM    5  C5  UNL     1      -0.401  -2.150   0.000  1.00  0.00     0.000 A 
HETATM    6  C6  UNL     1       0.406  -2.321   0.000  1.00  0.00     0.000 A 
HETATM    7  C7  UNL     1       0.661  -3.106   0.000  1.00  0.00     0.000 A 
HETATM    8  C8  UNL     1      -0.656  -1.365   0.000  1.00  0.00     0.000 A 
HETATM    9  N1  UNL     1      -1.441  -1.110   0.000  1.00  0.00     0.000 N 
HETATM   10  N2  UNL     1      -1.441  -0.285   0.000  1.00  0.00     0.000 N 
HETATM   11  C9  UNL     1      -0.656  -0.030   0.000  1.00  0.00     0.000 A 
HETATM   12  C10 UNL     1      -0.171  -0.698   0.000  1.00  0.00     0.000 A 
HETATM   13  C11 UNL     1       0.654  -0.698   0.000  1.00  0.00     0.000 A 
HETATM   14  N3  UNL     1       1.139  -0.030   0.000  1.00  0.00     0.000 N 
HETATM   15  C12 UNL     1       1.923  -0.285   0.000  1.00  0.00     0.000 A 
HETATM   16  C13 UNL     1       2.638   0.127   0.000  1.00  0.00     0.000 A 
HETATM   17  C14 UNL     1       3.352  -0.285   0.000  1.00  0.00     0.000 A 
HETATM   18  C15 UNL     1       3.352  -1.110   0.000  1.00  0.00     0.000 A 
HETATM   19  C16 UNL     1       2.638  -1.523   0.000  1.00  0.00     0.000 A 
HETATM   20  C17 UNL     1       1.923  -1.110   0.000  1.00  0.00     0.000 A 
HETATM   21  N4  UNL     1       1.139  -1.365   0.000  1.00  0.00     0.000 N 
HETATM   22  C18 UNL     1      -2.108   0.200   0.000  1.00  0.00     0.000 A 
HETATM   23  C19 UNL     1      -2.862  -0.136   0.000  1.00  0.00     0.000 A 
HETATM   24  C20 UNL     1      -3.529   0.349   0.000  1.00  0.00     0.000 A 
HETATM   25  C21 UNL     1      -3.443   1.169   0.000  1.00  0.00     0.000 A 
HETATM   26  C22 UNL     1      -2.689   1.505   0.000  1.00  0.00     0.000 A 
HETATM   27  C23 UNL     1      -2.022   1.020   0.000  1.00  0.00     0.000 A 
ENDROOT
TORSDOF 35
