REMARK WARNING: 32 MAX_TORS EXCEEDED!!!
REMARK  33 active torsions:
REMARK  status: ('A' for Active; 'I' for Inactive)
REMARK    1  A    between atoms: C3_3  and  C5_6 
REMARK    2  A    between atoms: C3_3  and  F1_7 
REMARK    3  A    between atoms: S1_4  and  F1_7 
REMARK    4  A    between atoms: S1_4  and  F3_22 
REMARK    5  A    between atoms: C4_5  and  C7_10 
REMARK    6  A    between atoms: C4_5  and  C8_11 
REMARK    7  A    between atoms: C5_6  and  C8_11 
REMARK    8  A    between atoms: C5_6  and  C17_21 
REMARK    9  A    between atoms: F1_7  and  C6_8 
REMARK   10  A    between atoms: C6_8  and  C17_21 
REMARK   11  A    between atoms: C6_8  and  N2_26 
REMARK   12  A    between atoms: F2_9  and  C7_10 
REMARK   13  A    between atoms: F2_9  and  S2_23 
REMARK   14  A    between atoms: F2_9  and  N2_26 
REMARK   15  A    between atoms: C7_10  and  C17_21 
REMARK   16  A    between atoms: C8_11  and  C17_21 
REMARK   17  A    between atoms: C8_11  and  C16_20 
REMARK   18  A    between atoms: C8_11  and  F3_22 
REMARK   19  A    between atoms: C8_11  and  S2_23 
REMARK   20  A    between atoms: C8_11  and  O2_25 
REMARK   21  A    between atoms: N1_12  and  C17_21 
REMARK   22  A    between atoms: N1_12  and  S2_23 
REMARK   23  A    between atoms: N1_12  and  O2_25 
REMARK   24  A    between atoms: C9_13  and  C15_19 
REMARK   25  A    between atoms: C9_13  and  C17_21 
REMARK   26  A    between atoms: C9_13  and  F3_22 
REMARK   27  A    between atoms: C10_14  and  C16_20 
REMARK   28  A    between atoms: C14_18  and  C16_20 
REMARK   29  A    between atoms: C15_19  and  C16_20 
REMARK   30  A    between atoms: C15_19  and  F3_22 
REMARK   31  A    between atoms: C16_20  and  C17_21 
REMARK   32  A    between atoms: C16_20  and  F3_22 
REMARK   33  A    between atoms: O1_24  and  N2_26 
ROOT
HETATM    1  C1  UNL     1       2.701   0.645   0.000  1.00  0.00     0.002 A 
HETATM    2  C2  UNL     1       1.987   0.233   0.000  1.00  0.00     0.115 A 
HETATM    3  C3  UNL     1       1.987  -0.592   0.000  1.00  0.00     0.151 A 
HETATM    4  S1  UNL     1       1.272  -1.005   0.000  1.00  0.00    -0.110 SA
HETATM    5  C4  UNL     1       1.272  -1.830   0.000  1.00  0.00     0.148 A 
HETATM    6  C5  UNL     1       1.987  -2.242   0.000  1.00  0.00     0.166 A 
HETATM    7  F1  UNL     1       2.701  -1.830   0.000  1.00  0.00    -0.495 F 
HETATM    8  C6  UNL     1       1.987  -3.067   0.000  1.00  0.00     0.177 A 
HETATM    9  F2  UNL     1       2.701  -3.480   0.000  1.00  0.00    -0.457 F 
HETATM   10  C7  UNL     1       1.272  -3.480   0.000  1.00  0.00     0.207 A 
HETATM   11  C8  UNL     1       0.558  -3.067   0.000  1.00  0.00     0.162 A 
HETATM   12  N1  UNL     1      -0.157  -3.480   0.000  1.00  0.00     0.000 N 
HETATM   13  C9  UNL     1      -0.871  -3.067   0.000  1.00  0.00     0.080 A 
HETATM   14  C10 UNL     1      -1.526  -3.569   0.000  1.00  0.00     0.046 A 
HETATM   15  C11 UNL     1      -2.344  -3.462   0.000  1.00  0.00     0.029 A 
HETATM   16  C12 UNL     1      -2.846  -2.807   0.000  1.00  0.00     0.013 A 
HETATM   17  C13 UNL     1      -2.738  -1.989   0.000  1.00  0.00     0.026 A 
HETATM   18  C14 UNL     1      -2.084  -1.487   0.000  1.00  0.00     0.043 A 
HETATM   19  C15 UNL     1      -1.266  -1.595   0.000  1.00  0.00     0.052 A 
HETATM   20  C16 UNL     1      -0.764  -2.249   0.000  1.00  0.00     0.082 A 
HETATM   21  C17 UNL     1       0.558  -2.242   0.000  1.00  0.00     0.157 A 
HETATM   22  F3  UNL     1      -0.157  -1.830   0.000  1.00  0.00    -0.555 F 
HETATM   23  S2  UNL     1       1.272  -4.305   0.000  1.00  0.00    -0.041 SA
HETATM   24  O1  UNL     1       1.272  -5.130   0.000  1.00  0.00     0.000 OA
HETATM   25  O2  UNL     1       0.447  -4.305   0.000  1.00  0.00     0.000 OA
HETATM   26  N2  UNL     1       2.097  -4.305   0.000  1.00  0.00     0.000 N 
ENDROOT
TORSDOF 33
