REMARK  9 active torsions:
REMARK  status: ('A' for Active; 'I' for Inactive)
REMARK    1  A    between atoms: C2_4  and  C5_7 
REMARK    2  A    between atoms: C2_4  and  C6_9 
REMARK    3  A    between atoms: C3_5  and  C6_9 
REMARK    4  A    between atoms: C3_5  and  C7_11 
REMARK    5  A    between atoms: C4_6  and  C7_11 
REMARK    6  A    between atoms: C5_7  and  C7_11 
REMARK    7  A    between atoms: O3_8  and  C6_9 
REMARK    8  A    between atoms: C6_9  and  C7_11 
REMARK    9  A    between atoms: O4_10  and  C7_11 
ROOT
HETATM    1  O1  UNL     1       0.000   2.475   0.000  1.00  0.00    -0.327 OA
HETATM    2  C1  UNL     1       0.715   2.062   0.000  1.00  0.00     0.187 A 
HETATM    3  O2  UNL     1       1.429   2.475   0.000  1.00  0.00    -0.327 OA
HETATM    4  C2  UNL     1       0.715   1.238   0.000  1.00  0.00     0.117 A 
HETATM    5  C3  UNL     1       1.429   0.825   0.000  1.00  0.00     0.088 A 
HETATM    6  C4  UNL     1       1.429  -0.000   0.000  1.00  0.00     0.058 A 
HETATM    7  C5  UNL     1       0.715  -0.412   0.000  1.00  0.00     0.058 A 
HETATM    8  O3  UNL     1       0.715  -1.238   0.000  1.00  0.00     0.000 OA
HETATM    9  C6  UNL     1       0.000   0.000   0.000  1.00  0.00     0.058 A 
HETATM   10  O4  UNL     1      -0.715  -0.412   0.000  1.00  0.00     0.000 OA
HETATM   11  C7  UNL     1       0.000   0.825   0.000  1.00  0.00     0.088 A 
ENDROOT
TORSDOF 9
