REMARK WARNING: 32 MAX_TORS EXCEEDED!!!
REMARK  34 active torsions:
REMARK  status: ('A' for Active; 'I' for Inactive)
REMARK    1  A    between atoms: O1_3  and  C6_10 
REMARK    2  A    between atoms: O2_4  and  C1_5 
REMARK    3  A    between atoms: O2_4  and  C2_6 
REMARK    4  A    between atoms: C1_5  and  C4_8 
REMARK    5  A    between atoms: C1_5  and  C5_9 
REMARK    6  A    between atoms: C2_6  and  C5_9 
REMARK    7  A    between atoms: C2_6  and  C6_10 
REMARK    8  A    between atoms: C3_7  and  C6_10 
REMARK    9  A    between atoms: C4_8  and  C6_10 
REMARK   10  A    between atoms: C5_9  and  C6_10 
REMARK   11  A    between atoms: C5_9  and  N2_11 
REMARK   12  A    between atoms: N2_11  and  C15_21 
REMARK   13  A    between atoms: C7_12  and  C16_22 
REMARK   14  A    between atoms: C8_13  and  C16_22 
REMARK   15  A    between atoms: C9_14  and  C12_17 
REMARK   16  A    between atoms: C9_14  and  C13_19 
REMARK   17  A    between atoms: C9_14  and  C15_21 
REMARK   18  A    between atoms: C10_15  and  C13_19 
REMARK   19  A    between atoms: C10_15  and  C14_20 
REMARK   20  A    between atoms: C10_15  and  N7_28 
REMARK   21  A    between atoms: C11_16  and  C14_20 
REMARK   22  A    between atoms: C12_17  and  C14_20 
REMARK   23  A    between atoms: BR1_18  and  C13_19 
REMARK   24  A    between atoms: C13_19  and  C14_20 
REMARK   25  A    between atoms: C15_21  and  C17_24 
REMARK   26  A    between atoms: C15_21  and  N4_25 
REMARK   27  A    between atoms: C15_21  and  N7_28 
REMARK   28  A    between atoms: C16_22  and  C18_29 
REMARK   29  A    between atoms: C17_24  and  C18_29 
REMARK   30  A    between atoms: N4_25  and  C18_29 
REMARK   31  A    between atoms: N4_25  and  N7_28 
REMARK   32  A    between atoms: N5_26  and  C18_29 
REMARK   33  A    between atoms: N6_27  and  C18_29 
REMARK   34  A    between atoms: N7_28  and  C18_29 
ROOT
HETATM    1  N1  UNL     1       7.805  -2.817   0.000  1.00  0.00    -0.082 NA
HETATM    2  S1  UNL     1       7.191  -2.265   0.000  1.00  0.00    -0.128 SA
HETATM    3  O1  UNL     1       7.744  -1.652   0.000  1.00  0.00     0.000 OA
HETATM    4  O2  UNL     1       6.639  -2.878   0.000  1.00  0.00     0.000 OA
HETATM    5  C1  UNL     1       6.578  -1.713   0.000  1.00  0.00     0.044 A 
HETATM    6  C2  UNL     1       5.794  -1.968   0.000  1.00  0.00     0.044 A 
HETATM    7  C3  UNL     1       5.181  -1.416   0.000  1.00  0.00     0.029 A 
HETATM    8  C4  UNL     1       5.352  -0.609   0.000  1.00  0.00     0.050 A 
HETATM    9  C5  UNL     1       6.137  -0.354   0.000  1.00  0.00     0.029 A 
HETATM   10  C6  UNL     1       6.750  -0.906   0.000  1.00  0.00     0.044 A 
HETATM   11  N2  UNL     1       4.739  -0.057   0.000  1.00  0.00     0.000 N 
HETATM   12  C7  UNL     1       4.825   0.763   0.000  1.00  0.00     0.066 A 
HETATM   13  C8  UNL     1       4.072   1.099   0.000  1.00  0.00     0.089 A 
HETATM   14  C9  UNL     1       3.900   1.906   0.000  1.00  0.00     0.050 A 
HETATM   15  C10 UNL     1       3.115   2.161   0.000  1.00  0.00     0.030 A 
HETATM   16  C11 UNL     1       2.944   2.968   0.000  1.00  0.00     0.038 A 
HETATM   17  C12 UNL     1       3.557   3.520   0.000  1.00  0.00     0.038 A 
HETATM   18 BR1  UNL     1       3.386   4.327   0.000  1.00  0.00    -0.185 Br
HETATM   19  C13 UNL     1       4.342   3.265   0.000  1.00  0.00     0.038 A 
HETATM   20  C14 UNL     1       4.513   2.458   0.000  1.00  0.00     0.030 A 
HETATM   21  C15 UNL     1       3.520   0.486   0.000  1.00  0.00     0.213 A 
HETATM   22  C16 UNL     1       3.932  -0.229   0.000  1.00  0.00     0.213 A 
HETATM   23  N3  UNL     1       3.520  -0.943   0.000  1.00  0.00     0.132 N 
HETATM   24  C17 UNL     1       2.695  -0.943   0.000  1.00  0.00     0.278 A 
HETATM   25  N4  UNL     1       2.282  -0.229   0.000  1.00  0.00     0.000 N 
HETATM   26  N5  UNL     1       1.475  -0.057   0.000  1.00  0.00     0.000 N 
HETATM   27  N6  UNL     1       1.389   0.763   0.000  1.00  0.00     0.618 N 
HETATM   28  N7  UNL     1       2.143   1.099   0.000  1.00  0.00     0.000 N 
HETATM   29  C18 UNL     1       2.695   0.486   0.000  1.00  0.00     0.321 A 
ENDROOT
TORSDOF 34
