REMARK WARNING: 32 MAX_TORS EXCEEDED!!!
REMARK  46 active torsions:
REMARK  status: ('A' for Active; 'I' for Inactive)
REMARK    1  A    between atoms: C2_2  and  C5_5 
REMARK    2  A    between atoms: C2_2  and  C6_6 
REMARK    3  A    between atoms: C3_3  and  C6_6 
REMARK    4  A    between atoms: C3_3  and  C7_7 
REMARK    5  A    between atoms: C4_4  and  C7_7 
REMARK    6  A    between atoms: C4_4  and  C8_9 
REMARK    7  A    between atoms: C4_4  and  S1_10 
REMARK    8  A    between atoms: C5_5  and  C7_7 
REMARK    9  A    between atoms: C5_5  and  S1_10 
REMARK   10  A    between atoms: C6_6  and  C7_7 
REMARK   11  A    between atoms: C6_6  and  N1_8 
REMARK   12  A    between atoms: C6_6  and  C11_14 
REMARK   13  A    between atoms: C6_6  and  N3_15 
REMARK   14  A    between atoms: N1_8  and  C10_13 
REMARK   15  A    between atoms: C8_9  and  C10_13 
REMARK   16  A    between atoms: C8_9  and  C11_14 
REMARK   17  A    between atoms: S1_10  and  N2_11 
REMARK   18  A    between atoms: C9_12  and  C11_14 
REMARK   19  A    between atoms: C9_12  and  C13_17 
REMARK   20  A    between atoms: C10_13  and  C11_14 
REMARK   21  A    between atoms: C10_13  and  N3_15 
REMARK   22  A    between atoms: C11_14  and  C12_16 
REMARK   23  A    between atoms: N3_15  and  C25_35 
REMARK   24  A    between atoms: C12_16  and  N4_18 
REMARK   25  A    between atoms: C13_17  and  N4_18 
REMARK   26  A    between atoms: C13_17  and  C14_19 
REMARK   27  A    between atoms: C13_17  and  C20_29 
REMARK   28  A    between atoms: C14_19  and  C17_22 
REMARK   29  A    between atoms: C14_19  and  C18_23 
REMARK   30  A    between atoms: C15_20  and  C18_23 
REMARK   31  A    between atoms: C15_20  and  C19_24 
REMARK   32  A    between atoms: C16_21  and  C19_24 
REMARK   33  A    between atoms: C16_21  and  N5_28 
REMARK   34  A    between atoms: C17_22  and  C19_24 
REMARK   35  A    between atoms: C18_23  and  C19_24 
REMARK   36  A    between atoms: C18_23  and  S2_25 
REMARK   37  A    between atoms: C18_23  and  O2_27 
REMARK   38  A    between atoms: O1_26  and  N5_28 
REMARK   39  A    between atoms: C20_29  and  C23_32 
REMARK   40  A    between atoms: C20_29  and  C24_34 
REMARK   41  A    between atoms: C21_30  and  C24_34 
REMARK   42  A    between atoms: C21_30  and  C25_35 
REMARK   43  A    between atoms: C22_31  and  C25_35 
REMARK   44  A    between atoms: C23_32  and  C25_35 
REMARK   45  A    between atoms: BR1_33  and  C24_34 
REMARK   46  A    between atoms: C24_34  and  C25_35 
ROOT
HETATM    1  C1  UNL     1       6.210   3.585   0.000  1.00  0.00     0.004 A 
HETATM    2  C2  UNL     1       5.496   3.173   0.000  1.00  0.00     0.015 A 
HETATM    3  C3  UNL     1       5.496   2.348   0.000  1.00  0.00     0.015 A 
HETATM    4  C4  UNL     1       4.781   1.935   0.000  1.00  0.00     0.027 A 
HETATM    5  C5  UNL     1       4.067   2.348   0.000  1.00  0.00     0.024 A 
HETATM    6  C6  UNL     1       4.067   3.173   0.000  1.00  0.00     0.016 A 
HETATM    7  C7  UNL     1       4.781   3.585   0.000  1.00  0.00     0.015 A 
HETATM    8  N1  UNL     1       3.352   1.935   0.000  1.00  0.00     0.000 N 
HETATM    9  C8  UNL     1       3.352   1.110   0.000  1.00  0.00     0.030 A 
HETATM   10  S1  UNL     1       4.067   0.698   0.000  1.00  0.00    -0.186 SA
HETATM   11  N2  UNL     1       2.638   0.698   0.000  1.00  0.00     0.000 N 
HETATM   12  C9  UNL     1       1.923   1.110   0.000  1.00  0.00     0.014 A 
HETATM   13  C10 UNL     1       1.923   1.935   0.000  1.00  0.00     0.011 A 
HETATM   14  C11 UNL     1       2.638   2.348   0.000  1.00  0.00     0.015 A 
HETATM   15  N3  UNL     1       2.638   3.173   0.000  1.00  0.00     0.000 N 
HETATM   16  C12 UNL     1       1.139   2.190   0.000  1.00  0.00     0.009 A 
HETATM   17  C13 UNL     1       0.654   1.523   0.000  1.00  0.00     0.009 A 
HETATM   18  N4  UNL     1       1.139   0.856   0.000  1.00  0.00     0.000 N 
HETATM   19  C14 UNL     1       0.884   0.071   0.000  1.00  0.00     0.076 A 
HETATM   20  C15 UNL     1       1.436  -0.542   0.000  1.00  0.00     0.085 A 
HETATM   21  C16 UNL     1       1.181  -1.327   0.000  1.00  0.00     0.210 A 
HETATM   22  C17 UNL     1       0.374  -1.498   0.000  1.00  0.00     0.210 A 
HETATM   23  C18 UNL     1      -0.178  -0.885   0.000  1.00  0.00     0.110 A 
HETATM   24  C19 UNL     1       0.077  -0.101   0.000  1.00  0.00     0.085 A 
HETATM   25  S2  UNL     1       0.119  -2.283   0.000  1.00  0.00     0.037 SA
HETATM   26  O1  UNL     1      -0.136  -3.068   0.000  1.00  0.00     0.000 OA
HETATM   27  O2  UNL     1      -0.666  -2.028   0.000  1.00  0.00     0.000 OA
HETATM   28  N5  UNL     1       0.904  -2.538   0.000  1.00  0.00     0.173 N 
HETATM   29  C20 UNL     1       0.884   2.975   0.000  1.00  0.00     0.021 A 
HETATM   30  C21 UNL     1       0.077   3.147   0.000  1.00  0.00     0.024 A 
HETATM   31  C22 UNL     1      -0.178   3.931   0.000  1.00  0.00     0.036 A 
HETATM   32  C23 UNL     1       0.374   4.544   0.000  1.00  0.00     0.036 A 
HETATM   33 BR1  UNL     1       0.119   5.329   0.000  1.00  0.00    -0.185 Br
HETATM   34  C24 UNL     1       1.181   4.373   0.000  1.00  0.00     0.036 A 
HETATM   35  C25 UNL     1       1.436   3.588   0.000  1.00  0.00     0.024 A 
ENDROOT
TORSDOF 46
