REMARK WARNING: 32 MAX_TORS EXCEEDED!!!
REMARK  50 active torsions:
REMARK  status: ('A' for Active; 'I' for Inactive)
REMARK    1  A    between atoms: C3_3  and  C4_4 
REMARK    2  A    between atoms: C3_3  and  C5_5 
REMARK    3  A    between atoms: C3_3  and  C23_32 
REMARK    4  A    between atoms: C4_4  and  C5_5 
REMARK    5  A    between atoms: C4_4  and  C6_6 
REMARK    6  A    between atoms: C5_5  and  C21_30 
REMARK    7  A    between atoms: C5_5  and  C22_31 
REMARK    8  A    between atoms: C6_6  and  C22_31 
REMARK    9  A    between atoms: C6_6  and  C23_32 
REMARK   10  A    between atoms: C6_6  and  CL1_37 
REMARK   11  A    between atoms: C7_7  and  C20_27 
REMARK   12  A    between atoms: C7_7  and  O4_29 
REMARK   13  A    between atoms: C7_7  and  C23_32 
REMARK   14  A    between atoms: C8_8  and  C21_30 
REMARK   15  A    between atoms: C9_9  and  C21_30 
REMARK   16  A    between atoms: C9_9  and  CL1_37 
REMARK   17  A    between atoms: C10_10  and  C16_17 
REMARK   18  A    between atoms: C10_10  and  C20_27 
REMARK   19  A    between atoms: C10_10  and  CL1_37 
REMARK   20  A    between atoms: N1_11  and  CL1_37 
REMARK   21  A    between atoms: C11_12  and  C14_15 
REMARK   22  A    between atoms: C11_12  and  C15_16 
REMARK   23  A    between atoms: C12_13  and  C15_16 
REMARK   24  A    between atoms: C12_13  and  C16_17 
REMARK   25  A    between atoms: C13_14  and  C16_17 
REMARK   26  A    between atoms: C13_14  and  O2_20 
REMARK   27  A    between atoms: C14_15  and  C16_17 
REMARK   28  A    between atoms: C15_16  and  C16_17 
REMARK   29  A    between atoms: C15_16  and  S1_18 
REMARK   30  A    between atoms: C15_16  and  O1_19 
REMARK   31  A    between atoms: S1_18  and  S2_26 
REMARK   32  A    between atoms: O1_19  and  C17_22 
REMARK   33  A    between atoms: O1_19  and  S2_26 
REMARK   34  A    between atoms: O2_20  and  N2_21 
REMARK   35  A    between atoms: C17_22  and  C19_25 
REMARK   36  A    between atoms: N3_23  and  S2_26 
REMARK   37  A    between atoms: C18_24  and  S2_26 
REMARK   38  A    between atoms: C19_25  and  S2_26 
REMARK   39  A    between atoms: C20_27  and  C21_30 
REMARK   40  A    between atoms: O4_29  and  C21_30 
REMARK   41  A    between atoms: O4_29  and  C22_31 
REMARK   42  A    between atoms: O4_29  and  C27_36 
REMARK   43  A    between atoms: C21_30  and  C23_32 
REMARK   44  A    between atoms: C21_30  and  C27_36 
REMARK   45  A    between atoms: C22_31  and  C23_32 
REMARK   46  A    between atoms: C23_32  and  C24_33 
REMARK   47  A    between atoms: C23_32  and  C26_35 
REMARK   48  A    between atoms: C25_34  and  C26_35 
REMARK   49  A    between atoms: C25_34  and  C27_36 
REMARK   50  A    between atoms: C26_35  and  C27_36 
ROOT
HETATM    1  C1  UNL     1      -0.715   0.412   0.000  1.00  0.00     0.004 A 
HETATM    2  C2  UNL     1       0.000   0.000   0.000  1.00  0.00     0.011 A 
HETATM    3  C3  UNL     1      -0.412  -0.715   0.000  1.00  0.00     0.006 A 
HETATM    4  C4  UNL     1       0.412   0.715   0.000  1.00  0.00     0.010 A 
HETATM    5  C5  UNL     1       0.715  -0.412   0.000  1.00  0.00     0.022 A 
HETATM    6  C6  UNL     1       1.429   0.000   0.000  1.00  0.00     0.027 A 
HETATM    7  C7  UNL     1       2.143  -0.412   0.000  1.00  0.00     0.055 A 
HETATM    8  C8  UNL     1       2.858   0.000   0.000  1.00  0.00     0.075 A 
HETATM    9  C9  UNL     1       3.572  -0.412   0.000  1.00  0.00     0.097 A 
HETATM   10  C10 UNL     1       4.287  -0.000   0.000  1.00  0.00     0.072 A 
HETATM   11  N1  UNL     1       4.287   0.825   0.000  1.00  0.00     0.000 N 
HETATM   12  C11 UNL     1       5.001   1.238   0.000  1.00  0.00     0.034 A 
HETATM   13  C12 UNL     1       5.001   2.062   0.000  1.00  0.00     0.026 A 
HETATM   14  C13 UNL     1       5.716   2.475   0.000  1.00  0.00     0.032 A 
HETATM   15  C14 UNL     1       6.430   2.062   0.000  1.00  0.00     0.032 A 
HETATM   16  C15 UNL     1       6.430   1.238   0.000  1.00  0.00     0.032 A 
HETATM   17  C16 UNL     1       5.716   0.825   0.000  1.00  0.00     0.034 A 
HETATM   18  S1  UNL     1       7.145   2.475   0.000  1.00  0.00    -0.196 SA
HETATM   19  O1  UNL     1       7.557   1.760   0.000  1.00  0.00     0.000 OA
HETATM   20  O2  UNL     1       6.732   3.189   0.000  1.00  0.00     0.000 OA
HETATM   21  N2  UNL     1       7.859   2.888   0.000  1.00  0.00     0.000 N 
HETATM   22  C17 UNL     1       8.574   2.475   0.000  1.00  0.00     0.075 A 
HETATM   23  N3  UNL     1       9.327   2.811   0.000  1.00  0.00     0.000 N 
HETATM   24  C18 UNL     1       9.879   2.197   0.000  1.00  0.00     0.067 A 
HETATM   25  C19 UNL     1       9.467   1.483   0.000  1.00  0.00     0.067 A 
HETATM   26  S2  UNL     1       8.660   1.655   0.000  1.00  0.00    -0.175 SA
HETATM   27  C20 UNL     1       3.572  -1.238   0.000  1.00  0.00     0.112 A 
HETATM   28  O3  UNL     1       4.287  -1.650   0.000  1.00  0.00    -0.355 OA
HETATM   29  O4  UNL     1       2.858  -1.650   0.000  1.00  0.00     0.000 OA
HETATM   30  C21 UNL     1       2.143  -1.238   0.000  1.00  0.00     0.052 A 
HETATM   31  C22 UNL     1       1.429  -1.650   0.000  1.00  0.00     0.021 A 
HETATM   32  C23 UNL     1       0.715  -1.238   0.000  1.00  0.00     0.021 A 
HETATM   33  C24 UNL     1       1.429  -2.475   0.000  1.00  0.00     0.010 A 
HETATM   34  C25 UNL     1       1.429  -3.300   0.000  1.00  0.00     0.003 C 
HETATM   35  C26 UNL     1       0.604  -2.475   0.000  1.00  0.00     0.005 A 
HETATM   36  C27 UNL     1       2.254  -2.475   0.000  1.00  0.00     0.009 A 
HETATM   37 CL1  UNL     1       2.858   0.825   0.000  1.00  0.00    -0.284 Cl
ENDROOT
TORSDOF 50
