REMARK  2 active torsions:
REMARK  status: ('A' for Active; 'I' for Inactive)
REMARK    1  A    between atoms: C11_11  and  N1_16 
REMARK    2  A    between atoms: O2_14  and  N1_16 
ROOT
HETATM    1  C1  UNL     1       4.236   3.270   0.000  1.00  0.00     0.000 A 
HETATM    2  C2  UNL     1       4.950   2.858   0.000  1.00  0.00     0.000 A 
HETATM    3  C3  UNL     1       5.665   3.270   0.000  1.00  0.00     0.000 A 
HETATM    4  C4  UNL     1       6.379   2.858   0.000  1.00  0.00     0.000 A 
HETATM    5  C5  UNL     1       7.093   3.270   0.000  1.00  0.00     0.000 A 
HETATM    6  C6  UNL     1       7.808   2.858   0.000  1.00  0.00     0.000 A 
HETATM    7  C7  UNL     1       8.522   3.270   0.000  1.00  0.00     0.003 A 
HETATM    8  C8  UNL     1       9.237   2.858   0.000  1.00  0.00     0.006 A 
HETATM    9  C9  UNL     1       9.951   3.270   0.000  1.00  0.00     0.045 A 
HETATM   10  C10 UNL     1      10.666   2.858   0.000  1.00  0.00     0.048 A 
HETATM   11  C11 UNL     1      11.380   3.270   0.000  1.00  0.00     0.309 A 
HETATM   12  O1  UNL     1      12.095   2.858   0.000  1.00  0.00     0.000 OA
HETATM   13  S1  UNL     1      12.809   3.270   0.000  1.00  0.00     0.178 SA
HETATM   14  O2  UNL     1      13.524   3.683   0.000  1.00  0.00     0.000 OA
HETATM   15  O3  UNL     1      13.222   2.556   0.000  1.00  0.00     0.000 OA
HETATM   16  N1  UNL     1      12.397   3.985   0.000  1.00  0.00     0.411 N 
ENDROOT
TORSDOF 2
