REMARK  29 active torsions:
REMARK  status: ('A' for Active; 'I' for Inactive)
REMARK    1  A    between atoms: C1_1  and  C5_5 
REMARK    2  A    between atoms: C2_2  and  C10_10 
REMARK    3  A    between atoms: C2_2  and  C15_15 
REMARK    4  A    between atoms: C3_3  and  C4_4 
REMARK    5  A    between atoms: C3_3  and  C9_9 
REMARK    6  A    between atoms: C3_3  and  C10_10 
REMARK    7  A    between atoms: C3_3  and  C14_14 
REMARK    8  A    between atoms: C3_3  and  C15_15 
REMARK    9  A    between atoms: C4_4  and  C7_7 
REMARK   10  A    between atoms: C4_4  and  C8_8 
REMARK   11  A    between atoms: C4_4  and  C15_15 
REMARK   12  A    between atoms: C5_5  and  C8_8 
REMARK   13  A    between atoms: C5_5  and  C9_9 
REMARK   14  A    between atoms: C6_6  and  C9_9 
REMARK   15  A    between atoms: C7_7  and  C9_9 
REMARK   16  A    between atoms: C8_8  and  C9_9 
REMARK   17  A    between atoms: C8_8  and  C10_10 
REMARK   18  A    between atoms: C8_8  and  C11_11 
REMARK   19  A    between atoms: C10_10  and  C13_13 
REMARK   20  A    between atoms: C10_10  and  C14_14 
REMARK   21  A    between atoms: C11_11  and  C14_14 
REMARK   22  A    between atoms: C11_11  and  C15_15 
REMARK   23  A    between atoms: C12_12  and  C15_15 
REMARK   24  A    between atoms: C12_12  and  N1_19 
REMARK   25  A    between atoms: C13_13  and  C15_15 
REMARK   26  A    between atoms: C14_14  and  C15_15 
REMARK   27  A    between atoms: C14_14  and  S1_16 
REMARK   28  A    between atoms: C14_14  and  O2_18 
REMARK   29  A    between atoms: O1_17  and  N1_19 
ROOT
HETATM    1  C1  UNL     1       1.429  -0.000   0.000  1.00  0.00     0.002 A 
HETATM    2  C2  UNL     1       0.715  -0.412   0.000  1.00  0.00     0.011 A 
HETATM    3  C3  UNL     1       0.000   0.000   0.000  1.00  0.00     0.020 A 
HETATM    4  C4  UNL     1       0.715  -1.238   0.000  1.00  0.00     0.011 A 
HETATM    5  C5  UNL     1       1.429  -1.650   0.000  1.00  0.00     0.002 A 
HETATM    6  C6  UNL     1       1.429  -2.475   0.000  1.00  0.00     0.001 A 
HETATM    7  C7  UNL     1       0.715  -2.888   0.000  1.00  0.00     0.001 A 
HETATM    8  C8  UNL     1       0.000  -2.475   0.000  1.00  0.00     0.010 A 
HETATM    9  C9  UNL     1       0.000  -1.650   0.000  1.00  0.00     0.015 A 
HETATM   10  C10 UNL     1      -0.715  -1.238   0.000  1.00  0.00     0.062 A 
HETATM   11  C11 UNL     1      -1.429  -1.650   0.000  1.00  0.00     0.074 A 
HETATM   12  C12 UNL     1      -2.143  -1.238   0.000  1.00  0.00     0.208 A 
HETATM   13  C13 UNL     1      -2.143  -0.412   0.000  1.00  0.00     0.208 A 
HETATM   14  C14 UNL     1      -1.429  -0.000   0.000  1.00  0.00     0.100 A 
HETATM   15  C15 UNL     1      -0.715  -0.412   0.000  1.00  0.00     0.066 A 
HETATM   16  S1  UNL     1      -2.858   0.000   0.000  1.00  0.00     0.036 SA
HETATM   17  O1  UNL     1      -3.572   0.412   0.000  1.00  0.00     0.000 OA
HETATM   18  O2  UNL     1      -2.445   0.715   0.000  1.00  0.00     0.000 OA
HETATM   19  N1  UNL     1      -3.270  -0.715   0.000  1.00  0.00     0.173 N 
ENDROOT
TORSDOF 29
