REMARK WARNING: 32 MAX_TORS EXCEEDED!!!
REMARK  41 active torsions:
REMARK  status: ('A' for Active; 'I' for Inactive)
REMARK    1  A    between atoms: N1_1  and  O4_25 
REMARK    2  A    between atoms: S1_2  and  N2_11 
REMARK    3  A    between atoms: S1_2  and  C14_24 
REMARK    4  A    between atoms: S1_2  and  O4_25 
REMARK    5  A    between atoms: O1_3  and  C6_10 
REMARK    6  A    between atoms: O1_3  and  N2_11 
REMARK    7  A    between atoms: O1_3  and  C13_23 
REMARK    8  A    between atoms: O1_3  and  C14_24 
REMARK    9  A    between atoms: O1_3  and  O4_25 
REMARK   10  A    between atoms: O2_4  and  C1_5 
REMARK   11  A    between atoms: O2_4  and  C2_6 
REMARK   12  A    between atoms: C1_5  and  C4_8 
REMARK   13  A    between atoms: C1_5  and  C5_9 
REMARK   14  A    between atoms: C2_6  and  C5_9 
REMARK   15  A    between atoms: C2_6  and  C6_10 
REMARK   16  A    between atoms: C3_7  and  C6_10 
REMARK   17  A    between atoms: C4_8  and  C6_10 
REMARK   18  A    between atoms: C5_9  and  C6_10 
REMARK   19  A    between atoms: C5_9  and  N2_11 
REMARK   20  A    between atoms: N2_11  and  C13_23 
REMARK   21  A    between atoms: C7_12  and  BR1_16 
REMARK   22  A    between atoms: C7_12  and  C14_24 
REMARK   23  A    between atoms: O3_13  and  BR1_16 
REMARK   24  A    between atoms: C8_14  and  C11_19 
REMARK   25  A    between atoms: C8_14  and  C12_21 
REMARK   26  A    between atoms: C8_14  and  C14_24 
REMARK   27  A    between atoms: C9_15  and  C12_21 
REMARK   28  A    between atoms: C9_15  and  C13_23 
REMARK   29  A    between atoms: BR1_16  and  C10_17 
REMARK   30  A    between atoms: BR1_16  and  BR2_18 
REMARK   31  A    between atoms: C10_17  and  C13_23 
REMARK   32  A    between atoms: BR2_18  and  C11_19 
REMARK   33  A    between atoms: BR2_18  and  BR3_20 
REMARK   34  A    between atoms: C11_19  and  C13_23 
REMARK   35  A    between atoms: BR3_20  and  C12_21 
REMARK   36  A    between atoms: BR3_20  and  BR4_22 
REMARK   37  A    between atoms: C12_21  and  C13_23 
REMARK   38  A    between atoms: C12_21  and  C14_24 
REMARK   39  A    between atoms: BR4_22  and  C13_23 
REMARK   40  A    between atoms: BR4_22  and  C14_24 
REMARK   41  A    between atoms: BR4_22  and  O4_25 
ROOT
HETATM    1  N1  UNL     1       0.241  -2.841   0.000  1.00  0.00     0.670 N 
HETATM    2  S1  UNL     1      -0.171  -2.127   0.000  1.00  0.00     0.026 SA
HETATM    3  O1  UNL     1       0.543  -1.714   0.000  1.00  0.00     0.000 OA
HETATM    4  O2  UNL     1      -0.886  -2.539   0.000  1.00  0.00     0.000 OA
HETATM    5  C1  UNL     1      -0.584  -1.412   0.000  1.00  0.00     0.052 A 
HETATM    6  C2  UNL     1      -1.409  -1.412   0.000  1.00  0.00     0.052 A 
HETATM    7  C3  UNL     1      -1.821  -0.698   0.000  1.00  0.00     0.028 A 
HETATM    8  C4  UNL     1      -1.409   0.017   0.000  1.00  0.00     0.028 A 
HETATM    9  C5  UNL     1      -0.584   0.017   0.000  1.00  0.00     0.028 A 
HETATM   10  C6  UNL     1      -0.171  -0.698   0.000  1.00  0.00     0.059 A 
HETATM   11  N2  UNL     1       0.654  -0.698   0.000  1.00  0.00     0.000 N 
HETATM   12  C7  UNL     1       1.139  -0.030   0.000  1.00  0.00     0.073 A 
HETATM   13  O3  UNL     1       0.884   0.754   0.000  1.00  0.00     0.000 OA
HETATM   14  C8  UNL     1       1.923  -0.285   0.000  1.00  0.00     0.089 A 
HETATM   15  C9  UNL     1       2.638   0.127   0.000  1.00  0.00     0.088 A 
HETATM   16 BR1  UNL     1       2.638   0.952   0.000  1.00  0.00    -0.172 Br
HETATM   17  C10 UNL     1       3.352  -0.285   0.000  1.00  0.00     0.089 A 
HETATM   18 BR2  UNL     1       4.067   0.127   0.000  1.00  0.00    -0.151 Br
HETATM   19  C11 UNL     1       3.352  -1.110   0.000  1.00  0.00     0.089 A 
HETATM   20 BR3  UNL     1       4.067  -1.523   0.000  1.00  0.00    -0.150 Br
HETATM   21  C12 UNL     1       2.638  -1.523   0.000  1.00  0.00     0.091 A 
HETATM   22 BR4  UNL     1       2.638  -2.348   0.000  1.00  0.00    -0.167 Br
HETATM   23  C13 UNL     1       1.923  -1.110   0.000  1.00  0.00     0.089 A 
HETATM   24  C14 UNL     1       1.139  -1.365   0.000  1.00  0.00     0.089 A 
HETATM   25  O4  UNL     1       0.884  -2.150   0.000  1.00  0.00     0.000 OA
ENDROOT
TORSDOF 41
