REMARK  19 active torsions:
REMARK  status: ('A' for Active; 'I' for Inactive)
REMARK    1  A    between atoms: C2_3  and  C4_8 
REMARK    2  A    between atoms: N2_4  and  N6_20 
REMARK    3  A    between atoms: F1_6  and  N3_7 
REMARK    4  A    between atoms: N3_7  and  N6_20 
REMARK    5  A    between atoms: C4_8  and  N6_20 
REMARK    6  A    between atoms: C4_8  and  C10_15 
REMARK    7  A    between atoms: N4_9  and  N6_20 
REMARK    8  A    between atoms: C5_10  and  C8_13 
REMARK    9  A    between atoms: C5_10  and  C9_14 
REMARK   10  A    between atoms: C6_11  and  C9_14 
REMARK   11  A    between atoms: C6_11  and  C10_15 
REMARK   12  A    between atoms: C7_12  and  C10_15 
REMARK   13  A    between atoms: C7_12  and  N5_19 
REMARK   14  A    between atoms: C8_13  and  C10_15 
REMARK   15  A    between atoms: C9_14  and  C10_15 
REMARK   16  A    between atoms: C9_14  and  S1_16 
REMARK   17  A    between atoms: C9_14  and  O2_18 
REMARK   18  A    between atoms: C10_15  and  N6_20 
REMARK   19  A    between atoms: O1_17  and  N5_19 
ROOT
HETATM    1  C1  UNL     1       2.858   0.000   0.000  1.00  0.00     0.271 A 
HETATM    2  N1  UNL     1       2.143  -0.412   0.000  1.00  0.00     0.370 N 
HETATM    3  C2  UNL     1       2.143  -1.238   0.000  1.00  0.00     0.311 A 
HETATM    4  N2  UNL     1       2.858  -1.650   0.000  1.00  0.00     0.000 N 
HETATM    5  C3  UNL     1       2.858  -2.475   0.000  1.00  0.00     0.202 A 
HETATM    6  F1  UNL     1       3.572  -2.888   0.000  1.00  0.00    -0.235 F 
HETATM    7  N3  UNL     1       2.143  -2.888   0.000  1.00  0.00     0.000 N 
HETATM    8  C4  UNL     1       1.429  -2.475   0.000  1.00  0.00     0.083 A 
HETATM    9  N4  UNL     1       0.715  -2.888   0.000  1.00  0.00     0.000 N 
HETATM   10  C5  UNL     1       0.000  -2.475   0.000  1.00  0.00     0.085 A 
HETATM   11  C6  UNL     1      -0.715  -2.888   0.000  1.00  0.00     0.086 A 
HETATM   12  C7  UNL     1      -1.429  -2.475   0.000  1.00  0.00     0.211 A 
HETATM   13  C8  UNL     1      -1.429  -1.650   0.000  1.00  0.00     0.211 A 
HETATM   14  C9  UNL     1      -0.715  -1.238   0.000  1.00  0.00     0.111 A 
HETATM   15  C10 UNL     1       0.000  -1.650   0.000  1.00  0.00     0.085 A 
HETATM   16  S1  UNL     1      -2.143  -1.238   0.000  1.00  0.00     0.037 SA
HETATM   17  O1  UNL     1      -2.858  -0.825   0.000  1.00  0.00     0.000 OA
HETATM   18  O2  UNL     1      -1.731  -0.523   0.000  1.00  0.00     0.000 OA
HETATM   19  N5  UNL     1      -2.556  -1.952   0.000  1.00  0.00     0.173 N 
HETATM   20  N6  UNL     1       1.429  -1.650   0.000  1.00  0.00     0.000 N 
ENDROOT
TORSDOF 19
