REMARK  15 active torsions:
REMARK  status: ('A' for Active; 'I' for Inactive)
REMARK    1  A    between atoms: O1_3  and  F1_6 
REMARK    2  A    between atoms: O2_4  and  C1_5 
REMARK    3  A    between atoms: O2_4  and  F2_7 
REMARK    4  A    between atoms: F1_6  and  C2_8 
REMARK    5  A    between atoms: F1_6  and  C7_14 
REMARK    6  A    between atoms: F2_7  and  C2_8 
REMARK    7  A    between atoms: F2_7  and  C3_9 
REMARK    8  A    between atoms: C2_8  and  C5_11 
REMARK    9  A    between atoms: C2_8  and  C6_13 
REMARK   10  A    between atoms: C3_9  and  C6_13 
REMARK   11  A    between atoms: C3_9  and  C7_14 
REMARK   12  A    between atoms: C4_10  and  C7_14 
REMARK   13  A    between atoms: C5_11  and  C7_14 
REMARK   14  A    between atoms: BR1_12  and  C6_13 
REMARK   15  A    between atoms: C6_13  and  C7_14 
ROOT
HETATM    1  N1  UNL     1       0.715   3.712   0.000  1.00  0.00    -0.037 NA
HETATM    2  S1  UNL     1       0.715   2.888   0.000  1.00  0.00     0.026 SA
HETATM    3  O1  UNL     1      -0.111   2.888   0.000  1.00  0.00     0.000 OA
HETATM    4  O2  UNL     1       1.540   2.888   0.000  1.00  0.00     0.000 OA
HETATM    5  C1  UNL     1       0.715   2.062   0.000  1.00  0.00     0.203 A 
HETATM    6  F1  UNL     1      -0.111   2.062   0.000  1.00  0.00    -0.450 F 
HETATM    7  F2  UNL     1       1.540   2.062   0.000  1.00  0.00    -0.450 F 
HETATM    8  C2  UNL     1       0.715   1.238   0.000  1.00  0.00     0.148 A 
HETATM    9  C3  UNL     1       1.429   0.825   0.000  1.00  0.00     0.156 A 
HETATM   10  C4  UNL     1       1.429  -0.000   0.000  1.00  0.00     0.135 A 
HETATM   11  C5  UNL     1       0.715  -0.412   0.000  1.00  0.00     0.135 A 
HETATM   12 BR1  UNL     1       0.715  -1.238   0.000  1.00  0.00    -0.155 Br
HETATM   13  C6  UNL     1       0.000   0.000   0.000  1.00  0.00     0.135 A 
HETATM   14  C7  UNL     1       0.000   0.825   0.000  1.00  0.00     0.156 A 
ENDROOT
TORSDOF 15
