REMARK  20 active torsions:
REMARK  status: ('A' for Active; 'I' for Inactive)
REMARK    1  A    between atoms: O1_3  and  S4_171 
REMARK    2  A    between atoms: O2_4  and  C1_5 
REMARK    3  A    between atoms: O2_4  and  N2_6 
REMARK    4  A    between atoms: C1_5  and  C2_8 
REMARK    5  A    between atoms: N2_6  and  S4_171 
REMARK    6  A    between atoms: N3_7  and  S4_171 
REMARK    7  A    between atoms: C2_8  and  S4_171 
REMARK    8  A    between atoms: N4_9  and  S4_171 
REMARK    9  A    between atoms: O3_11  and  C4_12 
REMARK   10  A    between atoms: O4_15  and  N5_16 
REMARK   11  A    between atoms: O50_156  and  CA0_157 
REMARK   12  A    between atoms: O51_160  and  N7_161 
REMARK   13  A    between atoms: CA3_162  and  CA4_165 
REMARK   14  A    between atoms: N8_163  and  S2_166 
REMARK   15  A    between atoms: N9_164  and  S2_166 
REMARK   16  A    between atoms: N9_164  and  N10_170 
REMARK   17  A    between atoms: CA4_165  and  S2_166 
REMARK   18  A    between atoms: S2_166  and  S3_167 
REMARK   19  A    between atoms: S2_166  and  O53_169 
REMARK   20  A    between atoms: O52_168  and  N10_170 
ROOT
HETATM    1  N1  UNL     1     -24.607-103.953   0.000  1.00  0.00    -0.062 NA
HETATM    2  S1  UNL     1     -23.786-103.867   0.000  1.00  0.00    -0.034 SA
HETATM    3  O1  UNL     1     -23.700-104.687   0.000  1.00  0.00     0.000 OA
HETATM    4  O2  UNL     1     -23.872-103.046   0.000  1.00  0.00     0.000 OA
HETATM    5  C1  UNL     1     -22.966-103.781   0.000  1.00  0.00     0.122 A 
HETATM    6  N2  UNL     1     -22.553-103.066   0.000  1.00  0.00     0.000 N 
HETATM    7  N3  UNL     1     -21.746-103.238   0.000  1.00  0.00     0.000 N 
HETATM    8  C2  UNL     1     -21.660-104.058   0.000  1.00  0.00     0.071 A 
HETATM    9  N4  UNL     1     -20.945-104.471   0.000  1.00  0.00     0.000 N 
HETATM   10  C3  UNL     1     -20.231-104.058   0.000  1.00  0.00     0.012 A 
HETATM   11  O3  UNL     1     -20.231-103.233   0.000  1.00  0.00     0.000 OA
HETATM   12  C4  UNL     1     -19.516-104.471   0.000  1.00  0.00     0.001 A 
HETATM   13  C5  UNL     1     -18.802-104.058   0.000  1.00  0.00     0.001 A 
HETATM   14  C6  UNL     1     -18.087-104.471   0.000  1.00  0.00     0.000 A 
HETATM   15  O4  UNL     1     -18.087-105.296   0.000  1.00  0.00     0.000 OA
HETATM   16  N5  UNL     1     -17.373-104.058   0.000  1.00  0.00     0.000 N 
HETATM   17  C7  UNL     1     -16.659-104.471   0.000  1.00  0.00     0.000 A 
HETATM   18  C8  UNL     1     -15.944-104.058   0.000  1.00  0.00     0.000 A 
HETATM   19  O5  UNL     1     -15.230-104.471   0.000  1.00  0.00     0.000 OA
HETATM   20  C9  UNL     1     -14.515-104.058   0.000  1.00  0.00     0.000 A 
HETATM   21  C10 UNL     1     -13.801-104.471   0.000  1.00  0.00     0.000 A 
HETATM   22  O6  UNL     1     -13.086-104.058   0.000  1.00  0.00     0.000 OA
HETATM   23  C11 UNL     1     -12.372-104.471   0.000  1.00  0.00     0.000 A 
HETATM   24  C12 UNL     1     -11.657-104.058   0.000  1.00  0.00     0.000 A 
HETATM   25  O7  UNL     1     -10.943-104.471   0.000  1.00  0.00     0.000 OA
HETATM   26  C13 UNL     1     -10.228-104.058   0.000  1.00  0.00     0.000 A 
HETATM   27  C14 UNL     1      -9.514-104.471   0.000  1.00  0.00     0.000 A 
HETATM   28  O8  UNL     1      -8.799-104.058   0.000  1.00  0.00     0.000 OA
HETATM   29  C15 UNL     1      -8.085-104.471   0.000  1.00  0.00     0.000 A 
HETATM   30  C16 UNL     1      -7.370-104.058   0.000  1.00  0.00     0.000 A 
HETATM   31  O9  UNL     1      -6.656-104.471   0.000  1.00  0.00     0.000 OA
HETATM   32  C17 UNL     1      -5.941-104.058   0.000  1.00  0.00     0.000 A 
HETATM   33  C18 UNL     1      -5.227-104.471   0.000  1.00  0.00     0.000 A 
HETATM   34  O10 UNL     1      -4.513-104.058   0.000  1.00  0.00     0.000 OA
HETATM   35  C19 UNL     1      -3.798-104.471   0.000  1.00  0.00     0.000 A 
HETATM   36  C20 UNL     1      -3.084-104.058   0.000  1.00  0.00     0.000 A 
HETATM   37  O11 UNL     1      -2.369-104.471   0.000  1.00  0.00     0.000 OA
HETATM   38  C21 UNL     1      -1.655-104.058   0.000  1.00  0.00     0.000 A 
HETATM   39  C22 UNL     1      -0.940-104.471   0.000  1.00  0.00     0.000 A 
HETATM   40  O12 UNL     1      -0.226-104.058   0.000  1.00  0.00     0.000 OA
HETATM   41  C23 UNL     1       0.489-104.471   0.000  1.00  0.00     0.000 A 
HETATM   42  C24 UNL     1       1.203-104.058   0.000  1.00  0.00     0.000 A 
HETATM   43  O13 UNL     1       1.918-104.471   0.000  1.00  0.00     0.000 OA
HETATM   44  C25 UNL     1       2.632-104.058   0.000  1.00  0.00     0.000 A 
HETATM   45  C26 UNL     1       3.347-104.471   0.000  1.00  0.00     0.000 A 
HETATM   46  O14 UNL     1       4.061-104.058   0.000  1.00  0.00     0.000 OA
HETATM   47  C27 UNL     1       4.776-104.471   0.000  1.00  0.00     0.000 A 
HETATM   48  C28 UNL     1       5.490-104.058   0.000  1.00  0.00     0.000 A 
HETATM   49  O15 UNL     1       6.205-104.471   0.000  1.00  0.00     0.000 OA
HETATM   50  C29 UNL     1       6.919-104.058   0.000  1.00  0.00     0.000 A 
HETATM   51  C30 UNL     1       7.633-104.471   0.000  1.00  0.00     0.000 A 
HETATM   52  O16 UNL     1       8.348-104.058   0.000  1.00  0.00     0.000 OA
HETATM   53  C31 UNL     1       9.062-104.471   0.000  1.00  0.00     0.000 A 
HETATM   54  C32 UNL     1       9.777-104.058   0.000  1.00  0.00     0.000 A 
HETATM   55  O17 UNL     1      10.491-104.471   0.000  1.00  0.00     0.000 OA
HETATM   56  C33 UNL     1      11.206-104.058   0.000  1.00  0.00     0.000 A 
HETATM   57  C34 UNL     1      11.920-104.471   0.000  1.00  0.00     0.000 A 
HETATM   58  O18 UNL     1      12.635-104.058   0.000  1.00  0.00     0.000 OA
HETATM   59  C35 UNL     1      13.349-104.471   0.000  1.00  0.00     0.000 A 
HETATM   60  C36 UNL     1      14.064-104.058   0.000  1.00  0.00     0.000 A 
HETATM   61  O19 UNL     1      14.778-104.471   0.000  1.00  0.00     0.000 OA
HETATM   62  C37 UNL     1      15.493-104.058   0.000  1.00  0.00     0.000 A 
HETATM   63  C38 UNL     1      16.207-104.471   0.000  1.00  0.00     0.000 A 
HETATM   64  O20 UNL     1      16.922-104.058   0.000  1.00  0.00     0.000 OA
HETATM   65  C39 UNL     1      17.636-104.471   0.000  1.00  0.00     0.000 A 
HETATM   66  C40 UNL     1      18.351-104.058   0.000  1.00  0.00     0.000 A 
HETATM   67  O21 UNL     1      19.065-104.471   0.000  1.00  0.00     0.000 OA
HETATM   68  C41 UNL     1      19.779-104.058   0.000  1.00  0.00     0.000 A 
HETATM   69  C42 UNL     1      20.494-104.471   0.000  1.00  0.00     0.000 A 
HETATM   70  O22 UNL     1      21.208-104.058   0.000  1.00  0.00     0.000 OA
HETATM   71  C43 UNL     1      21.923-104.471   0.000  1.00  0.00     0.000 A 
HETATM   72  C44 UNL     1      22.637-104.058   0.000  1.00  0.00     0.000 A 
HETATM   73  O23 UNL     1      23.352-104.471   0.000  1.00  0.00     0.000 OA
HETATM   74  C45 UNL     1      24.066-104.058   0.000  1.00  0.00     0.000 A 
HETATM   75  C46 UNL     1      24.781-104.471   0.000  1.00  0.00     0.000 A 
HETATM   76  O24 UNL     1      25.495-104.058   0.000  1.00  0.00     0.000 OA
HETATM   77  C47 UNL     1      26.210-104.471   0.000  1.00  0.00     0.000 A 
HETATM   78  C48 UNL     1      26.924-104.058   0.000  1.00  0.00     0.000 A 
HETATM   79  O25 UNL     1      27.639-104.471   0.000  1.00  0.00     0.000 OA
HETATM   80  C49 UNL     1      28.353-104.058   0.000  1.00  0.00     0.000 A 
HETATM   81  C50 UNL     1      29.068-104.471   0.000  1.00  0.00     0.000 A 
HETATM   82  O26 UNL     1      29.782-104.058   0.000  1.00  0.00     0.000 OA
HETATM   83  C51 UNL     1      30.497-104.471   0.000  1.00  0.00     0.000 A 
HETATM   84  C52 UNL     1      31.211-104.058   0.000  1.00  0.00     0.000 A 
HETATM   85  O27 UNL     1      31.925-104.471   0.000  1.00  0.00     0.000 OA
HETATM   86  C53 UNL     1      32.640-104.058   0.000  1.00  0.00     0.000 A 
HETATM   87  C54 UNL     1      33.354-104.471   0.000  1.00  0.00     0.000 A 
HETATM   88  O28 UNL     1      34.069-104.058   0.000  1.00  0.00     0.000 OA
HETATM   89  C55 UNL     1      34.783-104.471   0.000  1.00  0.00     0.000 A 
HETATM   90  C56 UNL     1      35.498-104.058   0.000  1.00  0.00     0.000 A 
HETATM   91  O29 UNL     1      36.212-104.471   0.000  1.00  0.00     0.000 OA
HETATM   92  C57 UNL     1      36.927-104.058   0.000  1.00  0.00     0.000 A 
HETATM   93  C58 UNL     1      37.641-104.471   0.000  1.00  0.00     0.000 A 
HETATM   94  O30 UNL     1      38.356-104.058   0.000  1.00  0.00     0.000 OA
HETATM   95  C59 UNL     1      39.070-104.471   0.000  1.00  0.00     0.000 A 
HETATM   96  C60 UNL     1      39.785-104.058   0.000  1.00  0.00     0.000 A 
HETATM   97  O31 UNL     1      40.499-104.471   0.000  1.00  0.00     0.000 OA
HETATM   98  C61 UNL     1      41.214-104.058   0.000  1.00  0.00     0.000 A 
HETATM   99  C62 UNL     1      41.928-104.471   0.000  1.00  0.00     0.000 A 
HETATM  100  O32 UNL     1      42.642-104.058   0.000  1.00  0.00     0.000 OA
HETATM  101  C63 UNL     1      43.357-104.471   0.000  1.00  0.00     0.000 A 
HETATM  102  C64 UNL     1      44.072-104.058   0.000  1.00  0.00     0.000 A 
HETATM  103  O33 UNL     1      44.786-104.471   0.000  1.00  0.00     0.000 OA
HETATM  104  C65 UNL     1      45.500-104.058   0.000  1.00  0.00     0.000 A 
HETATM  105  C66 UNL     1      46.215-104.471   0.000  1.00  0.00     0.000 A 
HETATM  106  O34 UNL     1      46.929-104.058   0.000  1.00  0.00     0.000 OA
HETATM  107  C67 UNL     1      47.644-104.471   0.000  1.00  0.00     0.000 A 
HETATM  108  C68 UNL     1      48.358-104.058   0.000  1.00  0.00     0.000 A 
HETATM  109  O35 UNL     1      49.073-104.471   0.000  1.00  0.00     0.000 OA
HETATM  110  C69 UNL     1      49.787-104.058   0.000  1.00  0.00     0.000 A 
HETATM  111  C70 UNL     1      50.502-104.471   0.000  1.00  0.00     0.000 A 
HETATM  112  O36 UNL     1      51.216-104.058   0.000  1.00  0.00     0.000 OA
HETATM  113  C71 UNL     1      51.931-104.471   0.000  1.00  0.00     0.000 A 
HETATM  114  C72 UNL     1      52.645-104.058   0.000  1.00  0.00     0.000 A 
HETATM  115  O37 UNL     1      53.360-104.471   0.000  1.00  0.00     0.000 OA
HETATM  116  C73 UNL     1      54.074-104.058   0.000  1.00  0.00     0.000 A 
HETATM  117  C74 UNL     1      54.788-104.471   0.000  1.00  0.00     0.000 A 
HETATM  118  O38 UNL     1      55.503-104.058   0.000  1.00  0.00     0.000 OA
HETATM  119  C75 UNL     1      56.218-104.471   0.000  1.00  0.00     0.000 A 
HETATM  120  C76 UNL     1      56.932-104.058   0.000  1.00  0.00     0.000 A 
HETATM  121  O39 UNL     1      57.646-104.471   0.000  1.00  0.00     0.000 OA
HETATM  122  C77 UNL     1      58.361-104.058   0.000  1.00  0.00     0.000 A 
HETATM  123  C78 UNL     1      59.075-104.471   0.000  1.00  0.00     0.000 A 
HETATM  124  O40 UNL     1      59.790-104.058   0.000  1.00  0.00     0.000 OA
HETATM  125  C79 UNL     1      60.504-104.471   0.000  1.00  0.00     0.000 A 
HETATM  126  C80 UNL     1      61.219-104.058   0.000  1.00  0.00     0.000 A 
HETATM  127  O41 UNL     1      61.933-104.471   0.000  1.00  0.00     0.000 OA
HETATM  128  C81 UNL     1      62.648-104.058   0.000  1.00  0.00     0.000 A 
HETATM  129  C82 UNL     1      63.362-104.471   0.000  1.00  0.00     0.000 A 
HETATM  130  O42 UNL     1      64.077-104.058   0.000  1.00  0.00     0.000 OA
HETATM  131  C83 UNL     1      64.791-104.471   0.000  1.00  0.00     0.000 A 
HETATM  132  C84 UNL     1      65.506-104.058   0.000  1.00  0.00     0.000 A 
HETATM  133  O43 UNL     1      66.220-104.471   0.000  1.00  0.00     0.000 OA
HETATM  134  C85 UNL     1      66.935-104.058   0.000  1.00  0.00     0.000 A 
HETATM  135  C86 UNL     1      67.649-104.471   0.000  1.00  0.00     0.000 A 
HETATM  136  O44 UNL     1      68.364-104.058   0.000  1.00  0.00     0.000 OA
HETATM  137  C87 UNL     1      69.078-104.471   0.000  1.00  0.00     0.000 A 
HETATM  138  C88 UNL     1      69.792-104.058   0.000  1.00  0.00     0.000 A 
HETATM  139  O45 UNL     1      70.507-104.471   0.000  1.00  0.00     0.000 OA
HETATM  140  C89 UNL     1      71.221-104.058   0.000  1.00  0.00     0.000 A 
HETATM  141  C90 UNL     1      71.936-104.471   0.000  1.00  0.00     0.000 A 
HETATM  142  O46 UNL     1      72.650-104.058   0.000  1.00  0.00     0.000 OA
HETATM  143  C91 UNL     1      73.365-104.471   0.000  1.00  0.00     0.000 A 
HETATM  144  C92 UNL     1      74.079-104.058   0.000  1.00  0.00     0.000 A 
HETATM  145  O47 UNL     1      74.794-104.471   0.000  1.00  0.00     0.000 OA
HETATM  146  C93 UNL     1      75.508-104.058   0.000  1.00  0.00     0.000 A 
HETATM  147  C94 UNL     1      76.223-104.471   0.000  1.00  0.00     0.000 A 
HETATM  148  O48 UNL     1      76.937-104.058   0.000  1.00  0.00     0.000 OA
HETATM  149  C95 UNL     1      77.652-104.471   0.000  1.00  0.00     0.000 A 
HETATM  150  C96 UNL     1      78.366-104.058   0.000  1.00  0.00     0.000 A 
HETATM  151  O49 UNL     1      79.081-104.471   0.000  1.00  0.00     0.000 OA
HETATM  152  C97 UNL     1      79.795-104.058   0.000  1.00  0.00     0.000 A 
HETATM  153  C98 UNL     1      80.510-104.471   0.000  1.00  0.00     0.000 A 
HETATM  154  N6  UNL     1      81.224-104.058   0.000  1.00  0.00     0.000 N 
HETATM  155  C99 UNL     1      81.938-104.471   0.000  1.00  0.00     0.000 A 
HETATM  156  O50 UNL     1      81.938-105.296   0.000  1.00  0.00     0.000 OA
HETATM  157  CA0 UNL     1      82.653-104.058   0.000  1.00  0.00     0.001 A 
HETATM  158  CA1 UNL     1      83.367-104.471   0.000  1.00  0.00     0.001 A 
HETATM  159  CA2 UNL     1      84.082-104.058   0.000  1.00  0.00     0.014 A 
HETATM  160  O51 UNL     1      84.082-103.233   0.000  1.00  0.00     0.000 OA
HETATM  161  N7  UNL     1      84.796-104.471   0.000  1.00  0.00     0.000 N 
HETATM  162  CA3 UNL     1      85.511-104.058   0.000  1.00  0.00     0.106 A 
HETATM  163  N8  UNL     1      85.597-103.238   0.000  1.00  0.00     0.000 N 
HETATM  164  N9  UNL     1      86.404-103.066   0.000  1.00  0.00     0.000 N 
HETATM  165  CA4 UNL     1      86.817-103.781   0.000  1.00  0.00     0.357 A 
HETATM  166  S2  UNL     1      86.264-104.394   0.000  1.00  0.00    -0.062 SA
HETATM  167  S3  UNL     1      87.637-103.867   0.000  1.00  0.00     0.161 SA
HETATM  168  O52 UNL     1      88.457-103.953   0.000  1.00  0.00     0.000 OA
HETATM  169  O53 UNL     1      87.551-104.687   0.000  1.00  0.00     0.000 OA
HETATM  170  N10 UNL     1      87.723-103.046   0.000  1.00  0.00     0.422 N 
HETATM  171  S4  UNL     1     -22.413-104.394   0.000  1.00  0.00    -0.111 SA
ENDROOT
TORSDOF 20
