REMARK  24 active torsions:
REMARK  status: ('A' for Active; 'I' for Inactive)
REMARK    1  A    between atoms: C3_3  and  C4_5 
REMARK    2  A    between atoms: C3_3  and  N3_9 
REMARK    3  A    between atoms: O1_4  and  C4_5 
REMARK    4  A    between atoms: O1_4  and  C5_6 
REMARK    5  A    between atoms: C4_5  and  N2_8 
REMARK    6  A    between atoms: C5_6  and  N3_9 
REMARK    7  A    between atoms: N1_7  and  N3_9 
REMARK    8  A    between atoms: N2_8  and  N3_9 
REMARK    9  A    between atoms: N2_8  and  C6_10 
REMARK   10  A    between atoms: C6_10  and  C9_13 
REMARK   11  A    between atoms: C6_10  and  C12_20 
REMARK   12  A    between atoms: C7_11  and  C12_20 
REMARK   13  A    between atoms: C7_11  and  C13_21 
REMARK   14  A    between atoms: C8_12  and  C13_21 
REMARK   15  A    between atoms: C9_13  and  C10_18 
REMARK   16  A    between atoms: C9_13  and  C11_19 
REMARK   17  A    between atoms: C9_13  and  C13_21 
REMARK   18  A    between atoms: O2_14  and  C12_20 
REMARK   19  A    between atoms: S1_15  and  C12_20 
REMARK   20  A    between atoms: O4_17  and  C10_18 
REMARK   21  A    between atoms: C10_18  and  C12_20 
REMARK   22  A    between atoms: C11_19  and  C12_20 
REMARK   23  A    between atoms: C11_19  and  C13_21 
REMARK   24  A    between atoms: C12_20  and  C13_21 
ROOT
HETATM    1  C1  UNL     1      -2.947  -1.755   0.000  1.00  0.00     0.000 A 
HETATM    2  C2  UNL     1      -2.126  -1.841   0.000  1.00  0.00     0.000 A 
HETATM    3  C3  UNL     1      -2.212  -2.662   0.000  1.00  0.00     0.000 A 
HETATM    4  O1  UNL     1      -2.040  -1.021   0.000  1.00  0.00     0.000 OA
HETATM    5  C4  UNL     1      -1.306  -1.927   0.000  1.00  0.00     0.000 A 
HETATM    6  C5  UNL     1      -0.754  -1.314   0.000  1.00  0.00     0.001 A 
HETATM    7  N1  UNL     1       0.000  -1.650   0.000  1.00  0.00     0.000 N 
HETATM    8  N2  UNL     1      -0.086  -2.470   0.000  1.00  0.00     0.000 N 
HETATM    9  N3  UNL     1      -0.893  -2.642   0.000  1.00  0.00     0.000 N 
HETATM   10  C6  UNL     1       0.715  -1.238   0.000  1.00  0.00     0.015 A 
HETATM   11  C7  UNL     1       0.715  -0.412   0.000  1.00  0.00     0.017 A 
HETATM   12  C8  UNL     1       1.429   0.000   0.000  1.00  0.00     0.017 A 
HETATM   13  C9  UNL     1       2.143  -0.412   0.000  1.00  0.00     0.026 A 
HETATM   14  O2  UNL     1       2.858   0.000   0.000  1.00  0.00     0.000 OA
HETATM   15  S1  UNL     1       3.572  -0.412   0.000  1.00  0.00    -0.208 SA
HETATM   16  O3  UNL     1       3.854   0.363   0.000  1.00  0.00     0.000 OA
HETATM   17  O4  UNL     1       4.385  -0.556   0.000  1.00  0.00     0.000 OA
HETATM   18  C10 UNL     1       3.572  -1.238   0.000  1.00  0.00     0.045 A 
HETATM   19  C11 UNL     1       2.858  -1.650   0.000  1.00  0.00     0.039 A 
HETATM   20  C12 UNL     1       2.143  -1.238   0.000  1.00  0.00     0.026 A 
HETATM   21  C13 UNL     1       1.429  -1.650   0.000  1.00  0.00     0.022 A 
ENDROOT
TORSDOF 24
