REMARK WARNING: 32 MAX_TORS EXCEEDED!!!
REMARK  43 active torsions:
REMARK  status: ('A' for Active; 'I' for Inactive)
REMARK    1  A    between atoms: C1_1  and  C25_36 
REMARK    2  A    between atoms: C2_3  and  C5_6 
REMARK    3  A    between atoms: C2_3  and  C24_35 
REMARK    4  A    between atoms: C3_4  and  C24_35 
REMARK    5  A    between atoms: C3_4  and  C25_36 
REMARK    6  A    between atoms: C4_5  and  C6_8 
REMARK    7  A    between atoms: C4_5  and  S1_9 
REMARK    8  A    between atoms: C4_5  and  C25_36 
REMARK    9  A    between atoms: C5_6  and  S1_9 
REMARK   10  A    between atoms: C5_6  and  C25_36 
REMARK   11  A    between atoms: N1_7  and  C24_35 
REMARK   12  A    between atoms: C6_8  and  C9_13 
REMARK   13  A    between atoms: S1_9  and  N2_10 
REMARK   14  A    between atoms: S1_9  and  C7_11 
REMARK   15  A    between atoms: S1_9  and  C8_12 
REMARK   16  A    between atoms: C7_11  and  C11_16 
REMARK   17  A    between atoms: C8_12  and  N4_17 
REMARK   18  A    between atoms: C9_13  and  C10_15 
REMARK   19  A    between atoms: C9_13  and  C19_29 
REMARK   20  A    between atoms: C10_15  and  N4_17 
REMARK   21  A    between atoms: C11_16  and  N4_17 
REMARK   22  A    between atoms: C11_16  and  C12_18 
REMARK   23  A    between atoms: C11_16  and  C18_28 
REMARK   24  A    between atoms: C12_18  and  C15_21 
REMARK   25  A    between atoms: C12_18  and  C16_22 
REMARK   26  A    between atoms: C13_19  and  C16_22 
REMARK   27  A    between atoms: C13_19  and  C17_23 
REMARK   28  A    between atoms: C14_20  and  C17_23 
REMARK   29  A    between atoms: C14_20  and  N5_27 
REMARK   30  A    between atoms: C15_21  and  C17_23 
REMARK   31  A    between atoms: C16_22  and  C17_23 
REMARK   32  A    between atoms: C16_22  and  S2_24 
REMARK   33  A    between atoms: C16_22  and  O3_26 
REMARK   34  A    between atoms: O2_25  and  N5_27 
REMARK   35  A    between atoms: C18_28  and  C21_31 
REMARK   36  A    between atoms: C18_28  and  C22_33 
REMARK   37  A    between atoms: C19_29  and  C22_33 
REMARK   38  A    between atoms: C19_29  and  C23_34 
REMARK   39  A    between atoms: C20_30  and  C23_34 
REMARK   40  A    between atoms: C21_31  and  C23_34 
REMARK   41  A    between atoms: BR1_32  and  C22_33 
REMARK   42  A    between atoms: C22_33  and  C23_34 
REMARK   43  A    between atoms: C24_35  and  C25_36 
ROOT
HETATM    1  C1  UNL     1       4.287   3.300   0.000  1.00  0.00     0.003 A 
HETATM    2  O1  UNL     1       4.287   2.475   0.000  1.00  0.00     0.000 OA
HETATM    3  C2  UNL     1       3.572   2.062   0.000  1.00  0.00     0.014 A 
HETATM    4  C3  UNL     1       3.572   1.238   0.000  1.00  0.00     0.015 A 
HETATM    5  C4  UNL     1       2.858   0.825   0.000  1.00  0.00     0.026 A 
HETATM    6  C5  UNL     1       2.143   1.238   0.000  1.00  0.00     0.026 A 
HETATM    7  N1  UNL     1       1.429   0.825   0.000  1.00  0.00     0.000 N 
HETATM    8  C6  UNL     1       1.429  -0.000   0.000  1.00  0.00     0.056 A 
HETATM    9  S1  UNL     1       2.143  -0.412   0.000  1.00  0.00    -0.169 SA
HETATM   10  N2  UNL     1       0.715  -0.412   0.000  1.00  0.00     0.000 N 
HETATM   11  C7  UNL     1       0.715  -1.238   0.000  1.00  0.00     0.050 A 
HETATM   12  C8  UNL     1       1.382  -1.722   0.000  1.00  0.00     0.045 A 
HETATM   13  C9  UNL     1       2.167  -1.468   0.000  1.00  0.00     0.076 A 
HETATM   14  N3  UNL     1       2.951  -1.212   0.000  1.00  0.00    -0.277 NA
HETATM   15  C10 UNL     1       1.127  -2.507   0.000  1.00  0.00     0.039 A 
HETATM   16  C11 UNL     1       0.302  -2.507   0.000  1.00  0.00     0.028 A 
HETATM   17  N4  UNL     1       0.047  -1.722   0.000  1.00  0.00     0.000 N 
HETATM   18  C12 UNL     1      -0.738  -1.468   0.000  1.00  0.00     0.084 A 
HETATM   19  C13 UNL     1      -1.351  -2.019   0.000  1.00  0.00     0.086 A 
HETATM   20  C14 UNL     1      -2.135  -1.765   0.000  1.00  0.00     0.211 A 
HETATM   21  C15 UNL     1      -2.307  -0.958   0.000  1.00  0.00     0.211 A 
HETATM   22  C16 UNL     1      -1.694  -0.406   0.000  1.00  0.00     0.111 A 
HETATM   23  C17 UNL     1      -0.909  -0.660   0.000  1.00  0.00     0.086 A 
HETATM   24  S2  UNL     1      -3.091  -0.703   0.000  1.00  0.00     0.037 SA
HETATM   25  O2  UNL     1      -3.876  -0.448   0.000  1.00  0.00     0.000 OA
HETATM   26  O3  UNL     1      -2.837   0.082   0.000  1.00  0.00     0.000 OA
HETATM   27  N5  UNL     1      -3.346  -1.487   0.000  1.00  0.00     0.173 N 
HETATM   28  C18 UNL     1       1.612  -3.175   0.000  1.00  0.00     0.033 A 
HETATM   29  C19 UNL     1       2.432  -3.088   0.000  1.00  0.00     0.042 A 
HETATM   30  C20 UNL     1       2.917  -3.756   0.000  1.00  0.00     0.039 A 
HETATM   31  C21 UNL     1       2.582  -4.509   0.000  1.00  0.00     0.039 A 
HETATM   32 BR1  UNL     1       3.067  -5.177   0.000  1.00  0.00    -0.185 Br
HETATM   33  C22 UNL     1       1.761  -4.596   0.000  1.00  0.00     0.039 A 
HETATM   34  C23 UNL     1       1.276  -3.928   0.000  1.00  0.00     0.030 A 
HETATM   35  C24 UNL     1       2.143   2.062   0.000  1.00  0.00     0.015 A 
HETATM   36  C25 UNL     1       2.858   2.475   0.000  1.00  0.00     0.014 A 
ENDROOT
TORSDOF 43
