REMARK  27 active torsions:
REMARK  status: ('A' for Active; 'I' for Inactive)
REMARK    1  A    between atoms: C1_2  and  C9_18 
REMARK    2  A    between atoms: N2_3  and  C4_7 
REMARK    3  A    between atoms: N2_3  and  N6_19 
REMARK    4  A    between atoms: C2_4  and  C4_7 
REMARK    5  A    between atoms: C3_5  and  N5_17 
REMARK    6  A    between atoms: N3_6  and  C7_11 
REMARK    7  A    between atoms: C4_7  and  C7_11 
REMARK    8  A    between atoms: C4_7  and  C8_12 
REMARK    9  A    between atoms: C5_8  and  C8_12 
REMARK   10  A    between atoms: C6_9  and  C8_12 
REMARK   11  A    between atoms: C6_9  and  N4_16 
REMARK   12  A    between atoms: O1_10  and  C7_11 
REMARK   13  A    between atoms: O1_10  and  S1_13 
REMARK   14  A    between atoms: O1_10  and  N4_16 
REMARK   15  A    between atoms: C7_11  and  C8_12 
REMARK   16  A    between atoms: C8_12  and  S1_13 
REMARK   17  A    between atoms: C8_12  and  O3_15 
REMARK   18  A    between atoms: O2_14  and  N4_16 
REMARK   19  A    between atoms: N5_17  and  N6_19 
REMARK   20  A    between atoms: C9_18  and  N6_19 
REMARK   21  A    between atoms: N6_19  and  N7_20 
REMARK   22  A    between atoms: N7_20  and  C12_24 
REMARK   23  A    between atoms: C10_21  and  C12_24 
REMARK   24  A    between atoms: C10_21  and  C13_25 
REMARK   25  A    between atoms: C11_22  and  C13_25 
REMARK   26  A    between atoms: O4_23  and  C13_25 
REMARK   27  A    between atoms: C12_24  and  C13_25 
ROOT
HETATM    1  N1  UNL     1       0.715  -0.412   0.000  1.00  0.00    -0.133 NA
HETATM    2  C1  UNL     1       0.715  -1.238   0.000  1.00  0.00     0.092 A 
HETATM    3  N2  UNL     1       1.429  -1.650   0.000  1.00  0.00     0.000 N 
HETATM    4  C2  UNL     1       1.429  -2.475   0.000  1.00  0.00     0.021 A 
HETATM    5  C3  UNL     1       2.143  -2.888   0.000  1.00  0.00     0.012 A 
HETATM    6  N3  UNL     1       2.858  -2.475   0.000  1.00  0.00     0.000 N 
HETATM    7  C4  UNL     1       2.858  -1.650   0.000  1.00  0.00     0.025 A 
HETATM    8  C5  UNL     1       3.572  -1.238   0.000  1.00  0.00     0.027 A 
HETATM    9  C6  UNL     1       4.287  -1.650   0.000  1.00  0.00     0.041 A 
HETATM   10  O1  UNL     1       5.001  -1.238   0.000  1.00  0.00     0.000 OA
HETATM   11  C7  UNL     1       4.287  -2.475   0.000  1.00  0.00     0.041 A 
HETATM   12  C8  UNL     1       3.572  -2.888   0.000  1.00  0.00     0.036 A 
HETATM   13  S1  UNL     1       5.001  -2.888   0.000  1.00  0.00    -0.182 SA
HETATM   14  O2  UNL     1       5.716  -3.300   0.000  1.00  0.00     0.000 OA
HETATM   15  O3  UNL     1       4.589  -3.602   0.000  1.00  0.00     0.000 OA
HETATM   16  N4  UNL     1       5.414  -2.173   0.000  1.00  0.00     0.000 N 
HETATM   17  N5  UNL     1       0.715  -2.888   0.000  1.00  0.00     0.000 N 
HETATM   18  C9  UNL     1       0.000  -2.475   0.000  1.00  0.00     0.018 A 
HETATM   19  N6  UNL     1       0.000  -1.650   0.000  1.00  0.00     0.000 N 
HETATM   20  N7  UNL     1      -0.715  -2.888   0.000  1.00  0.00     0.000 N 
HETATM   21  C10 UNL     1      -0.715  -3.712   0.000  1.00  0.00     0.001 A 
HETATM   22  C11 UNL     1      -1.429  -4.125   0.000  1.00  0.00     0.000 A 
HETATM   23  O4  UNL     1      -2.143  -3.712   0.000  1.00  0.00     0.000 OA
HETATM   24  C12 UNL     1      -2.143  -2.888   0.000  1.00  0.00     0.000 A 
HETATM   25  C13 UNL     1      -1.429  -2.475   0.000  1.00  0.00     0.001 A 
ENDROOT
TORSDOF 27
