REMARK  17 active torsions:
REMARK  status: ('A' for Active; 'I' for Inactive)
REMARK    1  A    between atoms: O1_3  and  S3_18 
REMARK    2  A    between atoms: O2_4  and  C1_5 
REMARK    3  A    between atoms: O2_4  and  C2_6 
REMARK    4  A    between atoms: C1_5  and  C4_8 
REMARK    5  A    between atoms: C2_6  and  S3_18 
REMARK    6  A    between atoms: C3_7  and  S3_18 
REMARK    7  A    between atoms: C4_8  and  S3_18 
REMARK    8  A    between atoms: S2_9  and  C11_17 
REMARK    9  A    between atoms: S2_9  and  S3_18 
REMARK   10  A    between atoms: C6_11  and  C9_14 
REMARK   11  A    between atoms: C6_11  and  C10_16 
REMARK   12  A    between atoms: C7_12  and  C10_16 
REMARK   13  A    between atoms: C7_12  and  C11_17 
REMARK   14  A    between atoms: C8_13  and  C11_17 
REMARK   15  A    between atoms: C9_14  and  C11_17 
REMARK   16  A    between atoms: CL1_15  and  C10_16 
REMARK   17  A    between atoms: C10_16  and  C11_17 
ROOT
HETATM    1  N1  UNL     1       1.429  -0.825   0.000  1.00  0.00    -0.072 NA
HETATM    2  S1  UNL     1       1.429  -1.650   0.000  1.00  0.00    -0.085 SA
HETATM    3  O1  UNL     1       0.604  -1.650   0.000  1.00  0.00     0.000 OA
HETATM    4  O2  UNL     1       2.254  -1.650   0.000  1.00  0.00     0.000 OA
HETATM    5  C1  UNL     1       1.429  -2.475   0.000  1.00  0.00     0.103 A 
HETATM    6  C2  UNL     1       2.096  -2.960   0.000  1.00  0.00     0.103 A 
HETATM    7  C3  UNL     1       1.841  -3.744   0.000  1.00  0.00     0.083 A 
HETATM    8  C4  UNL     1       1.016  -3.744   0.000  1.00  0.00     0.077 A 
HETATM    9  S2  UNL     1       0.531  -4.412   0.000  1.00  0.00    -0.196 SA
HETATM   10  C5  UNL     1       0.867  -5.166   0.000  1.00  0.00     0.050 A 
HETATM   11  C6  UNL     1       0.382  -5.833   0.000  1.00  0.00     0.052 A 
HETATM   12  C7  UNL     1       0.718  -6.587   0.000  1.00  0.00     0.053 A 
HETATM   13  C8  UNL     1       0.233  -7.254   0.000  1.00  0.00     0.062 A 
HETATM   14  C9  UNL     1      -0.588  -7.168   0.000  1.00  0.00     0.062 A 
HETATM   15 CL1  UNL     1      -1.073  -7.835   0.000  1.00  0.00    -0.246 Cl
HETATM   16  C10 UNL     1      -0.923  -6.414   0.000  1.00  0.00     0.062 A 
HETATM   17  C11 UNL     1      -0.438  -5.747   0.000  1.00  0.00     0.052 A 
HETATM   18  S3  UNL     1       0.761  -2.960   0.000  1.00  0.00    -0.159 SA
ENDROOT
TORSDOF 17
