REMARK  32 active torsions:
REMARK  status: ('A' for Active; 'I' for Inactive)
REMARK    1  A    between atoms: C1_1  and  C10_12 
REMARK    2  A    between atoms: C2_3  and  C5_6 
REMARK    3  A    between atoms: C2_3  and  C9_11 
REMARK    4  A    between atoms: C3_4  and  C9_11 
REMARK    5  A    between atoms: C3_4  and  C10_12 
REMARK    6  A    between atoms: C4_5  and  C10_12 
REMARK    7  A    between atoms: C4_5  and  C11_13 
REMARK    8  A    between atoms: C4_5  and  O2_14 
REMARK    9  A    between atoms: C5_6  and  C7_9 
REMARK   10  A    between atoms: C5_6  and  C8_10 
REMARK   11  A    between atoms: C5_6  and  C10_12 
REMARK   12  A    between atoms: N1_7  and  C9_11 
REMARK   13  A    between atoms: C6_8  and  C9_11 
REMARK   14  A    between atoms: C6_8  and  C11_13 
REMARK   15  A    between atoms: C6_8  and  C12_15 
REMARK   16  A    between atoms: C6_8  and  C17_20 
REMARK   17  A    between atoms: C7_9  and  C9_11 
REMARK   18  A    between atoms: C8_10  and  C9_11 
REMARK   19  A    between atoms: C8_10  and  C10_12 
REMARK   20  A    between atoms: C9_11  and  C10_12 
REMARK   21  A    between atoms: O2_14  and  C12_15 
REMARK   22  A    between atoms: C12_15  and  C15_18 
REMARK   23  A    between atoms: C12_15  and  C16_19 
REMARK   24  A    between atoms: C13_16  and  C16_19 
REMARK   25  A    between atoms: C13_16  and  C17_20 
REMARK   26  A    between atoms: C14_17  and  C17_20 
REMARK   27  A    between atoms: C14_17  and  N2_24 
REMARK   28  A    between atoms: C15_18  and  C17_20 
REMARK   29  A    between atoms: C16_19  and  C17_20 
REMARK   30  A    between atoms: C16_19  and  S1_21 
REMARK   31  A    between atoms: C16_19  and  O4_23 
REMARK   32  A    between atoms: O3_22  and  N2_24 
ROOT
HETATM    1  C1  UNL     1       0.000  -2.475   0.000  1.00  0.00     0.000 A 
HETATM    2  O1  UNL     1       0.000  -1.650   0.000  1.00  0.00     0.000 OA
HETATM    3  C2  UNL     1       0.715  -1.238   0.000  1.00  0.00     0.000 A 
HETATM    4  C3  UNL     1       0.715  -0.412   0.000  1.00  0.00     0.000 A 
HETATM    5  C4  UNL     1       1.429   0.000   0.000  1.00  0.00     0.001 A 
HETATM    6  C5  UNL     1       2.143  -0.412   0.000  1.00  0.00     0.001 A 
HETATM    7  N1  UNL     1       2.858   0.000   0.000  1.00  0.00     0.000 N 
HETATM    8  C6  UNL     1       3.572  -0.412   0.000  1.00  0.00     0.011 A 
HETATM    9  C7  UNL     1       3.572  -1.238   0.000  1.00  0.00     0.000 A 
HETATM   10  C8  UNL     1       2.858  -1.650   0.000  1.00  0.00     0.000 A 
HETATM   11  C9  UNL     1       2.143  -1.238   0.000  1.00  0.00     0.000 A 
HETATM   12  C10 UNL     1       1.429  -1.650   0.000  1.00  0.00     0.000 A 
HETATM   13  C11 UNL     1       2.858   0.825   0.000  1.00  0.00     0.016 A 
HETATM   14  O2  UNL     1       2.143   1.238   0.000  1.00  0.00     0.000 OA
HETATM   15  C12 UNL     1       3.572   1.238   0.000  1.00  0.00     0.075 A 
HETATM   16  C13 UNL     1       3.572   2.062   0.000  1.00  0.00     0.080 A 
HETATM   17  C14 UNL     1       4.287   2.475   0.000  1.00  0.00     0.210 A 
HETATM   18  C15 UNL     1       5.001   2.062   0.000  1.00  0.00     0.210 A 
HETATM   19  C16 UNL     1       5.001   1.238   0.000  1.00  0.00     0.110 A 
HETATM   20  C17 UNL     1       4.287   0.825   0.000  1.00  0.00     0.075 A 
HETATM   21  S1  UNL     1       5.716   2.475   0.000  1.00  0.00     0.037 SA
HETATM   22  O3  UNL     1       6.430   2.888   0.000  1.00  0.00     0.000 OA
HETATM   23  O4  UNL     1       6.128   1.760   0.000  1.00  0.00     0.000 OA
HETATM   24  N2  UNL     1       5.303   3.189   0.000  1.00  0.00     0.173 N 
ENDROOT
TORSDOF 32
