REMARK  28 active torsions:
REMARK  status: ('A' for Active; 'I' for Inactive)
REMARK    1  A    between atoms: O1_3  and  C15_25 
REMARK    2  A    between atoms: O2_4  and  C1_5 
REMARK    3  A    between atoms: O2_4  and  C2_6 
REMARK    4  A    between atoms: C1_5  and  C4_8 
REMARK    5  A    between atoms: C1_5  and  C14_24 
REMARK    6  A    between atoms: C2_6  and  C14_24 
REMARK    7  A    between atoms: C2_6  and  C15_25 
REMARK    8  A    between atoms: C3_7  and  C5_10 
REMARK    9  A    between atoms: C3_7  and  N3_11 
REMARK   10  A    between atoms: C3_7  and  C15_25 
REMARK   11  A    between atoms: C4_8  and  C15_25 
REMARK   12  A    between atoms: N2_9  and  C14_24 
REMARK   13  A    between atoms: C5_10  and  C7_15 
REMARK   14  A    between atoms: N3_11  and  N6_23 
REMARK   15  A    between atoms: CL1_13  and  N4_14 
REMARK   16  A    between atoms: N4_14  and  N6_23 
REMARK   17  A    between atoms: C7_15  and  N6_23 
REMARK   18  A    between atoms: C7_15  and  C13_22 
REMARK   19  A    between atoms: N5_16  and  N6_23 
REMARK   20  A    between atoms: C8_17  and  C11_20 
REMARK   21  A    between atoms: C8_17  and  C12_21 
REMARK   22  A    between atoms: C9_18  and  C12_21 
REMARK   23  A    between atoms: C9_18  and  C13_22 
REMARK   24  A    between atoms: C10_19  and  C13_22 
REMARK   25  A    between atoms: C11_20  and  C13_22 
REMARK   26  A    between atoms: C12_21  and  C13_22 
REMARK   27  A    between atoms: C13_22  and  N6_23 
REMARK   28  A    between atoms: C14_24  and  C15_25 
ROOT
HETATM    1  N1  UNL     1       5.001   0.412   0.000  1.00  0.00    -0.082 NA
HETATM    2  S1  UNL     1       5.001  -0.412   0.000  1.00  0.00    -0.128 SA
HETATM    3  O1  UNL     1       4.176  -0.412   0.000  1.00  0.00     0.000 OA
HETATM    4  O2  UNL     1       5.826  -0.412   0.000  1.00  0.00     0.000 OA
HETATM    5  C1  UNL     1       5.001  -1.238   0.000  1.00  0.00     0.043 A 
HETATM    6  C2  UNL     1       5.716  -1.650   0.000  1.00  0.00     0.043 A 
HETATM    7  C3  UNL     1       5.716  -2.475   0.000  1.00  0.00     0.026 A 
HETATM    8  C4  UNL     1       5.001  -2.888   0.000  1.00  0.00     0.026 A 
HETATM    9  N2  UNL     1       5.001  -3.712   0.000  1.00  0.00     0.000 N 
HETATM   10  C5  UNL     1       5.716  -4.125   0.000  1.00  0.00     0.019 A 
HETATM   11  N3  UNL     1       6.430  -3.712   0.000  1.00  0.00     0.000 N 
HETATM   12  C6  UNL     1       7.145  -4.125   0.000  1.00  0.00     0.080 A 
HETATM   13 CL1  UNL     1       7.859  -3.712   0.000  1.00  0.00    -0.115 Cl
HETATM   14  N4  UNL     1       7.145  -4.950   0.000  1.00  0.00     0.000 N 
HETATM   15  C7  UNL     1       6.430  -5.362   0.000  1.00  0.00     0.015 A 
HETATM   16  N5  UNL     1       6.430  -6.188   0.000  1.00  0.00     0.000 N 
HETATM   17  C8  UNL     1       5.716  -6.600   0.000  1.00  0.00     0.001 A 
HETATM   18  C9  UNL     1       5.716  -7.425   0.000  1.00  0.00     0.000 A 
HETATM   19  C10 UNL     1       5.001  -7.838   0.000  1.00  0.00     0.000 A 
HETATM   20  C11 UNL     1       4.287  -7.425   0.000  1.00  0.00     0.000 A 
HETATM   21  C12 UNL     1       4.287  -6.600   0.000  1.00  0.00     0.000 A 
HETATM   22  C13 UNL     1       5.001  -6.188   0.000  1.00  0.00     0.001 A 
HETATM   23  N6  UNL     1       5.716  -4.950   0.000  1.00  0.00     0.000 N 
HETATM   24  C14 UNL     1       4.287  -2.475   0.000  1.00  0.00     0.027 A 
HETATM   25  C15 UNL     1       4.287  -1.650   0.000  1.00  0.00     0.043 A 
ENDROOT
TORSDOF 28
