REMARK  18 active torsions:
REMARK  status: ('A' for Active; 'I' for Inactive)
REMARK    1  A    between atoms: O2_4  and  O3_5 
REMARK    2  A    between atoms: O2_4  and  C1_6 
REMARK    3  A    between atoms: C6_11  and  O4_14 
REMARK    4  A    between atoms: S2_13  and  O10_26 
REMARK    5  A    between atoms: O4_14  and  C12_25 
REMARK    6  A    between atoms: O4_14  and  O10_26 
REMARK    7  A    between atoms: O5_15  and  C7_16 
REMARK    8  A    between atoms: O5_15  and  O6_17 
REMARK    9  A    between atoms: C7_16  and  C10_21 
REMARK   10  A    between atoms: C7_16  and  C11_23 
REMARK   11  A    between atoms: O6_17  and  C12_25 
REMARK   12  A    between atoms: C8_18  and  C12_25 
REMARK   13  A    between atoms: C9_19  and  C10_21 
REMARK   14  A    between atoms: C10_21  and  C12_25 
REMARK   15  A    between atoms: O8_22  and  C11_23 
REMARK   16  A    between atoms: C11_23  and  C12_25 
REMARK   17  A    between atoms: C11_23  and  O10_26 
REMARK   18  A    between atoms: O9_24  and  C12_25 
ROOT
HETATM    1  N1  UNL     1      -1.429  -4.125   0.000  1.00  0.00    -0.061 NA
HETATM    2  S1  UNL     1      -0.715  -4.537   0.000  1.00  0.00    -0.030 SA
HETATM    3  O1  UNL     1      -1.127  -5.252   0.000  1.00  0.00     0.000 OA
HETATM    4  O2  UNL     1      -0.302  -3.823   0.000  1.00  0.00     0.000 OA
HETATM    5  O3  UNL     1       0.000  -4.950   0.000  1.00  0.00     0.000 OA
HETATM    6  C1  UNL     1       0.715  -4.537   0.000  1.00  0.00     0.066 A 
HETATM    7  C2  UNL     1       1.429  -4.950   0.000  1.00  0.00     0.013 A 
HETATM    8  C3  UNL     1       2.143  -4.537   0.000  1.00  0.00     0.013 A 
HETATM    9  C4  UNL     1       2.858  -4.950   0.000  1.00  0.00     0.011 A 
HETATM   10  C5  UNL     1       3.572  -4.537   0.000  1.00  0.00     0.011 A 
HETATM   11  C6  UNL     1       4.287  -4.950   0.000  1.00  0.00     0.039 A 
HETATM   12  N2  UNL     1       5.001  -4.537   0.000  1.00  0.00     0.000 N 
HETATM   13  S2  UNL     1       5.716  -4.950   0.000  1.00  0.00    -0.178 SA
HETATM   14  O4  UNL     1       5.303  -5.665   0.000  1.00  0.00     0.000 OA
HETATM   15  O5  UNL     1       6.128  -4.236   0.000  1.00  0.00     0.000 OA
HETATM   16  C7  UNL     1       6.430  -5.362   0.000  1.00  0.00     0.061 A 
HETATM   17  O6  UNL     1       7.145  -4.950   0.000  1.00  0.00     0.000 OA
HETATM   18  C8  UNL     1       7.859  -5.362   0.000  1.00  0.00     0.098 A 
HETATM   19  C9  UNL     1       8.574  -4.950   0.000  1.00  0.00     0.141 A 
HETATM   20  O7  UNL     1       8.574  -4.125   0.000  1.00  0.00    -0.359 OA
HETATM   21  C10 UNL     1       7.859  -6.188   0.000  1.00  0.00     0.068 A 
HETATM   22  O8  UNL     1       8.574  -6.600   0.000  1.00  0.00     0.000 OA
HETATM   23  C11 UNL     1       7.145  -6.600   0.000  1.00  0.00     0.048 A 
HETATM   24  O9  UNL     1       7.145  -7.425   0.000  1.00  0.00     0.000 OA
HETATM   25  C12 UNL     1       6.430  -6.188   0.000  1.00  0.00     0.061 A 
HETATM   26  O10 UNL     1       5.716  -6.600   0.000  1.00  0.00     0.000 OA
ENDROOT
TORSDOF 18
