REMARK WARNING: 32 MAX_TORS EXCEEDED!!!
REMARK  41 active torsions:
REMARK  status: ('A' for Active; 'I' for Inactive)
REMARK    1  A    between atoms: C1_1  and  C16_19 
REMARK    2  A    between atoms: C1_1  and  O2_20 
REMARK    3  A    between atoms: C1_1  and  C17_21 
REMARK    4  A    between atoms: O1_2  and  C17_21 
REMARK    5  A    between atoms: C2_3  and  C14_17 
REMARK    6  A    between atoms: C2_3  and  C15_18 
REMARK    7  A    between atoms: C2_3  and  C17_21 
REMARK    8  A    between atoms: C3_4  and  C15_18 
REMARK    9  A    between atoms: C3_4  and  C16_19 
REMARK   10  A    between atoms: C4_5  and  C7_9 
REMARK   11  A    between atoms: C4_5  and  C16_19 
REMARK   12  A    between atoms: C5_6  and  C7_9 
REMARK   13  A    between atoms: C5_6  and  C14_17 
REMARK   14  A    between atoms: C6_7  and  C14_17 
REMARK   15  A    between atoms: C6_7  and  N2_25 
REMARK   16  A    between atoms: N1_8  and  C14_17 
REMARK   17  A    between atoms: C7_9  and  C14_17 
REMARK   18  A    between atoms: C7_9  and  C15_18 
REMARK   19  A    between atoms: C7_9  and  S1_22 
REMARK   20  A    between atoms: C7_9  and  O4_24 
REMARK   21  A    between atoms: C8_10  and  C11_13 
REMARK   22  A    between atoms: C8_10  and  C12_15 
REMARK   23  A    between atoms: C8_10  and  C14_17 
REMARK   24  A    between atoms: C8_10  and  C15_18 
REMARK   25  A    between atoms: C8_10  and  S1_22 
REMARK   26  A    between atoms: C8_10  and  O4_24 
REMARK   27  A    between atoms: C9_11  and  C12_15 
REMARK   28  A    between atoms: C9_11  and  C13_16 
REMARK   29  A    between atoms: C9_11  and  S1_22 
REMARK   30  A    between atoms: C9_11  and  O4_24 
REMARK   31  A    between atoms: C10_12  and  C13_16 
REMARK   32  A    between atoms: C10_12  and  O4_24 
REMARK   33  A    between atoms: C11_13  and  C13_16 
REMARK   34  A    between atoms: BR1_14  and  C12_15 
REMARK   35  A    between atoms: C12_15  and  C13_16 
REMARK   36  A    between atoms: C13_16  and  C14_17 
REMARK   37  A    between atoms: C13_16  and  C15_18 
REMARK   38  A    between atoms: C14_17  and  C16_19 
REMARK   39  A    between atoms: C15_18  and  C16_19 
REMARK   40  A    between atoms: C15_18  and  O2_20 
REMARK   41  A    between atoms: O3_23  and  N2_25 
ROOT
HETATM    1  C1  UNL     1      -0.715  -0.412   0.000  1.00  0.00     0.001 A 
HETATM    2  O1  UNL     1       0.000   0.000   0.000  1.00  0.00     0.000 OA
HETATM    3  C2  UNL     1       0.715  -0.412   0.000  1.00  0.00     0.008 A 
HETATM    4  C3  UNL     1       1.429   0.000   0.000  1.00  0.00     0.011 A 
HETATM    5  C4  UNL     1       2.143  -0.412   0.000  1.00  0.00     0.041 A 
HETATM    6  C5  UNL     1       2.858   0.000   0.000  1.00  0.00     0.048 A 
HETATM    7  C6  UNL     1       3.572  -0.412   0.000  1.00  0.00     0.226 A 
HETATM    8  N1  UNL     1       3.572  -1.238   0.000  1.00  0.00     0.000 N 
HETATM    9  C7  UNL     1       2.858  -1.650   0.000  1.00  0.00     0.068 A 
HETATM   10  C8  UNL     1       2.858  -2.475   0.000  1.00  0.00     0.057 A 
HETATM   11  C9  UNL     1       3.572  -2.888   0.000  1.00  0.00     0.064 A 
HETATM   12  C10 UNL     1       3.572  -3.712   0.000  1.00  0.00     0.052 A 
HETATM   13  C11 UNL     1       2.858  -4.125   0.000  1.00  0.00     0.052 A 
HETATM   14 BR1  UNL     1       2.858  -4.950   0.000  1.00  0.00    -0.181 Br
HETATM   15  C12 UNL     1       2.143  -3.712   0.000  1.00  0.00     0.052 A 
HETATM   16  C13 UNL     1       2.143  -2.888   0.000  1.00  0.00     0.043 A 
HETATM   17  C14 UNL     1       2.143  -1.238   0.000  1.00  0.00     0.044 A 
HETATM   18  C15 UNL     1       1.429  -1.650   0.000  1.00  0.00     0.022 A 
HETATM   19  C16 UNL     1       0.715  -1.238   0.000  1.00  0.00     0.008 A 
HETATM   20  O2  UNL     1       0.000  -1.650   0.000  1.00  0.00     0.000 OA
HETATM   21  C17 UNL     1      -0.715  -1.238   0.000  1.00  0.00     0.001 A 
HETATM   22  S1  UNL     1       4.287  -1.650   0.000  1.00  0.00     0.006 SA
HETATM   23  O3  UNL     1       5.001  -2.062   0.000  1.00  0.00     0.000 OA
HETATM   24  O4  UNL     1       3.874  -2.365   0.000  1.00  0.00     0.000 OA
HETATM   25  N2  UNL     1       4.699  -0.935   0.000  1.00  0.00     0.377 N 
ENDROOT
TORSDOF 41
