REMARK  18 active torsions:
REMARK  status: ('A' for Active; 'I' for Inactive)
REMARK    1  A    between atoms: C3_4  and  S1_16 
REMARK    2  A    between atoms: C3_4  and  O5_18 
REMARK    3  A    between atoms: O2_5  and  S1_16 
REMARK    4  A    between atoms: O2_5  and  O5_18 
REMARK    5  A    between atoms: C4_6  and  O5_18 
REMARK    6  A    between atoms: N1_7  and  C11_15 
REMARK    7  A    between atoms: C5_8  and  S1_16 
REMARK    8  A    between atoms: C6_10  and  C9_13 
REMARK    9  A    between atoms: C6_10  and  C10_14 
REMARK   10  A    between atoms: C6_10  and  S1_16 
REMARK   11  A    between atoms: C7_11  and  C10_14 
REMARK   12  A    between atoms: C7_11  and  C11_15 
REMARK   13  A    between atoms: C8_12  and  C11_15 
REMARK   14  A    between atoms: C9_13  and  C11_15 
REMARK   15  A    between atoms: C10_14  and  C11_15 
REMARK   16  A    between atoms: C10_14  and  S1_16 
REMARK   17  A    between atoms: C10_14  and  O4_17 
REMARK   18  A    between atoms: O4_17  and  O5_18 
ROOT
HETATM    1  C1  UNL     1       1.927  -2.735   0.000  1.00  0.00    -0.030 A 
HETATM    2  C2  UNL     1       2.642  -3.147   0.000  1.00  0.00     0.035 A 
HETATM    3  O1  UNL     1       3.357  -2.735   0.000  1.00  0.00     0.000 OA
HETATM    4  C3  UNL     1       4.071  -3.147   0.000  1.00  0.00     0.039 A 
HETATM    5  O2  UNL     1       4.071  -3.972   0.000  1.00  0.00     0.000 OA
HETATM    6  C4  UNL     1       4.785  -2.735   0.000  1.00  0.00     0.062 A 
HETATM    7  N1  UNL     1       5.500  -3.147   0.000  1.00  0.00     0.000 N 
HETATM    8  C5  UNL     1       6.254  -2.812   0.000  1.00  0.00     0.099 A 
HETATM    9  O3  UNL     1       6.425  -2.005   0.000  1.00  0.00    -0.356 OA
HETATM   10  C6  UNL     1       6.806  -3.425   0.000  1.00  0.00     0.073 A 
HETATM   11  C7  UNL     1       7.631  -3.425   0.000  1.00  0.00     0.065 A 
HETATM   12  C8  UNL     1       8.043  -4.139   0.000  1.00  0.00     0.049 A 
HETATM   13  C9  UNL     1       7.631  -4.854   0.000  1.00  0.00     0.049 A 
HETATM   14  C10 UNL     1       6.806  -4.854   0.000  1.00  0.00     0.048 A 
HETATM   15  C11 UNL     1       6.393  -4.139   0.000  1.00  0.00     0.060 A 
HETATM   16  S1  UNL     1       5.586  -3.968   0.000  1.00  0.00    -0.192 SA
HETATM   17  O4  UNL     1       5.323  -4.750   0.000  1.00  0.00     0.000 OA
HETATM   18  O5  UNL     1       4.781  -4.148   0.000  1.00  0.00     0.000 OA
ENDROOT
TORSDOF 18
