REMARK  32 active torsions:
REMARK  status: ('A' for Active; 'I' for Inactive)
REMARK    1  A    between atoms: C1_1  and  B1_5 
REMARK    2  A    between atoms: C2_2  and  O2_6 
REMARK    3  A    between atoms: C3_3  and  C4_7 
REMARK    4  A    between atoms: C3_3  and  C5_8 
REMARK    5  A    between atoms: C3_3  and  C6_9 
REMARK    6  A    between atoms: O1_4  and  C4_7 
REMARK    7  A    between atoms: B1_5  and  C4_7 
REMARK    8  A    between atoms: O2_6  and  C4_7 
REMARK    9  A    between atoms: O2_6  and  C5_8 
REMARK   10  A    between atoms: O2_6  and  C7_10 
REMARK   11  A    between atoms: C5_8  and  C6_9 
REMARK   12  A    between atoms: C7_10  and  C10_13 
REMARK   13  A    between atoms: C7_10  and  C11_14 
REMARK   14  A    between atoms: C8_11  and  C11_14 
REMARK   15  A    between atoms: C8_11  and  C12_15 
REMARK   16  A    between atoms: C9_12  and  C12_15 
REMARK   17  A    between atoms: C10_13  and  C12_15 
REMARK   18  A    between atoms: C11_14  and  C12_15 
REMARK   19  A    between atoms: C11_14  and  C13_16 
REMARK   20  A    between atoms: O3_17  and  N1_18 
REMARK   21  A    between atoms: C14_19  and  C21_26 
REMARK   22  A    between atoms: C16_21  and  C19_24 
REMARK   23  A    between atoms: C16_21  and  C20_25 
REMARK   24  A    between atoms: C17_22  and  C20_25 
REMARK   25  A    between atoms: C17_22  and  C21_26 
REMARK   26  A    between atoms: C18_23  and  C21_26 
REMARK   27  A    between atoms: C18_23  and  N2_30 
REMARK   28  A    between atoms: C19_24  and  C21_26 
REMARK   29  A    between atoms: C20_25  and  C21_26 
REMARK   30  A    between atoms: C20_25  and  S1_27 
REMARK   31  A    between atoms: C20_25  and  O5_29 
REMARK   32  A    between atoms: O4_28  and  N2_30 
ROOT
HETATM    1  C1  UNL     1      -2.782   0.539   0.000  1.00  0.00    -0.030 A 
HETATM    2  C2  UNL     1      -3.037  -0.245   0.000  1.00  0.00    -0.021 A 
HETATM    3  C3  UNL     1      -3.790   0.090   0.000  1.00  0.00    -0.024 A 
HETATM    4  O1  UNL     1      -2.230  -0.417   0.000  1.00  0.00     0.000 OA
HETATM    5  B1  UNL     1      -2.143  -1.238   0.000  1.00  0.00     0.263 B 
HETATM    6  O2  UNL     1      -2.897  -1.573   0.000  1.00  0.00     0.000 OA
HETATM    7  C4  UNL     1      -3.449  -0.960   0.000  1.00  0.00    -0.021 A 
HETATM    8  C5  UNL     1      -4.122  -1.438   0.000  1.00  0.00    -0.018 A 
HETATM    9  C6  UNL     1      -4.206  -0.632   0.000  1.00  0.00    -0.018 A 
HETATM   10  C7  UNL     1      -1.429  -1.650   0.000  1.00  0.00    -0.020 A 
HETATM   11  C8  UNL     1      -0.715  -1.238   0.000  1.00  0.00    -0.020 A 
HETATM   12  C9  UNL     1       0.000  -1.650   0.000  1.00  0.00    -0.021 A 
HETATM   13  C10 UNL     1       0.000  -2.475   0.000  1.00  0.00    -0.021 A 
HETATM   14  C11 UNL     1      -0.715  -2.888   0.000  1.00  0.00    -0.021 A 
HETATM   15  C12 UNL     1      -1.429  -2.475   0.000  1.00  0.00    -0.020 A 
HETATM   16  C13 UNL     1       0.715  -2.888   0.000  1.00  0.00    -0.006 A 
HETATM   17  O3  UNL     1       0.715  -3.712   0.000  1.00  0.00     0.000 OA
HETATM   18  N1  UNL     1       1.429  -2.475   0.000  1.00  0.00     0.000 N 
HETATM   19  C14 UNL     1       2.143  -2.888   0.000  1.00  0.00     0.011 A 
HETATM   20  C15 UNL     1       2.858  -2.475   0.000  1.00  0.00     0.017 A 
HETATM   21  C16 UNL     1       3.572  -2.888   0.000  1.00  0.00     0.075 A 
HETATM   22  C17 UNL     1       4.287  -2.475   0.000  1.00  0.00     0.080 A 
HETATM   23  C18 UNL     1       5.001  -2.888   0.000  1.00  0.00     0.210 A 
HETATM   24  C19 UNL     1       5.001  -3.712   0.000  1.00  0.00     0.210 A 
HETATM   25  C20 UNL     1       4.287  -4.125   0.000  1.00  0.00     0.110 A 
HETATM   26  C21 UNL     1       3.572  -3.712   0.000  1.00  0.00     0.075 A 
HETATM   27  S1  UNL     1       5.716  -4.125   0.000  1.00  0.00     0.037 SA
HETATM   28  O4  UNL     1       6.430  -4.537   0.000  1.00  0.00     0.000 OA
HETATM   29  O5  UNL     1       5.303  -4.840   0.000  1.00  0.00     0.000 OA
HETATM   30  N2  UNL     1       6.128  -3.410   0.000  1.00  0.00     0.173 N 
ENDROOT
TORSDOF 32
