REMARK WARNING: 32 MAX_TORS EXCEEDED!!!
REMARK  40 active torsions:
REMARK  status: ('A' for Active; 'I' for Inactive)
REMARK    1  A    between atoms: C3_5  and  C12_21 
REMARK    2  A    between atoms: C3_5  and  C15_26 
REMARK    3  A    between atoms: O3_6  and  C18_31 
REMARK    4  A    between atoms: C4_7  and  C13_23 
REMARK    5  A    between atoms: C4_7  and  O7_24 
REMARK    6  A    between atoms: C4_7  and  C18_31 
REMARK    7  A    between atoms: S1_8  and  C12_21 
REMARK    8  A    between atoms: S1_8  and  O6_22 
REMARK    9  A    between atoms: S1_8  and  C13_23 
REMARK   10  A    between atoms: S1_8  and  O7_24 
REMARK   11  A    between atoms: N1_9  and  O7_24 
REMARK   12  A    between atoms: C6_11  and  C9_14 
REMARK   13  A    between atoms: C6_11  and  C10_15 
REMARK   14  A    between atoms: C7_12  and  C10_15 
REMARK   15  A    between atoms: C7_12  and  C11_16 
REMARK   16  A    between atoms: C8_13  and  C11_16 
REMARK   17  A    between atoms: C8_13  and  O5_19 
REMARK   18  A    between atoms: C9_14  and  C11_16 
REMARK   19  A    between atoms: C10_15  and  C11_16 
REMARK   20  A    between atoms: C10_15  and  S2_17 
REMARK   21  A    between atoms: C10_15  and  N2_20 
REMARK   22  A    between atoms: O4_18  and  N2_20 
REMARK   23  A    between atoms: C12_21  and  C16_28 
REMARK   24  A    between atoms: C12_21  and  C17_30 
REMARK   25  A    between atoms: C12_21  and  C18_31 
REMARK   26  A    between atoms: O6_22  and  C15_26 
REMARK   27  A    between atoms: O6_22  and  C16_28 
REMARK   28  A    between atoms: O6_22  and  C17_30 
REMARK   29  A    between atoms: C13_23  and  C17_30 
REMARK   30  A    between atoms: C14_25  and  C17_30 
REMARK   31  A    between atoms: C15_26  and  C18_31 
REMARK   32  A    between atoms: C15_26  and  C17_30 
REMARK   33  A    between atoms: C15_26  and  O10_32 
REMARK   34  A    between atoms: C15_26  and  C19_33 
REMARK   35  A    between atoms: C15_26  and  C20_35 
REMARK   36  A    between atoms: O8_27  and  C18_31 
REMARK   37  A    between atoms: O8_27  and  C19_33 
REMARK   38  A    between atoms: O8_27  and  C20_35 
REMARK   39  A    between atoms: C16_28  and  C20_35 
REMARK   40  A    between atoms: C18_31  and  C20_35 
ROOT
HETATM    1  C1  UNL     1       2.143  -0.412   0.000  1.00  0.00     0.032 A 
HETATM    2  O1  UNL     1       2.143  -1.238   0.000  1.00  0.00     0.000 OA
HETATM    3  C2  UNL     1       2.858  -1.650   0.000  1.00  0.00     0.121 A 
HETATM    4  O2  UNL     1       3.572  -1.238   0.000  1.00  0.00    -0.361 OA
HETATM    5  C3  UNL     1       2.858  -2.475   0.000  1.00  0.00     0.108 A 
HETATM    6  O3  UNL     1       2.143  -2.888   0.000  1.00  0.00     0.000 OA
HETATM    7  C4  UNL     1       2.143  -3.712   0.000  1.00  0.00     0.069 A 
HETATM    8  S1  UNL     1       1.429  -4.125   0.000  1.00  0.00    -0.200 SA
HETATM    9  N1  UNL     1       0.715  -3.712   0.000  1.00  0.00     0.000 N 
HETATM   10  C5  UNL     1       0.000  -4.125   0.000  1.00  0.00     0.042 A 
HETATM   11  C6  UNL     1      -0.715  -3.712   0.000  1.00  0.00     0.088 A 
HETATM   12  C7  UNL     1      -1.429  -4.125   0.000  1.00  0.00     0.088 A 
HETATM   13  C8  UNL     1      -2.143  -3.712   0.000  1.00  0.00     0.112 A 
HETATM   14  C9  UNL     1      -2.143  -2.888   0.000  1.00  0.00     0.212 A 
HETATM   15  C10 UNL     1      -1.429  -2.475   0.000  1.00  0.00     0.212 A 
HETATM   16  C11 UNL     1      -0.715  -2.888   0.000  1.00  0.00     0.088 A 
HETATM   17  S2  UNL     1      -2.858  -2.475   0.000  1.00  0.00     0.037 SA
HETATM   18  O4  UNL     1      -3.572  -2.062   0.000  1.00  0.00     0.000 OA
HETATM   19  O5  UNL     1      -3.270  -3.189   0.000  1.00  0.00     0.000 OA
HETATM   20  N2  UNL     1      -2.445  -1.760   0.000  1.00  0.00     0.173 N 
HETATM   21  C12 UNL     1       2.858  -4.125   0.000  1.00  0.00     0.086 A 
HETATM   22  O6  UNL     1       2.858  -4.950   0.000  1.00  0.00     0.000 OA
HETATM   23  C13 UNL     1       2.143  -5.362   0.000  1.00  0.00     0.061 A 
HETATM   24  O7  UNL     1       1.429  -4.950   0.000  1.00  0.00     0.000 OA
HETATM   25  C14 UNL     1       2.143  -6.188   0.000  1.00  0.00     0.039 A 
HETATM   26  C15 UNL     1       3.572  -3.712   0.000  1.00  0.00     0.109 A 
HETATM   27  O8  UNL     1       4.287  -4.125   0.000  1.00  0.00     0.000 OA
HETATM   28  C16 UNL     1       4.287  -4.950   0.000  1.00  0.00     0.131 A 
HETATM   29  O9  UNL     1       5.001  -5.362   0.000  1.00  0.00    -0.360 OA
HETATM   30  C17 UNL     1       3.572  -5.362   0.000  1.00  0.00     0.103 A 
HETATM   31  C18 UNL     1       3.572  -2.888   0.000  1.00  0.00     0.103 A 
HETATM   32  O10 UNL     1       4.287  -2.475   0.000  1.00  0.00     0.000 OA
HETATM   33  C19 UNL     1       5.001  -2.888   0.000  1.00  0.00     0.132 A 
HETATM   34  O11 UNL     1       5.716  -2.475   0.000  1.00  0.00    -0.358 OA
HETATM   35  C20 UNL     1       5.001  -3.712   0.000  1.00  0.00     0.133 A 
ENDROOT
TORSDOF 40
