REMARK  27 active torsions:
REMARK  status: ('A' for Active; 'I' for Inactive)
REMARK    1  A    between atoms: O1_3  and  C6_10 
REMARK    2  A    between atoms: O2_4  and  C1_5 
REMARK    3  A    between atoms: O2_4  and  C2_6 
REMARK    4  A    between atoms: C1_5  and  C4_8 
REMARK    5  A    between atoms: C1_5  and  C5_9 
REMARK    6  A    between atoms: C2_6  and  C5_9 
REMARK    7  A    between atoms: C2_6  and  C6_10 
REMARK    8  A    between atoms: C3_7  and  C6_10 
REMARK    9  A    between atoms: C4_8  and  C6_10 
REMARK   10  A    between atoms: C5_9  and  C6_10 
REMARK   11  A    between atoms: C5_9  and  C7_11 
REMARK   12  A    between atoms: O3_12  and  N2_13 
REMARK   13  A    between atoms: C8_15  and  O5_19 
REMARK   14  A    between atoms: O4_16  and  N4_17 
REMARK   15  A    between atoms: O4_16  and  S2_18 
REMARK   16  A    between atoms: O4_16  and  O5_19 
REMARK   17  A    between atoms: O5_19  and  C14_27 
REMARK   18  A    between atoms: O6_20  and  C9_21 
REMARK   19  A    between atoms: O6_20  and  C10_22 
REMARK   20  A    between atoms: C9_21  and  C12_24 
REMARK   21  A    between atoms: C9_21  and  C13_26 
REMARK   22  A    between atoms: C10_22  and  C13_26 
REMARK   23  A    between atoms: C10_22  and  C14_27 
REMARK   24  A    between atoms: C11_23  and  C14_27 
REMARK   25  A    between atoms: C12_24  and  C14_27 
REMARK   26  A    between atoms: F1_25  and  C13_26 
REMARK   27  A    between atoms: C13_26  and  C14_27 
ROOT
HETATM    1  N1  UNL     1       3.572  -2.888   0.000  1.00  0.00    -0.082 NA
HETATM    2  S1  UNL     1       3.572  -3.712   0.000  1.00  0.00    -0.128 SA
HETATM    3  O1  UNL     1       2.747  -3.712   0.000  1.00  0.00     0.000 OA
HETATM    4  O2  UNL     1       4.397  -3.712   0.000  1.00  0.00     0.000 OA
HETATM    5  C1  UNL     1       3.572  -4.537   0.000  1.00  0.00     0.043 A 
HETATM    6  C2  UNL     1       4.287  -4.950   0.000  1.00  0.00     0.043 A 
HETATM    7  C3  UNL     1       4.287  -5.775   0.000  1.00  0.00     0.025 A 
HETATM    8  C4  UNL     1       3.572  -6.188   0.000  1.00  0.00     0.025 A 
HETATM    9  C5  UNL     1       2.858  -5.775   0.000  1.00  0.00     0.025 A 
HETATM   10  C6  UNL     1       2.858  -4.950   0.000  1.00  0.00     0.043 A 
HETATM   11  C7  UNL     1       3.572  -7.013   0.000  1.00  0.00     0.007 A 
HETATM   12  O3  UNL     1       4.287  -7.425   0.000  1.00  0.00     0.000 OA
HETATM   13  N2  UNL     1       2.858  -7.425   0.000  1.00  0.00     0.000 N 
HETATM   14  N3  UNL     1       2.858  -8.250   0.000  1.00  0.00     0.000 N 
HETATM   15  C8  UNL     1       2.143  -8.662   0.000  1.00  0.00     0.051 A 
HETATM   16  O4  UNL     1       1.429  -8.250   0.000  1.00  0.00     0.000 OA
HETATM   17  N4  UNL     1       2.143  -9.488   0.000  1.00  0.00     0.000 N 
HETATM   18  S2  UNL     1       1.429  -9.900   0.000  1.00  0.00    -0.189 SA
HETATM   19  O5  UNL     1       1.016  -9.185   0.000  1.00  0.00     0.000 OA
HETATM   20  O6  UNL     1       1.841 -10.614   0.000  1.00  0.00     0.000 OA
HETATM   21  C9  UNL     1       0.715 -10.312   0.000  1.00  0.00     0.097 A 
HETATM   22  C10 UNL     1       0.715 -11.137   0.000  1.00  0.00     0.097 A 
HETATM   23  C11 UNL     1      -0.000 -11.550   0.000  1.00  0.00     0.107 A 
HETATM   24  C12 UNL     1      -0.715 -11.137   0.000  1.00  0.00     0.107 A 
HETATM   25  F1  UNL     1      -1.429 -11.550   0.000  1.00  0.00    -0.475 F 
HETATM   26  C13 UNL     1      -0.715 -10.312   0.000  1.00  0.00     0.107 A 
HETATM   27  C14 UNL     1      -0.000  -9.900   0.000  1.00  0.00     0.097 A 
ENDROOT
TORSDOF 27
