REMARK  19 active torsions:
REMARK  status: ('A' for Active; 'I' for Inactive)
REMARK    1  A    between atoms: O1_3  and  S2_9 
REMARK    2  A    between atoms: O2_4  and  C1_5 
REMARK    3  A    between atoms: O2_4  and  C2_6 
REMARK    4  A    between atoms: C1_5  and  C4_8 
REMARK    5  A    between atoms: C2_6  and  S2_9 
REMARK    6  A    between atoms: C3_7  and  S2_9 
REMARK    7  A    between atoms: C4_8  and  S2_9 
REMARK    8  A    between atoms: S2_9  and  C5_10 
REMARK    9  A    between atoms: S2_9  and  C7_14 
REMARK   10  A    between atoms: C5_10  and  N2_13 
REMARK   11  A    between atoms: O3_11  and  C7_14 
REMARK   12  A    between atoms: C6_12  and  C7_14 
REMARK   13  A    between atoms: N2_13  and  C7_14 
REMARK   14  A    between atoms: N2_13  and  C8_15 
REMARK   15  A    between atoms: O4_16  and  N3_17 
REMARK   16  A    between atoms: N3_17  and  C11_20 
REMARK   17  A    between atoms: C9_18  and  C12_21 
REMARK   18  A    between atoms: C10_19  and  C12_21 
REMARK   19  A    between atoms: C11_20  and  C12_21 
ROOT
HETATM    1  N1  UNL     1       4.024  -0.661   0.000  1.00  0.00    -0.074 NA
HETATM    2  S1  UNL     1       4.024  -1.486   0.000  1.00  0.00    -0.100 SA
HETATM    3  O1  UNL     1       3.199  -1.486   0.000  1.00  0.00     0.000 OA
HETATM    4  O2  UNL     1       4.849  -1.486   0.000  1.00  0.00     0.000 OA
HETATM    5  C1  UNL     1       4.024  -2.311   0.000  1.00  0.00     0.079 A 
HETATM    6  C2  UNL     1       4.692  -2.796   0.000  1.00  0.00     0.079 A 
HETATM    7  C3  UNL     1       4.437  -3.581   0.000  1.00  0.00     0.057 A 
HETATM    8  C4  UNL     1       3.612  -3.581   0.000  1.00  0.00     0.055 A 
HETATM    9  S2  UNL     1       3.357  -2.796   0.000  1.00  0.00    -0.186 SA
HETATM   10  C5  UNL     1       3.127  -4.248   0.000  1.00  0.00     0.037 A 
HETATM   11  O3  UNL     1       3.382  -5.033   0.000  1.00  0.00     0.000 OA
HETATM   12  C6  UNL     1       2.714  -5.518   0.000  1.00  0.00     0.017 A 
HETATM   13  N2  UNL     1       2.047  -5.033   0.000  1.00  0.00     0.000 N 
HETATM   14  C7  UNL     1       2.302  -4.248   0.000  1.00  0.00     0.035 A 
HETATM   15  C8  UNL     1       2.714  -6.343   0.000  1.00  0.00     0.002 A 
HETATM   16  O4  UNL     1       3.429  -6.755   0.000  1.00  0.00     0.000 OA
HETATM   17  N3  UNL     1       2.000  -6.755   0.000  1.00  0.00     0.000 N 
HETATM   18  C9  UNL     1       1.914  -7.576   0.000  1.00  0.00     0.000 A 
HETATM   19  C10 UNL     1       1.107  -7.747   0.000  1.00  0.00     0.000 A 
HETATM   20  C11 UNL     1       0.694  -7.033   0.000  1.00  0.00     0.000 A 
HETATM   21  C12 UNL     1       1.246  -6.420   0.000  1.00  0.00     0.000 A 
ENDROOT
TORSDOF 19
