REMARK  10 active torsions:
REMARK  status: ('A' for Active; 'I' for Inactive)
REMARK    1  A    between atoms: C2_4  and  C9_13 
REMARK    2  A    between atoms: C4_6  and  C7_9 
REMARK    3  A    between atoms: C4_6  and  C8_11 
REMARK    4  A    between atoms: C5_7  and  C8_11 
REMARK    5  A    between atoms: C5_7  and  C9_13 
REMARK    6  A    between atoms: C6_8  and  C9_13 
REMARK    7  A    between atoms: C7_9  and  C9_13 
REMARK    8  A    between atoms: O3_10  and  C8_11 
REMARK    9  A    between atoms: C8_11  and  C9_13 
REMARK   10  A    between atoms: O4_12  and  C9_13 
ROOT
HETATM    1  O1  UNL     1      -0.715   3.712   0.000  1.00  0.00    -0.315 OA
HETATM    2  C1  UNL     1       0.000   3.300   0.000  1.00  0.00     0.234 A 
HETATM    3  O2  UNL     1       0.715   3.712   0.000  1.00  0.00    -0.315 OA
HETATM    4  C2  UNL     1       0.000   2.475   0.000  1.00  0.00     0.166 A 
HETATM    5  C3  UNL     1       0.715   2.062   0.000  1.00  0.00     0.095 A 
HETATM    6  C4  UNL     1       0.715   1.238   0.000  1.00  0.00     0.045 A 
HETATM    7  C5  UNL     1       1.429   0.825   0.000  1.00  0.00     0.017 A 
HETATM    8  C6  UNL     1       1.429  -0.000   0.000  1.00  0.00     0.009 A 
HETATM    9  C7  UNL     1       0.715  -0.412   0.000  1.00  0.00     0.009 A 
HETATM   10  O3  UNL     1       0.715  -1.238   0.000  1.00  0.00     0.000 OA
HETATM   11  C8  UNL     1       0.000   0.000   0.000  1.00  0.00     0.009 A 
HETATM   12  O4  UNL     1      -0.715  -0.412   0.000  1.00  0.00     0.000 OA
HETATM   13  C9  UNL     1       0.000   0.825   0.000  1.00  0.00     0.045 A 
ENDROOT
TORSDOF 10
