REMARK  29 active torsions:
REMARK  status: ('A' for Active; 'I' for Inactive)
REMARK    1  A    between atoms: C2_2  and  C9_10 
REMARK    2  A    between atoms: C3_3  and  O1_4 
REMARK    3  A    between atoms: C3_3  and  C4_5 
REMARK    4  A    between atoms: C3_3  and  C9_10 
REMARK    5  A    between atoms: C4_5  and  C7_8 
REMARK    6  A    between atoms: C4_5  and  C8_9 
REMARK    7  A    between atoms: C5_6  and  C8_9 
REMARK    8  A    between atoms: C5_6  and  C9_10 
REMARK    9  A    between atoms: C6_7  and  C9_10 
REMARK   10  A    between atoms: C6_7  and  C11_12 
REMARK   11  A    between atoms: C7_8  and  C9_10 
REMARK   12  A    between atoms: C8_9  and  C9_10 
REMARK   13  A    between atoms: C8_9  and  C10_11 
REMARK   14  A    between atoms: C8_9  and  C17_22 
REMARK   15  A    between atoms: C10_11  and  C13_14 
REMARK   16  A    between atoms: C10_11  and  C16_21 
REMARK   17  A    between atoms: C11_12  and  C16_21 
REMARK   18  A    between atoms: C11_12  and  C17_22 
REMARK   19  A    between atoms: C12_13  and  C17_22 
REMARK   20  A    between atoms: C13_14  and  C14_19 
REMARK   21  A    between atoms: C13_14  and  C15_20 
REMARK   22  A    between atoms: C13_14  and  C17_22 
REMARK   23  A    between atoms: O2_15  and  C16_21 
REMARK   24  A    between atoms: S1_16  and  C16_21 
REMARK   25  A    between atoms: O4_18  and  C14_19 
REMARK   26  A    between atoms: C14_19  and  C16_21 
REMARK   27  A    between atoms: C15_20  and  C16_21 
REMARK   28  A    between atoms: C15_20  and  C17_22 
REMARK   29  A    between atoms: C16_21  and  C17_22 
ROOT
HETATM    1  C1  UNL     1      -2.858  -4.125   0.000  1.00  0.00     0.000 A 
HETATM    2  C2  UNL     1      -2.143  -3.712   0.000  1.00  0.00     0.000 A 
HETATM    3  C3  UNL     1      -1.429  -4.125   0.000  1.00  0.00     0.000 A 
HETATM    4  O1  UNL     1      -2.143  -2.888   0.000  1.00  0.00     0.000 OA
HETATM    5  C4  UNL     1      -1.429  -2.475   0.000  1.00  0.00     0.000 A 
HETATM    6  C5  UNL     1      -1.429  -1.650   0.000  1.00  0.00     0.000 A 
HETATM    7  C6  UNL     1      -0.715  -1.238   0.000  1.00  0.00     0.003 A 
HETATM    8  C7  UNL     1       0.000  -1.650   0.000  1.00  0.00     0.004 A 
HETATM    9  C8  UNL     1       0.000  -2.475   0.000  1.00  0.00     0.003 A 
HETATM   10  C9  UNL     1      -0.715  -2.888   0.000  1.00  0.00     0.000 A 
HETATM   11  C10 UNL     1       0.715  -1.238   0.000  1.00  0.00     0.013 A 
HETATM   12  C11 UNL     1       0.715  -0.412   0.000  1.00  0.00     0.014 A 
HETATM   13  C12 UNL     1       1.429   0.000   0.000  1.00  0.00     0.016 A 
HETATM   14  C13 UNL     1       2.143  -0.412   0.000  1.00  0.00     0.026 A 
HETATM   15  O2  UNL     1       2.858   0.000   0.000  1.00  0.00     0.000 OA
HETATM   16  S1  UNL     1       3.572  -0.412   0.000  1.00  0.00    -0.208 SA
HETATM   17  O3  UNL     1       3.854   0.363   0.000  1.00  0.00     0.000 OA
HETATM   18  O4  UNL     1       4.385  -0.556   0.000  1.00  0.00     0.000 OA
HETATM   19  C14 UNL     1       3.572  -1.238   0.000  1.00  0.00     0.045 A 
HETATM   20  C15 UNL     1       2.858  -1.650   0.000  1.00  0.00     0.039 A 
HETATM   21  C16 UNL     1       2.143  -1.238   0.000  1.00  0.00     0.026 A 
HETATM   22  C17 UNL     1       1.429  -1.650   0.000  1.00  0.00     0.018 A 
ENDROOT
TORSDOF 29
