REMARK  18 active torsions:
REMARK  status: ('A' for Active; 'I' for Inactive)
REMARK    1  A    between atoms: C1_3  and  C3_9 
REMARK    2  A    between atoms: N3_4  and  N9_23 
REMARK    3  A    between atoms: N4_6  and  N6_8 
REMARK    4  A    between atoms: N6_8  and  N9_23 
REMARK    5  A    between atoms: C3_9  and  N9_23 
REMARK    6  A    between atoms: N7_10  and  N9_23 
REMARK    7  A    between atoms: C4_11  and  C11_18 
REMARK    8  A    between atoms: C6_13  and  C9_16 
REMARK    9  A    between atoms: C6_13  and  C10_17 
REMARK   10  A    between atoms: C7_14  and  C10_17 
REMARK   11  A    between atoms: C7_14  and  C11_18 
REMARK   12  A    between atoms: C8_15  and  C11_18 
REMARK   13  A    between atoms: C8_15  and  N8_22 
REMARK   14  A    between atoms: C9_16  and  C11_18 
REMARK   15  A    between atoms: C10_17  and  C11_18 
REMARK   16  A    between atoms: C10_17  and  S1_19 
REMARK   17  A    between atoms: C10_17  and  O2_21 
REMARK   18  A    between atoms: O1_20  and  N8_22 
ROOT
HETATM    1  N1  UNL     1       3.572  -1.238   0.000  1.00  0.00    -0.003 NA
HETATM    2  N2  UNL     1       2.858  -1.650   0.000  1.00  0.00     0.510 N 
HETATM    3  C1  UNL     1       2.858  -2.475   0.000  1.00  0.00     0.426 A 
HETATM    4  N3  UNL     1       3.572  -2.888   0.000  1.00  0.00     0.000 N 
HETATM    5  C2  UNL     1       3.572  -3.712   0.000  1.00  0.00     0.426 A 
HETATM    6  N4  UNL     1       4.287  -4.125   0.000  1.00  0.00     0.510 N 
HETATM    7  N5  UNL     1       4.287  -4.950   0.000  1.00  0.00    -0.003 NA
HETATM    8  N6  UNL     1       2.858  -4.125   0.000  1.00  0.00     0.000 N 
HETATM    9  C3  UNL     1       2.143  -3.712   0.000  1.00  0.00     0.126 A 
HETATM   10  N7  UNL     1       1.429  -4.125   0.000  1.00  0.00     0.000 N 
HETATM   11  C4  UNL     1       0.715  -3.712   0.000  1.00  0.00     0.020 A 
HETATM   12  C5  UNL     1       0.000  -4.125   0.000  1.00  0.00     0.017 A 
HETATM   13  C6  UNL     1      -0.715  -3.712   0.000  1.00  0.00     0.076 A 
HETATM   14  C7  UNL     1      -1.429  -4.125   0.000  1.00  0.00     0.080 A 
HETATM   15  C8  UNL     1      -2.143  -3.712   0.000  1.00  0.00     0.210 A 
HETATM   16  C9  UNL     1      -2.143  -2.888   0.000  1.00  0.00     0.210 A 
HETATM   17  C10 UNL     1      -1.429  -2.475   0.000  1.00  0.00     0.110 A 
HETATM   18  C11 UNL     1      -0.715  -2.888   0.000  1.00  0.00     0.076 A 
HETATM   19  S1  UNL     1      -2.858  -2.475   0.000  1.00  0.00     0.037 SA
HETATM   20  O1  UNL     1      -3.572  -2.062   0.000  1.00  0.00     0.000 OA
HETATM   21  O2  UNL     1      -2.445  -1.760   0.000  1.00  0.00     0.000 OA
HETATM   22  N8  UNL     1      -3.270  -3.189   0.000  1.00  0.00     0.173 N 
HETATM   23  N9  UNL     1       2.143  -2.888   0.000  1.00  0.00     0.000 N 
ENDROOT
TORSDOF 18
