REMARK  23 active torsions:
REMARK  status: ('A' for Active; 'I' for Inactive)
REMARK    1  A    between atoms: C1_2  and  C15_17 
REMARK    2  A    between atoms: C1_2  and  C16_18 
REMARK    3  A    between atoms: C2_4  and  C13_15 
REMARK    4  A    between atoms: C2_4  and  C14_16 
REMARK    5  A    between atoms: C2_4  and  C17_19 
REMARK    6  A    between atoms: C3_5  and  C6_8 
REMARK    7  A    between atoms: C3_5  and  C14_16 
REMARK    8  A    between atoms: C3_5  and  C15_17 
REMARK    9  A    between atoms: C4_6  and  C15_17 
REMARK   10  A    between atoms: C5_7  and  C12_14 
REMARK   11  A    between atoms: C5_7  and  C13_15 
REMARK   12  A    between atoms: C7_9  and  C10_12 
REMARK   13  A    between atoms: C7_9  and  C11_13 
REMARK   14  A    between atoms: C8_10  and  C11_13 
REMARK   15  A    between atoms: C8_10  and  C12_14 
REMARK   16  A    between atoms: C9_11  and  C12_14 
REMARK   17  A    between atoms: C10_12  and  C12_14 
REMARK   18  A    between atoms: C11_13  and  C12_14 
REMARK   19  A    between atoms: C13_15  and  C15_17 
REMARK   20  A    between atoms: C14_16  and  C15_17 
REMARK   21  A    between atoms: C14_16  and  C16_18 
REMARK   22  A    between atoms: C15_17  and  C17_19 
REMARK   23  A    between atoms: C16_18  and  C17_19 
ROOT
HETATM    1  O1  UNL     1       0.000   0.000   0.000  1.00  0.00    -0.363 OA
HETATM    2  C1  UNL     1       0.715  -0.412   0.000  1.00  0.00     0.098 A 
HETATM    3  O2  UNL     1       1.429   0.000   0.000  1.00  0.00     0.000 OA
HETATM    4  C2  UNL     1       2.143  -0.412   0.000  1.00  0.00     0.040 A 
HETATM    5  C3  UNL     1       2.858   0.000   0.000  1.00  0.00     0.008 A 
HETATM    6  C4  UNL     1       3.572  -0.412   0.000  1.00  0.00     0.008 A 
HETATM    7  C5  UNL     1       4.287  -0.000   0.000  1.00  0.00     0.001 A 
HETATM    8  C6  UNL     1       4.287   0.825   0.000  1.00  0.00     0.001 A 
HETATM    9  C7  UNL     1       5.001   1.238   0.000  1.00  0.00     0.000 A 
HETATM   10  C8  UNL     1       5.001   2.062   0.000  1.00  0.00     0.000 A 
HETATM   11  C9  UNL     1       5.716   2.475   0.000  1.00  0.00     0.000 A 
HETATM   12  C10 UNL     1       6.430   2.062   0.000  1.00  0.00     0.000 A 
HETATM   13  C11 UNL     1       6.430   1.238   0.000  1.00  0.00     0.000 A 
HETATM   14  C12 UNL     1       5.716   0.825   0.000  1.00  0.00     0.000 A 
HETATM   15  C13 UNL     1       3.572  -1.238   0.000  1.00  0.00     0.008 A 
HETATM   16  C14 UNL     1       2.858  -1.650   0.000  1.00  0.00     0.012 A 
HETATM   17  C15 UNL     1       2.143  -1.238   0.000  1.00  0.00     0.040 A 
HETATM   18  C16 UNL     1       1.429  -1.650   0.000  1.00  0.00     0.050 A 
HETATM   19  C17 UNL     1       0.715  -1.238   0.000  1.00  0.00     0.098 A 
ENDROOT
TORSDOF 23
