REMARK WARNING: 32 MAX_TORS EXCEEDED!!!
REMARK  35 active torsions:
REMARK  status: ('A' for Active; 'I' for Inactive)
REMARK    1  A    between atoms: C4_6  and  C16_21 
REMARK    2  A    between atoms: C4_6  and  C19_26 
REMARK    3  A    between atoms: O3_7  and  C22_31 
REMARK    4  A    between atoms: C5_8  and  C17_23 
REMARK    5  A    between atoms: C5_8  and  O7_24 
REMARK    6  A    between atoms: C5_8  and  C22_31 
REMARK    7  A    between atoms: C6_9  and  C16_21 
REMARK    8  A    between atoms: C6_9  and  C17_23 
REMARK    9  A    between atoms: C6_9  and  O7_24 
REMARK   10  A    between atoms: C7_10  and  O7_24 
REMARK   11  A    between atoms: O4_11  and  C8_12 
REMARK   12  A    between atoms: C8_12  and  C15_20 
REMARK   13  A    between atoms: C10_14  and  C13_17 
REMARK   14  A    between atoms: C10_14  and  C14_19 
REMARK   15  A    between atoms: C11_15  and  C14_19 
REMARK   16  A    between atoms: C11_15  and  C15_20 
REMARK   17  A    between atoms: C12_16  and  C15_20 
REMARK   18  A    between atoms: C13_17  and  C15_20 
REMARK   19  A    between atoms: O5_18  and  C14_19 
REMARK   20  A    between atoms: C14_19  and  C15_20 
REMARK   21  A    between atoms: C16_21  and  C20_28 
REMARK   22  A    between atoms: C16_21  and  O9_29 
REMARK   23  A    between atoms: C16_21  and  C22_31 
REMARK   24  A    between atoms: O6_22  and  C19_26 
REMARK   25  A    between atoms: O6_22  and  C20_28 
REMARK   26  A    between atoms: O6_22  and  O9_29 
REMARK   27  A    between atoms: C17_23  and  O9_29 
REMARK   28  A    between atoms: C19_26  and  C22_31 
REMARK   29  A    between atoms: C19_26  and  O10_32 
REMARK   30  A    between atoms: C19_26  and  C23_33 
REMARK   31  A    between atoms: C19_26  and  O11_34 
REMARK   32  A    between atoms: O8_27  and  C22_31 
REMARK   33  A    between atoms: O8_27  and  C23_33 
REMARK   34  A    between atoms: O8_27  and  O11_34 
REMARK   35  A    between atoms: C20_28  and  O11_34 
ROOT
HETATM    1  C1  UNL     1       0.715  -1.238   0.000  1.00  0.00     0.172 A 
HETATM    2  C2  UNL     1       1.429  -1.650   0.000  1.00  0.00     0.145 A 
HETATM    3  O1  UNL     1       2.143  -1.238   0.000  1.00  0.00    -0.352 OA
HETATM    4  O2  UNL     1       1.429  -2.475   0.000  1.00  0.00     0.000 OA
HETATM    5  C3  UNL     1       2.143  -2.888   0.000  1.00  0.00     0.030 A 
HETATM    6  C4  UNL     1       2.143  -3.712   0.000  1.00  0.00     0.002 A 
HETATM    7  O3  UNL     1       2.858  -4.125   0.000  1.00  0.00     0.000 OA
HETATM    8  C5  UNL     1       2.858  -4.950   0.000  1.00  0.00     0.000 A 
HETATM    9  C6  UNL     1       3.572  -5.362   0.000  1.00  0.00     0.000 A 
HETATM   10  C7  UNL     1       4.287  -4.950   0.000  1.00  0.00     0.000 A 
HETATM   11  O4  UNL     1       4.287  -4.125   0.000  1.00  0.00     0.000 OA
HETATM   12  C8  UNL     1       5.001  -5.362   0.000  1.00  0.00     0.000 A 
HETATM   13  C9  UNL     1       5.716  -4.950   0.000  1.00  0.00     0.000 A 
HETATM   14  C10 UNL     1       6.430  -5.362   0.000  1.00  0.00     0.000 A 
HETATM   15  C11 UNL     1       7.145  -4.950   0.000  1.00  0.00     0.000 A 
HETATM   16  C12 UNL     1       7.859  -5.362   0.000  1.00  0.00     0.000 A 
HETATM   17  C13 UNL     1       7.859  -6.188   0.000  1.00  0.00     0.000 A 
HETATM   18  O5  UNL     1       8.574  -6.600   0.000  1.00  0.00     0.000 OA
HETATM   19  C14 UNL     1       7.145  -6.600   0.000  1.00  0.00     0.000 A 
HETATM   20  C15 UNL     1       6.430  -6.188   0.000  1.00  0.00     0.000 A 
HETATM   21  C16 UNL     1       2.143  -5.362   0.000  1.00  0.00     0.000 A 
HETATM   22  O6  UNL     1       2.143  -6.188   0.000  1.00  0.00     0.000 OA
HETATM   23  C17 UNL     1       2.858  -6.600   0.000  1.00  0.00     0.000 A 
HETATM   24  O7  UNL     1       3.572  -6.188   0.000  1.00  0.00     0.000 OA
HETATM   25  C18 UNL     1       2.858  -7.425   0.000  1.00  0.00     0.000 A 
HETATM   26  C19 UNL     1       1.429  -4.950   0.000  1.00  0.00     0.000 A 
HETATM   27  O8  UNL     1       0.715  -5.362   0.000  1.00  0.00     0.000 OA
HETATM   28  C20 UNL     1       0.715  -6.188   0.000  1.00  0.00     0.000 A 
HETATM   29  O9  UNL     1       1.429  -6.600   0.000  1.00  0.00     0.000 OA
HETATM   30  C21 UNL     1       0.000  -6.600   0.000  1.00  0.00     0.000 A 
HETATM   31  C22 UNL     1       1.429  -4.125   0.000  1.00  0.00     0.002 A 
HETATM   32  O10 UNL     1       0.715  -3.712   0.000  1.00  0.00     0.000 OA
HETATM   33  C23 UNL     1       0.000  -4.125   0.000  1.00  0.00     0.000 A 
HETATM   34  O11 UNL     1       0.000  -4.950   0.000  1.00  0.00     0.000 OA
HETATM   35  C24 UNL     1      -0.715  -3.712   0.000  1.00  0.00     0.000 A 
ENDROOT
TORSDOF 35
