REMARK WARNING: 32 MAX_TORS EXCEEDED!!!
REMARK  56 active torsions:
REMARK  status: ('A' for Active; 'I' for Inactive)
REMARK    1  A    between atoms: C1_1  and  O6_29 
REMARK    2  A    between atoms: C2_2  and  C4_6 
REMARK    3  A    between atoms: C2_2  and  O3_7 
REMARK    4  A    between atoms: O1_3  and  C4_6 
REMARK    5  A    between atoms: O1_3  and  O3_7 
REMARK    6  A    between atoms: O1_3  and  C5_8 
REMARK    7  A    between atoms: O1_3  and  S1_9 
REMARK    8  A    between atoms: O1_3  and  C6_10 
REMARK    9  A    between atoms: O2_4  and  C26_44 
REMARK   10  A    between atoms: C3_5  and  C25_42 
REMARK   11  A    between atoms: C3_5  and  C26_44 
REMARK   12  A    between atoms: C4_6  and  C18_30 
REMARK   13  A    between atoms: C4_6  and  C21_35 
REMARK   14  A    between atoms: C4_6  and  C25_42 
REMARK   15  A    between atoms: C4_6  and  C26_44 
REMARK   16  A    between atoms: O3_7  and  C24_40 
REMARK   17  A    between atoms: C5_8  and  C24_40 
REMARK   18  A    between atoms: S1_9  and  N1_12 
REMARK   19  A    between atoms: S1_9  and  C18_30 
REMARK   20  A    between atoms: S1_9  and  O7_31 
REMARK   21  A    between atoms: C7_11  and  N3_14 
REMARK   22  A    between atoms: N1_12  and  C14_25 
REMARK   23  A    between atoms: N2_13  and  C14_25 
REMARK   24  A    between atoms: N3_14  and  C14_25 
REMARK   25  A    between atoms: N3_14  and  C15_26 
REMARK   26  A    between atoms: C8_15  and  C11_18 
REMARK   27  A    between atoms: C8_15  and  C12_19 
REMARK   28  A    between atoms: C8_15  and  C14_25 
REMARK   29  A    between atoms: C9_16  and  C12_19 
REMARK   30  A    between atoms: C9_16  and  C13_20 
REMARK   31  A    between atoms: C9_16  and  C15_26 
REMARK   32  A    between atoms: C10_17  and  C13_20 
REMARK   33  A    between atoms: C10_17  and  N4_24 
REMARK   34  A    between atoms: C11_18  and  C13_20 
REMARK   35  A    between atoms: C12_19  and  C13_20 
REMARK   36  A    between atoms: C12_19  and  S2_21 
REMARK   37  A    between atoms: C12_19  and  O5_23 
REMARK   38  A    between atoms: O4_22  and  N4_24 
REMARK   39  A    between atoms: C18_30  and  C20_34 
REMARK   40  A    between atoms: C18_30  and  C24_40 
REMARK   41  A    between atoms: O7_31  and  C21_35 
REMARK   42  A    between atoms: C19_32  and  C21_35 
REMARK   43  A    between atoms: C19_32  and  O9_36 
REMARK   44  A    between atoms: C20_34  and  C21_35 
REMARK   45  A    between atoms: C20_34  and  O9_36 
REMARK   46  A    between atoms: C20_34  and  C22_37 
REMARK   47  A    between atoms: C21_35  and  C24_40 
REMARK   48  A    between atoms: C21_35  and  C23_39 
REMARK   49  A    between atoms: C21_35  and  O11_41 
REMARK   50  A    between atoms: O9_36  and  C24_40 
REMARK   51  A    between atoms: C22_37  and  C24_40 
REMARK   52  A    between atoms: C22_37  and  O11_41 
REMARK   53  A    between atoms: C23_39  and  C24_40 
REMARK   54  A    between atoms: C23_39  and  O11_41 
REMARK   55  A    between atoms: C23_39  and  C25_42 
REMARK   56  A    between atoms: C24_40  and  C26_44 
ROOT
HETATM    1  C1  UNL     1       2.858   0.825   0.000  1.00  0.00     0.000 A 
HETATM    2  C2  UNL     1       2.143   1.238   0.000  1.00  0.00     0.011 A 
HETATM    3  O1  UNL     1       1.429   0.825   0.000  1.00  0.00     0.000 OA
HETATM    4  O2  UNL     1       2.143   2.062   0.000  1.00  0.00     0.000 OA
HETATM    5  C3  UNL     1       1.429   2.475   0.000  1.00  0.00     0.057 A 
HETATM    6  C4  UNL     1       0.715   2.062   0.000  1.00  0.00     0.065 A 
HETATM    7  O3  UNL     1       0.715   1.238   0.000  1.00  0.00     0.000 OA
HETATM    8  C5  UNL     1       0.000   0.825   0.000  1.00  0.00     0.050 A 
HETATM    9  S1  UNL     1       0.000  -0.000   0.000  1.00  0.00    -0.205 SA
HETATM   10  C6  UNL     1       0.715  -0.412   0.000  1.00  0.00     0.040 A 
HETATM   11  C7  UNL     1       0.715  -1.238   0.000  1.00  0.00     0.034 A 
HETATM   12  N1  UNL     1       0.047  -1.722   0.000  1.00  0.00     0.000 N 
HETATM   13  N2  UNL     1       0.302  -2.507   0.000  1.00  0.00     0.000 N 
HETATM   14  N3  UNL     1       1.127  -2.507   0.000  1.00  0.00     0.000 N 
HETATM   15  C8  UNL     1       1.612  -3.175   0.000  1.00  0.00     0.082 A 
HETATM   16  C9  UNL     1       2.432  -3.088   0.000  1.00  0.00     0.081 A 
HETATM   17  C10 UNL     1       2.917  -3.756   0.000  1.00  0.00     0.210 A 
HETATM   18  C11 UNL     1       2.582  -4.509   0.000  1.00  0.00     0.210 A 
HETATM   19  C12 UNL     1       1.761  -4.596   0.000  1.00  0.00     0.111 A 
HETATM   20  C13 UNL     1       1.276  -3.928   0.000  1.00  0.00     0.086 A 
HETATM   21  S2  UNL     1       3.067  -5.177   0.000  1.00  0.00     0.037 SA
HETATM   22  O4  UNL     1       3.552  -5.844   0.000  1.00  0.00     0.000 OA
HETATM   23  O5  UNL     1       2.399  -5.662   0.000  1.00  0.00     0.000 OA
HETATM   24  N4  UNL     1       3.734  -4.692   0.000  1.00  0.00     0.173 N 
HETATM   25  C14 UNL     1       1.382  -1.722   0.000  1.00  0.00     0.021 A 
HETATM   26  C15 UNL     1       2.167  -1.468   0.000  1.00  0.00     0.014 A 
HETATM   27  C16 UNL     1       2.951  -1.212   0.000  1.00  0.00     0.003 A 
HETATM   28  C17 UNL     1       3.736  -0.958   0.000  1.00  0.00     0.001 A 
HETATM   29  O6  UNL     1       3.907  -0.151   0.000  1.00  0.00     0.000 OA
HETATM   30  C18 UNL     1      -0.715   1.238   0.000  1.00  0.00     0.075 A 
HETATM   31  O7  UNL     1      -1.429   0.825   0.000  1.00  0.00     0.000 OA
HETATM   32  C19 UNL     1      -2.143   1.238   0.000  1.00  0.00     0.132 A 
HETATM   33  O8  UNL     1      -2.858   0.825   0.000  1.00  0.00    -0.357 OA
HETATM   34  C20 UNL     1      -2.143   2.062   0.000  1.00  0.00     0.131 A 
HETATM   35  C21 UNL     1      -0.715   2.062   0.000  1.00  0.00     0.097 A 
HETATM   36  O9  UNL     1      -1.429   2.475   0.000  1.00  0.00     0.000 OA
HETATM   37  C22 UNL     1      -1.429   3.300   0.000  1.00  0.00     0.130 A 
HETATM   38  O10 UNL     1      -2.143   3.712   0.000  1.00  0.00    -0.358 OA
HETATM   39  C23 UNL     1      -0.715   3.712   0.000  1.00  0.00     0.128 A 
HETATM   40  C24 UNL     1      -0.000   2.475   0.000  1.00  0.00     0.089 A 
HETATM   41  O11 UNL     1      -0.000   3.300   0.000  1.00  0.00     0.000 OA
HETATM   42  C25 UNL     1       0.715   3.712   0.000  1.00  0.00     0.107 A 
HETATM   43  O12 UNL     1       0.715   4.537   0.000  1.00  0.00    -0.363 OA
HETATM   44  C26 UNL     1       1.429   3.300   0.000  1.00  0.00     0.105 A 
ENDROOT
TORSDOF 56
