REMARK  4 active torsions:
REMARK  status: ('A' for Active; 'I' for Inactive)
REMARK    1  A    between atoms: C5_5  and  O1_9 
REMARK    2  A    between atoms: O1_9  and  C9_10 
REMARK    3  A    between atoms: C9_10  and  C10_11 
REMARK       I    between atoms: C10_11  and  N1_13 
REMARK    4  A    between atoms: N1_13  and  C11_14 
ROOT
HETATM    1  C9  UNL     1      -2.482   0.853   0.018  1.00  0.00     0.238 C 
ENDROOT
BRANCH   1   2
HETATM    2  O1  UNL     1      -3.581   1.766   0.029  1.00  0.00    -0.321 OA
BRANCH   2   3
HETATM    3  C5  UNL     1      -4.829   1.230   0.032  1.00  0.00     0.091 A 
HETATM    4  C4  UNL     1      -4.994  -0.148   0.025  1.00  0.00     0.024 A 
HETATM    5  C3  UNL     1      -6.264  -0.691   0.028  1.00  0.00    -0.002 A 
HETATM    6  C2  UNL     1      -7.371   0.138   0.038  1.00  0.00    -0.022 A 
HETATM    7  C1  UNL     1      -8.756  -0.457   0.042  1.00  0.00     0.031 C 
HETATM    8  C7  UNL     1      -7.210   1.511   0.045  1.00  0.00    -0.007 A 
HETATM    9  C6  UNL     1      -5.941   2.059   0.047  1.00  0.00     0.000 A 
HETATM   10  C8  UNL     1      -5.766   3.555   0.061  1.00  0.00     0.033 C 
ENDBRANCH   2   3
ENDBRANCH   1   2
BRANCH   1  11
HETATM   11  C10 UNL     1      -1.187   1.624   0.017  1.00  0.00     0.288 C 
HETATM   12  O2  UNL     1      -1.204   2.837   0.023  1.00  0.00    -0.267 OA
HETATM   13  N1  UNL     1      -0.011   0.966   0.007  1.00  0.00    -0.184 NA
BRANCH  13  14
HETATM   14  C11 UNL     1       1.183   1.677  -0.000  1.00  0.00     0.197 A 
HETATM   15  N2  UNL     1       1.370   2.983  -0.001  1.00  0.00    -0.219 NA
HETATM   16  C12 UNL     1       2.583   3.499  -0.004  1.00  0.00     0.103 A 
HETATM   17  C13 UNL     1       3.644   2.656  -0.018  1.00  0.00     0.030 A 
HETATM   18  S1  UNL     1       2.812   1.075  -0.019  1.00  0.00    -0.051 SA
HETATM   19  C14 UNL     1       5.119   2.966  -0.030  1.00  0.00     0.040 C 
ENDBRANCH  13  14
ENDBRANCH   1  11
TORSDOF 4
