REMARK  6 active torsions:
REMARK  status: ('A' for Active; 'I' for Inactive)
REMARK    1  A    between atoms: O1_2  and  C2_3 
REMARK    2  A    between atoms: C2_3  and  C3_4 
REMARK    3  A    between atoms: C6_7  and  C7_9 
REMARK    4  A    between atoms: C7_9  and  N1_10 
REMARK    5  A    between atoms: N2_13  and  C12_16 
REMARK    6  A    between atoms: C12_16  and  C13_17 
ROOT
HETATM    1  N1  UNL     1       2.890  -5.791  -1.048  1.00  0.00     0.148 N 
HETATM    2  C8  UNL     1       2.136  -6.309  -2.198  1.00  0.00     0.286 C 
HETATM    3  C9  UNL     1       3.113  -6.789  -3.274  1.00  0.00     0.286 C 
HETATM    4  N2  UNL     1       3.974  -7.841  -2.717  1.00  0.00     0.146 N 
HETATM    5  C10 UNL     1       4.716  -7.345  -1.550  1.00  0.00     0.286 C 
HETATM    6  C11 UNL     1       3.727  -6.860  -0.487  1.00  0.00     0.286 C 
ENDROOT
BRANCH   1   7
HETATM    7  C7  UNL     1       1.953  -5.314  -0.023  1.00  0.00     0.301 C 
BRANCH   7   8
HETATM    8  C6  UNL     1       1.179  -4.137  -0.558  1.00  0.00     0.111 A 
HETATM    9  C5  UNL     1       0.011  -4.199  -1.222  1.00  0.00     0.024 A 
HETATM   10  C4  UNL     1      -0.354  -2.869  -1.534  1.00  0.00     0.025 A 
HETATM   11  C3  UNL     1       0.614  -2.074  -1.042  1.00  0.00     0.107 A 
HETATM   12  O2  UNL     1       1.543  -2.848  -0.458  1.00  0.00    -0.311 OA
BRANCH  11  13
HETATM   13  C2  UNL     1       0.652  -0.570  -1.138  1.00  0.00     0.193 C 
BRANCH  13  14
HETATM   14  O1  UNL     1       0.002  -0.004   0.002  1.00  0.00    -0.345 OA
HETATM   15  C1  UNL     1      -0.017   1.425   0.010  1.00  0.00     0.175 C 
ENDBRANCH  13  14
ENDBRANCH  11  13
ENDBRANCH   7   8
ENDBRANCH   1   7
BRANCH   4  16
HETATM   16  C12 UNL     1       4.889  -8.369  -3.737  1.00  0.00     0.278 C 
BRANCH  16  17
HETATM   17  C13 UNL     1       5.578  -9.600  -3.207  1.00  0.00     0.030 A 
HETATM   18  C14 UNL     1       6.776  -9.491  -2.518  1.00  0.00     0.002 A 
HETATM   19  C15 UNL     1       7.374 -10.649  -2.048  1.00  0.00     0.031 A 
HETATM   20  C16 UNL     1       6.760 -11.867  -2.281  1.00  0.00     0.139 A 
HETATM   21  N3  UNL     1       5.620 -11.932  -2.941  1.00  0.00    -0.233 NA
HETATM   22 CL1  UNL     1       7.499 -13.327  -1.698  1.00  0.00    -0.061 Cl
HETATM   23  C17 UNL     1       5.020 -10.849  -3.397  1.00  0.00     0.098 A 
ENDBRANCH  16  17
ENDBRANCH   4  16
TORSDOF 6
