REMARK  5 active torsions:
REMARK  status: ('A' for Active; 'I' for Inactive)
REMARK    1  A    between atoms: C6_6  and  C7_7 
REMARK    2  A    between atoms: C7_7  and  N1_8 
REMARK    3  A    between atoms: C8_9  and  C9_13 
REMARK    4  A    between atoms: C9_13  and  C10_14 
REMARK    5  A    between atoms: C9_13  and  N6_28 
ROOT
HETATM    1  C9  UNL     1      -3.004   1.321  -1.535  1.00  0.00     0.305 C 
ENDROOT
BRANCH   1   2
HETATM    2  C8  UNL     1      -2.569  -0.108  -1.731  1.00  0.00     0.197 A 
HETATM    3  N1  UNL     1      -1.822  -0.844  -0.886  1.00  0.00    -0.210 N 
HETATM    4  N4  UNL     1      -1.672  -2.006  -1.425  1.00  0.00    -0.043 NA
HETATM    5  N3  UNL     1      -2.296  -2.025  -2.551  1.00  0.00    -0.023 NA
HETATM    6  N2  UNL     1      -2.845  -0.877  -2.756  1.00  0.00    -0.110 NA
BRANCH   3   7
HETATM    7  C7  UNL     1      -1.276  -0.404   0.400  1.00  0.00     0.157 C 
BRANCH   7   8
HETATM    8  C6  UNL     1       0.142   0.068   0.209  1.00  0.00     0.002 A 
HETATM    9  C1  UNL     1       0.398   1.403  -0.040  1.00  0.00    -0.000 A 
HETATM   10  C2  UNL     1       1.698   1.838  -0.215  1.00  0.00     0.029 A 
HETATM   11  C3  UNL     1       2.745   0.935  -0.141  1.00  0.00     0.140 A 
HETATM   12  C4  UNL     1       2.488  -0.403   0.109  1.00  0.00     0.029 A 
HETATM   13  F1  UNL     1       4.016   1.358  -0.312  1.00  0.00    -0.204 F 
HETATM   14  C5  UNL     1       1.187  -0.835   0.284  1.00  0.00    -0.000 A 
ENDBRANCH   7   8
ENDBRANCH   3   7
ENDBRANCH   1   2
BRANCH   1  15
HETATM   15  C10 UNL     1      -2.274   2.207  -2.512  1.00  0.00     0.074 A 
HETATM   16  C11 UNL     1      -1.312   1.681  -3.313  1.00  0.00     0.004 A 
HETATM   17  C12 UNL     1      -0.622   2.566  -4.250  1.00  0.00     0.020 A 
HETATM   18  C13 UNL     1       0.379   2.078  -5.100  1.00  0.00     0.028 A 
HETATM   19  C17 UNL     1      -0.976   3.928  -4.290  1.00  0.00     0.087 A 
HETATM   20  C14 UNL     1       1.013   2.936  -5.971  1.00  0.00     0.119 A 
HETATM   21  C15 UNL     1       0.659   4.291  -6.010  1.00  0.00     0.121 A 
HETATM   22  O3  UNL     1       2.003   2.720  -6.887  1.00  0.00    -0.300 OA
HETATM   23  C16 UNL     1      -0.328   4.781  -5.175  1.00  0.00     0.045 A 
HETATM   24  O2  UNL     1       1.430   4.912  -6.949  1.00  0.00    -0.299 OA
HETATM   25  C19 UNL     1       2.535   4.023  -7.191  1.00  0.00     0.304 C 
HETATM   26  N5  UNL     1      -1.963   4.400  -3.448  1.00  0.00    -0.208 NA
HETATM   27  C18 UNL     1      -2.595   3.577  -2.594  1.00  0.00     0.277 A 
HETATM   28  O1  UNL     1      -3.465   4.027  -1.868  1.00  0.00    -0.265 OA
ENDBRANCH   1  15
BRANCH   1  29
HETATM   29  N6  UNL     1      -4.451   1.428  -1.765  1.00  0.00     0.147 N 
HETATM   30  C20 UNL     1      -4.792   1.077  -3.150  1.00  0.00     0.254 C 
HETATM   31  C21 UNL     1      -6.280   1.338  -3.392  1.00  0.00     0.068 C 
HETATM   32  C22 UNL     1      -7.107   0.499  -2.414  1.00  0.00     0.156 C 
HETATM   33  C23 UNL     1      -6.699   0.850  -0.981  1.00  0.00     0.068 C 
HETATM   34  O4  UNL     1      -8.495   0.782  -2.598  1.00  0.00    -0.223 OA
HETATM   35  C24 UNL     1      -5.198   0.602  -0.808  1.00  0.00     0.254 C 
ENDBRANCH   1  29
TORSDOF 5
