REMARK  8 active torsions:
REMARK  status: ('A' for Active; 'I' for Inactive)
REMARK    1  A    between atoms: C2_2  and  C3_3 
REMARK    2  A    between atoms: C3_3  and  C5_5 
REMARK    3  A    between atoms: C5_5  and  C6_6 
REMARK    4  A    between atoms: C5_5  and  N1_10 
REMARK    5  A    between atoms: C6_6  and  O2_8 
REMARK       I    between atoms: N1_10  and  C8_11 
REMARK    6  A    between atoms: C8_11  and  C9_13 
REMARK    7  A    between atoms: C13_17  and  S1_19 
REMARK    8  A    between atoms: S1_19  and  N2_22 
ROOT
HETATM    1  C9  UNL     1      -1.531   0.953   6.009  1.00  0.00     0.058 A 
HETATM    2  C10 UNL     1      -2.305   2.115   6.012  1.00  0.00     0.006 A 
HETATM    3  C11 UNL     1      -3.021   2.460   7.139  1.00  0.00     0.012 A 
HETATM    4  C12 UNL     1      -2.963   1.664   8.271  1.00  0.00     0.070 A 
HETATM    5  C13 UNL     1      -2.191   0.514   8.276  1.00  0.00     0.114 A 
HETATM    6  C14 UNL     1      -1.476   0.155   7.153  1.00  0.00     0.018 A 
HETATM    7 CL1  UNL     1      -3.861   2.109   9.688  1.00  0.00    -0.082 Cl
ENDROOT
BRANCH   1   8
HETATM    8  C8  UNL     1      -0.767   0.574   4.802  1.00  0.00     0.275 C 
HETATM    9  N1  UNL     1      -0.821   1.347   3.700  1.00  0.00    -0.226 NA
HETATM   10  O3  UNL     1      -0.089  -0.435   4.804  1.00  0.00    -0.266 OA
BRANCH   9  11
HETATM   11  C5  UNL     1      -0.064   0.971   2.503  1.00  0.00     0.192 C 
BRANCH  11  12
HETATM   12  C3  UNL     1      -0.729   1.579   1.267  1.00  0.00     0.032 C 
HETATM   13  C4  UNL     1      -0.641   3.105   1.339  1.00  0.00     0.003 C 
BRANCH  12  14
HETATM   14  C2  UNL     1      -0.013   1.086   0.008  1.00  0.00     0.003 C 
HETATM   15  C1  UNL     1      -0.753   1.593  -1.232  1.00  0.00     0.000 C 
ENDBRANCH  12  14
ENDBRANCH  11  12
BRANCH  11  16
HETATM   16  C6  UNL     1       1.347   1.487   2.619  1.00  0.00     0.294 C 
HETATM   17  O1  UNL     1       1.686   2.105   3.601  1.00  0.00    -0.262 OA
BRANCH  16  18
HETATM   18  O2  UNL     1       2.228   1.260   1.633  1.00  0.00    -0.298 OA
HETATM   19  C7  UNL     1       3.570   1.786   1.812  1.00  0.00     0.185 C 
ENDBRANCH  16  18
ENDBRANCH  11  16
ENDBRANCH   9  11
ENDBRANCH   1   8
BRANCH   5  20
HETATM   20  S1  UNL     1      -2.124  -0.493   9.720  1.00  0.00     0.265 S 
HETATM   21  O4  UNL     1      -3.468  -0.701  10.133  1.00  0.00    -0.200 OA
HETATM   22  O5  UNL     1      -1.243  -1.568   9.425  1.00  0.00    -0.200 OA
BRANCH  20  23
HETATM   23  N2  UNL     1      -1.397   0.403  10.908  1.00  0.00    -0.275 N 
HETATM   24  C15 UNL     1       0.046   0.445  11.187  1.00  0.00     0.113 C 
HETATM   25  C16 UNL     1       0.252   1.390  12.390  1.00  0.00     0.027 C 
HETATM   26  C17 UNL     1      -1.136   1.375  13.083  1.00  0.00     0.027 C 
HETATM   27  C18 UNL     1      -2.090   1.284  11.865  1.00  0.00     0.113 C 
ENDBRANCH  20  23
ENDBRANCH   5  20
TORSDOF 8
