REMARK  4 active torsions:
REMARK  status: ('A' for Active; 'I' for Inactive)
REMARK    1  A    between atoms: N1_5  and  C5_7 
REMARK    2  A    between atoms: C8_10  and  C11_13 
REMARK       I    between atoms: C11_13  and  N3_15 
REMARK    3  A    between atoms: N3_15  and  N4_16 
REMARK       I    between atoms: N4_16  and  C12_17 
REMARK    4  A    between atoms: C12_17  and  C13_19 
ROOT
HETATM    1  C5  UNL     1      -6.099   3.034   0.048  1.00  0.00     0.083 A 
HETATM    2  C6  UNL     1      -6.082   1.643   0.040  1.00  0.00     0.019 A 
HETATM    3  C7  UNL     1      -4.882   0.968   0.030  1.00  0.00     0.006 A 
HETATM    4  C8  UNL     1      -3.680   1.681   0.029  1.00  0.00     0.059 A 
HETATM    5  C9  UNL     1      -3.701   3.078   0.042  1.00  0.00     0.006 A 
HETATM    6  C10 UNL     1      -4.905   3.747   0.046  1.00  0.00     0.019 A 
ENDROOT
BRANCH   4   7
HETATM    7  C11 UNL     1      -2.392   0.960   0.019  1.00  0.00     0.297 C 
HETATM    8  O1  UNL     1      -2.375  -0.256   0.012  1.00  0.00    -0.264 OA
HETATM    9  N3  UNL     1      -1.234   1.650   0.017  1.00  0.00    -0.103 NA
BRANCH   9  10
HETATM   10  N4  UNL     1      -0.011   0.966   0.007  1.00  0.00    -0.107 NA
HETATM   11  C12 UNL     1       1.147   1.655  -0.000  1.00  0.00     0.273 C 
HETATM   12  O2  UNL     1       1.130   2.868   0.007  1.00  0.00    -0.269 OA
BRANCH  11  13
HETATM   13  C13 UNL     1       2.462   0.920  -0.017  1.00  0.00     0.083 C 
HETATM   14  C14 UNL     1       2.567   0.035   1.227  1.00  0.00     0.009 C 
HETATM   15  C15 UNL     1       3.902  -0.712   1.210  1.00  0.00     0.001 C 
HETATM   16  C16 UNL     1       5.051   0.298   1.205  1.00  0.00     0.000 C 
HETATM   17  C17 UNL     1       4.946   1.183  -0.039  1.00  0.00     0.001 C 
HETATM   18  C18 UNL     1       3.611   1.930  -0.022  1.00  0.00     0.009 C 
ENDBRANCH  11  13
ENDBRANCH   9  10
ENDBRANCH   4   7
BRANCH   1  19
HETATM   19  N1  UNL     1      -7.319   3.716   0.058  1.00  0.00    -0.234 N 
HETATM   20  C4  UNL     1      -7.577   4.885   0.701  1.00  0.00     0.062 A 
HETATM   21  C3  UNL     1      -8.868   5.209   0.459  1.00  0.00     0.031 A 
HETATM   22  C19 UNL     1      -6.601   5.679   1.530  1.00  0.00     0.052 C 
HETATM   23  C2  UNL     1      -9.421   4.207  -0.347  1.00  0.00     0.081 A 
HETATM   24  C1  UNL     1     -10.840   4.163  -0.852  1.00  0.00     0.054 C 
HETATM   25  N2  UNL     1      -8.495   3.314  -0.587  1.00  0.00    -0.170 NA
ENDBRANCH   1  19
TORSDOF 4
