REMARK  5 active torsions:
REMARK  status: ('A' for Active; 'I' for Inactive)
REMARK    1  A    between atoms: C6_6  and  C7_7 
REMARK    2  A    between atoms: C8_8  and  C9_9 
REMARK       I    between atoms: C9_9  and  N1_11 
REMARK    3  A    between atoms: N1_11  and  C10_12 
REMARK    4  A    between atoms: N2_14  and  N3_15 
REMARK       I    between atoms: N3_15  and  C11_16 
REMARK    5  A    between atoms: C11_16  and  C12_18 
ROOT
HETATM    1  C9  UNL     1       0.034  -2.820  -0.116  1.00  0.00     0.281 C 
HETATM    2  O1  UNL     1       1.074  -2.213   0.060  1.00  0.00    -0.265 OA
HETATM    3  N1  UNL     1       0.058  -4.151  -0.326  1.00  0.00    -0.177 NA
ENDROOT
BRANCH   3   4
HETATM    4  C10 UNL     1       1.234  -4.810  -0.341  1.00  0.00     0.243 C 
HETATM    5  S1  UNL     1       2.697  -3.956  -0.094  1.00  0.00    -0.035 SA
HETATM    6  N2  UNL     1       1.258  -6.141  -0.551  1.00  0.00    -0.114 NA
BRANCH   6   7
HETATM    7  N3  UNL     1       0.060  -6.840  -0.753  1.00  0.00    -0.102 NA
HETATM    8  C11 UNL     1       0.084  -8.171  -0.964  1.00  0.00     0.316 C 
HETATM    9  O2  UNL     1       1.144  -8.765  -0.977  1.00  0.00    -0.262 OA
BRANCH   8  10
HETATM   10  C12 UNL     1      -1.182  -8.910  -1.177  1.00  0.00     0.160 A 
HETATM   11  C13 UNL     1      -1.160 -10.288  -1.389  1.00  0.00     0.123 A 
HETATM   12  N4  UNL     1      -2.291 -10.942  -1.580  1.00  0.00    -0.239 NA
HETATM   13  C14 UNL     1      -3.442 -10.292  -1.569  1.00  0.00     0.120 A 
HETATM   14  C15 UNL     1      -3.467  -8.921  -1.359  1.00  0.00     0.120 A 
HETATM   15  N5  UNL     1      -2.343  -8.261  -1.163  1.00  0.00    -0.236 NA
ENDBRANCH   8  10
ENDBRANCH   6   7
ENDBRANCH   3   4
BRANCH   1  16
HETATM   16  C8  UNL     1      -1.241  -2.105  -0.099  1.00  0.00     0.063 C 
HETATM   17  C7  UNL     1      -1.279  -0.800   0.244  1.00  0.00     0.005 C 
BRANCH  17  18
HETATM   18  C6  UNL     1      -0.094  -0.161   0.836  1.00  0.00     0.000 A 
HETATM   19  C1  UNL     1       0.358   1.069   0.347  1.00  0.00     0.002 A 
HETATM   20  C2  UNL     1       1.469   1.663   0.906  1.00  0.00     0.030 A 
HETATM   21  C3  UNL     1       2.137   1.044   1.952  1.00  0.00     0.140 A 
HETATM   22  C4  UNL     1       1.694  -0.175   2.442  1.00  0.00     0.030 A 
HETATM   23  F1  UNL     1       3.226   1.632   2.496  1.00  0.00    -0.204 F 
HETATM   24  C5  UNL     1       0.585  -0.780   1.891  1.00  0.00     0.002 A 
ENDBRANCH  17  18
ENDBRANCH   1  16
TORSDOF 5
