REMARK  2 active torsions:
REMARK  status: ('A' for Active; 'I' for Inactive)
REMARK    1  A    between atoms: C3_3  and  C20_22 
REMARK    2  A    between atoms: C8_9  and  C14_15 
ROOT
HETATM    1  C1  UNL     1      -0.005   1.503   0.009  1.00  0.00     0.033 C 
HETATM    2  C2  UNL     1       0.008  -0.004   0.001  1.00  0.00     0.001 A 
HETATM    3  C3  UNL     1      -0.100  -0.694  -1.206  1.00  0.00     0.062 A 
HETATM    4  C4  UNL     1      -0.085  -2.091  -1.211  1.00  0.00     0.005 A 
HETATM    5  C5  UNL     1       0.044  -2.780  -0.023  1.00  0.00    -0.003 A 
HETATM    6  C6  UNL     1       0.155  -2.101   1.173  1.00  0.00    -0.005 A 
HETATM    7  C7  UNL     1       0.134  -0.700   1.194  1.00  0.00     0.069 A 
HETATM    8  N1  UNL     1       0.208   0.014   2.397  1.00  0.00    -0.269 NA
HETATM    9  C8  UNL     1       0.355  -0.681   3.694  1.00  0.00     0.126 C 
HETATM   10  C9  UNL     1      -0.423  -1.977   3.554  1.00  0.00     0.031 C 
HETATM   11  C10 UNL     1       0.318  -2.799   2.467  1.00  0.00     0.026 C 
HETATM   12  C11 UNL     1      -0.179  -4.183   2.679  1.00  0.00     0.004 C 
HETATM   13  C12 UNL     1      -0.528  -4.317   3.953  1.00  0.00     0.000 C 
HETATM   14  C13 UNL     1      -0.319  -2.983   4.709  1.00  0.00     0.003 C 
ENDROOT
BRANCH   9  15
HETATM   15  C14 UNL     1      -0.222   0.159   4.803  1.00  0.00     0.000 A 
HETATM   16  C15 UNL     1      -1.401   0.852   4.604  1.00  0.00    -0.002 A 
HETATM   17  C16 UNL     1      -1.931   1.623   5.621  1.00  0.00     0.000 A 
HETATM   18  C17 UNL     1      -1.282   1.701   6.839  1.00  0.00     0.007 A 
HETATM   19  C18 UNL     1      -0.102   1.008   7.040  1.00  0.00     0.034 A 
HETATM   20  C19 UNL     1       0.425   0.232   6.023  1.00  0.00     0.004 A 
HETATM   21 BR1  UNL     1       0.787   1.115   8.705  1.00  0.00    -0.049 Br
ENDBRANCH   9  15
BRANCH   3  22
HETATM   22  C20 UNL     1      -0.229   0.049  -2.474  1.00  0.00     0.211 C 
HETATM   23  O1  UNL     1      -1.167  -0.181  -3.224  1.00  0.00    -0.644 OA
HETATM   24  O2  UNL     1       0.601   0.895  -2.775  1.00  0.00    -0.644 OA
ENDBRANCH   3  22
TORSDOF 2
