REMARK  3 active torsions:
REMARK  status: ('A' for Active; 'I' for Inactive)
REMARK    1  A    between atoms: C3_3  and  C6_8 
REMARK    2  A    between atoms: C6_8  and  N3_10 
REMARK       I    between atoms: N3_10  and  C8_11 
REMARK    3  A    between atoms: C8_11  and  C9_13 
ROOT
HETATM    1  N3  UNL     1      -1.062   3.625   0.027  1.00  0.00    -0.230 NA
HETATM    2  C8  UNL     1      -1.211   2.285   0.021  1.00  0.00     0.295 C 
HETATM    3  O1  UNL     1      -2.324   1.798   0.023  1.00  0.00    -0.264 OA
ENDROOT
BRANCH   2   4
HETATM    4  C9  UNL     1      -0.017   1.405   0.010  1.00  0.00     0.163 A 
HETATM    5  C10 UNL     1       0.002  -0.004   0.002  1.00  0.00     0.023 A 
HETATM    6  C11 UNL     1       1.317  -0.327  -0.011  1.00  0.00     0.100 A 
HETATM    7  C15 UNL     1      -1.126  -0.994   0.004  1.00  0.00     0.030 C 
HETATM    8  O2  UNL     1       1.991   0.821  -0.013  1.00  0.00    -0.216 OA
HETATM    9  C12 UNL     1       1.831  -1.742  -0.021  1.00  0.00     0.053 C 
HETATM   10  N4  UNL     1       1.244   1.778  -0.000  1.00  0.00    -0.122 NA
HETATM   11  C13 UNL     1       0.688  -2.673   0.405  1.00  0.00     0.007 C 
HETATM   12  C14 UNL     1      -0.567  -2.361  -0.415  1.00  0.00     0.005 C 
ENDBRANCH   2   4
BRANCH   1  13
HETATM   13  C6  UNL     1      -2.241   4.494   0.038  1.00  0.00     0.132 C 
HETATM   14  C7  UNL     1      -2.719   4.687   1.478  1.00  0.00     0.031 C 
BRANCH  13  15
HETATM   15  C3  UNL     1      -1.885   5.831  -0.557  1.00  0.00     0.034 A 
HETATM   16  C2  UNL     1      -2.785   6.765  -1.082  1.00  0.00     0.078 A 
HETATM   17  C1  UNL     1      -4.282   6.607  -1.150  1.00  0.00     0.054 C 
HETATM   18  N2  UNL     1      -2.103   7.800  -1.499  1.00  0.00    -0.174 NA
HETATM   19  N1  UNL     1      -0.744   7.554  -1.263  1.00  0.00    -0.248 N 
HETATM   20  C4  UNL     1      -0.637   6.340  -0.684  1.00  0.00     0.094 A 
HETATM   21  C5  UNL     1       0.364   8.456  -1.586  1.00  0.00     0.154 C 
ENDBRANCH  13  15
ENDBRANCH   1  13
TORSDOF 3
