REMARK  3 active torsions:
REMARK  status: ('A' for Active; 'I' for Inactive)
REMARK    1  A    between atoms: N2_6  and  C5_7 
REMARK    2  A    between atoms: C5_7  and  C6_8 
REMARK       I    between atoms: N3_11  and  C11_14 
REMARK       I    between atoms: C11_14  and  N4_16 
REMARK    3  A    between atoms: N4_16  and  C12_17 
ROOT
HETATM    1  C6  UNL     1      -0.911  -0.022   3.416  1.00  0.00     0.026 C 
HETATM    2  C7  UNL     1      -0.974   1.385   2.818  1.00  0.00     0.026 C 
HETATM    3  C8  UNL     1      -2.431   1.859   2.792  1.00  0.00     0.106 C 
HETATM    4  N3  UNL     1      -2.986   1.754   4.149  1.00  0.00    -0.301 N 
HETATM    5  C9  UNL     1      -2.896   0.467   4.851  1.00  0.00     0.106 C 
HETATM    6  C10 UNL     1      -1.434   0.009   4.854  1.00  0.00     0.026 C 
HETATM    7  C11 UNL     1      -3.568   2.818   4.737  1.00  0.00     0.346 C 
HETATM    8  O1  UNL     1      -3.552   3.902   4.185  1.00  0.00    -0.245 OA
HETATM    9  N4  UNL     1      -4.167   2.682   5.936  1.00  0.00    -0.193 NA
ENDROOT
BRANCH   9  10
HETATM   10  C12 UNL     1      -4.867   3.759   6.497  1.00  0.00     0.088 A 
HETATM   11  C13 UNL     1      -5.542   4.651   5.675  1.00  0.00     0.021 A 
HETATM   12  C14 UNL     1      -6.232   5.713   6.226  1.00  0.00     0.028 A 
HETATM   13  C15 UNL     1      -6.254   5.890   7.600  1.00  0.00     0.119 A 
HETATM   14  C16 UNL     1      -5.578   4.997   8.427  1.00  0.00     0.121 A 
HETATM   15  O3  UNL     1      -6.851   6.840   8.380  1.00  0.00    -0.300 OA
HETATM   16  C17 UNL     1      -4.890   3.930   7.874  1.00  0.00     0.046 A 
HETATM   17  O2  UNL     1      -5.750   5.386   9.724  1.00  0.00    -0.299 OA
HETATM   18  C18 UNL     1      -6.196   6.754   9.659  1.00  0.00     0.304 C 
ENDBRANCH   9  10
BRANCH   1  19
HETATM   19  C5  UNL     1       0.538  -0.513   3.412  1.00  0.00     0.107 C 
BRANCH  19  20
HETATM   20  N2  UNL     1       1.001  -0.656   2.029  1.00  0.00    -0.314 N 
HETATM   21  C2  UNL     1       1.517   0.320   1.252  1.00  0.00     0.121 A 
HETATM   22  C1  UNL     1       1.717   1.756   1.661  1.00  0.00     0.072 C 
HETATM   23  N1  UNL     1       1.819  -0.188   0.088  1.00  0.00    -0.230 NA
HETATM   24  C3  UNL     1       1.505  -1.492   0.080  1.00  0.00     0.119 A 
HETATM   25  C4  UNL     1       0.989  -1.804   1.284  1.00  0.00     0.098 A 
ENDBRANCH  19  20
ENDBRANCH   1  19
TORSDOF 3
