REMARK  3 active torsions:
REMARK  status: ('A' for Active; 'I' for Inactive)
REMARK    1  A    between atoms: C2_2  and  C3_3 
REMARK    2  A    between atoms: C3_3  and  N1_4 
REMARK    3  A    between atoms: N1_4  and  C4_5 
ROOT
HETATM    1  C4  UNL     1      -2.407  -2.514  -1.326  1.00  0.00     0.756 C 
HETATM    2  N2  UNL     1      -3.382  -2.416  -0.481  1.00  0.00     0.034 NA
HETATM    3  S1  UNL     1      -4.736  -3.362  -0.629  1.00  0.00     0.301 S 
HETATM    4  O1  UNL     1      -4.940  -3.986   0.631  1.00  0.00    -0.198 OA
HETATM    5  O2  UNL     1      -5.728  -2.563  -1.257  1.00  0.00    -0.198 OA
HETATM    6  C5  UNL     1      -4.309  -4.641  -1.767  1.00  0.00     0.124 A 
HETATM    7  C6  UNL     1      -5.099  -5.761  -1.899  1.00  0.00     0.015 A 
HETATM    8  C7  UNL     1      -4.743  -6.753  -2.797  1.00  0.00     0.001 A 
HETATM    9  C8  UNL     1      -3.596  -6.617  -3.558  1.00  0.00     0.002 A 
HETATM   10  C9  UNL     1      -2.803  -5.494  -3.429  1.00  0.00     0.021 A 
HETATM   11  C10 UNL     1      -3.156  -4.495  -2.530  1.00  0.00     0.112 A 
HETATM   12  N3  UNL     1      -2.371  -3.351  -2.399  1.00  0.00    -0.058 NA
ENDROOT
BRANCH   1  13
HETATM   13  N1  UNL     1      -1.318  -1.700  -1.126  1.00  0.00    -0.080 NA
BRANCH  13  14
HETATM   14  C3  UNL     1      -1.293  -0.775   0.010  1.00  0.00     0.171 C 
BRANCH  14  15
HETATM   15  C2  UNL     1       0.002  -0.004   0.002  1.00  0.00     0.001 C 
HETATM   16  C1  UNL     1      -0.016   1.306   0.009  1.00  0.00    -0.003 C 
ENDBRANCH  14  15
ENDBRANCH  13  14
ENDBRANCH   1  13
TORSDOF 3
