REMARK  5 active torsions:
REMARK  status: ('A' for Active; 'I' for Inactive)
REMARK    1  A    between atoms: C5_5  and  C7_7 
REMARK    2  A    between atoms: C7_7  and  N1_8 
REMARK    3  A    between atoms: C11_12  and  C13_14 
REMARK       I    between atoms: C13_14  and  N2_16 
REMARK    4  A    between atoms: N2_16  and  C14_17 
REMARK    5  A    between atoms: C18_21  and  N3_23 
ROOT
HETATM    1  N1  UNL     1       1.499  -2.679   1.335  1.00  0.00     0.142 N 
HETATM    2  C8  UNL     1       0.391  -2.295   2.218  1.00  0.00     0.251 C 
HETATM    3  C9  UNL     1       0.699  -2.736   3.650  1.00  0.00     0.036 C 
HETATM    4  C10 UNL     1       0.876  -4.257   3.683  1.00  0.00     0.013 C 
HETATM    5  C11 UNL     1       1.984  -4.653   2.704  1.00  0.00     0.115 C 
HETATM    6  C12 UNL     1       1.629  -4.141   1.306  1.00  0.00     0.260 C 
ENDROOT
BRANCH   5   7
HETATM    7  C13 UNL     1       2.116  -6.154   2.672  1.00  0.00     0.257 C 
HETATM    8  O1  UNL     1       1.946  -6.756   1.633  1.00  0.00    -0.270 OA
HETATM    9  N2  UNL     1       2.422  -6.827   3.799  1.00  0.00    -0.212 NA
BRANCH   9  10
HETATM   10  C14 UNL     1       2.449  -8.226   3.793  1.00  0.00     0.086 A 
HETATM   11  C15 UNL     1       2.035  -8.935   4.914  1.00  0.00     0.019 A 
HETATM   12  C16 UNL     1       2.061 -10.316   4.908  1.00  0.00     0.003 A 
HETATM   13  C17 UNL     1       2.498 -10.997   3.788  1.00  0.00     0.019 A 
HETATM   14  C18 UNL     1       2.914 -10.294   2.664  1.00  0.00     0.084 A 
HETATM   15  C19 UNL     1       2.883  -8.907   2.665  1.00  0.00     0.038 A 
BRANCH  14  16
HETATM   16  N3  UNL     1       3.358 -10.986   1.529  1.00  0.00    -0.228 N 
HETATM   17  C20 UNL     1       3.339 -12.327   1.356  1.00  0.00     0.102 A 
HETATM   18  C21 UNL     1       3.851 -12.591   0.131  1.00  0.00     0.043 A 
HETATM   19  C22 UNL     1       4.194 -11.373  -0.465  1.00  0.00     0.122 A 
HETATM   20  N4  UNL     1       3.894 -10.410   0.370  1.00  0.00    -0.164 NA
ENDBRANCH  14  16
ENDBRANCH   9  10
ENDBRANCH   5   7
BRANCH   1  21
HETATM   21  C7  UNL     1       1.235  -2.186  -0.023  1.00  0.00     0.279 C 
BRANCH  21  22
HETATM   22  C5  UNL     1       1.223  -0.678  -0.017  1.00  0.00     0.038 A 
HETATM   23  C4  UNL     1       2.416   0.023  -0.031  1.00  0.00     0.138 A 
HETATM   24  C3  UNL     1       2.403   1.408  -0.025  1.00  0.00     0.029 A 
HETATM   25  F1  UNL     1       3.591  -0.642  -0.051  1.00  0.00    -0.204 F 
HETATM   26  C2  UNL     1       1.200   2.088  -0.005  1.00  0.00     0.002 A 
HETATM   27  C1  UNL     1       0.009   1.385   0.009  1.00  0.00    -0.000 A 
HETATM   28  C6  UNL     1       0.021   0.003   0.004  1.00  0.00    -0.000 A 
ENDBRANCH  21  22
ENDBRANCH   1  21
TORSDOF 5
