REMARK  3 active torsions:
REMARK  status: ('A' for Active; 'I' for Inactive)
REMARK    1  A    between atoms: C7_9  and  N2_13 
REMARK    2  A    between atoms: N2_13  and  C10_14 
REMARK    3  A    between atoms: C10_14  and  C11_15 
ROOT
HETATM    1  C1  UNL     1      -0.017   1.384   0.010  1.00  0.00     0.024 A 
HETATM    2  C2  UNL     1       1.196   2.064   0.002  1.00  0.00     0.099 A 
HETATM    3  N1  UNL     1       2.342   1.415  -0.013  1.00  0.00    -0.242 NA
HETATM    4  C3  UNL     1       2.409   0.095  -0.021  1.00  0.00     0.102 A 
HETATM    5  C4  UNL     1       1.247  -0.663  -0.015  1.00  0.00     0.061 A 
HETATM    6  C5  UNL     1       0.002  -0.004   0.002  1.00  0.00     0.047 A 
HETATM    7  C6  UNL     1      -1.239  -0.809   0.012  1.00  0.00     0.213 C 
HETATM    8  O1  UNL     1      -2.314  -0.289  -0.209  1.00  0.00    -0.285 OA
HETATM    9  C7  UNL     1      -1.148  -2.265   0.296  1.00  0.00     0.118 C 
HETATM   10  C8  UNL     1       0.055  -2.889   0.277  1.00  0.00     0.064 C 
HETATM   11  C9  UNL     1       1.278  -2.142  -0.024  1.00  0.00     0.199 C 
HETATM   12  O2  UNL     1       2.310  -2.732  -0.279  1.00  0.00    -0.286 OA
ENDROOT
BRANCH   9  13
HETATM   13  N2  UNL     1      -2.290  -2.982   0.581  1.00  0.00    -0.265 NA
BRANCH  13  14
HETATM   14  C10 UNL     1      -2.202  -4.417   0.861  1.00  0.00     0.161 C 
BRANCH  14  15
HETATM   15  C11 UNL     1      -3.602  -4.968   1.143  1.00  0.00     0.208 C 
HETATM   16  O3  UNL     1      -4.402  -4.862  -0.036  1.00  0.00    -0.218 OA
ENDBRANCH  14  15
ENDBRANCH  13  14
ENDBRANCH   9  13
TORSDOF 3
