REMARK  8 active torsions:
REMARK  status: ('A' for Active; 'I' for Inactive)
REMARK    1  A    between atoms: C6_6  and  O1_7 
REMARK    2  A    between atoms: O1_7  and  C7_8 
REMARK    3  A    between atoms: C7_8  and  C8_9 
REMARK       I    between atoms: C8_9  and  N1_11 
REMARK    4  A    between atoms: N1_11  and  C9_12 
REMARK    5  A    between atoms: C9_12  and  C10_13 
REMARK       I    between atoms: C10_13  and  N2_15 
REMARK    6  A    between atoms: N2_15  and  N3_16 
REMARK    7  A    between atoms: N3_16  and  C11_17 
REMARK    8  A    between atoms: C12_18  and  N7_24 
ROOT
HETATM    1  C10 UNL     1       4.393   8.585   0.005  1.00  0.00     0.298 C 
HETATM    2  O3  UNL     1       5.418   7.937  -0.008  1.00  0.00    -0.266 OA
HETATM    3  N2  UNL     1       4.447   9.932   0.011  1.00  0.00    -0.106 NA
ENDROOT
BRANCH   1   4
HETATM    4  C9  UNL     1       3.058   7.885   0.014  1.00  0.00     0.220 C 
BRANCH   4   5
HETATM    5  N1  UNL     1       3.268   6.435   0.004  1.00  0.00    -0.226 NA
HETATM    6  C8  UNL     1       2.209   5.601   0.010  1.00  0.00     0.283 C 
HETATM    7  O2  UNL     1       1.083   6.051   0.023  1.00  0.00    -0.268 OA
BRANCH   6   8
HETATM    8  C7  UNL     1       2.425   4.109   0.001  1.00  0.00     0.238 C 
BRANCH   8   9
HETATM    9  O1  UNL     1       1.159   3.445   0.009  1.00  0.00    -0.321 OA
BRANCH   9  10
HETATM   10  C6  UNL     1       1.176   2.086   0.002  1.00  0.00     0.095 A 
HETATM   11  C1  UNL     1      -0.017   1.377   0.010  1.00  0.00     0.025 A 
HETATM   12  C2  UNL     1       0.002  -0.004   0.002  1.00  0.00     0.013 A 
HETATM   13  C3  UNL     1       1.209  -0.680  -0.013  1.00  0.00     0.058 A 
HETATM   14  C4  UNL     1       2.399   0.025  -0.020  1.00  0.00     0.013 A 
HETATM   15 CL1  UNL     1       1.230  -2.416  -0.023  1.00  0.00    -0.082 Cl
HETATM   16  C5  UNL     1       2.385   1.406  -0.013  1.00  0.00     0.025 A 
ENDBRANCH   9  10
ENDBRANCH   8   9
ENDBRANCH   6   8
ENDBRANCH   4   5
ENDBRANCH   1   4
BRANCH   3  17
HETATM   17  N3  UNL     1       5.687  10.583   0.003  1.00  0.00    -0.124 NA
BRANCH  17  18
HETATM   18  C11 UNL     1       5.743  11.968   0.009  1.00  0.00     0.210 A 
HETATM   19  C12 UNL     1       6.970  12.625   0.007  1.00  0.00     0.195 A 
HETATM   20  C13 UNL     1       6.972  14.017   0.008  1.00  0.00     0.177 A 
HETATM   21  N4  UNL     1       5.809  14.665   0.022  1.00  0.00    -0.208 NA
HETATM   22  N6  UNL     1       8.168  14.718   0.000  1.00  0.00    -0.078 NA
HETATM   23  C14 UNL     1       4.668  14.006   0.029  1.00  0.00     0.202 A 
HETATM   24  N5  UNL     1       4.624  12.689   0.023  1.00  0.00    -0.202 NA
BRANCH  19  25
HETATM   25  N7  UNL     1       8.239  11.864  -0.002  1.00  0.00    -0.108 N 
HETATM   26  O4  UNL     1       8.757  11.555  -1.061  1.00  0.00    -0.532 OA
HETATM   27  O5  UNL     1       8.766  11.546   1.049  1.00  0.00    -0.532 OA
ENDBRANCH  19  25
ENDBRANCH  17  18
ENDBRANCH   3  17
TORSDOF 8
