REMARK  6 active torsions:
REMARK  status: ('A' for Active; 'I' for Inactive)
REMARK    1  A    between atoms: C5_6  and  C6_7 
REMARK    2  A    between atoms: C6_7  and  N2_8 
REMARK    3  A    between atoms: C9_11  and  C12_14 
REMARK    4  A    between atoms: C12_14  and  C13_15 
REMARK    5  A    between atoms: C13_15  and  C14_16 
REMARK    6  A    between atoms: C14_16  and  O2_18 
ROOT
HETATM    1  N2  UNL     1       1.411  -0.048   2.952  1.00  0.00     0.143 N 
HETATM    2  C7  UNL     1       2.192  -1.291   2.938  1.00  0.00     0.251 C 
HETATM    3  C8  UNL     1       3.649  -0.986   3.291  1.00  0.00     0.035 C 
HETATM    4  C9  UNL     1       3.710  -0.358   4.686  1.00  0.00     0.004 C 
HETATM    5  C10 UNL     1       2.832   0.897   4.710  1.00  0.00     0.035 C 
HETATM    6  C11 UNL     1       1.405   0.522   4.305  1.00  0.00     0.251 C 
ENDROOT
BRANCH   1   7
HETATM    7  C6  UNL     1       0.031  -0.335   2.538  1.00  0.00     0.294 C 
BRANCH   7   8
HETATM    8  C5  UNL     1       0.023  -0.804   1.106  1.00  0.00     0.071 A 
HETATM    9  N1  UNL     1       0.002  -0.004   0.002  1.00  0.00    -0.326 N 
HETATM   10  C1  UNL     1      -0.018   1.461   0.010  1.00  0.00     0.130 C 
HETATM   11  C2  UNL     1       0.008  -0.792  -1.110  1.00  0.00     0.076 A 
HETATM   12  C3  UNL     1       0.027  -2.081  -0.714  1.00  0.00     0.020 A 
HETATM   13  C4  UNL     1       0.033  -2.089   0.695  1.00  0.00     0.016 A 
ENDBRANCH   7   8
ENDBRANCH   1   7
BRANCH   4  14
HETATM   14  C12 UNL     1       5.155   0.023   5.013  1.00  0.00     0.011 C 
BRANCH  14  15
HETATM   15  C13 UNL     1       5.235   0.534   6.453  1.00  0.00     0.096 C 
BRANCH  15  16
HETATM   16  C14 UNL     1       6.659   0.909   6.775  1.00  0.00     0.272 C 
HETATM   17  O1  UNL     1       7.521   0.780   5.939  1.00  0.00    -0.264 OA
BRANCH  16  18
HETATM   18  O2  UNL     1       6.969   1.386   7.991  1.00  0.00    -0.299 OA
HETATM   19  C15 UNL     1       8.338   1.721   8.227  1.00  0.00     0.184 C 
ENDBRANCH  16  18
ENDBRANCH  15  16
ENDBRANCH  14  15
ENDBRANCH   4  14
TORSDOF 6
