REMARK  2 active torsions:
REMARK  status: ('A' for Active; 'I' for Inactive)
REMARK    1  A    between atoms: C4_4  and  C9_10 
REMARK    2  A    between atoms: N1_14  and  C13_18 
ROOT
HETATM    1  C9  UNL     1      -0.284   0.148   1.173  1.00  0.00     0.011 C 
HETATM    2  C10 UNL     1      -1.308  -0.620   0.720  1.00  0.00     0.088 A 
HETATM    3  C11 UNL     1      -1.532  -2.072   0.867  1.00  0.00     0.272 A 
HETATM    4  O2  UNL     1      -0.745  -2.783   1.466  1.00  0.00    -0.266 OA
HETATM    5  N1  UNL     1      -2.632  -2.561   0.320  1.00  0.00    -0.259 N 
HETATM    6  C12 UNL     1      -3.497  -1.771  -0.348  1.00  0.00     0.153 A 
HETATM    7  S1  UNL     1      -4.958  -2.212  -1.124  1.00  0.00    -0.052 SA
HETATM    8  S2  UNL     1      -2.751  -0.153  -0.226  1.00  0.00    -0.054 SA
ENDROOT
BRANCH   1   9
HETATM    9  C4  UNL     1      -0.163   1.543   0.733  1.00  0.00     0.000 A 
HETATM   10  C3  UNL     1       0.772   2.393   1.338  1.00  0.00    -0.002 A 
HETATM   11  C2  UNL     1       0.881   3.700   0.921  1.00  0.00     0.003 A 
HETATM   12  C1  UNL     1       1.887   4.615   1.572  1.00  0.00     0.033 C 
HETATM   13  C7  UNL     1       0.066   4.178  -0.098  1.00  0.00     0.123 A 
HETATM   14  C6  UNL     1      -0.864   3.340  -0.702  1.00  0.00     0.003 A 
HETATM   15  O1  UNL     1       0.177   5.469  -0.504  1.00  0.00    -0.191 OA
HETATM   16  C5  UNL     1      -0.978   2.029  -0.297  1.00  0.00    -0.002 A 
HETATM   17  C8  UNL     1      -1.744   3.865  -1.807  1.00  0.00     0.033 C 
ENDBRANCH   1   9
BRANCH   5  18
HETATM   18  C13 UNL     1      -2.902  -3.931   0.432  1.00  0.00     0.087 A 
HETATM   19  C14 UNL     1      -3.657  -4.418   1.496  1.00  0.00     0.021 A 
HETATM   20  C15 UNL     1      -3.902  -5.780   1.560  1.00  0.00     0.022 A 
HETATM   21  C16 UNL     1      -3.384  -6.606   0.580  1.00  0.00     0.099 A 
HETATM   22  N2  UNL     1      -2.668  -6.114  -0.412  1.00  0.00    -0.241 NA
HETATM   23  C17 UNL     1      -2.416  -4.824  -0.513  1.00  0.00     0.117 A 
ENDBRANCH   5  18
TORSDOF 2
