REMARK  5 active torsions:
REMARK  status: ('A' for Active; 'I' for Inactive)
REMARK    1  A    between atoms: C2_2  and  C3_3 
REMARK    2  A    between atoms: C2_2  and  N3_21 
REMARK       I    between atoms: C3_3  and  N1_5 
REMARK    3  A    between atoms: N2_8  and  C8_11 
REMARK    4  A    between atoms: C12_15  and  C14_17 
REMARK       I    between atoms: N3_21  and  C15_22 
REMARK    5  A    between atoms: C15_22  and  C16_24 
ROOT
HETATM    1  C3  UNL     1       0.600  -0.523  -1.260  1.00  0.00     0.256 C 
HETATM    2  O1  UNL     1      -0.092  -1.140  -2.041  1.00  0.00    -0.270 OA
HETATM    3  N1  UNL     1       1.895  -0.285  -1.548  1.00  0.00    -0.315 N 
HETATM    4  C4  UNL     1       2.773   0.366  -0.566  1.00  0.00     0.128 C 
HETATM    5  C5  UNL     1       3.993  -0.532  -0.328  1.00  0.00     0.126 C 
HETATM    6  N2  UNL     1       4.552  -0.920  -1.630  1.00  0.00    -0.344 N 
HETATM    7  C6  UNL     1       3.674  -1.572  -2.612  1.00  0.00     0.126 C 
HETATM    8  C7  UNL     1       2.456  -0.678  -2.849  1.00  0.00     0.128 C 
ENDROOT
BRANCH   1   9
HETATM    9  C2  UNL     1       0.012  -0.021   0.034  1.00  0.00     0.185 C 
HETATM   10  C1  UNL     1      -0.426   1.435  -0.135  1.00  0.00     0.037 C 
BRANCH   9  11
HETATM   11  N3  UNL     1      -1.147  -0.842   0.394  1.00  0.00    -0.225 NA
HETATM   12  C15 UNL     1      -1.528  -0.942   1.683  1.00  0.00     0.298 C 
HETATM   13  O2  UNL     1      -0.908  -0.350   2.548  1.00  0.00    -0.263 OA
BRANCH  12  14
HETATM   14  C16 UNL     1      -2.688  -1.763   2.043  1.00  0.00     0.157 A 
HETATM   15  C17 UNL     1      -3.182  -1.945   3.304  1.00  0.00     0.032 A 
HETATM   16  C18 UNL     1      -4.290  -2.798   3.183  1.00  0.00     0.029 A 
HETATM   17  C19 UNL     1      -4.422  -3.095   1.871  1.00  0.00     0.123 A 
HETATM   18  O3  UNL     1      -3.458  -2.465   1.188  1.00  0.00    -0.300 OA
ENDBRANCH  12  14
ENDBRANCH   9  11
ENDBRANCH   1   9
BRANCH   6  19
HETATM   19  C8  UNL     1       5.894  -0.674  -1.929  1.00  0.00     0.056 A 
HETATM   20  C9  UNL     1       6.684   0.047  -1.043  1.00  0.00     0.017 A 
HETATM   21  C10 UNL     1       8.011   0.288  -1.341  1.00  0.00     0.001 A 
HETATM   22  C11 UNL     1       8.553  -0.187  -2.522  1.00  0.00     0.004 A 
HETATM   23  C12 UNL     1       7.769  -0.905  -3.406  1.00  0.00     0.073 A 
HETATM   24  C13 UNL     1       6.443  -1.155  -3.111  1.00  0.00     0.021 A 
BRANCH  23  25
HETATM   25  C14 UNL     1       8.364  -1.420  -4.692  1.00  0.00     0.419 C 
HETATM   26  F1  UNL     1       9.711  -1.048  -4.764  1.00  0.00    -0.166 F 
HETATM   27  F2  UNL     1       8.262  -2.814  -4.727  1.00  0.00    -0.166 F 
HETATM   28  F3  UNL     1       7.671  -0.874  -5.778  1.00  0.00    -0.166 F 
ENDBRANCH  23  25
ENDBRANCH   6  19
TORSDOF 5
