REMARK  9 active torsions:
REMARK  status: ('A' for Active; 'I' for Inactive)
REMARK    1  A    between atoms: C2_2  and  C3_3 
REMARK    2  A    between atoms: C2_2  and  N1_6 
REMARK    3  A    between atoms: C3_3  and  O1_4 
REMARK       I    between atoms: N1_6  and  C5_7 
REMARK    4  A    between atoms: C5_7  and  C6_9 
REMARK    5  A    between atoms: C6_9  and  S1_10 
REMARK    6  A    between atoms: S1_10  and  C7_11 
REMARK    7  A    between atoms: C8_14  and  C12_19 
REMARK    8  A    between atoms: N4_15  and  C9_16 
REMARK    9  A    between atoms: C9_16  and  C10_17 
ROOT
HETATM    1  C7  UNL     1      -5.739  -1.846  -2.652  1.00  0.00     0.194 A 
HETATM    2  N2  UNL     1      -6.330  -2.173  -1.527  1.00  0.00    -0.122 NA
HETATM    3  N3  UNL     1      -7.523  -2.590  -1.766  1.00  0.00    -0.133 NA
HETATM    4  C8  UNL     1      -7.761  -2.554  -3.046  1.00  0.00     0.143 A 
HETATM    5  N4  UNL     1      -6.635  -2.074  -3.657  1.00  0.00    -0.290 N 
ENDROOT
BRANCH   1   6
HETATM    6  S1  UNL     1      -4.100  -1.225  -2.832  1.00  0.00    -0.065 SA
BRANCH   6   7
HETATM    7  C6  UNL     1      -3.465  -1.164  -1.134  1.00  0.00     0.154 C 
BRANCH   7   8
HETATM    8  C5  UNL     1      -2.051  -0.643  -1.145  1.00  0.00     0.263 C 
HETATM    9  N1  UNL     1      -1.372  -0.511   0.012  1.00  0.00    -0.237 NA
HETATM   10  O2  UNL     1      -1.524  -0.341  -2.194  1.00  0.00    -0.270 OA
BRANCH   9  11
HETATM   11  C2  UNL     1       0.002  -0.004   0.002  1.00  0.00     0.136 C 
HETATM   12  C1  UNL     1      -0.019   1.526   0.010  1.00  0.00     0.029 C 
BRANCH  11  13
HETATM   13  C3  UNL     1       0.742  -0.511   1.242  1.00  0.00     0.167 C 
BRANCH  13  14
HETATM   14  O1  UNL     1       0.143   0.044   2.414  1.00  0.00    -0.349 OA
HETATM   15  C4  UNL     1       0.763  -0.368   3.634  1.00  0.00     0.174 C 
ENDBRANCH  13  14
ENDBRANCH  11  13
ENDBRANCH   9  11
ENDBRANCH   7   8
ENDBRANCH   6   7
ENDBRANCH   1   6
BRANCH   5  16
HETATM   16  C9  UNL     1      -6.432  -1.853  -5.090  1.00  0.00     0.136 C 
BRANCH  16  17
HETATM   17  C10 UNL     1      -5.875  -3.104  -5.718  1.00  0.00    -0.002 C 
HETATM   18  C11 UNL     1      -6.485  -3.653  -6.739  1.00  0.00    -0.003 C 
ENDBRANCH  16  17
ENDBRANCH   5  16
BRANCH   4  19
HETATM   19  C12 UNL     1      -9.042  -2.961  -3.728  1.00  0.00     0.059 A 
HETATM   20  C13 UNL     1     -10.247  -3.273  -2.839  1.00  0.00     0.008 A 
HETATM   21  C14 UNL     1      -9.508  -4.407  -3.551  1.00  0.00     0.008 A 
ENDBRANCH   4  19
TORSDOF 9
