REMARK  4 active torsions:
REMARK  status: ('A' for Active; 'I' for Inactive)
REMARK    1  A    between atoms: C3_3  and  C7_9 
REMARK    2  A    between atoms: C10_13  and  N2_18 
REMARK    3  A    between atoms: N2_18  and  C14_19 
REMARK       I    between atoms: N3_21  and  C15_22 
REMARK    4  A    between atoms: C15_22  and  C16_24 
ROOT
HETATM    1  C7  UNL     1       9.440  -7.616   0.784  1.00  0.00     0.183 A 
HETATM    2  N1  UNL     1       8.301  -7.314   1.355  1.00  0.00    -0.220 NA
HETATM    3  C8  UNL     1       7.681  -6.360   0.614  1.00  0.00     0.108 A 
HETATM    4  C9  UNL     1       6.468  -5.678   0.742  1.00  0.00     0.040 A 
HETATM    5  C10 UNL     1       6.109  -4.737  -0.204  1.00  0.00     0.086 A 
HETATM    6  C11 UNL     1       6.948  -4.472  -1.285  1.00  0.00     0.021 A 
HETATM    7  C12 UNL     1       8.149  -5.136  -1.416  1.00  0.00     0.028 A 
HETATM    8  C13 UNL     1       8.523  -6.083  -0.475  1.00  0.00     0.119 A 
HETATM    9  O1  UNL     1       9.605  -6.883  -0.333  1.00  0.00    -0.288 OA
ENDROOT
BRANCH   5  10
HETATM   10  N2  UNL     1       4.895  -4.051  -0.080  1.00  0.00    -0.217 NA
BRANCH  10  11
HETATM   11  C14 UNL     1       4.838  -2.729  -0.335  1.00  0.00     0.223 C 
HETATM   12  S1  UNL     1       6.274  -1.860  -0.672  1.00  0.00    -0.037 SA
HETATM   13  N3  UNL     1       3.651  -2.091  -0.324  1.00  0.00    -0.179 NA
HETATM   14  C15 UNL     1       3.595  -0.768  -0.579  1.00  0.00     0.281 C 
HETATM   15  O2  UNL     1       4.614  -0.151  -0.819  1.00  0.00    -0.265 OA
BRANCH  14  16
HETATM   16  C16 UNL     1       2.296  -0.070  -0.568  1.00  0.00     0.060 A 
HETATM   17  C17 UNL     1       1.122  -0.777  -0.293  1.00  0.00     0.007 A 
HETATM   18  C18 UNL     1      -0.089  -0.122  -0.283  1.00  0.00     0.026 A 
HETATM   19  C19 UNL     1      -0.151   1.242  -0.547  1.00  0.00     0.116 A 
HETATM   20  C20 UNL     1       1.015   1.953  -0.819  1.00  0.00     0.116 A 
HETATM   21  O4  UNL     1      -1.359   1.866  -0.540  1.00  0.00    -0.326 OA
HETATM   22  C21 UNL     1       2.235   1.301  -0.831  1.00  0.00     0.031 A 
HETATM   23  O3  UNL     1       0.973   3.290  -1.071  1.00  0.00    -0.326 OA
HETATM   24  C22 UNL     1      -0.303   3.840  -1.417  1.00  0.00     0.181 C 
HETATM   25  C23 UNL     1      -1.345   3.294  -0.431  1.00  0.00     0.181 C 
ENDBRANCH  14  16
ENDBRANCH  10  11
ENDBRANCH   5  10
BRANCH   1  26
HETATM   26  C3  UNL     1      10.403  -8.615   1.291  1.00  0.00     0.053 A 
HETATM   27  C2  UNL     1      11.591  -8.858   0.600  1.00  0.00     0.004 A 
HETATM   28  C1  UNL     1      12.487  -9.791   1.079  1.00  0.00     0.001 A 
HETATM   29  C6  UNL     1      12.211 -10.487   2.242  1.00  0.00     0.012 A 
HETATM   30  C5  UNL     1      11.036 -10.253   2.934  1.00  0.00     0.068 A 
HETATM   31  C4  UNL     1      10.132  -9.317   2.468  1.00  0.00     0.072 A 
HETATM   32 CL1  UNL     1      10.699 -11.132   4.393  1.00  0.00    -0.082 Cl
HETATM   33 CL2  UNL     1       8.661  -9.018   3.340  1.00  0.00    -0.081 Cl
ENDBRANCH   1  26
TORSDOF 4
