REMARK  3 active torsions:
REMARK  status: ('A' for Active; 'I' for Inactive)
REMARK    1  A    between atoms: C7_10  and  C9_13 
REMARK       I    between atoms: C9_13  and  N3_15 
REMARK    2  A    between atoms: N3_15  and  C10_16 
REMARK    3  A    between atoms: C13_19  and  C16_22 
ROOT
HETATM    1  C9  UNL     1       0.138  -4.706   3.913  1.00  0.00     0.258 C 
HETATM    2  O2  UNL     1      -0.474  -4.060   4.738  1.00  0.00    -0.270 OA
HETATM    3  N3  UNL     1       0.606  -5.930   4.229  1.00  0.00    -0.212 NA
ENDROOT
BRANCH   1   4
HETATM    4  C7  UNL     1       0.373  -4.141   2.537  1.00  0.00     0.115 C 
HETATM    5  C6  UNL     1      -0.251  -2.760   2.440  1.00  0.00     0.121 C 
HETATM    6  N2  UNL     1      -0.022  -2.090   1.166  1.00  0.00    -0.276 N 
HETATM    7  C4  UNL     1       0.086  -2.718  -0.033  1.00  0.00     0.173 C 
HETATM    8  C5  UNL     1       0.019  -0.730   1.196  1.00  0.00     0.260 C 
HETATM    9  N1  UNL     1       0.053  -2.029  -1.165  1.00  0.00    -0.221 NA
HETATM   10  S1  UNL     1       0.292  -4.469  -0.142  1.00  0.00    -0.077 SA
HETATM   11  C3  UNL     1      -0.014  -0.704  -1.184  1.00  0.00     0.102 C 
HETATM   12  C2  UNL     1      -0.008  -0.012  -0.007  1.00  0.00     0.053 C 
HETATM   13  C1  UNL     1      -0.024   1.495  -0.002  1.00  0.00     0.038 C 
HETATM   14  C8  UNL     1      -0.276  -5.054   1.484  1.00  0.00     0.076 C 
HETATM   15  O1  UNL     1       0.074  -0.140   2.263  1.00  0.00    -0.267 OA
ENDBRANCH   1   4
BRANCH   3  16
HETATM   16  C10 UNL     1       0.473  -6.416   5.534  1.00  0.00     0.084 A 
HETATM   17  C11 UNL     1       1.469  -7.210   6.087  1.00  0.00     0.019 A 
HETATM   18  C12 UNL     1       1.334  -7.688   7.375  1.00  0.00     0.005 A 
HETATM   19  C13 UNL     1       0.208  -7.376   8.115  1.00  0.00     0.072 A 
HETATM   20  C14 UNL     1      -0.786  -6.586   7.568  1.00  0.00     0.005 A 
HETATM   21  C15 UNL     1      -0.654  -6.100   6.282  1.00  0.00     0.019 A 
BRANCH  19  22
HETATM   22  C16 UNL     1       0.064  -7.899   9.521  1.00  0.00     0.419 C 
HETATM   23  F1  UNL     1       0.622  -6.983  10.419  1.00  0.00    -0.166 F 
HETATM   24  F2  UNL     1      -1.292  -8.075   9.817  1.00  0.00    -0.166 F 
HETATM   25  F3  UNL     1       0.728  -9.125   9.633  1.00  0.00    -0.166 F 
ENDBRANCH  19  22
ENDBRANCH   3  16
TORSDOF 3
