REMARK  3 active torsions:
REMARK  status: ('A' for Active; 'I' for Inactive)
REMARK    1  A    between atoms: C4_5  and  N3_10 
REMARK    2  A    between atoms: C5_6  and  N2_7 
REMARK    3  A    between atoms: C9_14  and  C10_15 
ROOT
HETATM    1  C1  UNL     1       1.147   1.498  -1.142  1.00  0.00     0.029 A 
HETATM    2  C2  UNL     1       1.149   2.051   0.131  1.00  0.00     0.033 A 
HETATM    3  C3  UNL     1       1.197   1.216   1.232  1.00  0.00     0.140 A 
HETATM    4  N1  UNL     1       1.242  -0.096   1.085  1.00  0.00    -0.216 NA
HETATM    5  C4  UNL     1       1.242  -0.660  -0.113  1.00  0.00     0.164 A 
HETATM    6  C5  UNL     1       1.194   0.120  -1.264  1.00  0.00     0.160 A 
HETATM    7 CL1  UNL     1       1.200   1.900   2.827  1.00  0.00    -0.061 Cl
ENDROOT
BRANCH   5   8
HETATM    8  N3  UNL     1       1.292  -2.045  -0.222  1.00  0.00    -0.322 N 
HETATM    9  C6  UNL     1       0.130  -2.952  -0.177  1.00  0.00     0.136 C 
HETATM   10  C7  UNL     1       0.590  -4.222  -0.935  1.00  0.00     0.177 C 
HETATM   11  C8  UNL     1       2.075  -4.325  -0.499  1.00  0.00     0.068 C 
HETATM   12  O5  UNL     1      -0.150  -5.368  -0.509  1.00  0.00    -0.221 OA
HETATM   13  C9  UNL     1       2.509  -2.847  -0.407  1.00  0.00     0.173 C 
BRANCH  13  14
HETATM   14  C10 UNL     1       3.432  -2.658   0.769  1.00  0.00     0.207 C 
HETATM   15  O3  UNL     1       2.971  -2.417   1.872  1.00  0.00    -0.646 OA
HETATM   16  O4  UNL     1       4.638  -2.748   0.619  1.00  0.00    -0.646 OA
ENDBRANCH  13  14
ENDBRANCH   5   8
BRANCH   6  17
HETATM   17  N2  UNL     1       1.194  -0.514  -2.601  1.00  0.00    -0.111 N 
HETATM   18  O1  UNL     1       1.254   0.171  -3.595  1.00  0.00    -0.532 OA
HETATM   19  O2  UNL     1       1.134  -1.718  -2.699  1.00  0.00    -0.532 OA
ENDBRANCH   6  17
TORSDOF 3
