REMARK  2 active torsions:
REMARK  status: ('A' for Active; 'I' for Inactive)
REMARK       I    between atoms: N2_8  and  C6_9 
REMARK       I    between atoms: C6_9  and  N3_11 
REMARK    1  A    between atoms: N3_11  and  C7_12 
REMARK    2  A    between atoms: C11_16  and  C13_18 
ROOT
HETATM    1  C1  UNL     1      -1.142   1.267   1.556  1.00  0.00     0.035 C 
HETATM    2  C2  UNL     1      -0.788  -0.118   1.012  1.00  0.00     0.166 C 
HETATM    3  C3  UNL     1      -1.896  -1.084   1.335  1.00  0.00     0.272 C 
HETATM    4  O1  UNL     1      -3.039  -0.750   1.108  1.00  0.00    -0.269 OA
HETATM    5  N1  UNL     1      -1.677  -2.291   1.860  1.00  0.00    -0.234 NA
HETATM    6  C4  UNL     1      -0.372  -2.791   2.268  1.00  0.00     0.153 C 
HETATM    7  C5  UNL     1       0.748  -2.032   1.554  1.00  0.00     0.133 C 
HETATM    8  N2  UNL     1       0.456  -0.590   1.636  1.00  0.00    -0.292 N 
HETATM    9  C6  UNL     1       1.294   0.261   2.262  1.00  0.00     0.347 C 
HETATM   10  O2  UNL     1       0.985   1.429   2.396  1.00  0.00    -0.245 OA
HETATM   11  N3  UNL     1       2.474  -0.184   2.738  1.00  0.00    -0.193 NA
ENDROOT
BRANCH  11  12
HETATM   12  C7  UNL     1       3.296   0.673   3.479  1.00  0.00     0.086 A 
HETATM   13  C8  UNL     1       3.363   2.023   3.156  1.00  0.00     0.019 A 
HETATM   14  C9  UNL     1       4.173   2.875   3.884  1.00  0.00     0.002 A 
HETATM   15  C10 UNL     1       4.922   2.391   4.937  1.00  0.00     0.003 A 
HETATM   16  C11 UNL     1       4.863   1.034   5.270  1.00  0.00     0.036 A 
HETATM   17  C12 UNL     1       4.040   0.175   4.537  1.00  0.00     0.022 A 
BRANCH  16  18
HETATM   18  C13 UNL     1       5.661   0.513   6.392  1.00  0.00     0.173 C 
HETATM   19  O3  UNL     1       5.608  -0.664   6.679  1.00  0.00    -0.291 OA
HETATM   20  C14 UNL     1       6.544   1.443   7.184  1.00  0.00     0.077 C 
ENDBRANCH  16  18
ENDBRANCH  11  12
TORSDOF 2
