REMARK  4 active torsions:
REMARK  status: ('A' for Active; 'I' for Inactive)
REMARK    1  A    between atoms: C3_3  and  O4_21 
REMARK    2  A    between atoms: C5_5  and  C9_10 
REMARK    3  A    between atoms: C7_7  and  O1_8 
REMARK       I    between atoms: C9_10  and  N1_12 
REMARK    4  A    between atoms: C13_16  and  C15_18 
ROOT
HETATM    1  C1  UNL     1      -0.119   1.500   0.021  1.00  0.00     0.035 C 
HETATM    2  C2  UNL     1      -0.073  -0.006   0.010  1.00  0.00     0.023 A 
HETATM    3  C3  UNL     1      -0.921  -0.730   0.835  1.00  0.00     0.092 A 
HETATM    4  C4  UNL     1      -0.882  -2.115   0.828  1.00  0.00     0.029 A 
HETATM    5  C5  UNL     1       0.012  -2.781  -0.011  1.00  0.00     0.060 A 
HETATM    6  C6  UNL     1       0.863  -2.049  -0.839  1.00  0.00     0.029 A 
HETATM    7  C7  UNL     1       0.814  -0.664  -0.830  1.00  0.00     0.092 A 
ENDROOT
BRANCH   5   8
HETATM    8  C9  UNL     1       0.058  -4.259  -0.021  1.00  0.00     0.257 C 
HETATM    9  O2  UNL     1      -0.009  -4.861  -1.075  1.00  0.00    -0.267 OA
HETATM   10  N1  UNL     1       0.175  -4.938   1.137  1.00  0.00    -0.316 N 
HETATM   11  C10 UNL     1       0.168  -4.229   2.424  1.00  0.00     0.104 C 
HETATM   12  C14 UNL     1       0.305  -6.401   1.137  1.00  0.00     0.114 C 
HETATM   13  C11 UNL     1       1.415  -4.632   3.216  1.00  0.00     0.025 C 
HETATM   14  C12 UNL     1       1.465  -6.157   3.339  1.00  0.00     0.013 C 
HETATM   15  C13 UNL     1       1.557  -6.780   1.944  1.00  0.00     0.105 C 
BRANCH  15  16
HETATM   16  C15 UNL     1       1.639  -8.280   2.067  1.00  0.00     0.275 C 
HETATM   17  O3  UNL     1       1.627  -8.800   3.162  1.00  0.00    -0.269 OA
HETATM   18  N2  UNL     1       1.728  -9.043   0.960  1.00  0.00    -0.107 N 
ENDBRANCH  15  16
ENDBRANCH   5   8
BRANCH   3  19
HETATM   19  O4  UNL     1      -1.792  -0.080   1.651  1.00  0.00    -0.328 OA
HETATM   20  C16 UNL     1      -2.636  -0.888   2.474  1.00  0.00     0.181 C 
ENDBRANCH   3  19
BRANCH   7  21
HETATM   21  O1  UNL     1       1.639   0.050  -1.640  1.00  0.00    -0.328 OA
HETATM   22  C8  UNL     1       2.526  -0.692  -2.479  1.00  0.00     0.181 C 
ENDBRANCH   7  21
TORSDOF 4
