REMARK  10 active torsions:
REMARK  status: ('A' for Active; 'I' for Inactive)
REMARK    1  A    between atoms: C3_4  and  C5_7 
REMARK    2  A    between atoms: C5_7  and  N3_29 
REMARK    3  A    between atoms: C6_8  and  C7_9 
REMARK    4  A    between atoms: C6_8  and  N3_29 
REMARK    5  A    between atoms: C10_12  and  O2_17 
REMARK    6  A    between atoms: C11_13  and  O1_15 
REMARK    7  A    between atoms: O2_17  and  C14_18 
REMARK    8  A    between atoms: C14_18  and  C15_19 
REMARK    9  A    between atoms: C15_19  and  C16_20 
REMARK   10  A    between atoms: C16_20  and  N4_30 
ROOT
HETATM    1  C7  UNL     1       4.671  10.102  -0.592  1.00  0.00     0.016 A 
HETATM    2  C8  UNL     1       3.423   9.543  -0.791  1.00  0.00    -0.000 A 
HETATM    3  C9  UNL     1       3.226   8.191  -0.582  1.00  0.00     0.026 A 
HETATM    4  C10 UNL     1       4.281   7.392  -0.172  1.00  0.00     0.116 A 
HETATM    5  C11 UNL     1       5.537   7.956   0.035  1.00  0.00     0.116 A 
HETATM    6  C12 UNL     1       5.729   9.311  -0.183  1.00  0.00     0.024 A 
ENDROOT
BRANCH   4   7
HETATM    7  O2  UNL     1       4.089   6.062   0.035  1.00  0.00    -0.326 OA
BRANCH   7   8
HETATM    8  C14 UNL     1       2.773   5.554  -0.191  1.00  0.00     0.184 C 
BRANCH   8   9
HETATM    9  C15 UNL     1       2.752   4.050   0.090  1.00  0.00     0.215 C 
HETATM   10  O3  UNL     1       3.013   3.821   1.476  1.00  0.00    -0.219 OA
BRANCH   9  11
HETATM   11  C16 UNL     1       1.377   3.483  -0.270  1.00  0.00     0.285 C 
BRANCH  11  12
HETATM   12  N4  UNL     1       1.383   2.029  -0.009  1.00  0.00     0.140 N 
HETATM   13  C17 UNL     1       1.218   1.775   1.437  1.00  0.00     0.250 C 
HETATM   14  C18 UNL     1       0.909   0.293   1.662  1.00  0.00     0.035 C 
HETATM   15  C19 UNL     1      -0.512   0.151   2.216  1.00  0.00     0.002 C 
HETATM   16  C20 UNL     1      -1.514   0.386   1.085  1.00  0.00     0.000 C 
HETATM   17  C21 UNL     1      -1.600   1.881   0.777  1.00  0.00     0.002 C 
HETATM   18  C22 UNL     1      -1.013   2.158  -0.607  1.00  0.00     0.035 C 
HETATM   19  C23 UNL     1       0.294   1.375  -0.767  1.00  0.00     0.250 C 
ENDBRANCH  11  12
ENDBRANCH   9  11
ENDBRANCH   8   9
ENDBRANCH   7   8
ENDBRANCH   4   7
BRANCH   5  20
HETATM   20  O1  UNL     1       6.574   7.178   0.443  1.00  0.00    -0.326 OA
HETATM   21  C13 UNL     1       7.834   7.824   0.634  1.00  0.00     0.181 C 
ENDBRANCH   5  20
BRANCH   1  22
HETATM   22  C6  UNL     1       4.880  11.577  -0.821  1.00  0.00     0.317 C 
BRANCH  22  23
HETATM   23  N3  UNL     1       4.622  12.303   0.436  1.00  0.00     0.349 N 
BRANCH  23  24
HETATM   24  C5  UNL     1       4.819  13.751   0.241  1.00  0.00     0.320 C 
BRANCH  24  25
HETATM   25  C3  UNL     1       4.548  14.466   1.540  1.00  0.00     0.053 A 
HETATM   26  C2  UNL     1       3.353  14.954   1.946  1.00  0.00     0.095 A 
HETATM   27  N1  UNL     1       3.530  15.517   3.160  1.00  0.00    -0.248 N 
HETATM   28  C1  UNL     1       2.494  16.164   3.969  1.00  0.00     0.154 C 
HETATM   29  N2  UNL     1       4.880  15.377   3.508  1.00  0.00    -0.168 NA
HETATM   30  C4  UNL     1       5.489  14.747   2.536  1.00  0.00     0.119 A 
ENDBRANCH  24  25
ENDBRANCH  23  24
ENDBRANCH  22  23
ENDBRANCH   1  22
TORSDOF 10
