REMARK  3 active torsions:
REMARK  status: ('A' for Active; 'I' for Inactive)
REMARK    1  A    between atoms: C6_6  and  N1_9 
REMARK       I    between atoms: N1_9  and  C9_10 
REMARK    2  A    between atoms: C9_10  and  C10_12 
REMARK    3  A    between atoms: C13_15  and  S1_18 
ROOT
HETATM    1  N1  UNL     1       4.852   0.008  -0.044  1.00  0.00    -0.236 NA
HETATM    2  C9  UNL     1       3.696  -0.685  -0.036  1.00  0.00     0.275 C 
HETATM    3  O1  UNL     1       3.715  -1.900  -0.043  1.00  0.00    -0.266 OA
ENDROOT
BRANCH   2   4
HETATM    4  C10 UNL     1       2.403   0.034  -0.021  1.00  0.00     0.058 A 
HETATM    5  C11 UNL     1       1.204  -0.681  -0.013  1.00  0.00     0.005 A 
HETATM    6  C12 UNL     1       0.002  -0.004   0.002  1.00  0.00     0.011 A 
HETATM    7  C13 UNL     1      -0.017   1.379   0.010  1.00  0.00     0.084 A 
HETATM    8  C14 UNL     1       1.168   2.094   0.002  1.00  0.00     0.011 A 
HETATM    9  C15 UNL     1       2.377   1.429  -0.013  1.00  0.00     0.005 A 
BRANCH   7  10
HETATM   10  S1  UNL     1      -1.557   2.236   0.021  1.00  0.00     0.191 S 
HETATM   11  O2  UNL     1      -1.276   3.494  -0.576  1.00  0.00    -0.222 OA
HETATM   12  O3  UNL     1      -2.476   1.336  -0.582  1.00  0.00    -0.222 OA
HETATM   13  C16 UNL     1      -1.956   2.453   1.778  1.00  0.00     0.145 C 
ENDBRANCH   7  10
ENDBRANCH   2   4
BRANCH   1  14
HETATM   14  C6  UNL     1       6.132  -0.704  -0.059  1.00  0.00     0.107 C 
HETATM   15  C5  UNL     1       6.503  -1.054  -1.502  1.00  0.00     0.024 C 
HETATM   16  C4  UNL     1       7.840  -1.798  -1.518  1.00  0.00     0.002 C 
HETATM   17  C3  UNL     1       8.927  -0.906  -0.914  1.00  0.00     0.000 C 
HETATM   18  C2  UNL     1       8.556  -0.556   0.529  1.00  0.00     0.002 C 
HETATM   19  C1  UNL     1       9.643   0.336   1.133  1.00  0.00     0.000 C 
HETATM   20  C7  UNL     1       7.219   0.188   0.545  1.00  0.00     0.023 C 
HETATM   21  C8  UNL     1       7.339   1.472  -0.277  1.00  0.00     0.002 C 
ENDBRANCH   1  14
TORSDOF 3
