REMARK  5 active torsions:
REMARK  status: ('A' for Active; 'I' for Inactive)
REMARK    1  A    between atoms: C2_2  and  O1_5 
REMARK    2  A    between atoms: O1_5  and  C5_6 
REMARK       I    between atoms: C5_6  and  N1_8 
REMARK    3  A    between atoms: C7_10  and  N2_12 
REMARK       I    between atoms: N2_12  and  C9_13 
REMARK    4  A    between atoms: C9_13  and  C10_15 
REMARK    5  A    between atoms: C13_18  and  N3_21 
ROOT
HETATM    1  N2  UNL     1       4.287  -1.299  -5.236  1.00  0.00    -0.232 NA
HETATM    2  C9  UNL     1       4.902  -0.723  -6.288  1.00  0.00     0.275 C 
HETATM    3  O3  UNL     1       4.750   0.464  -6.505  1.00  0.00    -0.266 OA
ENDROOT
BRANCH   2   4
HETATM    4  C10 UNL     1       5.759  -1.532  -7.177  1.00  0.00     0.058 A 
HETATM    5  C11 UNL     1       5.930  -2.897  -6.932  1.00  0.00     0.006 A 
HETATM    6  C12 UNL     1       6.730  -3.649  -7.764  1.00  0.00     0.019 A 
HETATM    7  C13 UNL     1       7.368  -3.052  -8.845  1.00  0.00     0.085 A 
HETATM    8  C14 UNL     1       7.201  -1.694  -9.091  1.00  0.00     0.019 A 
HETATM    9  C15 UNL     1       6.397  -0.936  -8.267  1.00  0.00     0.006 A 
BRANCH   7  10
HETATM   10  N3  UNL     1       8.181  -3.819  -9.687  1.00  0.00    -0.209 N 
HETATM   11  C16 UNL     1       8.873  -3.381 -10.776  1.00  0.00     0.125 A 
HETATM   12  C17 UNL     1       9.517  -4.453 -11.285  1.00  0.00     0.145 A 
HETATM   13  N4  UNL     1       9.237  -5.522 -10.540  1.00  0.00    -0.127 NA
HETATM   14  N5  UNL     1       8.451  -5.191  -9.575  1.00  0.00    -0.059 NA
ENDBRANCH   7  10
ENDBRANCH   2   4
BRANCH   1  15
HETATM   15  C7  UNL     1       3.436  -0.496  -4.355  1.00  0.00     0.151 C 
HETATM   16  C6  UNL     1       2.359  -1.302  -3.614  1.00  0.00     0.133 C 
HETATM   17  N1  UNL     1       2.641  -0.485  -2.424  1.00  0.00    -0.293 N 
HETATM   18  C5  UNL     1       1.952  -0.085  -1.337  1.00  0.00     0.365 C 
HETATM   19  C8  UNL     1       4.002  -0.292  -2.946  1.00  0.00     0.133 C 
HETATM   20  O2  UNL     1       2.488   0.619  -0.503  1.00  0.00    -0.238 OA
BRANCH  18  21
HETATM   21  O1  UNL     1       0.671  -0.465  -1.174  1.00  0.00    -0.290 OA
BRANCH  21  22
HETATM   22  C2  UNL     1       0.002  -0.004   0.002  1.00  0.00     0.103 C 
HETATM   23  C1  UNL     1      -0.019   1.526   0.010  1.00  0.00     0.030 C 
HETATM   24  C3  UNL     1       0.742  -0.511   1.242  1.00  0.00     0.030 C 
HETATM   25  C4  UNL     1      -1.433  -0.534   0.013  1.00  0.00     0.030 C 
ENDBRANCH  21  22
ENDBRANCH  18  21
ENDBRANCH   1  15
TORSDOF 5
