REMARK  6 active torsions:
REMARK  status: ('A' for Active; 'I' for Inactive)
REMARK    1  A    between atoms: C2_2  and  C4_4 
REMARK    2  A    between atoms: C7_7  and  C10_10 
REMARK    3  A    between atoms: C12_12  and  C16_20 
REMARK    4  A    between atoms: N2_14  and  C13_15 
REMARK    5  A    between atoms: C13_15  and  C14_16 
REMARK    6  A    between atoms: C14_16  and  O2_18 
ROOT
HETATM    1  C10 UNL     1       2.690  -1.869  -4.734  1.00  0.00     0.080 A 
HETATM    2  C11 UNL     1       2.331  -1.606  -6.025  1.00  0.00     0.038 A 
HETATM    3  C12 UNL     1       3.255  -2.232  -6.862  1.00  0.00     0.113 A 
HETATM    4  N1  UNL     1       4.138  -2.849  -6.120  1.00  0.00    -0.171 NA
HETATM    5  N2  UNL     1       3.816  -2.636  -4.774  1.00  0.00    -0.241 N 
ENDROOT
BRANCH   1   6
HETATM    6  C7  UNL     1       1.990  -1.402  -3.516  1.00  0.00     0.017 A 
HETATM    7  C6  UNL     1       1.172  -0.273  -3.568  1.00  0.00     0.001 A 
HETATM    8  C5  UNL     1       0.522   0.157  -2.429  1.00  0.00    -0.004 A 
HETATM    9  C4  UNL     1       0.681  -0.529  -1.238  1.00  0.00    -0.022 A 
HETATM   10  C9  UNL     1       1.495  -1.645  -1.179  1.00  0.00    -0.004 A 
HETATM   11  C8  UNL     1       2.146  -2.089  -2.312  1.00  0.00     0.001 A 
BRANCH   9  12
HETATM   12  C2  UNL     1      -0.032  -0.053   0.002  1.00  0.00     0.022 C 
HETATM   13  C1  UNL     1       0.409   1.375   0.327  1.00  0.00     0.005 C 
HETATM   14  C3  UNL     1      -1.543  -0.079  -0.238  1.00  0.00     0.005 C 
ENDBRANCH   9  12
ENDBRANCH   1   6
BRANCH   5  15
HETATM   15  C13 UNL     1       4.554  -3.149  -3.617  1.00  0.00     0.223 C 
BRANCH  15  16
HETATM   16  C14 UNL     1       4.082  -4.544  -3.297  1.00  0.00     0.297 C 
HETATM   17  O1  UNL     1       3.217  -5.057  -3.967  1.00  0.00    -0.262 OA
BRANCH  16  18
HETATM   18  O2  UNL     1       4.621  -5.216  -2.269  1.00  0.00    -0.297 OA
HETATM   19  C15 UNL     1       4.125  -6.534  -2.023  1.00  0.00     0.185 C 
ENDBRANCH  16  18
ENDBRANCH  15  16
ENDBRANCH   5  15
BRANCH   3  20
HETATM   20  C16 UNL     1       3.237  -2.203  -8.369  1.00  0.00     0.230 C 
HETATM   21  O3  UNL     1       2.122  -1.430  -8.818  1.00  0.00    -0.214 OA
ENDBRANCH   3  20
TORSDOF 6
