REMARK  10 active torsions:
REMARK  status: ('A' for Active; 'I' for Inactive)
REMARK    1  A    between atoms: C2_2  and  N1_3 
REMARK    2  A    between atoms: N1_3  and  C3_4 
REMARK       I    between atoms: N1_3  and  C5_6 
REMARK    3  A    between atoms: C5_6  and  C6_8 
REMARK    4  A    between atoms: C6_8  and  N2_9 
REMARK    5  A    between atoms: C8_11  and  C15_18 
REMARK    6  A    between atoms: C15_18  and  C16_20 
REMARK       I    between atoms: C16_20  and  N3_22 
REMARK    7  A    between atoms: N3_22  and  C17_23 
REMARK    8  A    between atoms: C17_23  and  C18_24 
REMARK    9  A    between atoms: C18_24  and  C19_25 
REMARK   10  A    between atoms: C19_25  and  N4_26 
ROOT
HETATM    1  N2  UNL     1       4.220  -0.727   0.073  1.00  0.00    -0.318 N 
HETATM    2  C7  UNL     1       5.151   0.182   0.417  1.00  0.00     0.080 A 
HETATM    3  C8  UNL     1       6.383  -0.436   0.528  1.00  0.00     0.062 A 
HETATM    4  C9  UNL     1       6.157  -1.861   0.216  1.00  0.00     0.021 A 
HETATM    5  C10 UNL     1       4.784  -1.981  -0.054  1.00  0.00     0.060 A 
HETATM    6  C11 UNL     1       4.261  -3.227  -0.379  1.00  0.00     0.017 A 
HETATM    7  C12 UNL     1       5.089  -4.329  -0.430  1.00  0.00     0.002 A 
HETATM    8  C13 UNL     1       6.443  -4.209  -0.159  1.00  0.00     0.000 A 
HETATM    9  C14 UNL     1       6.982  -2.979   0.156  1.00  0.00     0.002 A 
ENDROOT
BRANCH   3  10
HETATM   10  C15 UNL     1       7.654   0.195   0.881  1.00  0.00     0.254 C 
HETATM   11  O2  UNL     1       8.668  -0.472   0.942  1.00  0.00    -0.281 OA
BRANCH  10  12
HETATM   12  C16 UNL     1       7.705   1.658   1.167  1.00  0.00     0.314 C 
HETATM   13  O3  UNL     1       6.693   2.325   1.107  1.00  0.00    -0.262 OA
HETATM   14  N3  UNL     1       8.877   2.240   1.493  1.00  0.00    -0.232 NA
BRANCH  14  15
HETATM   15  C17 UNL     1       8.928   3.677   1.774  1.00  0.00     0.131 C 
BRANCH  15  16
HETATM   16  C18 UNL     1      10.364   4.079   2.115  1.00  0.00     0.051 C 
BRANCH  16  17
HETATM   17  C19 UNL     1      10.417   5.580   2.408  1.00  0.00     0.110 C 
BRANCH  17  18
HETATM   18  N4  UNL     1      11.793   5.965   2.734  1.00  0.00    -0.308 N 
HETATM   19  C20 UNL     1      12.361   5.972   3.980  1.00  0.00     0.098 A 
HETATM   20  C21 UNL     1      13.632   6.389   3.826  1.00  0.00     0.119 A 
HETATM   21  N5  UNL     1      13.834   6.631   2.522  1.00  0.00    -0.223 NA
HETATM   22  C22 UNL     1      12.739   6.375   1.862  1.00  0.00     0.179 A 
ENDBRANCH  17  18
ENDBRANCH  16  17
ENDBRANCH  15  16
ENDBRANCH  14  15
ENDBRANCH  10  12
ENDBRANCH   3  10
BRANCH   1  23
HETATM   23  C6  UNL     1       2.801  -0.427  -0.132  1.00  0.00     0.195 C 
BRANCH  23  24
HETATM   24  C5  UNL     1       2.042  -0.696   1.142  1.00  0.00     0.257 C 
HETATM   25  N1  UNL     1       0.711  -0.489   1.189  1.00  0.00    -0.319 N 
HETATM   26  O1  UNL     1       2.628  -1.097   2.124  1.00  0.00    -0.270 OA
BRANCH  25  27
HETATM   27  C2  UNL     1       0.002  -0.004   0.002  1.00  0.00     0.104 C 
HETATM   28  C1  UNL     1      -0.019   1.526   0.010  1.00  0.00     0.026 C 
ENDBRANCH  25  27
BRANCH  25  29
HETATM   29  C3  UNL     1      -0.028  -0.750   2.427  1.00  0.00     0.104 C 
HETATM   30  C4  UNL     1      -0.511  -2.202   2.437  1.00  0.00     0.026 C 
ENDBRANCH  25  29
ENDBRANCH  23  24
ENDBRANCH   1  23
TORSDOF 10
