REMARK  3 active torsions:
REMARK  status: ('A' for Active; 'I' for Inactive)
REMARK    1  A    between atoms: C2_2  and  C3_3 
REMARK    2  A    between atoms: C3_3  and  C4_4 
REMARK    3  A    between atoms: C5_5  and  C6_9 
ROOT
HETATM    1  C6  UNL     1      -1.649  -2.092   2.470  1.00  0.00     0.309 C 
HETATM    2  C7  UNL     1      -2.825  -2.352   1.565  1.00  0.00     0.012 A 
HETATM    3  C8  UNL     1      -2.651  -2.193   0.214  1.00  0.00    -0.001 A 
HETATM    4  C9  UNL     1      -3.712  -2.419  -0.662  1.00  0.00     0.019 A 
HETATM    5  C10 UNL     1      -3.869  -2.345  -2.116  1.00  0.00     0.022 A 
HETATM    6  C11 UNL     1      -5.140  -2.678  -2.391  1.00  0.00     0.099 A 
HETATM    7  N3  UNL     1      -5.810  -2.960  -1.232  1.00  0.00    -0.244 NA
HETATM    8  C12 UNL     1      -4.965  -2.812  -0.155  1.00  0.00     0.081 A 
HETATM    9  C13 UNL     1      -5.121  -2.969   1.216  1.00  0.00     0.015 A 
HETATM   10  C14 UNL     1      -4.057  -2.740   2.068  1.00  0.00    -0.020 A 
HETATM   11  C15 UNL     1      -4.274  -2.928   3.549  1.00  0.00     0.064 C 
HETATM   12  C16 UNL     1      -3.144  -2.253   4.327  1.00  0.00     0.296 C 
HETATM   13  N4  UNL     1      -1.859  -2.714   3.780  1.00  0.00     0.347 N 
ENDROOT
BRANCH   1  14
HETATM   14  C5  UNL     1      -0.404  -2.665   1.842  1.00  0.00     0.080 A 
HETATM   15  C4  UNL     1       0.676  -2.015   1.338  1.00  0.00     0.087 A 
HETATM   16  N2  UNL     1       1.616  -2.794   0.846  1.00  0.00    -0.145 NA
HETATM   17  N1  UNL     1       1.452  -4.071   0.889  1.00  0.00    -0.110 NA
HETATM   18  S1  UNL     1       0.007  -4.274   1.587  1.00  0.00     0.035 SA
BRANCH  15  19
HETATM   19  C3  UNL     1       0.787  -0.512   1.335  1.00  0.00     0.048 C 
BRANCH  19  20
HETATM   20  C2  UNL     1       0.312   0.032  -0.014  1.00  0.00     0.006 C 
HETATM   21  C1  UNL     1       0.545   1.544  -0.064  1.00  0.00     0.000 C 
ENDBRANCH  19  20
ENDBRANCH  15  19
ENDBRANCH   1  14
TORSDOF 3
