REMARK  2 active torsions:
REMARK  status: ('A' for Active; 'I' for Inactive)
REMARK    1  A    between atoms: C3_3  and  C13_16 
REMARK    2  A    between atoms: C5_5  and  C7_8 
ROOT
HETATM    1  C1  UNL     1       0.112   1.501   0.009  1.00  0.00     0.050 C 
HETATM    2  C2  UNL     1       0.061  -0.005   0.002  1.00  0.00     0.043 A 
HETATM    3  C3  UNL     1      -0.101  -0.803  -1.113  1.00  0.00     0.077 A 
HETATM    4  C4  UNL     1      -0.091  -2.150  -0.661  1.00  0.00     0.025 A 
HETATM    5  C5  UNL     1       0.072  -2.116   0.685  1.00  0.00     0.062 A 
HETATM    6  N1  UNL     1       0.170  -0.804   1.080  1.00  0.00    -0.329 N 
HETATM    7  C6  UNL     1       0.359  -0.345   2.458  1.00  0.00     0.130 C 
ENDROOT
BRANCH   5   8
HETATM    8  C7  UNL     1       0.140  -3.293   1.578  1.00  0.00     0.045 A 
HETATM    9  C8  UNL     1      -0.622  -3.332   2.746  1.00  0.00     0.033 A 
HETATM   10  C9  UNL     1      -0.554  -4.435   3.575  1.00  0.00     0.140 A 
HETATM   11  C10 UNL     1       0.268  -5.502   3.248  1.00  0.00     0.032 A 
HETATM   12  F2  UNL     1      -1.291  -4.474   4.706  1.00  0.00    -0.204 F 
HETATM   13  C11 UNL     1       1.025  -5.470   2.092  1.00  0.00     0.032 A 
HETATM   14  C12 UNL     1       0.963  -4.374   1.251  1.00  0.00     0.142 A 
HETATM   15  F1  UNL     1       1.699  -4.347   0.119  1.00  0.00    -0.204 F 
ENDBRANCH   5   8
BRANCH   3  16
HETATM   16  C13 UNL     1      -0.253  -0.347  -2.501  1.00  0.00     0.212 C 
HETATM   17  O1  UNL     1      -0.389  -1.165  -3.402  1.00  0.00    -0.644 OA
HETATM   18  O2  UNL     1      -0.245   0.849  -2.757  1.00  0.00    -0.644 OA
ENDBRANCH   3  16
TORSDOF 2
