REMARK  3 active torsions:
REMARK  status: ('A' for Active; 'I' for Inactive)
REMARK    1  A    between atoms: O1_2  and  C2_3 
REMARK    2  A    between atoms: C2_3  and  C3_5 
REMARK    3  A    between atoms: C8_10  and  N1_11 
REMARK       I    between atoms: N1_11  and  C9_12 
REMARK       I    between atoms: C9_12  and  N2_14 
ROOT
HETATM    1  N1  UNL     1       1.213   3.536   0.130  1.00  0.00    -0.192 NA
HETATM    2  C9  UNL     1       2.368   4.222   0.010  1.00  0.00     0.350 C 
HETATM    3  O3  UNL     1       3.400   3.634  -0.248  1.00  0.00    -0.244 OA
HETATM    4  N2  UNL     1       2.377   5.559   0.176  1.00  0.00    -0.276 N 
HETATM    5  C10 UNL     1       1.125   6.314   0.354  1.00  0.00     0.143 C 
HETATM    6  C11 UNL     1       1.230   7.597  -0.477  1.00  0.00     0.173 C 
HETATM    7  O4  UNL     1       2.375   8.336  -0.045  1.00  0.00    -0.327 OA
HETATM    8  C12 UNL     1       3.555   7.670   0.065  1.00  0.00     0.110 A 
HETATM    9  C13 UNL     1       3.582   6.283   0.179  1.00  0.00     0.086 A 
HETATM   10  C14 UNL     1       4.792   5.618   0.296  1.00  0.00     0.019 A 
HETATM   11  C15 UNL     1       5.975   6.334   0.297  1.00  0.00     0.002 A 
HETATM   12  C16 UNL     1       5.950   7.712   0.181  1.00  0.00     0.002 A 
HETATM   13  C17 UNL     1       4.746   8.380   0.065  1.00  0.00     0.026 A 
ENDROOT
BRANCH   1  14
HETATM   14  C8  UNL     1       1.219   2.146   0.060  1.00  0.00     0.092 A 
HETATM   15  C3  UNL     1       0.316   1.397   0.831  1.00  0.00     0.081 A 
HETATM   16  C4  UNL     1       0.331   0.001   0.751  1.00  0.00     0.008 A 
HETATM   17  C5  UNL     1       1.230  -0.630  -0.080  1.00  0.00     0.012 A 
HETATM   18  C6  UNL     1       2.121   0.113  -0.841  1.00  0.00     0.059 A 
HETATM   19  C7  UNL     1       2.118   1.493  -0.772  1.00  0.00     0.031 A 
HETATM   20 CL1  UNL     1       3.248  -0.696  -1.884  1.00  0.00    -0.082 Cl
BRANCH  15  21
HETATM   21  C2  UNL     1      -0.647   2.078   1.713  1.00  0.00     0.297 C 
HETATM   22  O2  UNL     1      -0.597   3.284   1.851  1.00  0.00    -0.259 OA
BRANCH  21  23
HETATM   23  O1  UNL     1      -1.584   1.363   2.367  1.00  0.00    -0.296 OA
HETATM   24  C1  UNL     1      -2.499   2.100   3.220  1.00  0.00     0.185 C 
ENDBRANCH  21  23
ENDBRANCH  15  21
ENDBRANCH   1  14
TORSDOF 3
