REMARK  5 active torsions:
REMARK  status: ('A' for Active; 'I' for Inactive)
REMARK    1  A    between atoms: C2_2  and  C3_3 
REMARK    2  A    between atoms: C3_3  and  N1_4 
REMARK    3  A    between atoms: N3_13  and  C11_15 
REMARK    4  A    between atoms: C11_15  and  C12_16 
REMARK       I    between atoms: C12_16  and  N4_18 
REMARK    5  A    between atoms: N4_18  and  C13_19 
ROOT
HETATM    1  N1  UNL     1       0.762  -1.976   1.234  1.00  0.00    -0.217 N 
HETATM    2  C4  UNL     1       1.786  -2.615   0.637  1.00  0.00     0.276 A 
HETATM    3  O1  UNL     1       2.689  -1.982   0.113  1.00  0.00    -0.266 OA
HETATM    4  C5  UNL     1       1.803  -4.026   0.626  1.00  0.00     0.061 A 
HETATM    5  C6  UNL     1       0.767  -4.681   1.231  1.00  0.00     0.031 A 
HETATM    6  C7  UNL     1      -0.249  -3.923   1.827  1.00  0.00     0.079 A 
HETATM    7  N2  UNL     1      -0.194  -2.617   1.799  1.00  0.00    -0.172 NA
HETATM    8  C8  UNL     1      -1.411  -4.593   2.516  1.00  0.00     0.083 C 
HETATM    9  C9  UNL     1      -1.488  -6.059   2.086  1.00  0.00     0.258 C 
HETATM   10  N3  UNL     1      -0.167  -6.678   2.273  1.00  0.00     0.152 N 
HETATM   11  C10 UNL     1       0.746  -6.184   1.238  1.00  0.00     0.279 C 
ENDROOT
BRANCH  10  12
HETATM   12  C11 UNL     1      -0.290  -8.138   2.163  1.00  0.00     0.339 C 
BRANCH  12  13
HETATM   13  C12 UNL     1       1.038  -8.778   2.477  1.00  0.00     0.292 C 
HETATM   14  O2  UNL     1       1.992  -8.087   2.763  1.00  0.00    -0.268 OA
HETATM   15  N4  UNL     1       1.165 -10.120   2.438  1.00  0.00    -0.183 NA
BRANCH  15  16
HETATM   16  C13 UNL     1       2.390 -10.711   2.727  1.00  0.00     0.218 A 
HETATM   17  N5  UNL     1       3.531 -10.139   3.062  1.00  0.00    -0.121 NA
HETATM   18  N6  UNL     1       4.572 -10.815   3.297  1.00  0.00    -0.144 NA
HETATM   19  C14 UNL     1       4.518 -12.129   3.206  1.00  0.00     0.113 A 
HETATM   20  S1  UNL     1       2.804 -12.345   2.749  1.00  0.00    -0.030 SA
HETATM   21  C15 UNL     1       5.596 -13.158   3.431  1.00  0.00     0.061 C 
ENDBRANCH  15  16
ENDBRANCH  12  13
ENDBRANCH  10  12
BRANCH   1  22
HETATM   22  C3  UNL     1       0.742  -0.511   1.242  1.00  0.00     0.131 C 
BRANCH  22  23
HETATM   23  C2  UNL     1       0.002  -0.004   0.002  1.00  0.00     0.026 C 
HETATM   24  C1  UNL     1      -0.019   1.526   0.010  1.00  0.00     0.002 C 
ENDBRANCH  22  23
ENDBRANCH   1  22
TORSDOF 5
