REMARK  7 active torsions:
REMARK  status: ('A' for Active; 'I' for Inactive)
REMARK    1  A    between atoms: C2_2  and  N1_3 
REMARK    2  A    between atoms: N3_6  and  C5_9 
REMARK    3  A    between atoms: C5_9  and  N6_26 
REMARK    4  A    between atoms: C6_10  and  C7_11 
REMARK    5  A    between atoms: C6_10  and  N6_26 
REMARK    6  A    between atoms: C8_14  and  C9_16 
REMARK    7  A    between atoms: C15_23  and  N6_26 
ROOT
HETATM    1  C6  UNL     1      -0.200   0.981   2.418  1.00  0.00     0.325 C 
ENDROOT
BRANCH   1   2
HETATM    2  C7  UNL     1      -0.661  -0.448   2.540  1.00  0.00     0.215 A 
HETATM    3  N4  UNL     1       0.001  -1.506   2.163  1.00  0.00    -0.123 NA
HETATM    4  N5  UNL     1      -0.690  -2.561   2.420  1.00  0.00    -0.121 NA
HETATM    5  C8  UNL     1      -1.830  -2.209   2.966  1.00  0.00     0.204 A 
HETATM    6  O1  UNL     1      -1.833  -0.863   3.053  1.00  0.00    -0.270 OA
BRANCH   5   7
HETATM    7  C9  UNL     1      -2.909  -3.118   3.406  1.00  0.00     0.043 A 
HETATM    8  C10 UNL     1      -4.071  -2.600   3.980  1.00  0.00     0.004 A 
HETATM    9  C11 UNL     1      -5.077  -3.453   4.383  1.00  0.00     0.011 A 
HETATM   10  C12 UNL     1      -4.931  -4.822   4.229  1.00  0.00     0.058 A 
HETATM   11  C13 UNL     1      -3.779  -5.342   3.665  1.00  0.00     0.011 A 
HETATM   12 CL1  UNL     1      -6.199  -5.890   4.746  1.00  0.00    -0.082 Cl
HETATM   13  C14 UNL     1      -2.768  -4.498   3.253  1.00  0.00     0.004 A 
ENDBRANCH   5   7
ENDBRANCH   1   2
BRANCH   1  14
HETATM   14  N6  UNL     1      -0.762   1.556   1.177  1.00  0.00     0.168 N 
BRANCH  14  15
HETATM   15  C5  UNL     1      -0.015   1.054   0.005  1.00  0.00     0.381 C 
BRANCH  15  16
HETATM   16  N3  UNL     1      -0.718   1.463  -1.214  1.00  0.00    -0.193 N 
HETATM   17  N2  UNL     1      -1.725   0.745  -1.873  1.00  0.00    -0.145 NA
HETATM   18  C3  UNL     1      -2.100   1.430  -2.904  1.00  0.00     0.201 A 
HETATM   19  N1  UNL     1      -1.361   2.587  -2.960  1.00  0.00    -0.286 N 
HETATM   20  C4  UNL     1      -0.512   2.598  -1.913  1.00  0.00     0.202 A 
HETATM   21  S1  UNL     1       0.620   3.828  -1.540  1.00  0.00    -0.039 SA
BRANCH  19  22
HETATM   22  C2  UNL     1      -1.478   3.630  -3.982  1.00  0.00     0.110 C 
HETATM   23  C1  UNL     1      -0.437   3.389  -5.077  1.00  0.00     0.027 C 
ENDBRANCH  19  22
ENDBRANCH  15  16
ENDBRANCH  14  15
BRANCH  14  24
HETATM   24  C15 UNL     1      -0.692   3.031   1.228  1.00  0.00     0.222 A 
HETATM   25  C16 UNL     1       0.152   3.678   2.327  1.00  0.00     0.035 A 
HETATM   26  C17 UNL     1      -1.375   3.720   2.411  1.00  0.00     0.035 A 
ENDBRANCH  14  24
ENDBRANCH   1  14
TORSDOF 7
