REMARK  2 active torsions:
REMARK  status: ('A' for Active; 'I' for Inactive)
REMARK    1  A    between atoms: C7_7  and  N1_8 
REMARK       I    between atoms: N1_8  and  C8_9 
REMARK    2  A    between atoms: C8_9  and  C9_11 
ROOT
HETATM    1  C9  UNL     1      -0.164   0.037   4.855  1.00  0.00     0.159 A 
HETATM    2  C10 UNL     1      -0.248  -0.696   6.128  1.00  0.00     0.029 A 
HETATM    3  C11 UNL     1      -0.230  -2.085   6.200  1.00  0.00     0.002 A 
HETATM    4  C12 UNL     1      -0.313  -2.700   7.432  1.00  0.00     0.000 A 
HETATM    5  C13 UNL     1      -0.414  -1.949   8.596  1.00  0.00     0.000 A 
HETATM    6  C14 UNL     1      -0.433  -0.572   8.547  1.00  0.00     0.005 A 
HETATM    7  C15 UNL     1      -0.350   0.068   7.314  1.00  0.00     0.059 A 
HETATM    8  C16 UNL     1      -0.364   1.530   7.170  1.00  0.00     0.276 A 
HETATM    9  O2  UNL     1      -0.450   2.251   8.148  1.00  0.00    -0.266 OA
HETATM   10  N2  UNL     1      -0.280   2.055   5.931  1.00  0.00    -0.215 N 
HETATM   11  N3  UNL     1      -0.182   1.348   4.869  1.00  0.00    -0.162 NA
HETATM   12  C17 UNL     1      -0.294   3.514   5.793  1.00  0.00     0.157 C 
ENDROOT
BRANCH   1  13
HETATM   13  C8  UNL     1      -0.056  -0.695   3.578  1.00  0.00     0.299 C 
HETATM   14  N1  UNL     1       0.026  -0.015   2.417  1.00  0.00    -0.207 NA
HETATM   15  O1  UNL     1      -0.040  -1.910   3.573  1.00  0.00    -0.263 OA
BRANCH  14  16
HETATM   16  C7  UNL     1       0.033  -0.706   1.201  1.00  0.00     0.081 A 
HETATM   17  C2  UNL     1      -0.585  -0.158   0.085  1.00  0.00    -0.004 A 
HETATM   18  C1  UNL     1      -1.265   1.183   0.182  1.00  0.00     0.033 C 
HETATM   19  C3  UNL     1      -0.570  -0.840  -1.116  1.00  0.00     0.003 A 
HETATM   20  C4  UNL     1       0.055  -2.071  -1.206  1.00  0.00     0.030 A 
HETATM   21  C5  UNL     1       0.666  -2.622  -0.095  1.00  0.00     0.007 A 
HETATM   22  I1  UNL     1       0.074  -3.102  -3.030  1.00  0.00    -0.043 I 
HETATM   23  C6  UNL     1       0.655  -1.945   1.109  1.00  0.00     0.019 A 
ENDBRANCH  14  16
ENDBRANCH   1  13
TORSDOF 2
