REMARK  5 active torsions:
REMARK  status: ('A' for Active; 'I' for Inactive)
REMARK    1  A    between atoms: C2_2  and  N1_3 
REMARK    2  A    between atoms: N1_3  and  C3_4 
REMARK       I    between atoms: N1_3  and  C6_9 
REMARK    3  A    between atoms: C3_4  and  C4_5 
REMARK    4  A    between atoms: C4_5  and  C5_6 
REMARK       I    between atoms: C6_9  and  N2_11 
REMARK    5  A    between atoms: N2_11  and  C7_12 
ROOT
HETATM    1  N1  UNL     1      -1.372  -0.511   0.012  1.00  0.00    -0.301 N 
HETATM    2  C6  UNL     1      -1.993  -0.751   1.184  1.00  0.00     0.342 C 
HETATM    3  O3  UNL     1      -3.134  -1.171   1.193  1.00  0.00    -0.245 OA
HETATM    4  N2  UNL     1      -1.350  -0.524   2.347  1.00  0.00    -0.221 NA
ENDROOT
BRANCH   1   5
HETATM    5  C2  UNL     1       0.002  -0.004   0.002  1.00  0.00     0.106 C 
HETATM    6  C1  UNL     1      -0.019   1.526   0.010  1.00  0.00     0.026 C 
ENDBRANCH   1   5
BRANCH   1   7
HETATM    7  C3  UNL     1      -2.072  -0.758  -1.251  1.00  0.00     0.117 C 
BRANCH   7   8
HETATM    8  C4  UNL     1      -1.816  -2.197  -1.703  1.00  0.00     0.122 C 
BRANCH   8   9
HETATM    9  C5  UNL     1      -2.535  -2.451  -3.003  1.00  0.00     0.187 C 
HETATM   10  O1  UNL     1      -3.192  -1.563  -3.519  1.00  0.00    -0.647 OA
HETATM   11  O2  UNL     1      -2.461  -3.544  -3.537  1.00  0.00    -0.647 OA
ENDBRANCH   8   9
ENDBRANCH   7   8
ENDBRANCH   1   7
BRANCH   4  12
HETATM   12  C7  UNL     1      -2.025  -0.784   3.620  1.00  0.00     0.108 C 
HETATM   13  C8  UNL     1      -1.866  -2.260   3.990  1.00  0.00     0.026 C 
HETATM   14  C9  UNL     1      -1.403   0.086   4.715  1.00  0.00     0.026 C 
ENDBRANCH   4  12
TORSDOF 5
