REMARK  6 active torsions:
REMARK  status: ('A' for Active; 'I' for Inactive)
REMARK    1  A    between atoms: N1_2  and  C3_4 
REMARK    2  A    between atoms: C6_7  and  C9_10 
REMARK    3  A    between atoms: C9_10  and  N2_11 
REMARK       I    between atoms: N2_11  and  C10_12 
REMARK    4  A    between atoms: C10_12  and  C11_14 
REMARK    5  A    between atoms: N3_18  and  S1_20 
REMARK    6  A    between atoms: S1_20  and  C16_23 
ROOT
HETATM    1  C11 UNL     1      -0.927   1.718   3.671  1.00  0.00     0.104 C 
HETATM    2  C12 UNL     1      -2.363   1.189   3.683  1.00  0.00     0.013 C 
HETATM    3  C13 UNL     1      -3.090   1.709   4.925  1.00  0.00     0.025 C 
HETATM    4  C14 UNL     1      -2.377   1.198   6.180  1.00  0.00     0.113 C 
HETATM    5  N3  UNL     1      -0.960   1.579   6.107  1.00  0.00    -0.273 N 
HETATM    6  C15 UNL     1      -0.189   1.208   4.913  1.00  0.00     0.122 C 
ENDROOT
BRANCH   1   7
HETATM    7  C10 UNL     1      -0.222   1.232   2.431  1.00  0.00     0.253 C 
HETATM    8  N2  UNL     1      -0.698   1.558   1.213  1.00  0.00    -0.233 NA
HETATM    9  O1  UNL     1       0.774   0.548   2.529  1.00  0.00    -0.271 OA
BRANCH   8  10
HETATM   10  C9  UNL     1      -0.013   1.086   0.008  1.00  0.00     0.155 C 
BRANCH  10  11
HETATM   11  C6  UNL     1      -0.742   1.585  -1.213  1.00  0.00     0.002 A 
HETATM   12  C5  UNL     1      -0.397   2.801  -1.773  1.00  0.00    -0.001 A 
HETATM   13  C4  UNL     1      -1.062   3.262  -2.892  1.00  0.00     0.017 A 
HETATM   14  C3  UNL     1      -2.080   2.502  -3.455  1.00  0.00     0.056 A 
HETATM   15  C8  UNL     1      -2.424   1.280  -2.889  1.00  0.00     0.017 A 
HETATM   16  C7  UNL     1      -1.750   0.823  -1.774  1.00  0.00    -0.001 A 
BRANCH  14  17
HETATM   17  N1  UNL     1      -2.756   2.965  -4.586  1.00  0.00    -0.344 N 
HETATM   18  C1  UNL     1      -2.392   4.253  -5.180  1.00  0.00     0.126 C 
HETATM   19  C2  UNL     1      -3.828   2.161  -5.178  1.00  0.00     0.126 C 
ENDBRANCH  14  17
ENDBRANCH  10  11
ENDBRANCH   8  10
ENDBRANCH   1   7
BRANCH   5  20
HETATM   20  S1  UNL     1      -0.245   2.412   7.347  1.00  0.00     0.282 S 
HETATM   21  O2  UNL     1       0.868   3.097   6.788  1.00  0.00    -0.199 OA
HETATM   22  O3  UNL     1      -1.287   3.088   8.037  1.00  0.00    -0.199 OA
BRANCH  20  23
HETATM   23  C16 UNL     1       0.409   1.219   8.467  1.00  0.00     0.205 A 
HETATM   24  C17 UNL     1      -0.238   0.683   9.519  1.00  0.00     0.133 A 
HETATM   25  N4  UNL     1       0.629  -0.195  10.112  1.00  0.00    -0.220 NA
HETATM   26  C18 UNL     1       1.780  -0.158   9.406  1.00  0.00     0.200 A 
HETATM   27  N5  UNL     1       1.641   0.690   8.424  1.00  0.00    -0.210 NA
ENDBRANCH  20  23
ENDBRANCH   5  20
TORSDOF 6
