REMARK  5 active torsions:
REMARK  status: ('A' for Active; 'I' for Inactive)
REMARK    1  A    between atoms: C5_5  and  N1_7 
REMARK       I    between atoms: N1_7  and  C7_8 
REMARK    2  A    between atoms: C7_8  and  C8_10 
REMARK    3  A    between atoms: C8_10  and  O2_11 
REMARK    4  A    between atoms: O2_11  and  C9_12 
REMARK    5  A    between atoms: C9_12  and  C10_14 
ROOT
HETATM    1  C8  UNL     1      -4.709   4.229   0.179  1.00  0.00     0.241 C 
ENDROOT
BRANCH   1   2
HETATM    2  C7  UNL     1      -5.947   3.377   0.294  1.00  0.00     0.287 C 
HETATM    3  N1  UNL     1      -7.163   3.957   0.321  1.00  0.00    -0.209 NA
HETATM    4  O1  UNL     1      -5.848   2.170   0.363  1.00  0.00    -0.267 OA
BRANCH   3   5
HETATM    5  C5  UNL     1      -8.305   3.178   0.546  1.00  0.00     0.090 A 
HETATM    6  C4  UNL     1      -9.541   3.605   0.080  1.00  0.00     0.048 A 
HETATM    7  C3  UNL     1     -10.666   2.834   0.302  1.00  0.00     0.007 A 
HETATM    8  I1  UNL     1      -9.701   5.417  -0.960  1.00  0.00    -0.041 I 
HETATM    9  C2  UNL     1     -10.561   1.638   0.988  1.00  0.00     0.001 A 
HETATM   10  C1  UNL     1      -9.331   1.210   1.453  1.00  0.00     0.002 A 
HETATM   11  C6  UNL     1      -8.202   1.974   1.230  1.00  0.00     0.020 A 
ENDBRANCH   3   5
ENDBRANCH   1   2
BRANCH   1  12
HETATM   12  O2  UNL     1      -3.534   3.376   0.170  1.00  0.00    -0.288 OA
BRANCH  12  13
HETATM   13  C9  UNL     1      -2.336   3.985   0.071  1.00  0.00     0.299 C 
HETATM   14  O3  UNL     1      -2.275   5.197  -0.006  1.00  0.00    -0.259 OA
BRANCH  13  15
HETATM   15  C10 UNL     1      -1.101   3.183   0.057  1.00  0.00     0.094 A 
HETATM   16  C11 UNL     1      -1.159   1.785   0.030  1.00  0.00     0.009 A 
HETATM   17  C12 UNL     1       0.030   1.078   0.022  1.00  0.00     0.021 A 
HETATM   18  C13 UNL     1       1.232   1.764   0.031  1.00  0.00     0.100 A 
HETATM   19  N2  UNL     1       1.266   3.082   0.051  1.00  0.00    -0.230 NA
HETATM   20  C14 UNL     1       0.159   3.808   0.065  1.00  0.00     0.156 A 
HETATM   21  N3  UNL     1       0.241   5.188   0.086  1.00  0.00    -0.080 NA
ENDBRANCH  13  15
ENDBRANCH  12  13
ENDBRANCH   1  12
TORSDOF 5
