REMARK  3 active torsions:
REMARK  status: ('A' for Active; 'I' for Inactive)
REMARK    1  A    between atoms: N1_5  and  C5_7 
REMARK    2  A    between atoms: C8_10  and  O1_13 
REMARK    3  A    between atoms: C14_20  and  C15_21 
ROOT
HETATM    1  C1  UNL     1      -3.892   4.282  -0.548  1.00  0.00     0.054 C 
HETATM    2  C2  UNL     1      -3.183   2.952  -0.535  1.00  0.00     0.080 A 
HETATM    3  C3  UNL     1      -1.845   2.739  -0.140  1.00  0.00     0.043 A 
HETATM    4  C4  UNL     1      -1.579   1.422  -0.277  1.00  0.00     0.165 A 
HETATM    5  N1  UNL     1      -2.732   0.824  -0.735  1.00  0.00    -0.213 N 
HETATM    6  N2  UNL     1      -3.704   1.812  -0.887  1.00  0.00    -0.169 NA
HETATM    7  N3  UNL     1      -0.445   0.684  -0.035  1.00  0.00    -0.192 NA
HETATM    8  C12 UNL     1       0.738   0.948   0.432  1.00  0.00     0.268 C 
HETATM    9  O2  UNL     1       1.452  -0.020   0.589  1.00  0.00    -0.269 OA
HETATM   10  C13 UNL     1       1.353   2.240   0.804  1.00  0.00     0.148 C 
HETATM   11  S1  UNL     1       0.197   3.364   1.599  1.00  0.00    -0.122 SA
HETATM   12  C14 UNL     1      -0.969   3.859   0.327  1.00  0.00     0.097 C 
ENDROOT
BRANCH   5  13
HETATM   13  C5  UNL     1      -2.899  -0.543  -1.006  1.00  0.00     0.085 A 
HETATM   14  C6  UNL     1      -3.568  -0.946  -2.154  1.00  0.00     0.021 A 
HETATM   15  C7  UNL     1      -3.728  -2.291  -2.423  1.00  0.00     0.026 A 
HETATM   16  C8  UNL     1      -3.228  -3.239  -1.541  1.00  0.00     0.094 A 
HETATM   17  C9  UNL     1      -2.564  -2.836  -0.392  1.00  0.00     0.026 A 
HETATM   18  C10 UNL     1      -2.399  -1.492  -0.125  1.00  0.00     0.021 A 
BRANCH  16  19
HETATM   19  O1  UNL     1      -3.390  -4.563  -1.804  1.00  0.00    -0.328 OA
HETATM   20  C11 UNL     1      -4.083  -4.906  -3.005  1.00  0.00     0.181 C 
ENDBRANCH  16  19
ENDBRANCH   5  13
BRANCH  12  21
HETATM   21  C15 UNL     1      -1.840   4.961   0.871  1.00  0.00    -0.008 A 
HETATM   22  C16 UNL     1      -2.491   4.794   2.079  1.00  0.00    -0.003 A 
HETATM   23  C17 UNL     1      -3.288   5.807   2.580  1.00  0.00    -0.000 A 
HETATM   24  C18 UNL     1      -3.440   6.983   1.869  1.00  0.00    -0.000 A 
HETATM   25  C19 UNL     1      -2.793   7.147   0.659  1.00  0.00    -0.000 A 
HETATM   26  C20 UNL     1      -1.993   6.136   0.159  1.00  0.00    -0.003 A 
ENDBRANCH  12  21
TORSDOF 3
