REMARK  6 active torsions:
REMARK  status: ('A' for Active; 'I' for Inactive)
REMARK    1  A    between atoms: O1_2  and  C2_3 
REMARK    2  A    between atoms: C7_8  and  C8_9 
REMARK       I    between atoms: C8_9  and  N1_11 
REMARK    3  A    between atoms: N1_11  and  N2_12 
REMARK       I    between atoms: N2_12  and  C9_13 
REMARK    4  A    between atoms: C9_13  and  C10_15 
REMARK    5  A    between atoms: C10_15  and  N3_16 
REMARK       I    between atoms: N3_16  and  C11_17 
REMARK    6  A    between atoms: C11_17  and  C12_19 
ROOT
HETATM    1  C8  UNL     1       2.417   3.950  -0.001  1.00  0.00     0.299 C 
HETATM    2  O2  UNL     1       3.482   3.364  -0.014  1.00  0.00    -0.264 OA
HETATM    3  N1  UNL     1       2.389   5.297   0.006  1.00  0.00    -0.103 NA
ENDROOT
BRANCH   3   4
HETATM    4  N2  UNL     1       3.588   6.023  -0.002  1.00  0.00    -0.105 NA
HETATM    5  C9  UNL     1       3.560   7.370   0.005  1.00  0.00     0.298 C 
HETATM    6  O3  UNL     1       2.497   7.955   0.019  1.00  0.00    -0.266 OA
BRANCH   5   7
HETATM    7  C10 UNL     1       4.849   8.150  -0.003  1.00  0.00     0.220 C 
BRANCH   7   8
HETATM    8  N3  UNL     1       4.552   9.585   0.007  1.00  0.00    -0.222 NA
HETATM    9  C11 UNL     1       5.558  10.482   0.002  1.00  0.00     0.298 C 
HETATM   10  O4  UNL     1       6.713  10.100  -0.012  1.00  0.00    -0.263 OA
BRANCH   9  11
HETATM   11  C12 UNL     1       5.260  11.918   0.012  1.00  0.00     0.157 A 
HETATM   12  C13 UNL     1       6.179  12.928   0.008  1.00  0.00     0.032 A 
HETATM   13  C14 UNL     1       5.456  14.131   0.020  1.00  0.00     0.029 A 
HETATM   14  C15 UNL     1       4.144  13.807   0.031  1.00  0.00     0.123 A 
HETATM   15  O5  UNL     1       4.030  12.472   0.021  1.00  0.00    -0.300 OA
ENDBRANCH   9  11
ENDBRANCH   7   8
ENDBRANCH   5   7
ENDBRANCH   3   4
BRANCH   1  16
HETATM   16  C7  UNL     1       1.155   3.186   0.008  1.00  0.00     0.082 A 
HETATM   17  C2  UNL     1       1.180   1.785   0.000  1.00  0.00     0.099 A 
HETATM   18  C3  UNL     1      -0.013   1.076   0.008  1.00  0.00     0.025 A 
HETATM   19  C4  UNL     1      -1.218   1.749   0.017  1.00  0.00     0.013 A 
HETATM   20  C5  UNL     1      -1.247   3.135   0.030  1.00  0.00     0.058 A 
HETATM   21  C6  UNL     1      -0.071   3.855   0.022  1.00  0.00     0.018 A 
HETATM   22 CL1  UNL     1      -2.770   3.967   0.048  1.00  0.00    -0.082 Cl
BRANCH  17  23
HETATM   23  O1  UNL     1       2.365   1.124  -0.015  1.00  0.00    -0.328 OA
HETATM   24  C1  UNL     1       2.311  -0.304  -0.022  1.00  0.00     0.181 C 
ENDBRANCH  17  23
ENDBRANCH   1  16
TORSDOF 6
