REMARK  5 active torsions:
REMARK  status: ('A' for Active; 'I' for Inactive)
REMARK    1  A    between atoms: C2_2  and  C3_3 
REMARK    2  A    between atoms: C6_6  and  C7_8 
REMARK    3  A    between atoms: N2_15  and  C11_16 
REMARK    4  A    between atoms: C11_16  and  C12_17 
REMARK    5  A    between atoms: C12_17  and  O3_19 
ROOT
HETATM    1  C7  UNL     1       2.289   1.352  -0.034  1.00  0.00     0.029 C 
HETATM    2  C8  UNL     1       3.371   2.177  -0.118  1.00  0.00     0.119 A 
HETATM    3  C9  UNL     1       4.735   1.791  -0.226  1.00  0.00     0.278 A 
HETATM    4  O1  UNL     1       5.165   0.652  -0.261  1.00  0.00    -0.265 OA
HETATM    5  N1  UNL     1       5.462   2.924  -0.281  1.00  0.00    -0.270 N 
HETATM    6  C10 UNL     1       4.644   3.988  -0.216  1.00  0.00     0.186 A 
HETATM    7  S2  UNL     1       5.152   5.622  -0.254  1.00  0.00    -0.040 SA
HETATM    8  N2  UNL     1       3.365   3.578  -0.121  1.00  0.00    -0.292 N 
HETATM    9  C14 UNL     1       6.921   2.987  -0.397  1.00  0.00     0.136 C 
ENDROOT
BRANCH   1  10
HETATM   10  C6  UNL     1       1.062   1.844   0.471  1.00  0.00     0.031 A 
HETATM   11  C5  UNL     1      -0.174   1.930  -0.161  1.00  0.00     0.007 A 
HETATM   12  C4  UNL     1      -1.210   2.459   0.569  1.00  0.00     0.003 A 
HETATM   13  C3  UNL     1      -0.986   2.854   1.849  1.00  0.00     0.007 A 
HETATM   14  S1  UNL     1       0.697   2.513   2.084  1.00  0.00    -0.091 SA
BRANCH  13  15
HETATM   15  C2  UNL     1      -1.964   3.451   2.828  1.00  0.00     0.033 C 
HETATM   16  C1  UNL     1      -2.629   2.332   3.632  1.00  0.00     0.006 C 
ENDBRANCH  13  15
ENDBRANCH   1  10
BRANCH   8  17
HETATM   17  C11 UNL     1       2.183   4.439  -0.033  1.00  0.00     0.204 C 
BRANCH  17  18
HETATM   18  C12 UNL     1       1.955   4.834   1.403  1.00  0.00     0.295 C 
HETATM   19  O2  UNL     1       2.693   4.424   2.267  1.00  0.00    -0.262 OA
BRANCH  18  20
HETATM   20  O3  UNL     1       0.930   5.640   1.723  1.00  0.00    -0.298 OA
HETATM   21  C13 UNL     1       0.770   5.979   3.126  1.00  0.00     0.185 C 
ENDBRANCH  18  20
ENDBRANCH  17  18
ENDBRANCH   8  17
TORSDOF 5
