REMARK  4 active torsions:
REMARK  status: ('A' for Active; 'I' for Inactive)
REMARK    1  A    between atoms: C2_2  and  C3_3 
REMARK    2  A    between atoms: C2_2  and  N2_10 
REMARK    3  A    between atoms: C3_3  and  N1_4 
REMARK       I    between atoms: N2_10  and  C8_11 
REMARK    4  A    between atoms: C8_11  and  C9_13 
ROOT
HETATM    1  C1  UNL     1       0.217   1.593  -0.156  1.00  0.00     0.029 C 
HETATM    2  C2  UNL     1      -0.042   0.089  -0.035  1.00  0.00     0.140 C 
ENDROOT
BRANCH   2   3
HETATM    3  C3  UNL     1       0.666  -0.451   1.210  1.00  0.00     0.275 C 
BRANCH   3   4
HETATM    4  N1  UNL     1       0.337  -1.873   1.381  1.00  0.00     0.144 N 
HETATM    5  C4  UNL     1       0.587  -2.308   2.763  1.00  0.00     0.282 C 
HETATM    6  C5  UNL     1       0.176  -3.776   2.912  1.00  0.00     0.178 C 
HETATM    7  O1  UNL     1       0.891  -4.565   1.957  1.00  0.00    -0.350 OA
HETATM    8  C6  UNL     1       0.670  -4.168   0.601  1.00  0.00     0.178 C 
HETATM    9  C7  UNL     1       1.086  -2.705   0.428  1.00  0.00     0.282 C 
ENDBRANCH   3   4
ENDBRANCH   2   3
BRANCH   2  10
HETATM   10  N2  UNL     1      -1.482  -0.151   0.079  1.00  0.00    -0.236 NA
HETATM   11  C8  UNL     1      -2.229  -0.305  -1.032  1.00  0.00     0.291 C 
HETATM   12  O2  UNL     1      -1.710  -0.244  -2.126  1.00  0.00    -0.268 OA
BRANCH  11  13
HETATM   13  C9  UNL     1      -3.712  -0.552  -0.915  1.00  0.00     0.426 C 
HETATM   14  N3  UNL     1      -4.294  -0.684  -2.257  1.00  0.00     0.629 N 
ENDBRANCH  11  13
ENDBRANCH   2  10
TORSDOF 4
