REMARK  5 active torsions:
REMARK  status: ('A' for Active; 'I' for Inactive)
REMARK    1  A    between atoms: N1_2  and  C2_3 
REMARK    2  A    between atoms: C5_7  and  C6_9 
REMARK       I    between atoms: N5_18  and  C15_20 
REMARK    3  A    between atoms: C15_20  and  C16_22 
REMARK    4  A    between atoms: C16_22  and  O2_23 
REMARK    5  A    between atoms: O2_23  and  C17_24 
ROOT
HETATM    1  C2  UNL     1      10.540  -1.304   1.213  1.00  0.00     0.158 A 
HETATM    2  C3  UNL     1       9.424  -0.519   0.899  1.00  0.00     0.049 A 
HETATM    3  C4  UNL     1       9.297   0.711   1.496  1.00  0.00     0.063 A 
HETATM    4  N2  UNL     1      10.244   1.113   2.342  1.00  0.00    -0.235 NA
HETATM    5  C5  UNL     1      11.284   0.355   2.615  1.00  0.00     0.142 A 
HETATM    6  N3  UNL     1      11.440  -0.834   2.069  1.00  0.00    -0.213 NA
HETATM    7  C12 UNL     1       8.132   1.627   1.241  1.00  0.00     0.070 C 
HETATM    8  C13 UNL     1       7.424   1.254  -0.062  1.00  0.00     0.111 C 
HETATM    9  N5  UNL     1       7.218  -0.203  -0.067  1.00  0.00    -0.313 N 
HETATM   10  C14 UNL     1       8.416  -1.053  -0.077  1.00  0.00     0.135 C 
HETATM   11  C15 UNL     1       5.981  -0.737  -0.058  1.00  0.00     0.265 C 
HETATM   12  O1  UNL     1       5.839  -1.941  -0.063  1.00  0.00    -0.270 OA
ENDROOT
BRANCH  11  13
HETATM   13  C16 UNL     1       4.772   0.164  -0.042  1.00  0.00     0.236 C 
BRANCH  13  14
HETATM   14  O2  UNL     1       3.586  -0.632  -0.035  1.00  0.00    -0.321 OA
BRANCH  14  15
HETATM   15  C17 UNL     1       2.399   0.030  -0.021  1.00  0.00     0.095 A 
HETATM   16  C18 UNL     1       1.207  -0.680  -0.013  1.00  0.00     0.024 A 
HETATM   17  C19 UNL     1       0.002  -0.004   0.002  1.00  0.00     0.002 A 
HETATM   18  C20 UNL     1      -0.017   1.378   0.010  1.00  0.00     0.000 A 
HETATM   19  C21 UNL     1       1.170   2.088   0.002  1.00  0.00     0.002 A 
HETATM   20  C22 UNL     1       2.377   1.417  -0.013  1.00  0.00     0.024 A 
ENDBRANCH  14  15
ENDBRANCH  13  14
ENDBRANCH  11  13
BRANCH   1  21
HETATM   21  N1  UNL     1      10.703  -2.554   0.638  1.00  0.00    -0.251 NA
HETATM   22  C1  UNL     1      11.874  -3.367   0.973  1.00  0.00     0.154 C 
ENDBRANCH   1  21
BRANCH   5  23
HETATM   23  C6  UNL     1      12.326   0.861   3.579  1.00  0.00     0.092 C 
HETATM   24  C7  UNL     1      13.681   0.941   2.872  1.00  0.00     0.012 C 
HETATM   25  C8  UNL     1      14.745   1.398   3.873  1.00  0.00     0.036 C 
HETATM   26  C9  UNL     1      14.781   0.423   5.053  1.00  0.00     0.250 C 
HETATM   27  N4  UNL     1      13.461   0.384   5.697  1.00  0.00     0.140 N 
HETATM   28  C10 UNL     1      12.431  -0.098   4.767  1.00  0.00     0.258 C 
HETATM   29  C11 UNL     1      13.495  -0.435   6.916  1.00  0.00     0.285 C 
ENDBRANCH   5  23
TORSDOF 5
