REMARK  3 active torsions:
REMARK  status: ('A' for Active; 'I' for Inactive)
REMARK    1  A    between atoms: C3_3  and  C6_7 
REMARK       I    between atoms: C6_7  and  N2_9 
REMARK    2  A    between atoms: N2_9  and  C7_10 
REMARK    3  A    between atoms: C12_15  and  N3_16 
ROOT
HETATM    1  C7  UNL     1       2.234   1.289  -4.223  1.00  0.00     0.100 A 
HETATM    2  C8  UNL     1       2.212   2.619  -3.830  1.00  0.00     0.021 A 
HETATM    3  C9  UNL     1       2.756   3.590  -4.648  1.00  0.00     0.002 A 
HETATM    4  C10 UNL     1       3.325   3.241  -5.859  1.00  0.00     0.002 A 
HETATM    5  C11 UNL     1       3.352   1.918  -6.259  1.00  0.00     0.018 A 
HETATM    6  C12 UNL     1       2.812   0.936  -5.442  1.00  0.00     0.074 A 
ENDROOT
BRANCH   1   7
HETATM    7  N2  UNL     1       1.681   0.302  -3.395  1.00  0.00    -0.210 NA
HETATM    8  C6  UNL     1       1.763   0.423  -2.055  1.00  0.00     0.257 C 
HETATM    9  O1  UNL     1       2.246   1.422  -1.565  1.00  0.00    -0.270 OA
BRANCH   8  10
HETATM   10  C3  UNL     1       1.253  -0.682  -1.166  1.00  0.00     0.117 C 
HETATM   11  C2  UNL     1      -0.258  -0.515  -0.919  1.00  0.00     0.266 C 
HETATM   12  C1  UNL     1      -0.780   0.701  -1.687  1.00  0.00     0.039 C 
HETATM   13  N1  UNL     1      -0.445  -0.312   0.534  1.00  0.00     0.337 N 
HETATM   14  C5  UNL     1       0.733  -0.949   1.183  1.00  0.00     0.291 C 
HETATM   15  C4  UNL     1       1.903  -0.590   0.234  1.00  0.00     0.050 C 
ENDBRANCH   8  10
ENDBRANCH   1   7
BRANCH   6  16
HETATM   16  N3  UNL     1       2.843  -0.404  -5.841  1.00  0.00    -0.342 N 
HETATM   17  C13 UNL     1       1.747  -0.984  -6.635  1.00  0.00     0.134 C 
HETATM   18  C14 UNL     1       2.353  -1.694  -7.851  1.00  0.00     0.167 C 
HETATM   19  O2  UNL     1       3.366  -2.601  -7.409  1.00  0.00    -0.350 OA
HETATM   20  C15 UNL     1       4.470  -1.972  -6.754  1.00  0.00     0.167 C 
HETATM   21  C16 UNL     1       3.975  -1.275  -5.487  1.00  0.00     0.134 C 
ENDBRANCH   6  16
TORSDOF 3
