CHEMBL32704
                    3D
 Structure written by MMmdl.
 60 64  0  0  1  0            999 V2000
  -13.3052   -7.3045    0.0000 C   0  0  0  0  0  0
  -12.0917   -8.1862    0.0000 C   0  0  0  0  0  0
  -10.7213   -7.5761    0.0000 C   0  0  0  0  0  0
   -9.5078   -8.4577    0.0000 C   0  0  3  0  0  0
   -8.1375   -7.8476    0.0000 N   0  0  0  0  0  0
   -6.9240   -8.7293    0.0000 C   0  0  0  0  0  0
   -7.0808  -10.2211    0.0000 O   0  0  0  0  0  0
   -5.5537   -8.1192    0.0000 C   0  0  2  0  0  0
   -5.2418   -6.6520    0.0000 C   0  0  0  0  0  0
   -3.7500   -6.4952    0.0000 C   0  0  2  0  0  0
   -3.1399   -7.8655    0.0000 C   0  0  0  0  0  0
   -4.2546   -8.8692    0.0000 N   0  0  0  0  0  0
   -4.0978  -10.3610    0.0000 C   0  0  0  0  0  0
   -5.3113  -11.2427    0.0000 O   0  0  0  0  0  0
   -2.7275  -10.9711    0.0000 C   0  0  2  0  0  0
   -1.5140  -10.0894    0.0000 N   0  0  0  0  0  0
   -0.1437  -10.6995    0.0000 C   0  0  0  0  0  0
    0.0131  -12.1913    0.0000 O   0  0  0  0  0  0
    1.0699   -9.8178    0.0000 C   0  0  2  0  0  0
    0.9131   -8.3261    0.0000 N   0  0  0  0  0  0
    2.1266   -7.4444    0.0000 C   0  0  0  0  0  0
    3.4969   -8.0545    0.0000 O   0  0  0  0  0  0
    1.9698   -5.9526    0.0000 C   0  0  0  0  0  0
    3.1833   -5.0709    0.0000 C   0  0  0  0  0  0
    3.0265   -3.5791    0.0000 N   0  0  0  0  0  0
    1.6562   -2.9690    0.0000 C   0  0  0  0  0  0
    0.4427   -3.8507    0.0000 C   0  0  0  0  0  0
    0.5995   -5.3425    0.0000 N   0  0  0  0  0  0
    2.4402  -10.4279    0.0000 C   0  0  0  0  0  0
    3.6537   -9.5463    0.0000 C   0  0  0  0  0  0
    2.5970  -11.9197    0.0000 C   0  0  0  0  0  0
   -2.5707  -12.4629    0.0000 C   0  0  0  0  0  0
   -1.2004  -13.0730    0.0000 C   0  0  0  0  0  0
   -3.7842  -13.3446    0.0000 C   0  0  0  0  0  0
   -3.0000   -5.1962    0.0000 O   0  0  0  0  0  0
   -3.7500   -3.8971    0.0000 C   0  0  0  0  0  0
   -5.2500   -3.8971    0.0000 O   0  0  0  0  0  0
   -3.0000   -2.5981    0.0000 N   0  0  0  0  0  0
   -3.7500   -1.2990    0.0000 C   0  0  0  0  0  0
   -3.0000    0.0000    0.0000 C   0  0  0  0  0  0
   -1.5000    0.0000    0.0000 C   0  0  0  0  0  0
   -0.7500    1.2990    0.0000 C   0  0  0  0  0  0
    0.7500    1.2990    0.0000 C   0  0  0  0  0  0
    1.5000   -0.0000    0.0000 C   0  0  0  0  0  0
    0.7500   -1.2990    0.0000 C   0  0  0  0  0  0
   -0.7500   -1.2990    0.0000 C   0  0  0  0  0  0
   -1.5000   -2.5981    0.0000 C   0  0  0  0  0  0
   -9.6646   -9.9495    0.0000 C   0  0  0  0  0  0
   -8.4511  -10.8312    0.0000 O   0  0  0  0  0  0
  -11.0349  -10.5596    0.0000 C   0  0  0  0  0  0
  -12.2484   -9.6779    0.0000 O   0  0  0  0  0  0
  -11.1917  -12.0514    0.0000 N   0  0  0  0  0  0
  -12.5620  -12.6615    0.0000 C   0  0  0  0  0  0
  -12.7188  -14.1533    0.0000 C   0  0  0  0  0  0
  -14.0891  -14.7634    0.0000 C   0  0  0  0  0  0
  -15.3027  -13.8817    0.0000 C   0  0  0  0  0  0
  -16.6730  -14.4918    0.0000 C   0  0  0  0  0  0
  -16.8298  -15.9836    0.0000 C   0  0  0  0  0  0
  -15.6163  -16.8653    0.0000 C   0  0  0  0  0  0
  -14.2459  -16.2552    0.0000 C   0  0  0  0  0  0
  1  2  1  0  0  0
  2  3  1  0  0  0
  3  4  1  0  0  0
  4  5  1  0  0  0
  4 48  1  0  0  0
  5  6  1  0  0  0
  6  7  2  0  0  0
  6  8  1  0  0  0
  8  9  1  0  0  0
  8 12  1  1  0  0
  9 10  1  0  0  0
 10 11  1  0  0  0
 10 35  1  6  0  0
 11 12  1  0  0  0
 12 13  1  0  0  0
 13 14  2  0  0  0
 13 15  1  0  0  0
 15 16  1  0  0  0
 15 32  1  6  0  0
 16 17  1  0  0  0
 17 18  2  0  0  0
 17 19  1  0  0  0
 19 20  1  0  0  0
 19 29  1  6  0  0
 20 21  1  0  0  0
 21 22  2  0  0  0
 21 23  1  0  0  0
 23 24  2  0  0  0
 23 28  1  0  0  0
 24 25  1  0  0  0
 25 26  2  0  0  0
 26 27  1  0  0  0
 27 28  2  0  0  0
 29 30  1  0  0  0
 29 31  1  0  0  0
 32 33  1  0  0  0
 32 34  1  0  0  0
 35 36  1  0  0  0
 36 37  2  0  0  0
 36 38  1  0  0  0
 38 39  1  0  0  0
 38 47  1  0  0  0
 39 40  1  0  0  0
 40 41  1  0  0  0
 41 42  2  0  0  0
 41 46  1  0  0  0
 42 43  1  0  0  0
 43 44  2  0  0  0
 44 45  1  0  0  0
 45 46  2  0  0  0
 46 47  1  0  0  0
 48 49  2  0  0  0
 48 50  1  0  0  0
 50 51  2  0  0  0
 50 52  1  0  0  0
 52 53  1  0  0  0
 53 54  1  0  0  0
 54 55  1  0  0  0
 55 56  2  0  0  0
 55 60  1  0  0  0
 56 57  1  0  0  0
 57 58  2  0  0  0
 58 59  1  0  0  0
 59 60  2  0  0  0
M  END
> <s_m_entry_id>
6460

> <s_m_entry_name>
NS3-4A.1

> <CHEMBLID>
CHEMBL32704

> <s_m_Source_Path>
/home/liwei/Desktop/Machine/HCV/Active

> <s_m_Source_File>
NS3-4A.sdf

> <i_m_Source_File_Index>
1

$$$$
CHEMBL33248
                    3D
 Structure written by MMmdl.
 59 63  0  0  1  0            999 V2000
  -13.3052   -7.3045    0.0000 C   0  0  0  0  0  0
  -12.0917   -8.1862    0.0000 C   0  0  0  0  0  0
  -10.7213   -7.5761    0.0000 C   0  0  0  0  0  0
   -9.5078   -8.4577    0.0000 C   0  0  3  0  0  0
   -8.1375   -7.8476    0.0000 N   0  0  0  0  0  0
   -6.9240   -8.7293    0.0000 C   0  0  0  0  0  0
   -7.0808  -10.2211    0.0000 O   0  0  0  0  0  0
   -5.5537   -8.1192    0.0000 C   0  0  2  0  0  0
   -5.2418   -6.6520    0.0000 C   0  0  0  0  0  0
   -3.7500   -6.4952    0.0000 C   0  0  2  0  0  0
   -3.1399   -7.8655    0.0000 C   0  0  0  0  0  0
   -4.2546   -8.8692    0.0000 N   0  0  0  0  0  0
   -4.0978  -10.3610    0.0000 C   0  0  0  0  0  0
   -5.3113  -11.2427    0.0000 O   0  0  0  0  0  0
   -2.7275  -10.9711    0.0000 C   0  0  2  0  0  0
   -1.5140  -10.0894    0.0000 N   0  0  0  0  0  0
   -0.1437  -10.6995    0.0000 C   0  0  0  0  0  0
    0.0131  -12.1913    0.0000 O   0  0  0  0  0  0
    1.0699   -9.8178    0.0000 C   0  0  2  0  0  0
    0.9131   -8.3261    0.0000 N   0  0  0  0  0  0
    2.1266   -7.4444    0.0000 C   0  0  0  0  0  0
    3.4969   -8.0545    0.0000 O   0  0  0  0  0  0
    1.9698   -5.9526    0.0000 C   0  0  0  0  0  0
    3.1833   -5.0709    0.0000 C   0  0  0  0  0  0
    3.0265   -3.5791    0.0000 N   0  0  0  0  0  0
    1.6562   -2.9690    0.0000 C   0  0  0  0  0  0
    0.4427   -3.8507    0.0000 C   0  0  0  0  0  0
    0.5995   -5.3425    0.0000 N   0  0  0  0  0  0
    2.4402  -10.4279    0.0000 C   0  0  0  0  0  0
    3.6537   -9.5463    0.0000 C   0  0  0  0  0  0
    2.5970  -11.9197    0.0000 C   0  0  0  0  0  0
   -2.5707  -12.4629    0.0000 C   0  0  0  0  0  0
   -1.2004  -13.0730    0.0000 C   0  0  0  0  0  0
   -3.7842  -13.3446    0.0000 C   0  0  0  0  0  0
   -3.0000   -5.1962    0.0000 O   0  0  0  0  0  0
   -3.7500   -3.8971    0.0000 C   0  0  0  0  0  0
   -5.2500   -3.8971    0.0000 O   0  0  0  0  0  0
   -3.0000   -2.5981    0.0000 N   0  0  0  0  0  0
   -3.7500   -1.2990    0.0000 C   0  0  0  0  0  0
   -3.0000    0.0000    0.0000 C   0  0  0  0  0  0
   -1.5000    0.0000    0.0000 C   0  0  0  0  0  0
   -0.7500    1.2990    0.0000 C   0  0  0  0  0  0
    0.7500    1.2990    0.0000 C   0  0  0  0  0  0
    1.5000   -0.0000    0.0000 C   0  0  0  0  0  0
    0.7500   -1.2990    0.0000 C   0  0  0  0  0  0
   -0.7500   -1.2990    0.0000 C   0  0  0  0  0  0
   -1.5000   -2.5981    0.0000 C   0  0  0  0  0  0
   -9.6646   -9.9495    0.0000 C   0  0  0  0  0  0
   -8.4511  -10.8312    0.0000 O   0  0  0  0  0  0
  -11.0349  -10.5596    0.0000 C   0  0  0  0  0  0
  -12.2484   -9.6779    0.0000 O   0  0  0  0  0  0
  -11.1917  -12.0514    0.0000 N   0  0  0  0  0  0
  -12.5620  -12.6615    0.0000 C   0  0  0  0  0  0
  -12.7188  -14.1533    0.0000 C   0  0  0  0  0  0
  -14.0891  -14.7634    0.0000 C   0  0  0  0  0  0
  -14.2459  -16.2552    0.0000 C   0  0  0  0  0  0
  -13.0324  -17.1369    0.0000 C   0  0  0  0  0  0
  -11.6621  -16.5268    0.0000 C   0  0  0  0  0  0
  -11.5053  -15.0350    0.0000 C   0  0  0  0  0  0
  1  2  1  0  0  0
  2  3  1  0  0  0
  3  4  1  0  0  0
  4  5  1  0  0  0
  4 48  1  0  0  0
  5  6  1  0  0  0
  6  7  2  0  0  0
  6  8  1  0  0  0
  8  9  1  0  0  0
  8 12  1  1  0  0
  9 10  1  0  0  0
 10 11  1  0  0  0
 10 35  1  6  0  0
 11 12  1  0  0  0
 12 13  1  0  0  0
 13 14  2  0  0  0
 13 15  1  0  0  0
 15 16  1  0  0  0
 15 32  1  6  0  0
 16 17  1  0  0  0
 17 18  2  0  0  0
 17 19  1  0  0  0
 19 20  1  0  0  0
 19 29  1  6  0  0
 20 21  1  0  0  0
 21 22  2  0  0  0
 21 23  1  0  0  0
 23 24  2  0  0  0
 23 28  1  0  0  0
 24 25  1  0  0  0
 25 26  2  0  0  0
 26 27  1  0  0  0
 27 28  2  0  0  0
 29 30  1  0  0  0
 29 31  1  0  0  0
 32 33  1  0  0  0
 32 34  1  0  0  0
 35 36  1  0  0  0
 36 37  2  0  0  0
 36 38  1  0  0  0
 38 39  1  0  0  0
 38 47  1  0  0  0
 39 40  1  0  0  0
 40 41  1  0  0  0
 41 42  2  0  0  0
 41 46  1  0  0  0
 42 43  1  0  0  0
 43 44  2  0  0  0
 44 45  1  0  0  0
 45 46  2  0  0  0
 46 47  1  0  0  0
 48 49  2  0  0  0
 48 50  1  0  0  0
 50 51  2  0  0  0
 50 52  1  0  0  0
 52 53  1  0  0  0
 53 54  1  0  0  0
 54 55  2  0  0  0
 54 59  1  0  0  0
 55 56  1  0  0  0
 56 57  2  0  0  0
 57 58  1  0  0  0
 58 59  2  0  0  0
M  END
> <s_m_entry_id>
6461

> <s_m_entry_name>
NS3-4A.2

> <CHEMBLID>
CHEMBL33248

> <s_m_Source_Path>
/home/liwei/Desktop/Machine/HCV/Active

> <s_m_Source_File>
NS3-4A.sdf

> <i_m_Source_File_Index>
2

$$$$
CHEMBL68035
                    3D
 Structure written by MMmdl.
 43 43  0  0  1  0            999 V2000
    3.0000    7.7942    0.0000 C   0  0  0  0  0  0
    3.7500    6.4952    0.0000 C   0  0  0  0  0  0
    3.0000    5.1962    0.0000 C   0  0  0  0  0  0
    5.2500    6.4952    0.0000 C   0  0  0  0  0  0
    6.0000    5.1962    0.0000 O   0  0  0  0  0  0
    7.5000    5.1962    0.0000 C   0  0  0  0  0  0
    8.2500    6.4952    0.0000 O   0  0  0  0  0  0
    8.2500    3.8971    0.0000 N   0  0  0  0  0  0
    9.7500    3.8971    0.0000 C   0  0  1  0  0  0
   10.5000    5.1962    0.0000 C   0  0  0  0  0  0
    9.7500    6.4952    0.0000 C   0  0  0  0  0  0
   12.0000    5.1962    0.0000 C   0  0  0  0  0  0
   10.5000    2.5981    0.0000 C   0  0  0  0  0  0
   12.0000    2.5981    0.0000 O   0  0  0  0  0  0
    9.7500    1.2990    0.0000 N   0  0  0  0  0  0
   10.5000    0.0000    0.0000 C   0  0  1  0  0  0
   12.0000    0.0000    0.0000 C   0  0  0  0  0  0
   12.7500   -1.2990    0.0000 C   0  0  0  0  0  0
   14.2500   -1.2990    0.0000 C   0  0  0  0  0  0
   12.0000   -2.5981    0.0000 C   0  0  0  0  0  0
    9.7500   -1.2990    0.0000 C   0  0  0  0  0  0
   10.5000   -2.5981    0.0000 O   0  0  0  0  0  0
    8.2500   -1.2990    0.0000 N   0  0  0  0  0  0
    7.5000   -2.5981    0.0000 C   0  0  1  0  0  0
    8.2500   -3.8971    0.0000 C   0  0  0  0  0  0
    7.5000   -5.1962    0.0000 C   0  0  0  0  0  0
    8.2500   -6.4952    0.0000 F   0  0  0  0  0  0
    6.0000   -5.1962    0.0000 F   0  0  0  0  0  0
    6.0000   -2.5981    0.0000 C   0  0  0  0  0  0
    5.2500   -3.8971    0.0000 O   0  0  0  0  0  0
    5.2500   -1.2990    0.0000 N   0  0  0  0  0  0
    3.7500   -1.2990    0.0000 C   0  0  0  0  0  0
    3.0000    0.0000    0.0000 C   0  0  0  0  0  0
    1.5000    0.0000    0.0000 C   0  0  0  0  0  0
    0.7500   -1.2990    0.0000 C   0  0  0  0  0  0
   -0.7500   -1.2990    0.0000 C   0  0  0  0  0  0
   -1.5000    0.0000    0.0000 C   0  0  0  0  0  0
   -0.7500    1.2990    0.0000 C   0  0  0  0  0  0
    0.7500    1.2990    0.0000 C   0  0  0  0  0  0
    1.5000    2.5981    0.0000 Cl  0  0  0  0  0  0
   -3.0000    0.0000    0.0000 C   0  0  0  0  0  0
   -3.7500   -1.2990    0.0000 O   0  0  0  0  0  0
   -3.7500    1.2990    0.0000 O   0  0  0  0  0  0
  1  2  1  0  0  0
  2  3  1  0  0  0
  2  4  1  0  0  0
  4  5  1  0  0  0
  5  6  1  0  0  0
  6  7  2  0  0  0
  6  8  1  0  0  0
  8  9  1  0  0  0
  9 10  1  0  0  0
  9 13  1  6  0  0
 10 11  1  0  0  0
 10 12  1  0  0  0
 13 14  2  0  0  0
 13 15  1  0  0  0
 15 16  1  0  0  0
 16 17  1  0  0  0
 16 21  1  6  0  0
 17 18  1  0  0  0
 18 19  1  0  0  0
 18 20  1  0  0  0
 21 22  2  0  0  0
 21 23  1  0  0  0
 23 24  1  0  0  0
 24 25  1  0  0  0
 24 29  1  6  0  0
 25 26  1  0  0  0
 26 27  1  0  0  0
 26 28  1  0  0  0
 29 30  2  0  0  0
 29 31  1  0  0  0
 31 32  1  0  0  0
 32 33  1  0  0  0
 33 34  1  0  0  0
 34 35  2  0  0  0
 34 39  1  0  0  0
 35 36  1  0  0  0
 36 37  2  0  0  0
 37 38  1  0  0  0
 37 41  1  0  0  0
 38 39  2  0  0  0
 39 40  1  0  0  0
 41 42  2  0  0  0
 41 43  1  0  0  0
M  END
> <s_m_entry_id>
6462

> <s_m_entry_name>
NS3-4A.3

> <CHEMBLID>
CHEMBL68035

> <s_m_Source_Path>
/home/liwei/Desktop/Machine/HCV/Active

> <s_m_Source_File>
NS3-4A.sdf

> <i_m_Source_File_Index>
3

$$$$
CHEMBL69077
                    3D
 Structure written by MMmdl.
 29 29  0  0  1  0            999 V2000
    9.7500   -3.8971    0.0000 C   0  0  0  0  0  0
    8.2500   -3.8971    0.0000 C   0  0  0  0  0  0
    7.5000   -5.1962    0.0000 C   0  0  0  0  0  0
    7.5000   -2.5981    0.0000 C   0  0  0  0  0  0
    6.0000   -2.5981    0.0000 C   0  0  2  0  0  0
    5.2500   -1.2990    0.0000 N   0  0  0  0  0  0
    3.7500   -1.2990    0.0000 C   0  0  0  0  0  0
    3.0000   -2.5981    0.0000 O   0  0  0  0  0  0
    3.0000    0.0000    0.0000 C   0  0  2  0  0  0
    3.7500    1.2990    0.0000 O   0  0  0  0  0  0
    1.5000    0.0000    0.0000 C   0  0  0  0  0  0
    0.7500   -1.2990    0.0000 C   0  0  0  0  0  0
   -0.7500   -1.2990    0.0000 C   0  0  0  0  0  0
   -1.5000    0.0000    0.0000 C   0  0  0  0  0  0
   -0.7500    1.2990    0.0000 C   0  0  0  0  0  0
    0.7500    1.2990    0.0000 C   0  0  0  0  0  0
    5.2500   -3.8971    0.0000 C   0  0  0  0  0  0
    3.7500   -3.8971    0.0000 O   0  0  0  0  0  0
    6.0000   -5.1962    0.0000 N   0  0  0  0  0  0
    5.2500   -6.4952    0.0000 C   0  0  1  0  0  0
    6.0000   -7.7942    0.0000 C   0  0  0  0  0  0
    7.5000   -7.7942    0.0000 C   0  0  0  0  0  0
    8.2500   -9.0933    0.0000 F   0  0  0  0  0  0
    8.2500   -6.4952    0.0000 F   0  0  0  0  0  0
    3.7500   -6.4952    0.0000 C   0  0  0  0  0  0
    3.0000   -5.1962    0.0000 O   0  0  0  0  0  0
    3.0000   -7.7942    0.0000 C   0  0  0  0  0  0
    3.7500   -9.0933    0.0000 O   0  0  0  0  0  0
    1.5000   -7.7942    0.0000 O   0  0  0  0  0  0
  1  2  1  0  0  0
  2  3  1  0  0  0
  2  4  1  0  0  0
  4  5  1  0  0  0
  5  6  1  0  0  0
  5 17  1  1  0  0
  6  7  1  0  0  0
  7  8  2  0  0  0
  7  9  1  0  0  0
  9 10  1  0  0  0
  9 11  1  6  0  0
 11 12  2  0  0  0
 11 16  1  0  0  0
 12 13  1  0  0  0
 13 14  2  0  0  0
 14 15  1  0  0  0
 15 16  2  0  0  0
 17 18  2  0  0  0
 17 19  1  0  0  0
 19 20  1  0  0  0
 20 21  1  0  0  0
 20 25  1  6  0  0
 21 22  1  0  0  0
 22 23  1  0  0  0
 22 24  1  0  0  0
 25 26  2  0  0  0
 25 27  1  0  0  0
 27 28  2  0  0  0
 27 29  1  0  0  0
M  END
> <s_m_entry_id>
6463

> <s_m_entry_name>
NS3-4A.4

> <CHEMBLID>
CHEMBL69077

> <s_m_Source_Path>
/home/liwei/Desktop/Machine/HCV/Active

> <s_m_Source_File>
NS3-4A.sdf

> <i_m_Source_File_Index>
4

$$$$
CHEMBL93005
                    3D
 Structure written by MMmdl.
 48 48  0  0  1  0            999 V2000
    5.7760    7.7942    0.0000 C   0  0  0  0  0  0
    5.0260    6.4952    0.0000 C   0  0  0  0  0  0
    3.5260    6.4952    0.0000 C   0  0  2  0  0  0
    2.7760    7.7942    0.0000 C   0  0  0  0  0  0
    2.7760    5.1962    0.0000 C   0  0  2  0  0  0
    1.2760    5.1962    0.0000 N   0  0  0  0  0  0
    0.5260    6.4952    0.0000 C   0  0  0  0  0  0
    1.2760    7.7942    0.0000 O   0  0  0  0  0  0
   -0.9740    6.4952    0.0000 C   0  0  1  0  0  0
   -1.7240    7.7942    0.0000 C   0  0  0  0  0  0
   -0.9740    9.0933    0.0000 C   0  0  0  0  0  0
    0.5260    9.0933    0.0000 O   0  0  0  0  0  0
   -1.7240   10.3923    0.0000 O   0  0  0  0  0  0
   -1.7240    5.1962    0.0000 N   0  0  0  0  0  0
   -3.2240    5.1962    0.0000 C   0  0  0  0  0  0
   -3.9740    6.4952    0.0000 O   0  0  0  0  0  0
   -3.9740    3.8971    0.0000 C   0  0  2  0  0  0
   -5.4740    3.8971    0.0000 C   0  0  0  0  0  0
   -6.2240    2.5981    0.0000 C   0  0  0  0  0  0
   -5.4740    1.2990    0.0000 O   0  0  0  0  0  0
   -7.7240    2.5981    0.0000 O   0  0  0  0  0  0
   -3.2240    2.5981    0.0000 N   0  0  0  0  0  0
   -1.7240    2.5981    0.0000 C   0  0  0  0  0  0
   -0.9740    1.2990    0.0000 O   0  0  0  0  0  0
   -0.9740    3.8971    0.0000 C   0  0  0  0  0  0
    3.5260    3.8971    0.0000 C   0  0  0  0  0  0
    5.0260    3.8971    0.0000 O   0  0  0  0  0  0
    2.7760    2.5981    0.0000 N   0  0  0  0  0  0
    3.5260    1.2990    0.0000 C   0  0  1  0  0  0
    5.0260    1.2990    0.0000 C   0  0  0  0  0  0
    5.7760    2.5981    0.0000 C   0  0  0  0  0  0
    5.7760   -0.0000    0.0000 C   0  0  0  0  0  0
    2.7760    0.0000    0.0000 C   0  0  0  0  0  0
    1.2760   -0.0000    0.0000 O   0  0  0  0  0  0
    3.5260   -1.2990    0.0000 N   0  0  0  0  0  0
    5.0178   -1.4558    0.0000 C   0  0  0  0  0  0
    5.3296   -2.9231    0.0000 C   0  0  0  0  0  0
    4.0306   -3.6731    0.0000 C   0  0  0  0  0  0
    2.9159   -2.6694    0.0000 C   0  0  2  0  0  0
    1.4486   -2.9812    0.0000 C   0  0  0  0  0  0
    0.4450   -1.8665    0.0000 O   0  0  0  0  0  0
    0.9851   -4.4078    0.0000 N   0  0  0  0  0  0
   -0.4821   -4.7197    0.0000 C   0  0  1  0  0  0
   -1.4858   -3.6050    0.0000 C   0  0  0  0  0  0
   -2.9530   -3.9168    0.0000 S   0  0  0  0  0  0
   -0.9456   -6.1463    0.0000 C   0  0  0  0  0  0
    0.0581   -7.2610    0.0000 O   0  0  0  0  0  0
   -2.4128   -6.4581    0.0000 O   0  0  0  0  0  0
  1  2  1  0  0  0
  2  3  1  0  0  0
  3  4  1  0  0  0
  3  5  1  1  0  0
  5  6  1  0  0  0
  5 26  1  1  0  0
  6  7  1  0  0  0
  7  8  2  0  0  0
  7  9  1  0  0  0
  9 10  1  0  0  0
  9 14  1  1  0  0
 10 11  1  0  0  0
 11 12  2  0  0  0
 11 13  1  0  0  0
 14 15  1  0  0  0
 15 16  2  0  0  0
 15 17  1  0  0  0
 17 18  1  0  0  0
 17 22  1  1  0  0
 18 19  1  0  0  0
 19 20  2  0  0  0
 19 21  1  0  0  0
 22 23  1  0  0  0
 23 24  2  0  0  0
 23 25  1  0  0  0
 26 27  2  0  0  0
 26 28  1  0  0  0
 28 29  1  0  0  0
 29 30  1  0  0  0
 29 33  1  6  0  0
 30 31  1  0  0  0
 30 32  1  0  0  0
 33 34  2  0  0  0
 33 35  1  0  0  0
 35 36  1  0  0  0
 35 39  1  0  0  0
 36 37  1  0  0  0
 37 38  1  0  0  0
 38 39  1  0  0  0
 39 40  1  6  0  0
 40 41  2  0  0  0
 40 42  1  0  0  0
 42 43  1  0  0  0
 43 44  1  0  0  0
 43 46  1  1  0  0
 44 45  1  0  0  0
 46 47  2  0  0  0
 46 48  1  0  0  0
M  END
> <s_m_entry_id>
6464

> <s_m_entry_name>
NS3-4A.5

> <CHEMBLID>
CHEMBL93005

> <s_m_Source_Path>
/home/liwei/Desktop/Machine/HCV/Active

> <s_m_Source_File>
NS3-4A.sdf

> <i_m_Source_File_Index>
5

$$$$
CHEMBL104014
                    3D
 Structure written by MMmdl.
 36 39  0  0  1  0            999 V2000
    8.7990   -0.3481    0.0000 C   0  0  0  0  0  0
    7.5000   -1.0981    0.0000 O   0  0  0  0  0  0
    7.5000   -2.5981    0.0000 P   0  0  3  0  0  0
    9.0000   -2.5981    0.0000 O   0  0  0  0  0  0
    7.5000   -4.0981    0.0000 O   0  0  0  0  0  0
    6.0000   -2.5981    0.0000 C   0  0  0  0  0  0
    5.2500   -1.2990    0.0000 C   0  0  3  0  0  0
    3.7500   -1.2990    0.0000 N   0  0  0  0  0  0
    3.0000    0.0000    0.0000 C   0  0  0  0  0  0
    3.7500    1.2990    0.0000 O   0  0  0  0  0  0
    1.5000    0.0000    0.0000 C   0  0  0  0  0  0
    0.7500   -1.2990    0.0000 C   0  0  0  0  0  0
   -0.7500   -1.2990    0.0000 C   0  0  0  0  0  0
   -1.5000    0.0000    0.0000 C   0  0  0  0  0  0
   -2.9672    0.3119    0.0000 N   0  0  0  0  0  0
   -3.1240    1.8037    0.0000 C   0  0  0  0  0  0
   -4.4231    2.5537    0.0000 C   0  0  0  0  0  0
   -4.4231    4.0537    0.0000 C   0  0  0  0  0  0
   -3.2095    4.9353    0.0000 N   0  0  0  0  0  0
   -3.6731    6.3619    0.0000 C   0  0  0  0  0  0
   -2.9231    7.6610    0.0000 C   0  0  0  0  0  0
   -3.6731    8.9600    0.0000 C   0  0  0  0  0  0
   -5.1731    8.9600    0.0000 C   0  0  0  0  0  0
   -5.9231    7.6610    0.0000 C   0  0  0  0  0  0
   -5.1731    6.3619    0.0000 C   0  0  0  0  0  0
   -5.6366    4.9353    0.0000 N   0  0  0  0  0  0
   -2.9231   10.2590    0.0000 C   0  0  0  0  0  0
   -3.6731   11.5581    0.0000 O   0  0  0  0  0  0
   -1.4231   10.2590    0.0000 N   0  0  0  0  0  0
   -1.7537    2.4138    0.0000 N   0  0  0  0  0  0
   -1.4418    3.8810    0.0000 C   0  0  0  0  0  0
   -0.7500    1.2990    0.0000 C   0  0  0  0  0  0
    0.7500    1.2990    0.0000 C   0  0  0  0  0  0
    6.0000    0.0000    0.0000 C   0  0  0  0  0  0
    7.5000    0.0000    0.0000 O   0  0  0  0  0  0
    5.2500    1.2990    0.0000 O   0  0  0  0  0  0
  1  2  1  0  0  0
  2  3  1  0  0  0
  3  4  2  0  0  0
  3  5  1  0  0  0
  3  6  1  0  0  0
  6  7  1  0  0  0
  7  8  1  0  0  0
  7 34  1  0  0  0
  8  9  1  0  0  0
  9 10  2  0  0  0
  9 11  1  0  0  0
 11 12  2  0  0  0
 11 33  1  0  0  0
 12 13  1  0  0  0
 13 14  2  0  0  0
 14 15  1  0  0  0
 14 32  1  0  0  0
 15 16  2  0  0  0
 16 17  1  0  0  0
 16 30  1  0  0  0
 17 18  1  0  0  0
 18 19  2  0  0  0
 18 26  1  0  0  0
 19 20  1  0  0  0
 20 21  2  0  0  0
 20 25  1  0  0  0
 21 22  1  0  0  0
 22 23  2  0  0  0
 22 27  1  0  0  0
 23 24  1  0  0  0
 24 25  2  0  0  0
 25 26  1  0  0  0
 27 28  2  0  0  0
 27 29  1  0  0  0
 30 31  1  0  0  0
 30 32  1  0  0  0
 32 33  2  0  0  0
 34 35  2  0  0  0
 34 36  1  0  0  0
M  END
> <s_m_entry_id>
6465

> <s_m_entry_name>
NS3-4A.6

> <CHEMBLID>
CHEMBL104014

> <s_m_Source_Path>
/home/liwei/Desktop/Machine/HCV/Active

> <s_m_Source_File>
NS3-4A.sdf

> <i_m_Source_File_Index>
6

$$$$
CHEMBL104015
                    3D
 Structure written by MMmdl.
 36 39  0  0  1  0            999 V2000
   -4.7585   -3.3002    0.0000 C   0  0  0  0  0  0
   -3.7548   -2.1855    0.0000 C   0  0  0  0  0  0
   -2.7511   -1.0707    0.0000 C   0  0  0  0  0  0
   -4.8695   -1.1818    0.0000 C   0  0  0  0  0  0
   -2.6401   -3.1891    0.0000 C   0  0  0  0  0  0
   -1.2135   -2.7256    0.0000 N   0  0  0  0  0  0
   -0.0000   -3.6073    0.0000 C   0  0  0  0  0  0
   -0.0000   -5.1073    0.0000 C   0  0  0  0  0  0
   -1.2990   -5.8573    0.0000 C   0  0  0  0  0  0
   -2.6694   -5.2472    0.0000 N   0  0  0  0  0  0
   -3.6731   -6.3619    0.0000 C   0  0  0  0  0  0
   -5.1731   -6.3619    0.0000 C   0  0  0  0  0  0
   -5.9231   -7.6610    0.0000 C   0  0  0  0  0  0
   -5.1731   -8.9600    0.0000 C   0  0  0  0  0  0
   -3.6731   -8.9600    0.0000 C   0  0  0  0  0  0
   -2.9231   -7.6610    0.0000 C   0  0  0  0  0  0
   -1.4558   -7.3491    0.0000 N   0  0  0  0  0  0
    1.2135   -2.7256    0.0000 N   0  0  0  0  0  0
    0.7500   -1.2990    0.0000 C   0  0  0  0  0  0
    1.5000    0.0000    0.0000 C   0  0  0  0  0  0
    0.7500    1.2990    0.0000 C   0  0  0  0  0  0
   -0.7500    1.2990    0.0000 C   0  0  0  0  0  0
   -1.5000    0.0000    0.0000 C   0  0  0  0  0  0
   -0.7500   -1.2990    0.0000 C   0  0  0  0  0  0
   -1.5000    2.5981    0.0000 C   0  0  0  0  0  0
   -3.0000    2.5981    0.0000 O   0  0  0  0  0  0
   -0.7500    3.8971    0.0000 N   0  0  0  0  0  0
   -1.5000    5.1962    0.0000 C   0  0  3  0  0  0
   -0.7500    6.4952    0.0000 C   0  0  0  0  0  0
   -1.5000    7.7942    0.0000 P   0  0  0  0  0  0
   -2.2500    9.0933    0.0000 O   0  0  0  0  0  0
   -0.2010    8.5442    0.0000 O   0  0  0  0  0  0
   -2.7990    7.0442    0.0000 O   0  0  0  0  0  0
   -3.0000    5.1962    0.0000 C   0  0  0  0  0  0
   -3.7500    6.4952    0.0000 O   0  0  0  0  0  0
   -3.7500    3.8971    0.0000 O   0  0  0  0  0  0
  1  2  1  0  0  0
  2  3  1  0  0  0
  2  4  1  0  0  0
  2  5  1  0  0  0
  5  6  1  0  0  0
  6  7  1  0  0  0
  6 24  1  0  0  0
  7  8  1  0  0  0
  7 18  2  0  0  0
  8  9  1  0  0  0
  9 10  2  0  0  0
  9 17  1  0  0  0
 10 11  1  0  0  0
 11 12  2  0  0  0
 11 16  1  0  0  0
 12 13  1  0  0  0
 13 14  2  0  0  0
 14 15  1  0  0  0
 15 16  2  0  0  0
 16 17  1  0  0  0
 18 19  1  0  0  0
 19 20  2  0  0  0
 19 24  1  0  0  0
 20 21  1  0  0  0
 21 22  2  0  0  0
 22 23  1  0  0  0
 22 25  1  0  0  0
 23 24  2  0  0  0
 25 26  2  0  0  0
 25 27  1  0  0  0
 27 28  1  0  0  0
 28 29  1  0  0  0
 28 34  1  0  0  0
 29 30  1  0  0  0
 30 31  2  0  0  0
 30 32  1  0  0  0
 30 33  1  0  0  0
 34 35  2  0  0  0
 34 36  1  0  0  0
M  END
> <s_m_entry_id>
6466

> <s_m_entry_name>
NS3-4A.7

> <CHEMBLID>
CHEMBL104015

> <s_m_Source_Path>
/home/liwei/Desktop/Machine/HCV/Active

> <s_m_Source_File>
NS3-4A.sdf

> <i_m_Source_File_Index>
7

$$$$
CHEMBL104390
                    3D
 Structure written by MMmdl.
 36 39  0  0  1  0            999 V2000
   -2.6401   -3.1891    0.0000 C   0  0  0  0  0  0
   -1.2135   -2.7256    0.0000 N   0  0  0  0  0  0
   -0.0000   -3.6073    0.0000 C   0  0  0  0  0  0
   -0.0000   -5.1073    0.0000 C   0  0  0  0  0  0
   -1.2990   -5.8573    0.0000 C   0  0  0  0  0  0
   -1.4558   -7.3491    0.0000 N   0  0  0  0  0  0
   -2.9231   -7.6610    0.0000 C   0  0  0  0  0  0
   -3.6731   -8.9600    0.0000 C   0  0  0  0  0  0
   -2.9231  -10.2590    0.0000 F   0  0  0  0  0  0
   -5.1731   -8.9600    0.0000 C   0  0  0  0  0  0
   -5.9231  -10.2590    0.0000 F   0  0  0  0  0  0
   -5.9231   -7.6610    0.0000 C   0  0  0  0  0  0
   -7.4231   -7.6610    0.0000 F   0  0  0  0  0  0
   -5.1731   -6.3619    0.0000 C   0  0  0  0  0  0
   -5.9231   -5.0629    0.0000 F   0  0  0  0  0  0
   -3.6731   -6.3619    0.0000 C   0  0  0  0  0  0
   -2.6694   -5.2472    0.0000 N   0  0  0  0  0  0
    1.2135   -2.7256    0.0000 N   0  0  0  0  0  0
    0.7500   -1.2990    0.0000 C   0  0  0  0  0  0
    1.5000    0.0000    0.0000 C   0  0  0  0  0  0
    0.7500    1.2990    0.0000 C   0  0  0  0  0  0
   -0.7500    1.2990    0.0000 C   0  0  0  0  0  0
   -1.5000    0.0000    0.0000 C   0  0  0  0  0  0
   -0.7500   -1.2990    0.0000 C   0  0  0  0  0  0
   -1.5000    2.5981    0.0000 C   0  0  0  0  0  0
   -3.0000    2.5981    0.0000 O   0  0  0  0  0  0
   -0.7500    3.8971    0.0000 N   0  0  0  0  0  0
   -1.5000    5.1962    0.0000 C   0  0  3  0  0  0
   -0.7500    6.4952    0.0000 C   0  0  0  0  0  0
   -1.5000    7.7942    0.0000 P   0  0  0  0  0  0
   -2.2500    9.0933    0.0000 O   0  0  0  0  0  0
   -0.2010    8.5442    0.0000 O   0  0  0  0  0  0
   -2.7990    7.0442    0.0000 O   0  0  0  0  0  0
   -3.0000    5.1962    0.0000 C   0  0  0  0  0  0
   -3.7500    6.4952    0.0000 O   0  0  0  0  0  0
   -3.7500    3.8971    0.0000 O   0  0  0  0  0  0
  1  2  1  0  0  0
  2  3  1  0  0  0
  2 24  1  0  0  0
  3  4  1  0  0  0
  3 18  2  0  0  0
  4  5  1  0  0  0
  5  6  2  0  0  0
  5 17  1  0  0  0
  6  7  1  0  0  0
  7  8  2  0  0  0
  7 16  1  0  0  0
  8  9  1  0  0  0
  8 10  1  0  0  0
 10 11  1  0  0  0
 10 12  2  0  0  0
 12 13  1  0  0  0
 12 14  1  0  0  0
 14 15  1  0  0  0
 14 16  2  0  0  0
 16 17  1  0  0  0
 18 19  1  0  0  0
 19 20  2  0  0  0
 19 24  1  0  0  0
 20 21  1  0  0  0
 21 22  2  0  0  0
 22 23  1  0  0  0
 22 25  1  0  0  0
 23 24  2  0  0  0
 25 26  2  0  0  0
 25 27  1  0  0  0
 27 28  1  0  0  0
 28 29  1  0  0  0
 28 34  1  0  0  0
 29 30  1  0  0  0
 30 31  2  0  0  0
 30 32  1  0  0  0
 30 33  1  0  0  0
 34 35  2  0  0  0
 34 36  1  0  0  0
M  END
> <s_m_entry_id>
6467

> <s_m_entry_name>
NS3-4A.8

> <CHEMBLID>
CHEMBL104390

> <s_m_Source_Path>
/home/liwei/Desktop/Machine/HCV/Active

> <s_m_Source_File>
NS3-4A.sdf

> <i_m_Source_File_Index>
8

$$$$
CHEMBL104664
                    3D
 Structure written by MMmdl.
 46 49  0  0  1  0            999 V2000
   -2.6401   -3.1891    0.0000 C   0  0  0  0  0  0
   -1.2135   -2.7256    0.0000 N   0  0  0  0  0  0
   -0.0000   -3.6073    0.0000 C   0  0  0  0  0  0
    1.2135   -2.7256    0.0000 N   0  0  0  0  0  0
    0.7500   -1.2990    0.0000 C   0  0  0  0  0  0
    1.5000    0.0000    0.0000 C   0  0  0  0  0  0
    0.7500    1.2990    0.0000 C   0  0  0  0  0  0
   -0.7500    1.2990    0.0000 C   0  0  0  0  0  0
   -1.5000    0.0000    0.0000 C   0  0  0  0  0  0
   -0.7500   -1.2990    0.0000 C   0  0  0  0  0  0
   -1.5000    2.5981    0.0000 C   0  0  0  0  0  0
   -3.0000    2.5981    0.0000 O   0  0  0  0  0  0
   -0.7500    3.8971    0.0000 N   0  0  0  0  0  0
   -1.5000    5.1962    0.0000 C   0  0  3  0  0  0
   -0.7500    6.4952    0.0000 C   0  0  0  0  0  0
   -1.5000    7.7942    0.0000 P   0  0  0  0  0  0
   -2.2500    9.0933    0.0000 O   0  0  0  0  0  0
   -0.2010    8.5442    0.0000 O   0  0  0  0  0  0
   -2.7990    7.0442    0.0000 O   0  0  0  0  0  0
   -3.0000    5.1962    0.0000 C   0  0  0  0  0  0
   -3.7500    6.4952    0.0000 O   0  0  0  0  0  0
   -3.7500    3.8971    0.0000 O   0  0  0  0  0  0
   -0.0000   -5.1073    0.0000 C   0  0  0  0  0  0
   -1.5000   -5.1073    0.0000 F   0  0  0  0  0  0
    1.5000   -5.1073    0.0000 F   0  0  0  0  0  0
   -0.0000   -6.6073    0.0000 C   0  0  0  0  0  0
   -1.2135   -7.4890    0.0000 N   0  0  0  0  0  0
   -0.7500   -8.9156    0.0000 C   0  0  0  0  0  0
   -1.5000  -10.2146    0.0000 C   0  0  0  0  0  0
   -0.7500  -11.5136    0.0000 C   0  0  0  0  0  0
    0.7500  -11.5136    0.0000 C   0  0  0  0  0  0
    1.5000  -10.2146    0.0000 C   0  0  0  0  0  0
    0.7500   -8.9156    0.0000 C   0  0  0  0  0  0
    1.2135   -7.4890    0.0000 N   0  0  0  0  0  0
   -1.5000  -12.8127    0.0000 C   0  0  0  0  0  0
   -0.7500  -14.1117    0.0000 O   0  0  0  0  0  0
   -3.0000  -12.8127    0.0000 N   0  0  0  0  0  0
   -3.7500  -14.1117    0.0000 C   0  0  3  0  0  0
   -5.2500  -14.1117    0.0000 C   0  0  0  0  0  0
   -6.0000  -15.4108    0.0000 P   0  0  0  0  0  0
   -6.7500  -16.7098    0.0000 O   0  0  0  0  0  0
   -7.2990  -14.6608    0.0000 O   0  0  0  0  0  0
   -4.7010  -16.1608    0.0000 O   0  0  0  0  0  0
   -3.0000  -15.4108    0.0000 C   0  0  0  0  0  0
   -3.7500  -16.7098    0.0000 O   0  0  0  0  0  0
   -1.5000  -15.4108    0.0000 O   0  0  0  0  0  0
  1  2  1  0  0  0
  2  3  1  0  0  0
  2 10  1  0  0  0
  3  4  2  0  0  0
  3 23  1  0  0  0
  4  5  1  0  0  0
  5  6  2  0  0  0
  5 10  1  0  0  0
  6  7  1  0  0  0
  7  8  2  0  0  0
  8  9  1  0  0  0
  8 11  1  0  0  0
  9 10  2  0  0  0
 11 12  2  0  0  0
 11 13  1  0  0  0
 13 14  1  0  0  0
 14 15  1  0  0  0
 14 20  1  0  0  0
 15 16  1  0  0  0
 16 17  2  0  0  0
 16 18  1  0  0  0
 16 19  1  0  0  0
 20 21  2  0  0  0
 20 22  1  0  0  0
 23 24  1  0  0  0
 23 25  1  0  0  0
 23 26  1  0  0  0
 26 27  2  0  0  0
 26 34  1  0  0  0
 27 28  1  0  0  0
 28 29  2  0  0  0
 28 33  1  0  0  0
 29 30  1  0  0  0
 30 31  2  0  0  0
 30 35  1  0  0  0
 31 32  1  0  0  0
 32 33  2  0  0  0
 33 34  1  0  0  0
 35 36  2  0  0  0
 35 37  1  0  0  0
 37 38  1  0  0  0
 38 39  1  0  0  0
 38 44  1  0  0  0
 39 40  1  0  0  0
 40 41  2  0  0  0
 40 42  1  0  0  0
 40 43  1  0  0  0
 44 45  2  0  0  0
 44 46  1  0  0  0
M  END
> <s_m_entry_id>
6468

> <s_m_entry_name>
NS3-4A.9

> <CHEMBLID>
CHEMBL104664

> <s_m_Source_Path>
/home/liwei/Desktop/Machine/HCV/Active

> <s_m_Source_File>
NS3-4A.sdf

> <i_m_Source_File_Index>
9

$$$$
CHEMBL104768
                    3D
 Structure written by MMmdl.
 44 47  0  0  1  0            999 V2000
   -2.6401   -3.1891    0.0000 C   0  0  0  0  0  0
   -1.2135   -2.7256    0.0000 N   0  0  0  0  0  0
   -0.0000   -3.6073    0.0000 C   0  0  0  0  0  0
   -0.0000   -5.1073    0.0000 C   0  0  0  0  0  0
   -1.2990   -5.8573    0.0000 C   0  0  0  0  0  0
   -2.6694   -5.2472    0.0000 N   0  0  0  0  0  0
   -3.6731   -6.3619    0.0000 C   0  0  0  0  0  0
   -5.1731   -6.3619    0.0000 C   0  0  0  0  0  0
   -5.9231   -7.6610    0.0000 C   0  0  0  0  0  0
   -5.1731   -8.9600    0.0000 C   0  0  0  0  0  0
   -3.6731   -8.9600    0.0000 C   0  0  0  0  0  0
   -2.9231   -7.6610    0.0000 C   0  0  0  0  0  0
   -1.4558   -7.3491    0.0000 N   0  0  0  0  0  0
   -7.4231   -7.6610    0.0000 C   0  0  0  0  0  0
   -8.1731   -8.9600    0.0000 O   0  0  0  0  0  0
   -8.1731   -6.3619    0.0000 N   0  0  0  0  0  0
   -9.6731   -6.3619    0.0000 C   0  0  3  0  0  0
  -10.4231   -5.0629    0.0000 C   0  0  0  0  0  0
  -11.9231   -5.0629    0.0000 P   0  0  0  0  0  0
  -13.4231   -5.0629    0.0000 O   0  0  0  0  0  0
  -11.9231   -3.5629    0.0000 O   0  0  0  0  0  0
  -11.9231   -6.5629    0.0000 O   0  0  0  0  0  0
  -10.4231   -7.6610    0.0000 C   0  0  0  0  0  0
  -11.9231   -7.6610    0.0000 O   0  0  0  0  0  0
   -9.6731   -8.9600    0.0000 O   0  0  0  0  0  0
    1.2135   -2.7256    0.0000 N   0  0  0  0  0  0
    0.7500   -1.2990    0.0000 C   0  0  0  0  0  0
    1.5000    0.0000    0.0000 C   0  0  0  0  0  0
    0.7500    1.2990    0.0000 C   0  0  0  0  0  0
   -0.7500    1.2990    0.0000 C   0  0  0  0  0  0
   -1.5000    0.0000    0.0000 C   0  0  0  0  0  0
   -0.7500   -1.2990    0.0000 C   0  0  0  0  0  0
   -1.5000    2.5981    0.0000 C   0  0  0  0  0  0
   -3.0000    2.5981    0.0000 O   0  0  0  0  0  0
   -0.7500    3.8971    0.0000 N   0  0  0  0  0  0
   -1.5000    5.1962    0.0000 C   0  0  3  0  0  0
   -0.7500    6.4952    0.0000 C   0  0  0  0  0  0
   -1.5000    7.7942    0.0000 P   0  0  0  0  0  0
   -2.2500    9.0933    0.0000 O   0  0  0  0  0  0
   -0.2010    8.5442    0.0000 O   0  0  0  0  0  0
   -2.7990    7.0442    0.0000 O   0  0  0  0  0  0
   -3.0000    5.1962    0.0000 C   0  0  0  0  0  0
   -3.7500    6.4952    0.0000 O   0  0  0  0  0  0
   -3.7500    3.8971    0.0000 O   0  0  0  0  0  0
  1  2  1  0  0  0
  2  3  1  0  0  0
  2 32  1  0  0  0
  3  4  1  0  0  0
  3 26  2  0  0  0
  4  5  1  0  0  0
  5  6  2  0  0  0
  5 13  1  0  0  0
  6  7  1  0  0  0
  7  8  2  0  0  0
  7 12  1  0  0  0
  8  9  1  0  0  0
  9 10  2  0  0  0
  9 14  1  0  0  0
 10 11  1  0  0  0
 11 12  2  0  0  0
 12 13  1  0  0  0
 14 15  2  0  0  0
 14 16  1  0  0  0
 16 17  1  0  0  0
 17 18  1  0  0  0
 17 23  1  0  0  0
 18 19  1  0  0  0
 19 20  2  0  0  0
 19 21  1  0  0  0
 19 22  1  0  0  0
 23 24  2  0  0  0
 23 25  1  0  0  0
 26 27  1  0  0  0
 27 28  2  0  0  0
 27 32  1  0  0  0
 28 29  1  0  0  0
 29 30  2  0  0  0
 30 31  1  0  0  0
 30 33  1  0  0  0
 31 32  2  0  0  0
 33 34  2  0  0  0
 33 35  1  0  0  0
 35 36  1  0  0  0
 36 37  1  0  0  0
 36 42  1  0  0  0
 37 38  1  0  0  0
 38 39  2  0  0  0
 38 40  1  0  0  0
 38 41  1  0  0  0
 42 43  2  0  0  0
 42 44  1  0  0  0
M  END
> <s_m_entry_id>
6469

> <s_m_entry_name>
NS3-4A.10

> <CHEMBLID>
CHEMBL104768

> <s_m_Source_Path>
/home/liwei/Desktop/Machine/HCV/Active

> <s_m_Source_File>
NS3-4A.sdf

> <i_m_Source_File_Index>
10

$$$$
CHEMBL104853
                    3D
 Structure written by MMmdl.
 33 36  0  0  1  0            999 V2000
   -1.2990   -5.8573    0.0000 C   0  0  0  0  0  0
    0.0000   -5.1073    0.0000 C   0  0  3  0  0  0
    0.0000   -3.6073    0.0000 C   0  0  0  0  0  0
    1.2135   -2.7256    0.0000 N   0  0  0  0  0  0
    0.7500   -1.2990    0.0000 C   0  0  0  0  0  0
    1.5000    0.0000    0.0000 C   0  0  0  0  0  0
    0.7500    1.2990    0.0000 C   0  0  0  0  0  0
   -0.7500    1.2990    0.0000 C   0  0  0  0  0  0
   -1.5000    0.0000    0.0000 C   0  0  0  0  0  0
   -0.7500   -1.2990    0.0000 C   0  0  0  0  0  0
   -1.2135   -2.7256    0.0000 N   0  0  0  0  0  0
    1.2990   -5.8573    0.0000 C   0  0  0  0  0  0
    1.4558   -7.3491    0.0000 N   0  0  0  0  0  0
    2.9231   -7.6610    0.0000 C   0  0  0  0  0  0
    3.6731   -8.9600    0.0000 C   0  0  0  0  0  0
    5.1731   -8.9600    0.0000 C   0  0  0  0  0  0
    5.9231   -7.6610    0.0000 C   0  0  0  0  0  0
    5.1731   -6.3619    0.0000 C   0  0  0  0  0  0
    3.6731   -6.3619    0.0000 C   0  0  0  0  0  0
    2.6694   -5.2472    0.0000 N   0  0  0  0  0  0
    2.9812   -3.7800    0.0000 C   0  0  0  0  0  0
    7.4231   -7.6610    0.0000 C   0  0  0  0  0  0
    8.1731   -6.3619    0.0000 O   0  0  0  0  0  0
    8.1731   -8.9600    0.0000 N   0  0  0  0  0  0
    9.6731   -8.9600    0.0000 C   0  0  3  0  0  0
   10.4231  -10.2590    0.0000 C   0  0  0  0  0  0
   11.9231  -10.2590    0.0000 P   0  0  0  0  0  0
   13.4231  -10.2590    0.0000 O   0  0  0  0  0  0
   11.9231  -11.7590    0.0000 O   0  0  0  0  0  0
   11.9231   -8.7590    0.0000 O   0  0  0  0  0  0
   10.4231   -7.6610    0.0000 C   0  0  0  0  0  0
   11.9231   -7.6610    0.0000 O   0  0  0  0  0  0
    9.6731   -6.3619    0.0000 O   0  0  0  0  0  0
  1  2  1  0  0  0
  2  3  1  0  0  0
  2 12  1  0  0  0
  3  4  2  0  0  0
  3 11  1  0  0  0
  4  5  1  0  0  0
  5  6  2  0  0  0
  5 10  1  0  0  0
  6  7  1  0  0  0
  7  8  2  0  0  0
  8  9  1  0  0  0
  9 10  2  0  0  0
 10 11  1  0  0  0
 12 13  2  0  0  0
 12 20  1  0  0  0
 13 14  1  0  0  0
 14 15  2  0  0  0
 14 19  1  0  0  0
 15 16  1  0  0  0
 16 17  2  0  0  0
 17 18  1  0  0  0
 17 22  1  0  0  0
 18 19  2  0  0  0
 19 20  1  0  0  0
 20 21  1  0  0  0
 22 23  2  0  0  0
 22 24  1  0  0  0
 24 25  1  0  0  0
 25 26  1  0  0  0
 25 31  1  0  0  0
 26 27  1  0  0  0
 27 28  2  0  0  0
 27 29  1  0  0  0
 27 30  1  0  0  0
 31 32  2  0  0  0
 31 33  1  0  0  0
M  END
> <s_m_entry_id>
6470

> <s_m_entry_name>
NS3-4A.11

> <CHEMBLID>
CHEMBL104853

> <s_m_Source_Path>
/home/liwei/Desktop/Machine/HCV/Active

> <s_m_Source_File>
NS3-4A.sdf

> <i_m_Source_File_Index>
11

$$$$
CHEMBL105448
                    3D
 Structure written by MMmdl.
 36 39  0  0  1  0            999 V2000
   -2.6401   -3.1891    0.0000 C   0  0  0  0  0  0
   -1.2135   -2.7256    0.0000 N   0  0  0  0  0  0
   -0.0000   -3.6073    0.0000 C   0  0  0  0  0  0
    1.2135   -2.7256    0.0000 N   0  0  0  0  0  0
    0.7500   -1.2990    0.0000 C   0  0  0  0  0  0
    1.5000    0.0000    0.0000 C   0  0  0  0  0  0
    0.7500    1.2990    0.0000 C   0  0  0  0  0  0
   -0.7500    1.2990    0.0000 C   0  0  0  0  0  0
   -1.5000    0.0000    0.0000 C   0  0  0  0  0  0
   -0.7500   -1.2990    0.0000 C   0  0  0  0  0  0
   -1.5000    2.5981    0.0000 C   0  0  0  0  0  0
   -3.0000    2.5981    0.0000 O   0  0  0  0  0  0
   -0.7500    3.8971    0.0000 N   0  0  0  0  0  0
   -1.5000    5.1962    0.0000 C   0  0  3  0  0  0
   -0.7500    6.4952    0.0000 C   0  0  0  0  0  0
   -1.5000    7.7942    0.0000 P   0  0  0  0  0  0
   -2.2500    9.0933    0.0000 O   0  0  0  0  0  0
   -0.2010    8.5442    0.0000 O   0  0  0  0  0  0
   -2.7990    7.0442    0.0000 O   0  0  0  0  0  0
   -3.0000    5.1962    0.0000 C   0  0  0  0  0  0
   -3.7500    6.4952    0.0000 O   0  0  0  0  0  0
   -3.7500    3.8971    0.0000 O   0  0  0  0  0  0
   -0.0000   -5.1073    0.0000 C   0  0  0  0  0  0
   -1.5000   -5.1073    0.0000 F   0  0  0  0  0  0
    1.5000   -5.1073    0.0000 F   0  0  0  0  0  0
   -0.0000   -6.6073    0.0000 C   0  0  0  0  0  0
    1.2135   -7.4890    0.0000 N   0  0  0  0  0  0
    0.7500   -8.9156    0.0000 C   0  0  0  0  0  0
    1.5000  -10.2146    0.0000 C   0  0  0  0  0  0
    0.7500  -11.5136    0.0000 C   0  0  0  0  0  0
    1.5000  -12.8127    0.0000 F   0  0  0  0  0  0
   -0.7500  -11.5136    0.0000 C   0  0  0  0  0  0
   -1.5000  -12.8127    0.0000 F   0  0  0  0  0  0
   -1.5000  -10.2146    0.0000 C   0  0  0  0  0  0
   -0.7500   -8.9156    0.0000 C   0  0  0  0  0  0
   -1.2135   -7.4890    0.0000 N   0  0  0  0  0  0
  1  2  1  0  0  0
  2  3  1  0  0  0
  2 10  1  0  0  0
  3  4  2  0  0  0
  3 23  1  0  0  0
  4  5  1  0  0  0
  5  6  2  0  0  0
  5 10  1  0  0  0
  6  7  1  0  0  0
  7  8  2  0  0  0
  8  9  1  0  0  0
  8 11  1  0  0  0
  9 10  2  0  0  0
 11 12  2  0  0  0
 11 13  1  0  0  0
 13 14  1  0  0  0
 14 15  1  0  0  0
 14 20  1  0  0  0
 15 16  1  0  0  0
 16 17  2  0  0  0
 16 18  1  0  0  0
 16 19  1  0  0  0
 20 21  2  0  0  0
 20 22  1  0  0  0
 23 24  1  0  0  0
 23 25  1  0  0  0
 23 26  1  0  0  0
 26 27  2  0  0  0
 26 36  1  0  0  0
 27 28  1  0  0  0
 28 29  2  0  0  0
 28 35  1  0  0  0
 29 30  1  0  0  0
 30 31  1  0  0  0
 30 32  2  0  0  0
 32 33  1  0  0  0
 32 34  1  0  0  0
 34 35  2  0  0  0
 35 36  1  0  0  0
M  END
> <s_m_entry_id>
6471

> <s_m_entry_name>
NS3-4A.12

> <CHEMBLID>
CHEMBL105448

> <s_m_Source_Path>
/home/liwei/Desktop/Machine/HCV/Active

> <s_m_Source_File>
NS3-4A.sdf

> <i_m_Source_File_Index>
12

$$$$
CHEMBL105624
                    3D
 Structure written by MMmdl.
 34 37  0  0  1  0            999 V2000
   -2.6401   -3.1891    0.0000 C   0  0  0  0  0  0
   -1.2135   -2.7256    0.0000 N   0  0  0  0  0  0
   -0.0000   -3.6073    0.0000 C   0  0  0  0  0  0
   -0.0000   -5.1073    0.0000 C   0  0  0  0  0  0
   -1.2990   -5.8573    0.0000 C   0  0  0  0  0  0
   -1.4558   -7.3491    0.0000 N   0  0  0  0  0  0
   -2.9231   -7.6610    0.0000 C   0  0  0  0  0  0
   -3.6731   -8.9600    0.0000 C   0  0  0  0  0  0
   -2.9231  -10.2590    0.0000 F   0  0  0  0  0  0
   -5.1731   -8.9600    0.0000 C   0  0  0  0  0  0
   -5.9231   -7.6610    0.0000 C   0  0  0  0  0  0
   -7.4231   -7.6610    0.0000 F   0  0  0  0  0  0
   -5.1731   -6.3619    0.0000 C   0  0  0  0  0  0
   -3.6731   -6.3619    0.0000 C   0  0  0  0  0  0
   -2.6694   -5.2472    0.0000 N   0  0  0  0  0  0
    1.2135   -2.7256    0.0000 N   0  0  0  0  0  0
    0.7500   -1.2990    0.0000 C   0  0  0  0  0  0
    1.5000    0.0000    0.0000 C   0  0  0  0  0  0
    0.7500    1.2990    0.0000 C   0  0  0  0  0  0
   -0.7500    1.2990    0.0000 C   0  0  0  0  0  0
   -1.5000    0.0000    0.0000 C   0  0  0  0  0  0
   -0.7500   -1.2990    0.0000 C   0  0  0  0  0  0
   -1.5000    2.5981    0.0000 C   0  0  0  0  0  0
   -3.0000    2.5981    0.0000 O   0  0  0  0  0  0
   -0.7500    3.8971    0.0000 N   0  0  0  0  0  0
   -1.5000    5.1962    0.0000 C   0  0  3  0  0  0
   -0.7500    6.4952    0.0000 C   0  0  0  0  0  0
   -1.5000    7.7942    0.0000 P   0  0  0  0  0  0
   -2.2500    9.0933    0.0000 O   0  0  0  0  0  0
   -0.2010    8.5442    0.0000 O   0  0  0  0  0  0
   -2.7990    7.0442    0.0000 O   0  0  0  0  0  0
   -3.0000    5.1962    0.0000 C   0  0  0  0  0  0
   -3.7500    6.4952    0.0000 O   0  0  0  0  0  0
   -3.7500    3.8971    0.0000 O   0  0  0  0  0  0
  1  2  1  0  0  0
  2  3  1  0  0  0
  2 22  1  0  0  0
  3  4  1  0  0  0
  3 16  2  0  0  0
  4  5  1  0  0  0
  5  6  2  0  0  0
  5 15  1  0  0  0
  6  7  1  0  0  0
  7  8  2  0  0  0
  7 14  1  0  0  0
  8  9  1  0  0  0
  8 10  1  0  0  0
 10 11  2  0  0  0
 11 12  1  0  0  0
 11 13  1  0  0  0
 13 14  2  0  0  0
 14 15  1  0  0  0
 16 17  1  0  0  0
 17 18  2  0  0  0
 17 22  1  0  0  0
 18 19  1  0  0  0
 19 20  2  0  0  0
 20 21  1  0  0  0
 20 23  1  0  0  0
 21 22  2  0  0  0
 23 24  2  0  0  0
 23 25  1  0  0  0
 25 26  1  0  0  0
 26 27  1  0  0  0
 26 32  1  0  0  0
 27 28  1  0  0  0
 28 29  2  0  0  0
 28 30  1  0  0  0
 28 31  1  0  0  0
 32 33  2  0  0  0
 32 34  1  0  0  0
M  END
> <s_m_entry_id>
6472

> <s_m_entry_name>
NS3-4A.13

> <CHEMBLID>
CHEMBL105624

> <s_m_Source_Path>
/home/liwei/Desktop/Machine/HCV/Active

> <s_m_Source_File>
NS3-4A.sdf

> <i_m_Source_File_Index>
13

$$$$
CHEMBL105828
                    3D
 Structure written by MMmdl.
 36 39  0  0  1  0            999 V2000
   -2.6401   -3.1891    0.0000 C   0  0  0  0  0  0
   -1.2135   -2.7256    0.0000 N   0  0  0  0  0  0
   -0.0000   -3.6073    0.0000 C   0  0  0  0  0  0
   -0.0000   -5.1073    0.0000 C   0  0  0  0  0  0
   -1.2990   -5.8573    0.0000 C   0  0  0  0  0  0
   -2.6694   -5.2472    0.0000 N   0  0  0  0  0  0
   -3.6731   -6.3619    0.0000 C   0  0  0  0  0  0
   -5.1731   -6.3619    0.0000 C   0  0  0  0  0  0
   -5.9231   -7.6610    0.0000 C   0  0  0  0  0  0
   -5.1731   -8.9600    0.0000 C   0  0  0  0  0  0
   -3.6731   -8.9600    0.0000 C   0  0  0  0  0  0
   -2.9231   -7.6610    0.0000 C   0  0  0  0  0  0
   -1.4558   -7.3491    0.0000 N   0  0  0  0  0  0
   -7.4231   -7.6610    0.0000 C   0  0  0  0  0  0
   -8.9231   -7.6610    0.0000 F   0  0  0  0  0  0
   -7.4231   -6.1610    0.0000 F   0  0  0  0  0  0
   -7.4231   -9.1610    0.0000 F   0  0  0  0  0  0
    1.2135   -2.7256    0.0000 N   0  0  0  0  0  0
    0.7500   -1.2990    0.0000 C   0  0  0  0  0  0
    1.5000    0.0000    0.0000 C   0  0  0  0  0  0
    0.7500    1.2990    0.0000 C   0  0  0  0  0  0
   -0.7500    1.2990    0.0000 C   0  0  0  0  0  0
   -1.5000    0.0000    0.0000 C   0  0  0  0  0  0
   -0.7500   -1.2990    0.0000 C   0  0  0  0  0  0
   -1.5000    2.5981    0.0000 C   0  0  0  0  0  0
   -3.0000    2.5981    0.0000 O   0  0  0  0  0  0
   -0.7500    3.8971    0.0000 N   0  0  0  0  0  0
   -1.5000    5.1962    0.0000 C   0  0  3  0  0  0
   -0.7500    6.4952    0.0000 C   0  0  0  0  0  0
   -1.5000    7.7942    0.0000 P   0  0  0  0  0  0
   -2.2500    9.0933    0.0000 O   0  0  0  0  0  0
   -0.2010    8.5442    0.0000 O   0  0  0  0  0  0
   -2.7990    7.0442    0.0000 O   0  0  0  0  0  0
   -3.0000    5.1962    0.0000 C   0  0  0  0  0  0
   -3.7500    6.4952    0.0000 O   0  0  0  0  0  0
   -3.7500    3.8971    0.0000 O   0  0  0  0  0  0
  1  2  1  0  0  0
  2  3  1  0  0  0
  2 24  1  0  0  0
  3  4  1  0  0  0
  3 18  2  0  0  0
  4  5  1  0  0  0
  5  6  2  0  0  0
  5 13  1  0  0  0
  6  7  1  0  0  0
  7  8  2  0  0  0
  7 12  1  0  0  0
  8  9  1  0  0  0
  9 10  2  0  0  0
  9 14  1  0  0  0
 10 11  1  0  0  0
 11 12  2  0  0  0
 12 13  1  0  0  0
 14 15  1  0  0  0
 14 16  1  0  0  0
 14 17  1  0  0  0
 18 19  1  0  0  0
 19 20  2  0  0  0
 19 24  1  0  0  0
 20 21  1  0  0  0
 21 22  2  0  0  0
 22 23  1  0  0  0
 22 25  1  0  0  0
 23 24  2  0  0  0
 25 26  2  0  0  0
 25 27  1  0  0  0
 27 28  1  0  0  0
 28 29  1  0  0  0
 28 34  1  0  0  0
 29 30  1  0  0  0
 30 31  2  0  0  0
 30 32  1  0  0  0
 30 33  1  0  0  0
 34 35  2  0  0  0
 34 36  1  0  0  0
M  END
> <s_m_entry_id>
6473

> <s_m_entry_name>
NS3-4A.14

> <CHEMBLID>
CHEMBL105828

> <s_m_Source_Path>
/home/liwei/Desktop/Machine/HCV/Active

> <s_m_Source_File>
NS3-4A.sdf

> <i_m_Source_File_Index>
14

$$$$
CHEMBL106290
                    3D
 Structure written by MMmdl.
 33 36  0  0  1  0            999 V2000
   -2.6401   -3.1891    0.0000 C   0  0  0  0  0  0
   -1.2135   -2.7256    0.0000 N   0  0  0  0  0  0
   -0.0000   -3.6073    0.0000 C   0  0  0  0  0  0
   -0.0000   -5.1073    0.0000 C   0  0  0  0  0  0
   -1.2990   -5.8573    0.0000 C   0  0  0  0  0  0
   -2.6694   -5.2472    0.0000 N   0  0  0  0  0  0
   -3.6731   -6.3619    0.0000 C   0  0  0  0  0  0
   -5.1731   -6.3619    0.0000 C   0  0  0  0  0  0
   -5.9231   -7.6610    0.0000 C   0  0  0  0  0  0
   -7.4231   -7.6610    0.0000 F   0  0  0  0  0  0
   -5.1731   -8.9600    0.0000 C   0  0  0  0  0  0
   -3.6731   -8.9600    0.0000 C   0  0  0  0  0  0
   -2.9231   -7.6610    0.0000 C   0  0  0  0  0  0
   -1.4558   -7.3491    0.0000 N   0  0  0  0  0  0
    1.2135   -2.7256    0.0000 N   0  0  0  0  0  0
    0.7500   -1.2990    0.0000 C   0  0  0  0  0  0
    1.5000    0.0000    0.0000 C   0  0  0  0  0  0
    0.7500    1.2990    0.0000 C   0  0  0  0  0  0
   -0.7500    1.2990    0.0000 C   0  0  0  0  0  0
   -1.5000    0.0000    0.0000 C   0  0  0  0  0  0
   -0.7500   -1.2990    0.0000 C   0  0  0  0  0  0
   -1.5000    2.5981    0.0000 C   0  0  0  0  0  0
   -3.0000    2.5981    0.0000 O   0  0  0  0  0  0
   -0.7500    3.8971    0.0000 N   0  0  0  0  0  0
   -1.5000    5.1962    0.0000 C   0  0  3  0  0  0
   -0.7500    6.4952    0.0000 C   0  0  0  0  0  0
   -1.5000    7.7942    0.0000 P   0  0  0  0  0  0
   -2.2500    9.0933    0.0000 O   0  0  0  0  0  0
   -0.2010    8.5442    0.0000 O   0  0  0  0  0  0
   -2.7990    7.0442    0.0000 O   0  0  0  0  0  0
   -3.0000    5.1962    0.0000 C   0  0  0  0  0  0
   -3.7500    6.4952    0.0000 O   0  0  0  0  0  0
   -3.7500    3.8971    0.0000 O   0  0  0  0  0  0
  1  2  1  0  0  0
  2  3  1  0  0  0
  2 21  1  0  0  0
  3  4  1  0  0  0
  3 15  2  0  0  0
  4  5  1  0  0  0
  5  6  2  0  0  0
  5 14  1  0  0  0
  6  7  1  0  0  0
  7  8  2  0  0  0
  7 13  1  0  0  0
  8  9  1  0  0  0
  9 10  1  0  0  0
  9 11  2  0  0  0
 11 12  1  0  0  0
 12 13  2  0  0  0
 13 14  1  0  0  0
 15 16  1  0  0  0
 16 17  2  0  0  0
 16 21  1  0  0  0
 17 18  1  0  0  0
 18 19  2  0  0  0
 19 20  1  0  0  0
 19 22  1  0  0  0
 20 21  2  0  0  0
 22 23  2  0  0  0
 22 24  1  0  0  0
 24 25  1  0  0  0
 25 26  1  0  0  0
 25 31  1  0  0  0
 26 27  1  0  0  0
 27 28  2  0  0  0
 27 29  1  0  0  0
 27 30  1  0  0  0
 31 32  2  0  0  0
 31 33  1  0  0  0
M  END
> <s_m_entry_id>
6474

> <s_m_entry_name>
NS3-4A.15

> <CHEMBLID>
CHEMBL106290

> <s_m_Source_Path>
/home/liwei/Desktop/Machine/HCV/Active

> <s_m_Source_File>
NS3-4A.sdf

> <i_m_Source_File_Index>
15

$$$$
CHEMBL106473
                    3D
 Structure written by MMmdl.
 33 36  0  0  1  0            999 V2000
   -1.2990   -5.8573    0.0000 C   0  0  0  0  0  0
    0.0000   -5.1073    0.0000 C   0  0  3  0  0  0
    0.0000   -3.6073    0.0000 C   0  0  0  0  0  0
    1.2135   -2.7256    0.0000 N   0  0  0  0  0  0
    0.7500   -1.2990    0.0000 C   0  0  0  0  0  0
    1.5000    0.0000    0.0000 C   0  0  0  0  0  0
    0.7500    1.2990    0.0000 C   0  0  0  0  0  0
   -0.7500    1.2990    0.0000 C   0  0  0  0  0  0
   -1.5000    0.0000    0.0000 C   0  0  0  0  0  0
   -0.7500   -1.2990    0.0000 C   0  0  0  0  0  0
   -1.2135   -2.7256    0.0000 N   0  0  0  0  0  0
    1.2990   -5.8573    0.0000 C   0  0  0  0  0  0
    1.4558   -7.3491    0.0000 N   0  0  0  0  0  0
    2.9231   -7.6610    0.0000 C   0  0  0  0  0  0
    3.6731   -8.9600    0.0000 C   0  0  0  0  0  0
    5.1731   -8.9600    0.0000 C   0  0  0  0  0  0
    5.9231   -7.6610    0.0000 C   0  0  0  0  0  0
    5.1731   -6.3619    0.0000 C   0  0  0  0  0  0
    5.9231   -5.0629    0.0000 C   0  0  0  0  0  0
    5.1731   -3.7638    0.0000 O   0  0  0  0  0  0
    7.4231   -5.0629    0.0000 N   0  0  0  0  0  0
    8.1731   -3.7638    0.0000 C   0  0  3  0  0  0
    9.6731   -3.7638    0.0000 C   0  0  0  0  0  0
   10.4231   -2.4648    0.0000 P   0  0  0  0  0  0
   11.1731   -1.1658    0.0000 O   0  0  0  0  0  0
   11.7221   -3.2148    0.0000 O   0  0  0  0  0  0
    9.1240   -1.7148    0.0000 O   0  0  0  0  0  0
    7.4231   -2.4648    0.0000 C   0  0  0  0  0  0
    8.1731   -1.1658    0.0000 O   0  0  0  0  0  0
    5.9231   -2.4648    0.0000 O   0  0  0  0  0  0
    3.6731   -6.3619    0.0000 C   0  0  0  0  0  0
    2.6694   -5.2472    0.0000 N   0  0  0  0  0  0
    2.9812   -3.7800    0.0000 C   0  0  0  0  0  0
  1  2  1  0  0  0
  2  3  1  0  0  0
  2 12  1  0  0  0
  3  4  2  0  0  0
  3 11  1  0  0  0
  4  5  1  0  0  0
  5  6  2  0  0  0
  5 10  1  0  0  0
  6  7  1  0  0  0
  7  8  2  0  0  0
  8  9  1  0  0  0
  9 10  2  0  0  0
 10 11  1  0  0  0
 12 13  2  0  0  0
 12 32  1  0  0  0
 13 14  1  0  0  0
 14 15  2  0  0  0
 14 31  1  0  0  0
 15 16  1  0  0  0
 16 17  2  0  0  0
 17 18  1  0  0  0
 18 19  1  0  0  0
 18 31  2  0  0  0
 19 20  2  0  0  0
 19 21  1  0  0  0
 21 22  1  0  0  0
 22 23  1  0  0  0
 22 28  1  0  0  0
 23 24  1  0  0  0
 24 25  2  0  0  0
 24 26  1  0  0  0
 24 27  1  0  0  0
 28 29  2  0  0  0
 28 30  1  0  0  0
 31 32  1  0  0  0
 32 33  1  0  0  0
M  END
> <s_m_entry_id>
6475

> <s_m_entry_name>
NS3-4A.16

> <CHEMBLID>
CHEMBL106473

> <s_m_Source_Path>
/home/liwei/Desktop/Machine/HCV/Active

> <s_m_Source_File>
NS3-4A.sdf

> <i_m_Source_File_Index>
16

$$$$
CHEMBL106532
                    3D
 Structure written by MMmdl.
 35 38  0  0  1  0            999 V2000
   -2.6401   -3.1891    0.0000 C   0  0  0  0  0  0
   -1.2135   -2.7256    0.0000 N   0  0  0  0  0  0
   -0.0000   -3.6073    0.0000 C   0  0  0  0  0  0
   -0.0000   -5.1073    0.0000 C   0  0  0  0  0  0
   -1.2990   -5.8573    0.0000 C   0  0  0  0  0  0
   -1.4558   -7.3491    0.0000 N   0  0  0  0  0  0
   -2.9231   -7.6610    0.0000 C   0  0  0  0  0  0
   -3.6731   -8.9600    0.0000 C   0  0  0  0  0  0
   -2.9231  -10.2590    0.0000 F   0  0  0  0  0  0
   -5.1731   -8.9600    0.0000 C   0  0  0  0  0  0
   -5.9231  -10.2590    0.0000 F   0  0  0  0  0  0
   -5.9231   -7.6610    0.0000 C   0  0  0  0  0  0
   -7.4231   -7.6610    0.0000 F   0  0  0  0  0  0
   -5.1731   -6.3619    0.0000 C   0  0  0  0  0  0
   -3.6731   -6.3619    0.0000 C   0  0  0  0  0  0
   -2.6694   -5.2472    0.0000 N   0  0  0  0  0  0
    1.2135   -2.7256    0.0000 N   0  0  0  0  0  0
    0.7500   -1.2990    0.0000 C   0  0  0  0  0  0
    1.5000    0.0000    0.0000 C   0  0  0  0  0  0
    0.7500    1.2990    0.0000 C   0  0  0  0  0  0
   -0.7500    1.2990    0.0000 C   0  0  0  0  0  0
   -1.5000    0.0000    0.0000 C   0  0  0  0  0  0
   -0.7500   -1.2990    0.0000 C   0  0  0  0  0  0
   -1.5000    2.5981    0.0000 C   0  0  0  0  0  0
   -3.0000    2.5981    0.0000 O   0  0  0  0  0  0
   -0.7500    3.8971    0.0000 N   0  0  0  0  0  0
   -1.5000    5.1962    0.0000 C   0  0  3  0  0  0
   -0.7500    6.4952    0.0000 C   0  0  0  0  0  0
   -1.5000    7.7942    0.0000 P   0  0  0  0  0  0
   -2.2500    9.0933    0.0000 O   0  0  0  0  0  0
   -0.2010    8.5442    0.0000 O   0  0  0  0  0  0
   -2.7990    7.0442    0.0000 O   0  0  0  0  0  0
   -3.0000    5.1962    0.0000 C   0  0  0  0  0  0
   -3.7500    6.4952    0.0000 O   0  0  0  0  0  0
   -3.7500    3.8971    0.0000 O   0  0  0  0  0  0
  1  2  1  0  0  0
  2  3  1  0  0  0
  2 23  1  0  0  0
  3  4  1  0  0  0
  3 17  2  0  0  0
  4  5  1  0  0  0
  5  6  2  0  0  0
  5 16  1  0  0  0
  6  7  1  0  0  0
  7  8  2  0  0  0
  7 15  1  0  0  0
  8  9  1  0  0  0
  8 10  1  0  0  0
 10 11  1  0  0  0
 10 12  2  0  0  0
 12 13  1  0  0  0
 12 14  1  0  0  0
 14 15  2  0  0  0
 15 16  1  0  0  0
 17 18  1  0  0  0
 18 19  2  0  0  0
 18 23  1  0  0  0
 19 20  1  0  0  0
 20 21  2  0  0  0
 21 22  1  0  0  0
 21 24  1  0  0  0
 22 23  2  0  0  0
 24 25  2  0  0  0
 24 26  1  0  0  0
 26 27  1  0  0  0
 27 28  1  0  0  0
 27 33  1  0  0  0
 28 29  1  0  0  0
 29 30  2  0  0  0
 29 31  1  0  0  0
 29 32  1  0  0  0
 33 34  2  0  0  0
 33 35  1  0  0  0
M  END
> <s_m_entry_id>
6476

> <s_m_entry_name>
NS3-4A.17

> <CHEMBLID>
CHEMBL106532

> <s_m_Source_Path>
/home/liwei/Desktop/Machine/HCV/Active

> <s_m_Source_File>
NS3-4A.sdf

> <i_m_Source_File_Index>
17

$$$$
CHEMBL106624
                    3D
 Structure written by MMmdl.
 33 36  0  0  1  0            999 V2000
    3.0000    0.0000    0.0000 C   0  0  0  0  0  0
    1.5000    0.0000    0.0000 C   0  0  0  0  0  0
    0.7500   -1.2990    0.0000 C   0  0  0  0  0  0
   -0.7500   -1.2990    0.0000 C   0  0  0  0  0  0
   -1.5000    0.0000    0.0000 C   0  0  0  0  0  0
   -0.7500    1.2990    0.0000 C   0  0  0  0  0  0
   -1.2135    2.7256    0.0000 N   0  0  0  0  0  0
   -0.0000    3.6073    0.0000 C   0  0  0  0  0  0
   -0.0000    5.1073    0.0000 C   0  0  0  0  0  0
    1.2990    5.8573    0.0000 C   0  0  0  0  0  0
    2.6694    5.2472    0.0000 N   0  0  0  0  0  0
    3.6731    6.3619    0.0000 C   0  0  0  0  0  0
    5.1731    6.3619    0.0000 C   0  0  0  0  0  0
    5.9231    7.6610    0.0000 C   0  0  0  0  0  0
    5.1731    8.9600    0.0000 C   0  0  0  0  0  0
    3.6731    8.9600    0.0000 C   0  0  0  0  0  0
    2.9231    7.6610    0.0000 C   0  0  0  0  0  0
    1.4558    7.3491    0.0000 N   0  0  0  0  0  0
    0.3411    8.3528    0.0000 C   0  0  0  0  0  0
    5.9231   10.2590    0.0000 C   0  0  0  0  0  0
    5.1731   11.5581    0.0000 O   0  0  0  0  0  0
    7.4231   10.2590    0.0000 N   0  0  0  0  0  0
    8.1731   11.5581    0.0000 C   0  0  3  0  0  0
    9.6731   11.5581    0.0000 C   0  0  0  0  0  0
   10.4231   12.8571    0.0000 P   0  0  0  0  0  0
   11.1731   14.1561    0.0000 O   0  0  0  0  0  0
   11.7221   12.1071    0.0000 O   0  0  0  0  0  0
    9.1240   13.6071    0.0000 O   0  0  0  0  0  0
    7.4231   12.8571    0.0000 C   0  0  0  0  0  0
    8.1731   14.1561    0.0000 O   0  0  0  0  0  0
    5.9231   12.8571    0.0000 O   0  0  0  0  0  0
    1.2135    2.7256    0.0000 N   0  0  0  0  0  0
    0.7500    1.2990    0.0000 C   0  0  0  0  0  0
  1  2  1  0  0  0
  2  3  2  0  0  0
  2 33  1  0  0  0
  3  4  1  0  0  0
  4  5  2  0  0  0
  5  6  1  0  0  0
  6  7  1  0  0  0
  6 33  2  0  0  0
  7  8  1  0  0  0
  8  9  1  0  0  0
  8 32  2  0  0  0
  9 10  1  0  0  0
 10 11  2  0  0  0
 10 18  1  0  0  0
 11 12  1  0  0  0
 12 13  2  0  0  0
 12 17  1  0  0  0
 13 14  1  0  0  0
 14 15  2  0  0  0
 15 16  1  0  0  0
 15 20  1  0  0  0
 16 17  2  0  0  0
 17 18  1  0  0  0
 18 19  1  0  0  0
 20 21  2  0  0  0
 20 22  1  0  0  0
 22 23  1  0  0  0
 23 24  1  0  0  0
 23 29  1  0  0  0
 24 25  1  0  0  0
 25 26  2  0  0  0
 25 27  1  0  0  0
 25 28  1  0  0  0
 29 30  2  0  0  0
 29 31  1  0  0  0
 32 33  1  0  0  0
M  END
> <s_m_entry_id>
6477

> <s_m_entry_name>
NS3-4A.18

> <CHEMBLID>
CHEMBL106624

> <s_m_Source_Path>
/home/liwei/Desktop/Machine/HCV/Active

> <s_m_Source_File>
NS3-4A.sdf

> <i_m_Source_File_Index>
18

$$$$
CHEMBL106723
                    3D
 Structure written by MMmdl.
 55 58  0  0  1  0            999 V2000
   -2.6401   -3.1891    0.0000 C   0  0  0  0  0  0
   -1.2135   -2.7256    0.0000 N   0  0  0  0  0  0
   -0.0000   -3.6073    0.0000 C   0  0  0  0  0  0
    1.2135   -2.7256    0.0000 N   0  0  0  0  0  0
    0.7500   -1.2990    0.0000 C   0  0  0  0  0  0
    1.5000    0.0000    0.0000 C   0  0  0  0  0  0
    0.7500    1.2990    0.0000 C   0  0  0  0  0  0
   -0.7500    1.2990    0.0000 C   0  0  0  0  0  0
   -1.5000    0.0000    0.0000 C   0  0  0  0  0  0
   -0.7500   -1.2990    0.0000 C   0  0  0  0  0  0
   -1.5000    2.5981    0.0000 C   0  0  0  0  0  0
   -3.0000    2.5981    0.0000 O   0  0  0  0  0  0
   -0.7500    3.8971    0.0000 N   0  0  0  0  0  0
   -1.5000    5.1962    0.0000 C   0  0  3  0  0  0
   -0.7500    6.4952    0.0000 C   0  0  0  0  0  0
   -1.5000    7.7942    0.0000 P   0  0  0  0  0  0
   -2.2500    9.0933    0.0000 O   0  0  0  0  0  0
   -0.2010    8.5442    0.0000 O   0  0  0  0  0  0
   -2.7990    7.0442    0.0000 O   0  0  0  0  0  0
   -3.0000    5.1962    0.0000 C   0  0  0  0  0  0
   -3.7500    3.8971    0.0000 O   0  0  0  0  0  0
   -3.7500    6.4952    0.0000 N   0  0  0  0  0  0
   -5.2500    6.4952    0.0000 C   0  0  3  0  0  0
   -6.0000    7.7942    0.0000 C   0  0  0  0  0  0
   -7.5000    7.7942    0.0000 P   0  0  0  0  0  0
   -9.0000    7.7942    0.0000 O   0  0  0  0  0  0
   -7.5000    9.2942    0.0000 O   0  0  0  0  0  0
   -7.5000    6.2942    0.0000 O   0  0  0  0  0  0
   -6.0000    5.1962    0.0000 C   0  0  0  0  0  0
   -7.5000    5.1962    0.0000 O   0  0  0  0  0  0
   -5.2500    3.8971    0.0000 O   0  0  0  0  0  0
   -0.0000   -5.1073    0.0000 C   0  0  0  0  0  0
   -1.5000   -5.1073    0.0000 F   0  0  0  0  0  0
    1.5000   -5.1073    0.0000 F   0  0  0  0  0  0
   -0.0000   -6.6073    0.0000 C   0  0  0  0  0  0
   -1.2135   -7.4890    0.0000 N   0  0  0  0  0  0
   -0.7500   -8.9156    0.0000 C   0  0  0  0  0  0
   -1.5000  -10.2146    0.0000 C   0  0  0  0  0  0
   -0.7500  -11.5136    0.0000 C   0  0  0  0  0  0
    0.7500  -11.5136    0.0000 C   0  0  0  0  0  0
    1.5000  -10.2146    0.0000 C   0  0  0  0  0  0
    0.7500   -8.9156    0.0000 C   0  0  0  0  0  0
    1.2135   -7.4890    0.0000 N   0  0  0  0  0  0
   -1.5000  -12.8127    0.0000 C   0  0  0  0  0  0
   -0.7500  -14.1117    0.0000 O   0  0  0  0  0  0
   -3.0000  -12.8127    0.0000 N   0  0  0  0  0  0
   -3.7500  -14.1117    0.0000 C   0  0  3  0  0  0
   -5.2500  -14.1117    0.0000 C   0  0  0  0  0  0
   -6.0000  -15.4108    0.0000 P   0  0  0  0  0  0
   -6.7500  -16.7098    0.0000 O   0  0  0  0  0  0
   -7.2990  -14.6608    0.0000 O   0  0  0  0  0  0
   -4.7010  -16.1608    0.0000 O   0  0  0  0  0  0
   -3.0000  -15.4108    0.0000 C   0  0  0  0  0  0
   -3.7500  -16.7098    0.0000 O   0  0  0  0  0  0
   -1.5000  -15.4108    0.0000 O   0  0  0  0  0  0
  1  2  1  0  0  0
  2  3  1  0  0  0
  2 10  1  0  0  0
  3  4  2  0  0  0
  3 32  1  0  0  0
  4  5  1  0  0  0
  5  6  2  0  0  0
  5 10  1  0  0  0
  6  7  1  0  0  0
  7  8  2  0  0  0
  8  9  1  0  0  0
  8 11  1  0  0  0
  9 10  2  0  0  0
 11 12  2  0  0  0
 11 13  1  0  0  0
 13 14  1  0  0  0
 14 15  1  0  0  0
 14 20  1  0  0  0
 15 16  1  0  0  0
 16 17  2  0  0  0
 16 18  1  0  0  0
 16 19  1  0  0  0
 20 21  2  0  0  0
 20 22  1  0  0  0
 22 23  1  0  0  0
 23 24  1  0  0  0
 23 29  1  0  0  0
 24 25  1  0  0  0
 25 26  2  0  0  0
 25 27  1  0  0  0
 25 28  1  0  0  0
 29 30  2  0  0  0
 29 31  1  0  0  0
 32 33  1  0  0  0
 32 34  1  0  0  0
 32 35  1  0  0  0
 35 36  2  0  0  0
 35 43  1  0  0  0
 36 37  1  0  0  0
 37 38  2  0  0  0
 37 42  1  0  0  0
 38 39  1  0  0  0
 39 40  2  0  0  0
 39 44  1  0  0  0
 40 41  1  0  0  0
 41 42  2  0  0  0
 42 43  1  0  0  0
 44 45  2  0  0  0
 44 46  1  0  0  0
 46 47  1  0  0  0
 47 48  1  0  0  0
 47 53  1  0  0  0
 48 49  1  0  0  0
 49 50  2  0  0  0
 49 51  1  0  0  0
 49 52  1  0  0  0
 53 54  2  0  0  0
 53 55  1  0  0  0
M  END
> <s_m_entry_id>
6478

> <s_m_entry_name>
NS3-4A.19

> <CHEMBLID>
CHEMBL106723

> <s_m_Source_Path>
/home/liwei/Desktop/Machine/HCV/Active

> <s_m_Source_File>
NS3-4A.sdf

> <i_m_Source_File_Index>
19

$$$$
CHEMBL106798
                    3D
 Structure written by MMmdl.
 37 40  0  0  1  0            999 V2000
   -2.6401   -3.1891    0.0000 C   0  0  0  0  0  0
   -1.2135   -2.7256    0.0000 N   0  0  0  0  0  0
   -0.0000   -3.6073    0.0000 C   0  0  0  0  0  0
    1.2135   -2.7256    0.0000 N   0  0  0  0  0  0
    0.7500   -1.2990    0.0000 C   0  0  0  0  0  0
    1.5000    0.0000    0.0000 C   0  0  0  0  0  0
    0.7500    1.2990    0.0000 C   0  0  0  0  0  0
   -0.7500    1.2990    0.0000 C   0  0  0  0  0  0
   -1.5000    0.0000    0.0000 C   0  0  0  0  0  0
   -0.7500   -1.2990    0.0000 C   0  0  0  0  0  0
   -1.5000    2.5981    0.0000 C   0  0  0  0  0  0
   -3.0000    2.5981    0.0000 O   0  0  0  0  0  0
   -0.7500    3.8971    0.0000 N   0  0  0  0  0  0
   -1.5000    5.1962    0.0000 C   0  0  3  0  0  0
   -0.7500    6.4952    0.0000 C   0  0  0  0  0  0
   -1.5000    7.7942    0.0000 P   0  0  0  0  0  0
   -2.2500    9.0933    0.0000 O   0  0  0  0  0  0
   -0.2010    8.5442    0.0000 O   0  0  0  0  0  0
   -2.7990    7.0442    0.0000 O   0  0  0  0  0  0
   -3.0000    5.1962    0.0000 C   0  0  0  0  0  0
   -3.7500    6.4952    0.0000 O   0  0  0  0  0  0
   -3.7500    3.8971    0.0000 O   0  0  0  0  0  0
   -0.0000   -5.1073    0.0000 C   0  0  0  0  0  0
   -1.5000   -5.1073    0.0000 F   0  0  0  0  0  0
    1.5000   -5.1073    0.0000 F   0  0  0  0  0  0
   -0.0000   -6.6073    0.0000 C   0  0  0  0  0  0
    1.2135   -7.4890    0.0000 N   0  0  0  0  0  0
    0.7500   -8.9156    0.0000 C   0  0  0  0  0  0
    1.5000  -10.2146    0.0000 C   0  0  0  0  0  0
    3.0000  -10.2146    0.0000 F   0  0  0  0  0  0
    0.7500  -11.5136    0.0000 C   0  0  0  0  0  0
    1.5000  -12.8127    0.0000 F   0  0  0  0  0  0
   -0.7500  -11.5136    0.0000 C   0  0  0  0  0  0
   -1.5000  -10.2146    0.0000 C   0  0  0  0  0  0
   -3.0000  -10.2146    0.0000 F   0  0  0  0  0  0
   -0.7500   -8.9156    0.0000 C   0  0  0  0  0  0
   -1.2135   -7.4890    0.0000 N   0  0  0  0  0  0
  1  2  1  0  0  0
  2  3  1  0  0  0
  2 10  1  0  0  0
  3  4  2  0  0  0
  3 23  1  0  0  0
  4  5  1  0  0  0
  5  6  2  0  0  0
  5 10  1  0  0  0
  6  7  1  0  0  0
  7  8  2  0  0  0
  8  9  1  0  0  0
  8 11  1  0  0  0
  9 10  2  0  0  0
 11 12  2  0  0  0
 11 13  1  0  0  0
 13 14  1  0  0  0
 14 15  1  0  0  0
 14 20  1  0  0  0
 15 16  1  0  0  0
 16 17  2  0  0  0
 16 18  1  0  0  0
 16 19  1  0  0  0
 20 21  2  0  0  0
 20 22  1  0  0  0
 23 24  1  0  0  0
 23 25  1  0  0  0
 23 26  1  0  0  0
 26 27  2  0  0  0
 26 37  1  0  0  0
 27 28  1  0  0  0
 28 29  2  0  0  0
 28 36  1  0  0  0
 29 30  1  0  0  0
 29 31  1  0  0  0
 31 32  1  0  0  0
 31 33  2  0  0  0
 33 34  1  0  0  0
 34 35  1  0  0  0
 34 36  2  0  0  0
 36 37  1  0  0  0
M  END
> <s_m_entry_id>
6479

> <s_m_entry_name>
NS3-4A.20

> <CHEMBLID>
CHEMBL106798

> <s_m_Source_Path>
/home/liwei/Desktop/Machine/HCV/Active

> <s_m_Source_File>
NS3-4A.sdf

> <i_m_Source_File_Index>
20

$$$$
CHEMBL106858
                    3D
 Structure written by MMmdl.
 33 36  0  0  1  0            999 V2000
   -2.6401   -3.1891    0.0000 C   0  0  0  0  0  0
   -1.2135   -2.7256    0.0000 N   0  0  0  0  0  0
   -0.0000   -3.6073    0.0000 C   0  0  0  0  0  0
   -0.0000   -5.1073    0.0000 C   0  0  0  0  0  0
   -1.2990   -5.8573    0.0000 C   0  0  0  0  0  0
   -2.6694   -5.2472    0.0000 N   0  0  0  0  0  0
   -3.6731   -6.3619    0.0000 C   0  0  0  0  0  0
   -5.1731   -6.3619    0.0000 C   0  0  0  0  0  0
   -5.9231   -7.6610    0.0000 C   0  0  0  0  0  0
   -5.1731   -8.9600    0.0000 C   0  0  0  0  0  0
   -3.6731   -8.9600    0.0000 C   0  0  0  0  0  0
   -2.9231   -7.6610    0.0000 C   0  0  0  0  0  0
   -1.4558   -7.3491    0.0000 N   0  0  0  0  0  0
   -0.3411   -8.3528    0.0000 C   0  0  0  0  0  0
   -5.9231  -10.2590    0.0000 C   0  0  0  0  0  0
   -5.1731  -11.5581    0.0000 O   0  0  0  0  0  0
   -7.4231  -10.2590    0.0000 N   0  0  0  0  0  0
   -8.1731  -11.5581    0.0000 C   0  0  3  0  0  0
   -9.6731  -11.5581    0.0000 C   0  0  0  0  0  0
  -10.4231  -12.8571    0.0000 P   0  0  0  0  0  0
  -11.1731  -14.1561    0.0000 O   0  0  0  0  0  0
  -11.7221  -12.1071    0.0000 O   0  0  0  0  0  0
   -9.1240  -13.6071    0.0000 O   0  0  0  0  0  0
   -7.4231  -12.8571    0.0000 C   0  0  0  0  0  0
   -8.1731  -14.1561    0.0000 O   0  0  0  0  0  0
   -5.9231  -12.8571    0.0000 O   0  0  0  0  0  0
    1.2135   -2.7256    0.0000 N   0  0  0  0  0  0
    0.7500   -1.2990    0.0000 C   0  0  0  0  0  0
    1.5000    0.0000    0.0000 C   0  0  0  0  0  0
    0.7500    1.2990    0.0000 C   0  0  0  0  0  0
   -0.7500    1.2990    0.0000 C   0  0  0  0  0  0
   -1.5000    0.0000    0.0000 C   0  0  0  0  0  0
   -0.7500   -1.2990    0.0000 C   0  0  0  0  0  0
  1  2  1  0  0  0
  2  3  1  0  0  0
  2 33  1  0  0  0
  3  4  1  0  0  0
  3 27  2  0  0  0
  4  5  1  0  0  0
  5  6  2  0  0  0
  5 13  1  0  0  0
  6  7  1  0  0  0
  7  8  2  0  0  0
  7 12  1  0  0  0
  8  9  1  0  0  0
  9 10  2  0  0  0
 10 11  1  0  0  0
 10 15  1  0  0  0
 11 12  2  0  0  0
 12 13  1  0  0  0
 13 14  1  0  0  0
 15 16  2  0  0  0
 15 17  1  0  0  0
 17 18  1  0  0  0
 18 19  1  0  0  0
 18 24  1  0  0  0
 19 20  1  0  0  0
 20 21  2  0  0  0
 20 22  1  0  0  0
 20 23  1  0  0  0
 24 25  2  0  0  0
 24 26  1  0  0  0
 27 28  1  0  0  0
 28 29  2  0  0  0
 28 33  1  0  0  0
 29 30  1  0  0  0
 30 31  2  0  0  0
 31 32  1  0  0  0
 32 33  2  0  0  0
M  END
> <s_m_entry_id>
6480

> <s_m_entry_name>
NS3-4A.21

> <CHEMBLID>
CHEMBL106858

> <s_m_Source_Path>
/home/liwei/Desktop/Machine/HCV/Active

> <s_m_Source_File>
NS3-4A.sdf

> <i_m_Source_File_Index>
21

$$$$
CHEMBL106859
                    3D
 Structure written by MMmdl.
 43 46  0  0  1  0            999 V2000
   -2.6401   -3.1891    0.0000 C   0  0  0  0  0  0
   -1.2135   -2.7256    0.0000 N   0  0  0  0  0  0
   -0.0000   -3.6073    0.0000 C   0  0  0  0  0  0
    1.2135   -2.7256    0.0000 N   0  0  0  0  0  0
    0.7500   -1.2990    0.0000 C   0  0  0  0  0  0
    1.5000    0.0000    0.0000 C   0  0  0  0  0  0
    0.7500    1.2990    0.0000 C   0  0  0  0  0  0
   -0.7500    1.2990    0.0000 C   0  0  0  0  0  0
   -1.5000    0.0000    0.0000 C   0  0  0  0  0  0
   -0.7500   -1.2990    0.0000 C   0  0  0  0  0  0
   -1.5000    2.5981    0.0000 C   0  0  0  0  0  0
   -3.0000    2.5981    0.0000 O   0  0  0  0  0  0
   -0.7500    3.8971    0.0000 N   0  0  0  0  0  0
   -1.5000    5.1962    0.0000 C   0  0  3  0  0  0
   -0.7500    6.4952    0.0000 C   0  0  0  0  0  0
   -1.5000    7.7942    0.0000 P   0  0  0  0  0  0
   -2.2500    9.0933    0.0000 O   0  0  0  0  0  0
   -0.2010    8.5442    0.0000 O   0  0  0  0  0  0
   -2.7990    7.0442    0.0000 O   0  0  0  0  0  0
   -3.0000    5.1962    0.0000 C   0  0  0  0  0  0
   -3.7500    3.8971    0.0000 O   0  0  0  0  0  0
   -3.7500    6.4952    0.0000 N   0  0  0  0  0  0
   -5.2500    6.4952    0.0000 C   0  0  3  0  0  0
   -6.0000    7.7942    0.0000 C   0  0  0  0  0  0
   -7.5000    7.7942    0.0000 P   0  0  0  0  0  0
   -9.0000    7.7942    0.0000 O   0  0  0  0  0  0
   -7.5000    9.2942    0.0000 O   0  0  0  0  0  0
   -7.5000    6.2942    0.0000 O   0  0  0  0  0  0
   -6.0000    5.1962    0.0000 C   0  0  0  0  0  0
   -7.5000    5.1962    0.0000 O   0  0  0  0  0  0
   -5.2500    3.8971    0.0000 O   0  0  0  0  0  0
   -0.0000   -5.1073    0.0000 C   0  0  0  0  0  0
   -1.5000   -5.1073    0.0000 F   0  0  0  0  0  0
    1.5000   -5.1073    0.0000 F   0  0  0  0  0  0
   -0.0000   -6.6073    0.0000 C   0  0  0  0  0  0
   -1.2135   -7.4890    0.0000 N   0  0  0  0  0  0
   -0.7500   -8.9156    0.0000 C   0  0  0  0  0  0
   -1.5000  -10.2146    0.0000 C   0  0  0  0  0  0
   -0.7500  -11.5136    0.0000 C   0  0  0  0  0  0
    0.7500  -11.5136    0.0000 C   0  0  0  0  0  0
    1.5000  -10.2146    0.0000 C   0  0  0  0  0  0
    0.7500   -8.9156    0.0000 C   0  0  0  0  0  0
    1.2135   -7.4890    0.0000 N   0  0  0  0  0  0
  1  2  1  0  0  0
  2  3  1  0  0  0
  2 10  1  0  0  0
  3  4  2  0  0  0
  3 32  1  0  0  0
  4  5  1  0  0  0
  5  6  2  0  0  0
  5 10  1  0  0  0
  6  7  1  0  0  0
  7  8  2  0  0  0
  8  9  1  0  0  0
  8 11  1  0  0  0
  9 10  2  0  0  0
 11 12  2  0  0  0
 11 13  1  0  0  0
 13 14  1  0  0  0
 14 15  1  0  0  0
 14 20  1  0  0  0
 15 16  1  0  0  0
 16 17  2  0  0  0
 16 18  1  0  0  0
 16 19  1  0  0  0
 20 21  2  0  0  0
 20 22  1  0  0  0
 22 23  1  0  0  0
 23 24  1  0  0  0
 23 29  1  0  0  0
 24 25  1  0  0  0
 25 26  2  0  0  0
 25 27  1  0  0  0
 25 28  1  0  0  0
 29 30  2  0  0  0
 29 31  1  0  0  0
 32 33  1  0  0  0
 32 34  1  0  0  0
 32 35  1  0  0  0
 35 36  2  0  0  0
 35 43  1  0  0  0
 36 37  1  0  0  0
 37 38  2  0  0  0
 37 42  1  0  0  0
 38 39  1  0  0  0
 39 40  2  0  0  0
 40 41  1  0  0  0
 41 42  2  0  0  0
 42 43  1  0  0  0
M  END
> <s_m_entry_id>
6481

> <s_m_entry_name>
NS3-4A.22

> <CHEMBLID>
CHEMBL106859

> <s_m_Source_Path>
/home/liwei/Desktop/Machine/HCV/Active

> <s_m_Source_File>
NS3-4A.sdf

> <i_m_Source_File_Index>
22

$$$$
CHEMBL106902
                    3D
 Structure written by MMmdl.
 36 39  0  0  1  0            999 V2000
   -6.2961   -1.6453    0.0000 C   0  0  0  0  0  0
   -5.1814   -2.6490    0.0000 C   0  0  0  0  0  0
   -5.4933   -4.1162    0.0000 C   0  0  0  0  0  0
   -3.7548   -2.1855    0.0000 C   0  0  0  0  0  0
   -2.6401   -3.1891    0.0000 C   0  0  0  0  0  0
   -1.2135   -2.7256    0.0000 N   0  0  0  0  0  0
   -0.0000   -3.6073    0.0000 C   0  0  0  0  0  0
   -0.0000   -5.1073    0.0000 C   0  0  0  0  0  0
   -1.2990   -5.8573    0.0000 C   0  0  0  0  0  0
   -2.6694   -5.2472    0.0000 N   0  0  0  0  0  0
   -3.6731   -6.3619    0.0000 C   0  0  0  0  0  0
   -5.1731   -6.3619    0.0000 C   0  0  0  0  0  0
   -5.9231   -7.6610    0.0000 C   0  0  0  0  0  0
   -5.1731   -8.9600    0.0000 C   0  0  0  0  0  0
   -3.6731   -8.9600    0.0000 C   0  0  0  0  0  0
   -2.9231   -7.6610    0.0000 C   0  0  0  0  0  0
   -1.4558   -7.3491    0.0000 N   0  0  0  0  0  0
    1.2135   -2.7256    0.0000 N   0  0  0  0  0  0
    0.7500   -1.2990    0.0000 C   0  0  0  0  0  0
    1.5000    0.0000    0.0000 C   0  0  0  0  0  0
    0.7500    1.2990    0.0000 C   0  0  0  0  0  0
   -0.7500    1.2990    0.0000 C   0  0  0  0  0  0
   -1.5000    0.0000    0.0000 C   0  0  0  0  0  0
   -0.7500   -1.2990    0.0000 C   0  0  0  0  0  0
   -1.5000    2.5981    0.0000 C   0  0  0  0  0  0
   -3.0000    2.5981    0.0000 O   0  0  0  0  0  0
   -0.7500    3.8971    0.0000 N   0  0  0  0  0  0
   -1.5000    5.1962    0.0000 C   0  0  3  0  0  0
   -0.7500    6.4952    0.0000 C   0  0  0  0  0  0
   -1.5000    7.7942    0.0000 P   0  0  0  0  0  0
   -2.2500    9.0933    0.0000 O   0  0  0  0  0  0
   -0.2010    8.5442    0.0000 O   0  0  0  0  0  0
   -2.7990    7.0442    0.0000 O   0  0  0  0  0  0
   -3.0000    5.1962    0.0000 C   0  0  0  0  0  0
   -3.7500    6.4952    0.0000 O   0  0  0  0  0  0
   -3.7500    3.8971    0.0000 O   0  0  0  0  0  0
  1  2  1  0  0  0
  2  3  1  0  0  0
  2  4  1  0  0  0
  4  5  1  0  0  0
  5  6  1  0  0  0
  6  7  1  0  0  0
  6 24  1  0  0  0
  7  8  1  0  0  0
  7 18  2  0  0  0
  8  9  1  0  0  0
  9 10  2  0  0  0
  9 17  1  0  0  0
 10 11  1  0  0  0
 11 12  2  0  0  0
 11 16  1  0  0  0
 12 13  1  0  0  0
 13 14  2  0  0  0
 14 15  1  0  0  0
 15 16  2  0  0  0
 16 17  1  0  0  0
 18 19  1  0  0  0
 19 20  2  0  0  0
 19 24  1  0  0  0
 20 21  1  0  0  0
 21 22  2  0  0  0
 22 23  1  0  0  0
 22 25  1  0  0  0
 23 24  2  0  0  0
 25 26  2  0  0  0
 25 27  1  0  0  0
 27 28  1  0  0  0
 28 29  1  0  0  0
 28 34  1  0  0  0
 29 30  1  0  0  0
 30 31  2  0  0  0
 30 32  1  0  0  0
 30 33  1  0  0  0
 34 35  2  0  0  0
 34 36  1  0  0  0
M  END
> <s_m_entry_id>
6482

> <s_m_entry_name>
NS3-4A.23

> <CHEMBLID>
CHEMBL106902

> <s_m_Source_Path>
/home/liwei/Desktop/Machine/HCV/Active

> <s_m_Source_File>
NS3-4A.sdf

> <i_m_Source_File_Index>
23

$$$$
CHEMBL107274
                    3D
 Structure written by MMmdl.
 48 51  0  0  1  0            999 V2000
    6.0000    2.5981    0.0000 C   0  0  0  0  0  0
    5.2500    1.2990    0.0000 O   0  0  0  0  0  0
    6.0000    0.0000    0.0000 C   0  0  0  0  0  0
    7.5000    0.0000    0.0000 O   0  0  0  0  0  0
    5.2500   -1.2990    0.0000 C   0  0  3  0  0  0
    6.0000   -2.5981    0.0000 C   0  0  0  0  0  0
    7.5000   -2.5981    0.0000 P   0  0  0  0  0  0
    9.0000   -2.5981    0.0000 O   0  0  0  0  0  0
    7.5000   -4.0981    0.0000 O   0  0  0  0  0  0
    7.5000   -1.0981    0.0000 O   0  0  0  0  0  0
    3.7500   -1.2990    0.0000 N   0  0  0  0  0  0
    3.0000    0.0000    0.0000 C   0  0  0  0  0  0
    3.7500    1.2990    0.0000 O   0  0  0  0  0  0
    1.5000    0.0000    0.0000 C   0  0  0  0  0  0
    0.7500   -1.2990    0.0000 C   0  0  0  0  0  0
   -0.7500   -1.2990    0.0000 C   0  0  0  0  0  0
   -1.5000    0.0000    0.0000 C   0  0  0  0  0  0
   -2.9672    0.3119    0.0000 N   0  0  0  0  0  0
   -3.1240    1.8037    0.0000 C   0  0  0  0  0  0
   -1.7537    2.4138    0.0000 N   0  0  0  0  0  0
   -0.7500    1.2990    0.0000 C   0  0  0  0  0  0
    0.7500    1.2990    0.0000 C   0  0  0  0  0  0
   -4.4231    2.5537    0.0000 C   0  0  0  0  0  0
   -3.6731    3.8527    0.0000 F   0  0  0  0  0  0
   -5.1731    1.2546    0.0000 F   0  0  0  0  0  0
   -5.7221    3.3037    0.0000 C   0  0  0  0  0  0
   -5.8789    4.7954    0.0000 N   0  0  0  0  0  0
   -7.3461    5.1073    0.0000 C   0  0  0  0  0  0
   -8.0961    6.4063    0.0000 C   0  0  0  0  0  0
   -9.5961    6.4063    0.0000 C   0  0  0  0  0  0
  -10.3461    5.1073    0.0000 C   0  0  0  0  0  0
   -9.5961    3.8083    0.0000 C   0  0  0  0  0  0
   -8.0961    3.8083    0.0000 C   0  0  0  0  0  0
   -7.0924    2.6935    0.0000 N   0  0  0  0  0  0
   -7.4043    1.2263    0.0000 C   0  0  0  0  0  0
  -11.8461    5.1073    0.0000 C   0  0  0  0  0  0
  -12.5961    3.8083    0.0000 O   0  0  0  0  0  0
  -12.5961    6.4063    0.0000 N   0  0  0  0  0  0
  -14.0961    6.4063    0.0000 C   0  0  3  0  0  0
  -14.8461    7.7054    0.0000 C   0  0  0  0  0  0
  -16.3461    7.7054    0.0000 P   0  0  0  0  0  0
  -17.8461    7.7054    0.0000 O   0  0  0  0  0  0
  -16.3461    9.2054    0.0000 O   0  0  0  0  0  0
  -16.3461    6.2054    0.0000 O   0  0  0  0  0  0
  -14.8461    5.1073    0.0000 C   0  0  0  0  0  0
  -16.3461    5.1073    0.0000 O   0  0  0  0  0  0
  -14.0961    3.8083    0.0000 O   0  0  0  0  0  0
  -14.8461    2.5092    0.0000 C   0  0  0  0  0  0
  1  2  1  0  0  0
  2  3  1  0  0  0
  3  4  2  0  0  0
  3  5  1  0  0  0
  5  6  1  0  0  0
  5 11  1  0  0  0
  6  7  1  0  0  0
  7  8  2  0  0  0
  7  9  1  0  0  0
  7 10  1  0  0  0
 11 12  1  0  0  0
 12 13  2  0  0  0
 12 14  1  0  0  0
 14 15  2  0  0  0
 14 22  1  0  0  0
 15 16  1  0  0  0
 16 17  2  0  0  0
 17 18  1  0  0  0
 17 21  1  0  0  0
 18 19  1  0  0  0
 19 20  2  0  0  0
 19 23  1  0  0  0
 20 21  1  0  0  0
 21 22  2  0  0  0
 23 24  1  0  0  0
 23 25  1  0  0  0
 23 26  1  0  0  0
 26 27  2  0  0  0
 26 34  1  0  0  0
 27 28  1  0  0  0
 28 29  2  0  0  0
 28 33  1  0  0  0
 29 30  1  0  0  0
 30 31  2  0  0  0
 31 32  1  0  0  0
 31 36  1  0  0  0
 32 33  2  0  0  0
 33 34  1  0  0  0
 34 35  1  0  0  0
 36 37  2  0  0  0
 36 38  1  0  0  0
 38 39  1  0  0  0
 39 40  1  0  0  0
 39 45  1  0  0  0
 40 41  1  0  0  0
 41 42  2  0  0  0
 41 43  1  0  0  0
 41 44  1  0  0  0
 45 46  2  0  0  0
 45 47  1  0  0  0
 47 48  1  0  0  0
M  END
> <s_m_entry_id>
6483

> <s_m_entry_name>
NS3-4A.24

> <CHEMBLID>
CHEMBL107274

> <s_m_Source_Path>
/home/liwei/Desktop/Machine/HCV/Active

> <s_m_Source_File>
NS3-4A.sdf

> <i_m_Source_File_Index>
24

$$$$
CHEMBL107294
                    3D
 Structure written by MMmdl.
 34 37  0  0  1  0            999 V2000
    3.7500   -1.2990    0.0000 C   0  0  0  0  0  0
    3.0000    0.0000    0.0000 O   0  0  0  0  0  0
    1.5000    0.0000    0.0000 C   0  0  0  0  0  0
    0.7500   -1.2990    0.0000 C   0  0  0  0  0  0
   -0.7500   -1.2990    0.0000 C   0  0  0  0  0  0
   -1.5000    0.0000    0.0000 C   0  0  0  0  0  0
   -0.7500    1.2990    0.0000 C   0  0  0  0  0  0
   -1.2135    2.7256    0.0000 N   0  0  0  0  0  0
   -0.0000    3.6073    0.0000 C   0  0  0  0  0  0
   -0.0000    5.1073    0.0000 C   0  0  0  0  0  0
    1.2990    5.8573    0.0000 C   0  0  0  0  0  0
    2.6694    5.2472    0.0000 N   0  0  0  0  0  0
    3.6731    6.3619    0.0000 C   0  0  0  0  0  0
    5.1731    6.3619    0.0000 C   0  0  0  0  0  0
    5.9231    7.6610    0.0000 C   0  0  0  0  0  0
    5.1731    8.9600    0.0000 C   0  0  0  0  0  0
    3.6731    8.9600    0.0000 C   0  0  0  0  0  0
    2.9231    7.6610    0.0000 C   0  0  0  0  0  0
    1.4558    7.3491    0.0000 N   0  0  0  0  0  0
    0.3411    8.3528    0.0000 C   0  0  0  0  0  0
    5.9231   10.2590    0.0000 C   0  0  0  0  0  0
    5.1731   11.5581    0.0000 O   0  0  0  0  0  0
    7.4231   10.2590    0.0000 N   0  0  0  0  0  0
    8.1731   11.5581    0.0000 C   0  0  3  0  0  0
    9.6731   11.5581    0.0000 C   0  0  0  0  0  0
   10.4231   12.8571    0.0000 P   0  0  0  0  0  0
   11.1731   14.1561    0.0000 O   0  0  0  0  0  0
   11.7221   12.1071    0.0000 O   0  0  0  0  0  0
    9.1240   13.6071    0.0000 O   0  0  0  0  0  0
    7.4231   12.8571    0.0000 C   0  0  0  0  0  0
    8.1731   14.1561    0.0000 O   0  0  0  0  0  0
    5.9231   12.8571    0.0000 O   0  0  0  0  0  0
    1.2135    2.7256    0.0000 N   0  0  0  0  0  0
    0.7500    1.2990    0.0000 C   0  0  0  0  0  0
  1  2  1  0  0  0
  2  3  1  0  0  0
  3  4  2  0  0  0
  3 34  1  0  0  0
  4  5  1  0  0  0
  5  6  2  0  0  0
  6  7  1  0  0  0
  7  8  1  0  0  0
  7 34  2  0  0  0
  8  9  1  0  0  0
  9 10  1  0  0  0
  9 33  2  0  0  0
 10 11  1  0  0  0
 11 12  2  0  0  0
 11 19  1  0  0  0
 12 13  1  0  0  0
 13 14  2  0  0  0
 13 18  1  0  0  0
 14 15  1  0  0  0
 15 16  2  0  0  0
 16 17  1  0  0  0
 16 21  1  0  0  0
 17 18  2  0  0  0
 18 19  1  0  0  0
 19 20  1  0  0  0
 21 22  2  0  0  0
 21 23  1  0  0  0
 23 24  1  0  0  0
 24 25  1  0  0  0
 24 30  1  0  0  0
 25 26  1  0  0  0
 26 27  2  0  0  0
 26 28  1  0  0  0
 26 29  1  0  0  0
 30 31  2  0  0  0
 30 32  1  0  0  0
 33 34  1  0  0  0
M  END
> <s_m_entry_id>
6484

> <s_m_entry_name>
NS3-4A.25

> <CHEMBLID>
CHEMBL107294

> <s_m_Source_Path>
/home/liwei/Desktop/Machine/HCV/Active

> <s_m_Source_File>
NS3-4A.sdf

> <i_m_Source_File_Index>
25

$$$$
CHEMBL107328
                    3D
 Structure written by MMmdl.
 34 37  0  0  1  0            999 V2000
   -2.6401   -3.1891    0.0000 C   0  0  0  0  0  0
   -1.2135   -2.7256    0.0000 N   0  0  0  0  0  0
   -0.0000   -3.6073    0.0000 C   0  0  0  0  0  0
    1.2135   -2.7256    0.0000 N   0  0  0  0  0  0
    0.7500   -1.2990    0.0000 C   0  0  0  0  0  0
    1.5000    0.0000    0.0000 C   0  0  0  0  0  0
    0.7500    1.2990    0.0000 C   0  0  0  0  0  0
   -0.7500    1.2990    0.0000 C   0  0  0  0  0  0
   -1.5000    0.0000    0.0000 C   0  0  0  0  0  0
   -0.7500   -1.2990    0.0000 C   0  0  0  0  0  0
   -1.5000    2.5981    0.0000 C   0  0  0  0  0  0
   -3.0000    2.5981    0.0000 O   0  0  0  0  0  0
   -0.7500    3.8971    0.0000 N   0  0  0  0  0  0
   -1.5000    5.1962    0.0000 C   0  0  3  0  0  0
   -0.7500    6.4952    0.0000 C   0  0  0  0  0  0
   -1.5000    7.7942    0.0000 P   0  0  0  0  0  0
   -2.2500    9.0933    0.0000 O   0  0  0  0  0  0
   -0.2010    8.5442    0.0000 O   0  0  0  0  0  0
   -2.7990    7.0442    0.0000 O   0  0  0  0  0  0
   -3.0000    5.1962    0.0000 C   0  0  0  0  0  0
   -3.7500    6.4952    0.0000 O   0  0  0  0  0  0
   -3.7500    3.8971    0.0000 O   0  0  0  0  0  0
   -0.0000   -5.1073    0.0000 C   0  0  0  0  0  0
   -1.5000   -5.1073    0.0000 F   0  0  0  0  0  0
    1.5000   -5.1073    0.0000 F   0  0  0  0  0  0
   -0.0000   -6.6073    0.0000 C   0  0  0  0  0  0
   -1.2135   -7.4890    0.0000 N   0  0  0  0  0  0
   -0.7500   -8.9156    0.0000 C   0  0  0  0  0  0
   -1.5000  -10.2146    0.0000 C   0  0  0  0  0  0
   -0.7500  -11.5136    0.0000 C   0  0  0  0  0  0
    0.7500  -11.5136    0.0000 C   0  0  0  0  0  0
    1.5000  -10.2146    0.0000 C   0  0  0  0  0  0
    0.7500   -8.9156    0.0000 C   0  0  0  0  0  0
    1.2135   -7.4890    0.0000 N   0  0  0  0  0  0
  1  2  1  0  0  0
  2  3  1  0  0  0
  2 10  1  0  0  0
  3  4  2  0  0  0
  3 23  1  0  0  0
  4  5  1  0  0  0
  5  6  2  0  0  0
  5 10  1  0  0  0
  6  7  1  0  0  0
  7  8  2  0  0  0
  8  9  1  0  0  0
  8 11  1  0  0  0
  9 10  2  0  0  0
 11 12  2  0  0  0
 11 13  1  0  0  0
 13 14  1  0  0  0
 14 15  1  0  0  0
 14 20  1  0  0  0
 15 16  1  0  0  0
 16 17  2  0  0  0
 16 18  1  0  0  0
 16 19  1  0  0  0
 20 21  2  0  0  0
 20 22  1  0  0  0
 23 24  1  0  0  0
 23 25  1  0  0  0
 23 26  1  0  0  0
 26 27  2  0  0  0
 26 34  1  0  0  0
 27 28  1  0  0  0
 28 29  2  0  0  0
 28 33  1  0  0  0
 29 30  1  0  0  0
 30 31  2  0  0  0
 31 32  1  0  0  0
 32 33  2  0  0  0
 33 34  1  0  0  0
M  END
> <s_m_entry_id>
6485

> <s_m_entry_name>
NS3-4A.26

> <CHEMBLID>
CHEMBL107328

> <s_m_Source_Path>
/home/liwei/Desktop/Machine/HCV/Active

> <s_m_Source_File>
NS3-4A.sdf

> <i_m_Source_File_Index>
26

$$$$
CHEMBL107579
                    3D
 Structure written by MMmdl.
 36 39  0  0  1  0            999 V2000
   -2.6401   -3.1891    0.0000 C   0  0  0  0  0  0
   -1.2135   -2.7256    0.0000 N   0  0  0  0  0  0
   -0.0000   -3.6073    0.0000 C   0  0  0  0  0  0
    1.2135   -2.7256    0.0000 N   0  0  0  0  0  0
    0.7500   -1.2990    0.0000 C   0  0  0  0  0  0
    1.5000    0.0000    0.0000 C   0  0  0  0  0  0
    0.7500    1.2990    0.0000 C   0  0  0  0  0  0
   -0.7500    1.2990    0.0000 C   0  0  0  0  0  0
   -1.5000    0.0000    0.0000 C   0  0  0  0  0  0
   -0.7500   -1.2990    0.0000 C   0  0  0  0  0  0
   -1.5000    2.5981    0.0000 C   0  0  0  0  0  0
   -3.0000    2.5981    0.0000 O   0  0  0  0  0  0
   -0.7500    3.8971    0.0000 N   0  0  0  0  0  0
   -1.5000    5.1962    0.0000 C   0  0  3  0  0  0
   -0.7500    6.4952    0.0000 C   0  0  0  0  0  0
   -1.5000    7.7942    0.0000 P   0  0  0  0  0  0
   -2.2500    9.0933    0.0000 O   0  0  0  0  0  0
   -0.2010    8.5442    0.0000 O   0  0  0  0  0  0
   -2.7990    7.0442    0.0000 O   0  0  0  0  0  0
   -3.0000    5.1962    0.0000 C   0  0  0  0  0  0
   -3.7500    6.4952    0.0000 O   0  0  0  0  0  0
   -3.7500    3.8971    0.0000 O   0  0  0  0  0  0
   -0.0000   -5.1073    0.0000 C   0  0  3  0  0  0
    1.2990   -5.8573    0.0000 F   0  0  0  0  0  0
   -1.2990   -5.8573    0.0000 C   0  0  0  0  0  0
   -1.4558   -7.3491    0.0000 N   0  0  0  0  0  0
   -2.9231   -7.6610    0.0000 C   0  0  0  0  0  0
   -3.6731   -8.9600    0.0000 C   0  0  0  0  0  0
   -2.9231  -10.2590    0.0000 F   0  0  0  0  0  0
   -5.1731   -8.9600    0.0000 C   0  0  0  0  0  0
   -5.9231  -10.2590    0.0000 F   0  0  0  0  0  0
   -5.9231   -7.6610    0.0000 C   0  0  0  0  0  0
   -5.1731   -6.3619    0.0000 C   0  0  0  0  0  0
   -5.9231   -5.0629    0.0000 F   0  0  0  0  0  0
   -3.6731   -6.3619    0.0000 C   0  0  0  0  0  0
   -2.6694   -5.2472    0.0000 N   0  0  0  0  0  0
  1  2  1  0  0  0
  2  3  1  0  0  0
  2 10  1  0  0  0
  3  4  2  0  0  0
  3 23  1  0  0  0
  4  5  1  0  0  0
  5  6  2  0  0  0
  5 10  1  0  0  0
  6  7  1  0  0  0
  7  8  2  0  0  0
  8  9  1  0  0  0
  8 11  1  0  0  0
  9 10  2  0  0  0
 11 12  2  0  0  0
 11 13  1  0  0  0
 13 14  1  0  0  0
 14 15  1  0  0  0
 14 20  1  0  0  0
 15 16  1  0  0  0
 16 17  2  0  0  0
 16 18  1  0  0  0
 16 19  1  0  0  0
 20 21  2  0  0  0
 20 22  1  0  0  0
 23 24  1  0  0  0
 23 25  1  0  0  0
 25 26  2  0  0  0
 25 36  1  0  0  0
 26 27  1  0  0  0
 27 28  2  0  0  0
 27 35  1  0  0  0
 28 29  1  0  0  0
 28 30  1  0  0  0
 30 31  1  0  0  0
 30 32  2  0  0  0
 32 33  1  0  0  0
 33 34  1  0  0  0
 33 35  2  0  0  0
 35 36  1  0  0  0
M  END
> <s_m_entry_id>
6486

> <s_m_entry_name>
NS3-4A.27

> <CHEMBLID>
CHEMBL107579

> <s_m_Source_Path>
/home/liwei/Desktop/Machine/HCV/Active

> <s_m_Source_File>
NS3-4A.sdf

> <i_m_Source_File_Index>
27

$$$$
CHEMBL108012
                    3D
 Structure written by MMmdl.
 36 39  0  0  1  0            999 V2000
   -2.6401   -3.1891    0.0000 C   0  0  0  0  0  0
   -1.2135   -2.7256    0.0000 N   0  0  0  0  0  0
   -0.0000   -3.6073    0.0000 C   0  0  0  0  0  0
    1.2135   -2.7256    0.0000 N   0  0  0  0  0  0
    0.7500   -1.2990    0.0000 C   0  0  0  0  0  0
    1.5000    0.0000    0.0000 C   0  0  0  0  0  0
    0.7500    1.2990    0.0000 C   0  0  0  0  0  0
   -0.7500    1.2990    0.0000 C   0  0  0  0  0  0
   -1.5000    0.0000    0.0000 C   0  0  0  0  0  0
   -0.7500   -1.2990    0.0000 C   0  0  0  0  0  0
   -1.5000    2.5981    0.0000 C   0  0  0  0  0  0
   -3.0000    2.5981    0.0000 O   0  0  0  0  0  0
   -0.7500    3.8971    0.0000 N   0  0  0  0  0  0
   -1.5000    5.1962    0.0000 C   0  0  3  0  0  0
   -0.7500    6.4952    0.0000 C   0  0  0  0  0  0
   -1.5000    7.7942    0.0000 P   0  0  0  0  0  0
   -2.2500    9.0933    0.0000 O   0  0  0  0  0  0
   -0.2010    8.5442    0.0000 O   0  0  0  0  0  0
   -2.7990    7.0442    0.0000 O   0  0  0  0  0  0
   -3.0000    5.1962    0.0000 C   0  0  0  0  0  0
   -3.7500    6.4952    0.0000 O   0  0  0  0  0  0
   -3.7500    3.8971    0.0000 O   0  0  0  0  0  0
   -0.0000   -5.1073    0.0000 C   0  0  0  0  0  0
   -1.5000   -5.1073    0.0000 F   0  0  0  0  0  0
    1.5000   -5.1073    0.0000 F   0  0  0  0  0  0
   -0.0000   -6.6073    0.0000 C   0  0  0  0  0  0
    1.2135   -7.4890    0.0000 N   0  0  0  0  0  0
    0.7500   -8.9156    0.0000 C   0  0  0  0  0  0
    1.5000  -10.2146    0.0000 C   0  0  0  0  0  0
    3.0000  -10.2146    0.0000 F   0  0  0  0  0  0
    0.7500  -11.5136    0.0000 C   0  0  0  0  0  0
   -0.7500  -11.5136    0.0000 C   0  0  0  0  0  0
   -1.5000  -12.8127    0.0000 F   0  0  0  0  0  0
   -1.5000  -10.2146    0.0000 C   0  0  0  0  0  0
   -0.7500   -8.9156    0.0000 C   0  0  0  0  0  0
   -1.2135   -7.4890    0.0000 N   0  0  0  0  0  0
  1  2  1  0  0  0
  2  3  1  0  0  0
  2 10  1  0  0  0
  3  4  2  0  0  0
  3 23  1  0  0  0
  4  5  1  0  0  0
  5  6  2  0  0  0
  5 10  1  0  0  0
  6  7  1  0  0  0
  7  8  2  0  0  0
  8  9  1  0  0  0
  8 11  1  0  0  0
  9 10  2  0  0  0
 11 12  2  0  0  0
 11 13  1  0  0  0
 13 14  1  0  0  0
 14 15  1  0  0  0
 14 20  1  0  0  0
 15 16  1  0  0  0
 16 17  2  0  0  0
 16 18  1  0  0  0
 16 19  1  0  0  0
 20 21  2  0  0  0
 20 22  1  0  0  0
 23 24  1  0  0  0
 23 25  1  0  0  0
 23 26  1  0  0  0
 26 27  2  0  0  0
 26 36  1  0  0  0
 27 28  1  0  0  0
 28 29  2  0  0  0
 28 35  1  0  0  0
 29 30  1  0  0  0
 29 31  1  0  0  0
 31 32  2  0  0  0
 32 33  1  0  0  0
 32 34  1  0  0  0
 34 35  2  0  0  0
 35 36  1  0  0  0
M  END
> <s_m_entry_id>
6487

> <s_m_entry_name>
NS3-4A.28

> <CHEMBLID>
CHEMBL108012

> <s_m_Source_Path>
/home/liwei/Desktop/Machine/HCV/Active

> <s_m_Source_File>
NS3-4A.sdf

> <i_m_Source_File_Index>
28

$$$$
CHEMBL108265
                    3D
 Structure written by MMmdl.
 33 36  0  0  1  0            999 V2000
    3.0000    0.0000    0.0000 C   0  0  0  0  0  0
    1.5000    0.0000    0.0000 C   0  0  0  0  0  0
    0.7500   -1.2990    0.0000 C   0  0  0  0  0  0
   -0.7500   -1.2990    0.0000 C   0  0  0  0  0  0
   -1.5000    0.0000    0.0000 C   0  0  0  0  0  0
   -2.9672    0.3119    0.0000 N   0  0  0  0  0  0
   -3.1240    1.8037    0.0000 C   0  0  0  0  0  0
   -4.4231    2.5537    0.0000 C   0  0  0  0  0  0
   -4.4231    4.0537    0.0000 C   0  0  0  0  0  0
   -3.2095    4.9353    0.0000 N   0  0  0  0  0  0
   -3.6731    6.3619    0.0000 C   0  0  0  0  0  0
   -2.9231    7.6610    0.0000 C   0  0  0  0  0  0
   -3.6731    8.9600    0.0000 C   0  0  0  0  0  0
   -5.1731    8.9600    0.0000 C   0  0  0  0  0  0
   -5.9231    7.6610    0.0000 C   0  0  0  0  0  0
   -5.1731    6.3619    0.0000 C   0  0  0  0  0  0
   -5.6366    4.9353    0.0000 N   0  0  0  0  0  0
   -7.0632    4.4718    0.0000 C   0  0  0  0  0  0
   -5.9231   10.2590    0.0000 C   0  0  0  0  0  0
   -7.4231   10.2590    0.0000 O   0  0  0  0  0  0
   -5.1731   11.5581    0.0000 N   0  0  0  0  0  0
   -5.9231   12.8571    0.0000 C   0  0  3  0  0  0
   -5.1731   14.1561    0.0000 C   0  0  0  0  0  0
   -5.9231   15.4552    0.0000 P   0  0  0  0  0  0
   -6.6731   16.7542    0.0000 O   0  0  0  0  0  0
   -4.6240   16.2052    0.0000 O   0  0  0  0  0  0
   -7.2221   14.7052    0.0000 O   0  0  0  0  0  0
   -7.4231   12.8571    0.0000 C   0  0  0  0  0  0
   -8.1731   14.1561    0.0000 O   0  0  0  0  0  0
   -8.1731   11.5581    0.0000 O   0  0  0  0  0  0
   -1.7537    2.4138    0.0000 N   0  0  0  0  0  0
   -0.7500    1.2990    0.0000 C   0  0  0  0  0  0
    0.7500    1.2990    0.0000 C   0  0  0  0  0  0
  1  2  1  0  0  0
  2  3  2  0  0  0
  2 33  1  0  0  0
  3  4  1  0  0  0
  4  5  2  0  0  0
  5  6  1  0  0  0
  5 32  1  0  0  0
  6  7  1  0  0  0
  7  8  1  0  0  0
  7 31  2  0  0  0
  8  9  1  0  0  0
  9 10  2  0  0  0
  9 17  1  0  0  0
 10 11  1  0  0  0
 11 12  2  0  0  0
 11 16  1  0  0  0
 12 13  1  0  0  0
 13 14  2  0  0  0
 14 15  1  0  0  0
 14 19  1  0  0  0
 15 16  2  0  0  0
 16 17  1  0  0  0
 17 18  1  0  0  0
 19 20  2  0  0  0
 19 21  1  0  0  0
 21 22  1  0  0  0
 22 23  1  0  0  0
 22 28  1  0  0  0
 23 24  1  0  0  0
 24 25  2  0  0  0
 24 26  1  0  0  0
 24 27  1  0  0  0
 28 29  2  0  0  0
 28 30  1  0  0  0
 31 32  1  0  0  0
 32 33  2  0  0  0
M  END
> <s_m_entry_id>
6488

> <s_m_entry_name>
NS3-4A.29

> <CHEMBLID>
CHEMBL108265

> <s_m_Source_Path>
/home/liwei/Desktop/Machine/HCV/Active

> <s_m_Source_File>
NS3-4A.sdf

> <i_m_Source_File_Index>
29

$$$$
CHEMBL111936
                    3D
 Structure written by MMmdl.
 49 50  0  0  1  0            999 V2000
   -1.3871    3.5544    0.0000 C   0  0  0  0  0  0
   -1.8507    2.1278    0.0000 C   0  0  0  0  0  0
   -3.3179    1.8160    0.0000 C   0  0  3  0  0  0
   -3.9280    0.4456    0.0000 C   0  0  2  0  0  0
   -5.4198    0.6024    0.0000 C   0  0  2  0  0  0
   -6.0299   -0.7679    0.0000 C   0  0  0  0  0  0
   -4.9152   -1.7716    0.0000 C   0  0  0  0  0  0
   -3.6161   -1.0216    0.0000 N   0  0  0  0  0  0
   -2.2458   -1.6317    0.0000 C   0  0  0  0  0  0
   -1.0323   -0.7500    0.0000 O   0  0  0  0  0  0
   -2.0890   -3.1235    0.0000 C   0  0  1  0  0  0
   -0.7187   -3.7336    0.0000 N   0  0  0  0  0  0
   -0.5619   -5.2253    0.0000 C   0  0  0  0  0  0
   -1.7754   -6.1070    0.0000 O   0  0  0  0  0  0
    0.8084   -5.8355    0.0000 C   0  0  1  0  0  0
    2.0219   -4.9538    0.0000 N   0  0  0  0  0  0
    3.3923   -5.5639    0.0000 C   0  0  0  0  0  0
    3.5490   -7.0557    0.0000 O   0  0  0  0  0  0
    4.6058   -4.6822    0.0000 C   0  0  2  0  0  0
    5.9761   -5.2923    0.0000 C   0  0  0  0  0  0
    6.1329   -6.7841    0.0000 C   0  0  0  0  0  0
    4.9194   -7.6658    0.0000 O   0  0  0  0  0  0
    7.5032   -7.3942    0.0000 O   0  0  0  0  0  0
    4.4490   -3.1904    0.0000 N   0  0  0  0  0  0
    5.6625   -2.3087    0.0000 C   0  0  0  0  0  0
    7.0328   -2.9188    0.0000 O   0  0  0  0  0  0
    5.5057   -0.8170    0.0000 C   0  0  2  0  0  0
    6.7192    0.0647    0.0000 C   0  0  0  0  0  0
    6.5625    1.5565    0.0000 C   0  0  0  0  0  0
    7.7760    2.4382    0.0000 C   0  0  0  0  0  0
    9.1463    1.8281    0.0000 O   0  0  0  0  0  0
    7.6192    3.9300    0.0000 O   0  0  0  0  0  0
    4.1354   -0.2069    0.0000 N   0  0  0  0  0  0
    3.9786    1.2849    0.0000 C   0  0  0  0  0  0
    5.1921    2.1666    0.0000 O   0  0  0  0  0  0
    2.6083    1.8950    0.0000 C   0  0  0  0  0  0
    0.9652   -7.3272    0.0000 C   0  0  0  0  0  0
    2.3355   -7.9373    0.0000 C   0  0  0  0  0  0
   -0.2483   -8.2089    0.0000 C   0  0  0  0  0  0
   -3.3025   -4.0051    0.0000 C   0  0  0  0  0  0
   -3.1458   -5.4969    0.0000 C   0  0  0  0  0  0
   -4.6729   -3.3950    0.0000 C   0  0  0  0  0  0
   -5.7316    2.0697    0.0000 N   0  0  0  0  0  0
   -4.4326    2.8197    0.0000 C   0  0  0  0  0  0
   -4.2758    4.3114    0.0000 O   0  0  0  0  0  0
   -7.1020    2.6798    0.0000 S   0  0  0  0  0  0
   -6.4919    4.0501    0.0000 O   0  0  0  0  0  0
   -7.7121    1.3094    0.0000 O   0  0  0  0  0  0
   -8.4723    3.2899    0.0000 C   0  0  0  0  0  0
  1  2  1  0  0  0
  2  3  1  0  0  0
  3  4  1  0  0  0
  3 44  1  0  0  0
  4  5  1  0  0  0
  4  8  1  6  0  0
  5  6  1  0  0  0
  5 43  1  1  0  0
  6  7  1  0  0  0
  7  8  1  0  0  0
  8  9  1  0  0  0
  9 10  2  0  0  0
  9 11  1  0  0  0
 11 12  1  0  0  0
 11 40  1  6  0  0
 12 13  1  0  0  0
 13 14  2  0  0  0
 13 15  1  0  0  0
 15 16  1  0  0  0
 15 37  1  6  0  0
 16 17  1  0  0  0
 17 18  2  0  0  0
 17 19  1  0  0  0
 19 20  1  0  0  0
 19 24  1  1  0  0
 20 21  1  0  0  0
 21 22  2  0  0  0
 21 23  1  0  0  0
 24 25  1  0  0  0
 25 26  2  0  0  0
 25 27  1  0  0  0
 27 28  1  0  0  0
 27 33  1  1  0  0
 28 29  1  0  0  0
 29 30  1  0  0  0
 30 31  2  0  0  0
 30 32  1  0  0  0
 33 34  1  0  0  0
 34 35  2  0  0  0
 34 36  1  0  0  0
 37 38  1  0  0  0
 37 39  1  0  0  0
 40 41  1  0  0  0
 40 42  1  0  0  0
 43 44  1  0  0  0
 43 46  1  0  0  0
 44 45  2  0  0  0
 46 47  2  0  0  0
 46 48  2  0  0  0
 46 49  1  0  0  0
M  END
> <s_m_entry_id>
6489

> <s_m_entry_name>
NS3-4A.30

> <CHEMBLID>
CHEMBL111936

> <s_m_Source_Path>
/home/liwei/Desktop/Machine/HCV/Active

> <s_m_Source_File>
NS3-4A.sdf

> <i_m_Source_File_Index>
30

$$$$
CHEMBL112992
                    3D
 Structure written by MMmdl.
 35 36  0  0  1  0            999 V2000
   -6.0000   -7.7942    0.0000 C   0  0  0  0  0  0
   -5.2500   -6.4952    0.0000 C   0  0  0  0  0  0
   -6.0000   -5.1962    0.0000 C   0  0  0  0  0  0
   -3.7500   -6.4952    0.0000 C   0  0  0  0  0  0
   -3.0000   -5.1962    0.0000 C   0  0  2  0  0  0
   -1.5000   -5.1962    0.0000 N   0  0  0  0  0  0
   -0.7500   -3.8971    0.0000 C   0  0  0  0  0  0
   -1.5000   -2.5981    0.0000 O   0  0  0  0  0  0
    0.7500   -3.8971    0.0000 C   0  0  3  0  0  0
    1.5000   -2.5981    0.0000 S   0  0  0  0  0  0
    0.7500   -1.2990    0.0000 C   0  0  0  0  0  0
    1.5000    0.0000    0.0000 C   0  0  0  0  0  0
    0.7500    1.2990    0.0000 C   0  0  0  0  0  0
   -0.7500    1.2990    0.0000 C   0  0  0  0  0  0
   -1.5000    0.0000    0.0000 C   0  0  0  0  0  0
   -0.7500   -1.2990    0.0000 C   0  0  0  0  0  0
    1.5000   -5.1962    0.0000 C   0  0  0  0  0  0
    0.7500   -6.4952    0.0000 C   0  0  0  0  0  0
    1.5000   -7.7942    0.0000 C   0  0  0  0  0  0
    3.0000   -7.7942    0.0000 C   0  0  0  0  0  0
    3.7500   -6.4952    0.0000 C   0  0  0  0  0  0
    3.0000   -5.1962    0.0000 C   0  0  0  0  0  0
   -3.7500   -3.8971    0.0000 C   0  0  0  0  0  0
   -3.0000   -2.5981    0.0000 O   0  0  0  0  0  0
   -5.2500   -3.8971    0.0000 N   0  0  0  0  0  0
   -6.0000   -2.5981    0.0000 C   0  0  1  0  0  0
   -7.5000   -2.5981    0.0000 C   0  0  0  0  0  0
   -8.2500   -3.8971    0.0000 C   0  0  0  0  0  0
   -9.7500   -3.8971    0.0000 F   0  0  0  0  0  0
   -7.5000   -5.1962    0.0000 F   0  0  0  0  0  0
   -5.2500   -1.2990    0.0000 C   0  0  0  0  0  0
   -3.7500   -1.2990    0.0000 O   0  0  0  0  0  0
   -6.0000    0.0000    0.0000 C   0  0  0  0  0  0
   -7.5000    0.0000    0.0000 O   0  0  0  0  0  0
   -5.2500    1.2990    0.0000 O   0  0  0  0  0  0
  1  2  1  0  0  0
  2  3  1  0  0  0
  2  4  1  0  0  0
  4  5  1  0  0  0
  5  6  1  0  0  0
  5 23  1  1  0  0
  6  7  1  0  0  0
  7  8  2  0  0  0
  7  9  1  0  0  0
  9 10  1  0  0  0
  9 17  1  0  0  0
 10 11  1  0  0  0
 11 12  2  0  0  0
 11 16  1  0  0  0
 12 13  1  0  0  0
 13 14  2  0  0  0
 14 15  1  0  0  0
 15 16  2  0  0  0
 17 18  2  0  0  0
 17 22  1  0  0  0
 18 19  1  0  0  0
 19 20  2  0  0  0
 20 21  1  0  0  0
 21 22  2  0  0  0
 23 24  2  0  0  0
 23 25  1  0  0  0
 25 26  1  0  0  0
 26 27  1  0  0  0
 26 31  1  6  0  0
 27 28  1  0  0  0
 28 29  1  0  0  0
 28 30  1  0  0  0
 31 32  2  0  0  0
 31 33  1  0  0  0
 33 34  2  0  0  0
 33 35  1  0  0  0
M  END
> <s_m_entry_id>
6490

> <s_m_entry_name>
NS3-4A.31

> <CHEMBLID>
CHEMBL112992

> <s_m_Source_Path>
/home/liwei/Desktop/Machine/HCV/Active

> <s_m_Source_File>
NS3-4A.sdf

> <i_m_Source_File_Index>
31

$$$$
CHEMBL113467
                    3D
 Structure written by MMmdl.
 30 30  0  0  1  0            999 V2000
    9.7500   -3.8971    0.0000 C   0  0  0  0  0  0
    8.2500   -3.8971    0.0000 C   0  0  0  0  0  0
    7.5000   -5.1962    0.0000 C   0  0  0  0  0  0
    7.5000   -2.5981    0.0000 C   0  0  0  0  0  0
    6.0000   -2.5981    0.0000 C   0  0  2  0  0  0
    5.2500   -1.2990    0.0000 N   0  0  0  0  0  0
    3.7500   -1.2990    0.0000 C   0  0  0  0  0  0
    3.0000   -2.5981    0.0000 O   0  0  0  0  0  0
    3.0000    0.0000    0.0000 C   0  0  2  0  0  0
    3.7500    1.2990    0.0000 O   0  0  0  0  0  0
    1.5000    0.0000    0.0000 C   0  0  0  0  0  0
    0.7500   -1.2990    0.0000 C   0  0  0  0  0  0
   -0.7500   -1.2990    0.0000 C   0  0  0  0  0  0
   -1.5000    0.0000    0.0000 C   0  0  0  0  0  0
   -3.0000    0.0000    0.0000 Cl  0  0  0  0  0  0
   -0.7500    1.2990    0.0000 C   0  0  0  0  0  0
    0.7500    1.2990    0.0000 C   0  0  0  0  0  0
    5.2500   -3.8971    0.0000 C   0  0  0  0  0  0
    3.7500   -3.8971    0.0000 O   0  0  0  0  0  0
    6.0000   -5.1962    0.0000 N   0  0  0  0  0  0
    5.2500   -6.4952    0.0000 C   0  0  1  0  0  0
    6.0000   -7.7942    0.0000 C   0  0  0  0  0  0
    7.5000   -7.7942    0.0000 C   0  0  0  0  0  0
    8.2500   -9.0933    0.0000 F   0  0  0  0  0  0
    8.2500   -6.4952    0.0000 F   0  0  0  0  0  0
    3.7500   -6.4952    0.0000 C   0  0  0  0  0  0
    3.0000   -5.1962    0.0000 O   0  0  0  0  0  0
    3.0000   -7.7942    0.0000 C   0  0  0  0  0  0
    3.7500   -9.0933    0.0000 O   0  0  0  0  0  0
    1.5000   -7.7942    0.0000 O   0  0  0  0  0  0
  1  2  1  0  0  0
  2  3  1  0  0  0
  2  4  1  0  0  0
  4  5  1  0  0  0
  5  6  1  0  0  0
  5 18  1  1  0  0
  6  7  1  0  0  0
  7  8  2  0  0  0
  7  9  1  0  0  0
  9 10  1  0  0  0
  9 11  1  6  0  0
 11 12  2  0  0  0
 11 17  1  0  0  0
 12 13  1  0  0  0
 13 14  2  0  0  0
 14 15  1  0  0  0
 14 16  1  0  0  0
 16 17  2  0  0  0
 18 19  2  0  0  0
 18 20  1  0  0  0
 20 21  1  0  0  0
 21 22  1  0  0  0
 21 26  1  6  0  0
 22 23  1  0  0  0
 23 24  1  0  0  0
 23 25  1  0  0  0
 26 27  2  0  0  0
 26 28  1  0  0  0
 28 29  2  0  0  0
 28 30  1  0  0  0
M  END
> <s_m_entry_id>
6491

> <s_m_entry_name>
NS3-4A.32

> <CHEMBLID>
CHEMBL113467

> <s_m_Source_Path>
/home/liwei/Desktop/Machine/HCV/Active

> <s_m_Source_File>
NS3-4A.sdf

> <i_m_Source_File_Index>
32

$$$$
CHEMBL114125
                    3D
 Structure written by MMmdl.
 28 28  0  0  1  0            999 V2000
    9.5260   -3.8971    0.0000 C   0  0  0  0  0  0
    8.0260   -3.8971    0.0000 C   0  0  0  0  0  0
    7.2760   -5.1962    0.0000 C   0  0  0  0  0  0
    7.2760   -2.5981    0.0000 C   0  0  0  0  0  0
    5.7760   -2.5981    0.0000 C   0  0  2  0  0  0
    5.0260   -1.2990    0.0000 N   0  0  0  0  0  0
    3.5260   -1.2990    0.0000 C   0  0  0  0  0  0
    2.7760   -2.5981    0.0000 O   0  0  0  0  0  0
    2.7760    0.0000    0.0000 C   0  0  2  0  0  0
    3.5260    1.2990    0.0000 O   0  0  0  0  0  0
    1.2760    0.0000    0.0000 C   0  0  0  0  0  0
    0.3943    1.2135    0.0000 C   0  0  0  0  0  0
   -1.0323    0.7500    0.0000 C   0  0  0  0  0  0
   -1.0323   -0.7500    0.0000 C   0  0  0  0  0  0
    0.3943   -1.2135    0.0000 S   0  0  0  0  0  0
    5.0260   -3.8971    0.0000 C   0  0  0  0  0  0
    3.5260   -3.8971    0.0000 O   0  0  0  0  0  0
    5.7760   -5.1962    0.0000 N   0  0  0  0  0  0
    5.0260   -6.4952    0.0000 C   0  0  1  0  0  0
    5.7760   -7.7942    0.0000 C   0  0  0  0  0  0
    7.2760   -7.7942    0.0000 C   0  0  0  0  0  0
    8.0260   -9.0933    0.0000 F   0  0  0  0  0  0
    8.0260   -6.4952    0.0000 F   0  0  0  0  0  0
    3.5260   -6.4952    0.0000 C   0  0  0  0  0  0
    2.7760   -5.1962    0.0000 O   0  0  0  0  0  0
    2.7760   -7.7942    0.0000 C   0  0  0  0  0  0
    3.5260   -9.0933    0.0000 O   0  0  0  0  0  0
    1.2760   -7.7942    0.0000 O   0  0  0  0  0  0
  1  2  1  0  0  0
  2  3  1  0  0  0
  2  4  1  0  0  0
  4  5  1  0  0  0
  5  6  1  0  0  0
  5 16  1  1  0  0
  6  7  1  0  0  0
  7  8  2  0  0  0
  7  9  1  0  0  0
  9 10  1  0  0  0
  9 11  1  1  0  0
 11 12  2  0  0  0
 11 15  1  0  0  0
 12 13  1  0  0  0
 13 14  2  0  0  0
 14 15  1  0  0  0
 16 17  2  0  0  0
 16 18  1  0  0  0
 18 19  1  0  0  0
 19 20  1  0  0  0
 19 24  1  6  0  0
 20 21  1  0  0  0
 21 22  1  0  0  0
 21 23  1  0  0  0
 24 25  2  0  0  0
 24 26  1  0  0  0
 26 27  2  0  0  0
 26 28  1  0  0  0
M  END
> <s_m_entry_id>
6492

> <s_m_entry_name>
NS3-4A.33

> <CHEMBLID>
CHEMBL114125

> <s_m_Source_Path>
/home/liwei/Desktop/Machine/HCV/Active

> <s_m_Source_File>
NS3-4A.sdf

> <i_m_Source_File_Index>
33

$$$$
CHEMBL115495
                    3D
 Structure written by MMmdl.
 37 38  0  0  1  0            999 V2000
    3.7500   -1.2990    0.0000 C   0  0  0  0  0  0
    3.0000    0.0000    0.0000 O   0  0  0  0  0  0
    1.5000    0.0000    0.0000 C   0  0  0  0  0  0
    0.7500   -1.2990    0.0000 C   0  0  0  0  0  0
   -0.7500   -1.2990    0.0000 C   0  0  0  0  0  0
   -1.5000    0.0000    0.0000 C   0  0  0  0  0  0
   -0.7500    1.2990    0.0000 C   0  0  0  0  0  0
    0.7500    1.2990    0.0000 C   0  0  0  0  0  0
   -3.0000    0.0000    0.0000 C   0  0  3  0  0  0
   -3.7500   -1.2990    0.0000 O   0  0  0  0  0  0
   -5.2500   -1.2990    0.0000 C   0  0  0  0  0  0
   -6.0000    0.0000    0.0000 C   0  0  0  0  0  0
   -7.5000    0.0000    0.0000 C   0  0  0  0  0  0
   -8.2500   -1.2990    0.0000 C   0  0  0  0  0  0
   -7.5000   -2.5981    0.0000 C   0  0  0  0  0  0
   -6.0000   -2.5981    0.0000 C   0  0  0  0  0  0
   -3.7500    1.2990    0.0000 C   0  0  0  0  0  0
   -3.0000    2.5981    0.0000 O   0  0  0  0  0  0
   -5.2500    1.2990    0.0000 N   0  0  0  0  0  0
   -6.0000    2.5981    0.0000 C   0  0  1  0  0  0
   -7.5000    2.5981    0.0000 C   0  0  0  0  0  0
   -8.2500    3.8971    0.0000 C   0  0  0  0  0  0
   -9.7500    3.8971    0.0000 C   0  0  0  0  0  0
   -7.5000    5.1962    0.0000 C   0  0  0  0  0  0
   -5.2500    3.8971    0.0000 C   0  0  0  0  0  0
   -3.7500    3.8971    0.0000 O   0  0  0  0  0  0
   -6.0000    5.1962    0.0000 N   0  0  0  0  0  0
   -5.2500    6.4952    0.0000 C   0  0  1  0  0  0
   -6.0000    7.7942    0.0000 C   0  0  0  0  0  0
   -7.5000    7.7942    0.0000 C   0  0  0  0  0  0
   -8.2500    9.0933    0.0000 F   0  0  0  0  0  0
   -8.2500    6.4952    0.0000 F   0  0  0  0  0  0
   -3.7500    6.4952    0.0000 C   0  0  0  0  0  0
   -3.0000    5.1962    0.0000 O   0  0  0  0  0  0
   -3.0000    7.7942    0.0000 C   0  0  0  0  0  0
   -3.7500    9.0933    0.0000 O   0  0  0  0  0  0
   -1.5000    7.7942    0.0000 O   0  0  0  0  0  0
  1  2  1  0  0  0
  2  3  1  0  0  0
  3  4  2  0  0  0
  3  8  1  0  0  0
  4  5  1  0  0  0
  5  6  2  0  0  0
  6  7  1  0  0  0
  6  9  1  0  0  0
  7  8  2  0  0  0
  9 10  1  0  0  0
  9 17  1  0  0  0
 10 11  1  0  0  0
 11 12  2  0  0  0
 11 16  1  0  0  0
 12 13  1  0  0  0
 13 14  2  0  0  0
 14 15  1  0  0  0
 15 16  2  0  0  0
 17 18  2  0  0  0
 17 19  1  0  0  0
 19 20  1  0  0  0
 20 21  1  0  0  0
 20 25  1  6  0  0
 21 22  1  0  0  0
 22 23  1  0  0  0
 22 24  1  0  0  0
 25 26  2  0  0  0
 25 27  1  0  0  0
 27 28  1  0  0  0
 28 29  1  0  0  0
 28 33  1  6  0  0
 29 30  1  0  0  0
 30 31  1  0  0  0
 30 32  1  0  0  0
 33 34  2  0  0  0
 33 35  1  0  0  0
 35 36  2  0  0  0
 35 37  1  0  0  0
M  END
> <s_m_entry_id>
6493

> <s_m_entry_name>
NS3-4A.34

> <CHEMBLID>
CHEMBL115495

> <s_m_Source_Path>
/home/liwei/Desktop/Machine/HCV/Active

> <s_m_Source_File>
NS3-4A.sdf

> <i_m_Source_File_Index>
34

$$$$
CHEMBL116143
                    3D
 Structure written by MMmdl.
 39 39  0  0  1  0            999 V2000
    3.0000    7.7942    0.0000 C   0  0  0  0  0  0
    3.7500    6.4952    0.0000 C   0  0  0  0  0  0
    3.0000    5.1962    0.0000 C   0  0  0  0  0  0
    5.2500    6.4952    0.0000 C   0  0  0  0  0  0
    6.0000    5.1962    0.0000 O   0  0  0  0  0  0
    7.5000    5.1962    0.0000 C   0  0  0  0  0  0
    8.2500    6.4952    0.0000 O   0  0  0  0  0  0
    8.2500    3.8971    0.0000 N   0  0  0  0  0  0
    9.7500    3.8971    0.0000 C   0  0  3  0  0  0
   10.5000    5.1962    0.0000 C   0  0  0  0  0  0
    9.7500    6.4952    0.0000 C   0  0  0  0  0  0
   10.5000    7.7942    0.0000 C   0  0  0  0  0  0
   12.0000    7.7942    0.0000 O   0  0  0  0  0  0
    9.7500    9.0933    0.0000 O   0  0  0  0  0  0
   10.5000    2.5981    0.0000 C   0  0  0  0  0  0
   12.0000    2.5981    0.0000 O   0  0  0  0  0  0
    9.7500    1.2990    0.0000 N   0  0  0  0  0  0
   10.5000    0.0000    0.0000 C   0  0  1  0  0  0
   12.0000    0.0000    0.0000 C   0  0  0  0  0  0
   12.7500   -1.2990    0.0000 C   0  0  0  0  0  0
   14.2500   -1.2990    0.0000 C   0  0  0  0  0  0
   12.0000   -2.5981    0.0000 C   0  0  0  0  0  0
    9.7500   -1.2990    0.0000 C   0  0  0  0  0  0
   10.5000   -2.5981    0.0000 O   0  0  0  0  0  0
    8.2500   -1.2990    0.0000 N   0  0  0  0  0  0
    7.5000   -2.5981    0.0000 C   0  0  3  0  0  0
    8.2500   -3.8971    0.0000 C   0  0  0  0  0  0
    9.7500   -3.8971    0.0000 S   0  0  0  0  0  0
    6.0000   -2.5981    0.0000 C   0  0  0  0  0  0
    5.2500   -3.8971    0.0000 O   0  0  0  0  0  0
    5.2500   -1.2990    0.0000 N   0  0  0  0  0  0
    3.7500   -1.2990    0.0000 C   0  0  0  0  0  0
    3.0000    0.0000    0.0000 C   0  0  0  0  0  0
    1.5000    0.0000    0.0000 C   0  0  0  0  0  0
    0.7500   -1.2990    0.0000 C   0  0  0  0  0  0
   -0.7500   -1.2990    0.0000 C   0  0  0  0  0  0
   -1.5000    0.0000    0.0000 C   0  0  0  0  0  0
   -0.7500    1.2990    0.0000 C   0  0  0  0  0  0
    0.7500    1.2990    0.0000 C   0  0  0  0  0  0
  1  2  1  0  0  0
  2  3  1  0  0  0
  2  4  1  0  0  0
  4  5  1  0  0  0
  5  6  1  0  0  0
  6  7  2  0  0  0
  6  8  1  0  0  0
  8  9  1  0  0  0
  9 10  1  0  0  0
  9 15  1  0  0  0
 10 11  1  0  0  0
 11 12  1  0  0  0
 12 13  2  0  0  0
 12 14  1  0  0  0
 15 16  2  0  0  0
 15 17  1  0  0  0
 17 18  1  0  0  0
 18 19  1  0  0  0
 18 23  1  6  0  0
 19 20  1  0  0  0
 20 21  1  0  0  0
 20 22  1  0  0  0
 23 24  2  0  0  0
 23 25  1  0  0  0
 25 26  1  0  0  0
 26 27  1  0  0  0
 26 29  1  0  0  0
 27 28  1  0  0  0
 29 30  2  0  0  0
 29 31  1  0  0  0
 31 32  1  0  0  0
 32 33  1  0  0  0
 33 34  1  0  0  0
 34 35  2  0  0  0
 34 39  1  0  0  0
 35 36  1  0  0  0
 36 37  2  0  0  0
 37 38  1  0  0  0
 38 39  2  0  0  0
M  END
> <s_m_entry_id>
6494

> <s_m_entry_name>
NS3-4A.35

> <CHEMBLID>
CHEMBL116143

> <s_m_Source_Path>
/home/liwei/Desktop/Machine/HCV/Active

> <s_m_Source_File>
NS3-4A.sdf

> <i_m_Source_File_Index>
35

$$$$
CHEMBL116193
                    3D
 Structure written by MMmdl.
 43 43  0  0  1  0            999 V2000
    5.2500   -1.2990    0.0000 C   0  0  0  0  0  0
    3.7500   -1.2990    0.0000 O   0  0  0  0  0  0
    3.0000    0.0000    0.0000 C   0  0  0  0  0  0
    3.7500    1.2990    0.0000 O   0  0  0  0  0  0
    1.5000    0.0000    0.0000 C   0  0  0  0  0  0
    0.7500   -1.2990    0.0000 C   0  0  0  0  0  0
   -0.7500   -1.2990    0.0000 C   0  0  0  0  0  0
   -1.5000    0.0000    0.0000 C   0  0  0  0  0  0
   -3.0000    0.0000    0.0000 C   0  0  0  0  0  0
   -3.7500    1.2990    0.0000 C   0  0  0  0  0  0
   -5.2500    1.2990    0.0000 N   0  0  0  0  0  0
   -6.0000    2.5981    0.0000 C   0  0  0  0  0  0
   -5.2500    3.8971    0.0000 O   0  0  0  0  0  0
   -7.5000    2.5981    0.0000 C   0  0  3  0  0  0
   -8.2500    3.8971    0.0000 C   0  0  0  0  0  0
   -9.7500    3.8971    0.0000 S   0  0  0  0  0  0
   -8.2500    1.2990    0.0000 N   0  0  0  0  0  0
   -9.7500    1.2990    0.0000 C   0  0  0  0  0  0
  -10.5000    2.5981    0.0000 O   0  0  0  0  0  0
  -10.5000    0.0000    0.0000 C   0  0  2  0  0  0
  -12.0000    0.0000    0.0000 C   0  0  0  0  0  0
  -12.7500   -1.2990    0.0000 C   0  0  0  0  0  0
  -14.2500   -1.2990    0.0000 C   0  0  0  0  0  0
  -12.0000   -2.5981    0.0000 C   0  0  0  0  0  0
   -9.7500   -1.2990    0.0000 N   0  0  0  0  0  0
   -8.2500   -1.2990    0.0000 C   0  0  0  0  0  0
   -7.5000    0.0000    0.0000 O   0  0  0  0  0  0
   -7.5000   -2.5981    0.0000 C   0  0  3  0  0  0
   -6.0000   -2.5981    0.0000 C   0  0  0  0  0  0
   -5.2500   -3.8971    0.0000 C   0  0  0  0  0  0
   -3.7500   -3.8971    0.0000 C   0  0  0  0  0  0
   -3.0000   -2.5981    0.0000 O   0  0  0  0  0  0
   -3.0000   -5.1962    0.0000 O   0  0  0  0  0  0
   -8.2500   -3.8971    0.0000 N   0  0  0  0  0  0
   -7.5000   -5.1962    0.0000 C   0  0  0  0  0  0
   -6.0000   -5.1962    0.0000 O   0  0  0  0  0  0
   -8.2500   -6.4952    0.0000 O   0  0  0  0  0  0
   -7.5000   -7.7942    0.0000 C   0  0  0  0  0  0
   -8.2500   -9.0933    0.0000 C   0  0  0  0  0  0
   -7.5000  -10.3923    0.0000 C   0  0  0  0  0  0
   -9.7500   -9.0933    0.0000 C   0  0  0  0  0  0
   -0.7500    1.2990    0.0000 C   0  0  0  0  0  0
    0.7500    1.2990    0.0000 C   0  0  0  0  0  0
  1  2  1  0  0  0
  2  3  1  0  0  0
  3  4  2  0  0  0
  3  5  1  0  0  0
  5  6  2  0  0  0
  5 43  1  0  0  0
  6  7  1  0  0  0
  7  8  2  0  0  0
  8  9  1  0  0  0
  8 42  1  0  0  0
  9 10  1  0  0  0
 10 11  1  0  0  0
 11 12  1  0  0  0
 12 13  2  0  0  0
 12 14  1  0  0  0
 14 15  1  0  0  0
 14 17  1  0  0  0
 15 16  1  0  0  0
 17 18  1  0  0  0
 18 19  2  0  0  0
 18 20  1  0  0  0
 20 21  1  0  0  0
 20 25  1  1  0  0
 21 22  1  0  0  0
 22 23  1  0  0  0
 22 24  1  0  0  0
 25 26  1  0  0  0
 26 27  2  0  0  0
 26 28  1  0  0  0
 28 29  1  0  0  0
 28 34  1  0  0  0
 29 30  1  0  0  0
 30 31  1  0  0  0
 31 32  2  0  0  0
 31 33  1  0  0  0
 34 35  1  0  0  0
 35 36  2  0  0  0
 35 37  1  0  0  0
 37 38  1  0  0  0
 38 39  1  0  0  0
 39 40  1  0  0  0
 39 41  1  0  0  0
 42 43  2  0  0  0
M  END
> <s_m_entry_id>
6495

> <s_m_entry_name>
NS3-4A.36

> <CHEMBLID>
CHEMBL116193

> <s_m_Source_Path>
/home/liwei/Desktop/Machine/HCV/Active

> <s_m_Source_File>
NS3-4A.sdf

> <i_m_Source_File_Index>
36

$$$$
CHEMBL116239
                    3D
 Structure written by MMmdl.
 44 44  0  0  1  0            999 V2000
    5.2500   -1.2990    0.0000 C   0  0  0  0  0  0
    3.7500   -1.2990    0.0000 O   0  0  0  0  0  0
    3.0000    0.0000    0.0000 C   0  0  0  0  0  0
    3.7500    1.2990    0.0000 O   0  0  0  0  0  0
    1.5000    0.0000    0.0000 C   0  0  0  0  0  0
    0.7500   -1.2990    0.0000 C   0  0  0  0  0  0
   -0.7500   -1.2990    0.0000 C   0  0  0  0  0  0
   -1.5000    0.0000    0.0000 C   0  0  0  0  0  0
   -3.0000    0.0000    0.0000 C   0  0  0  0  0  0
   -3.7500    1.2990    0.0000 C   0  0  0  0  0  0
   -5.2500    1.2990    0.0000 N   0  0  0  0  0  0
   -6.0000    2.5981    0.0000 C   0  0  0  0  0  0
   -5.2500    3.8971    0.0000 O   0  0  0  0  0  0
   -7.5000    2.5981    0.0000 C   0  0  3  0  0  0
   -8.2500    3.8971    0.0000 C   0  0  0  0  0  0
   -9.7500    3.8971    0.0000 S   0  0  0  0  0  0
   -8.2500    1.2990    0.0000 N   0  0  0  0  0  0
   -9.7500    1.2990    0.0000 C   0  0  0  0  0  0
  -10.5000    2.5981    0.0000 O   0  0  0  0  0  0
  -10.5000    0.0000    0.0000 C   0  0  2  0  0  0
  -12.0000    0.0000    0.0000 C   0  0  0  0  0  0
  -12.7500   -1.2990    0.0000 C   0  0  0  0  0  0
  -14.2500   -1.2990    0.0000 C   0  0  0  0  0  0
  -12.0000   -2.5981    0.0000 C   0  0  0  0  0  0
   -9.7500   -1.2990    0.0000 N   0  0  0  0  0  0
   -8.2500   -1.2990    0.0000 C   0  0  0  0  0  0
   -7.5000    0.0000    0.0000 O   0  0  0  0  0  0
   -7.5000   -2.5981    0.0000 C   0  0  3  0  0  0
   -6.0000   -2.5981    0.0000 C   0  0  0  0  0  0
   -5.2500   -3.8971    0.0000 C   0  0  0  0  0  0
   -3.7500   -3.8971    0.0000 C   0  0  0  0  0  0
   -3.0000   -2.5981    0.0000 O   0  0  0  0  0  0
   -3.0000   -5.1962    0.0000 O   0  0  0  0  0  0
   -8.2500   -3.8971    0.0000 N   0  0  0  0  0  0
   -7.5000   -5.1962    0.0000 C   0  0  0  0  0  0
   -6.0000   -5.1962    0.0000 O   0  0  0  0  0  0
   -8.2500   -6.4952    0.0000 O   0  0  0  0  0  0
   -7.5000   -7.7942    0.0000 C   0  0  0  0  0  0
   -8.2500   -9.0933    0.0000 C   0  0  0  0  0  0
   -7.5000  -10.3923    0.0000 C   0  0  0  0  0  0
   -9.7500   -9.0933    0.0000 C   0  0  0  0  0  0
   -0.7500    1.2990    0.0000 C   0  0  0  0  0  0
   -1.5000    2.5981    0.0000 Cl  0  0  0  0  0  0
    0.7500    1.2990    0.0000 C   0  0  0  0  0  0
  1  2  1  0  0  0
  2  3  1  0  0  0
  3  4  2  0  0  0
  3  5  1  0  0  0
  5  6  2  0  0  0
  5 44  1  0  0  0
  6  7  1  0  0  0
  7  8  2  0  0  0
  8  9  1  0  0  0
  8 42  1  0  0  0
  9 10  1  0  0  0
 10 11  1  0  0  0
 11 12  1  0  0  0
 12 13  2  0  0  0
 12 14  1  0  0  0
 14 15  1  0  0  0
 14 17  1  0  0  0
 15 16  1  0  0  0
 17 18  1  0  0  0
 18 19  2  0  0  0
 18 20  1  0  0  0
 20 21  1  0  0  0
 20 25  1  1  0  0
 21 22  1  0  0  0
 22 23  1  0  0  0
 22 24  1  0  0  0
 25 26  1  0  0  0
 26 27  2  0  0  0
 26 28  1  0  0  0
 28 29  1  0  0  0
 28 34  1  0  0  0
 29 30  1  0  0  0
 30 31  1  0  0  0
 31 32  2  0  0  0
 31 33  1  0  0  0
 34 35  1  0  0  0
 35 36  2  0  0  0
 35 37  1  0  0  0
 37 38  1  0  0  0
 38 39  1  0  0  0
 39 40  1  0  0  0
 39 41  1  0  0  0
 42 43  1  0  0  0
 42 44  2  0  0  0
M  END
> <s_m_entry_id>
6496

> <s_m_entry_name>
NS3-4A.37

> <CHEMBLID>
CHEMBL116239

> <s_m_Source_Path>
/home/liwei/Desktop/Machine/HCV/Active

> <s_m_Source_File>
NS3-4A.sdf

> <i_m_Source_File_Index>
37

$$$$
CHEMBL116398
                    3D
 Structure written by MMmdl.
 42 42  0  0  1  0            999 V2000
    3.0000    7.7942    0.0000 C   0  0  0  0  0  0
    3.7500    6.4952    0.0000 C   0  0  0  0  0  0
    3.0000    5.1962    0.0000 C   0  0  0  0  0  0
    5.2500    6.4952    0.0000 C   0  0  0  0  0  0
    6.0000    5.1962    0.0000 O   0  0  0  0  0  0
    7.5000    5.1962    0.0000 C   0  0  0  0  0  0
    8.2500    6.4952    0.0000 O   0  0  0  0  0  0
    8.2500    3.8971    0.0000 N   0  0  0  0  0  0
    9.7500    3.8971    0.0000 C   0  0  3  0  0  0
   10.5000    5.1962    0.0000 C   0  0  0  0  0  0
    9.7500    6.4952    0.0000 C   0  0  0  0  0  0
   10.5000    7.7942    0.0000 C   0  0  0  0  0  0
   12.0000    7.7942    0.0000 O   0  0  0  0  0  0
    9.7500    9.0933    0.0000 O   0  0  0  0  0  0
   10.5000    2.5981    0.0000 C   0  0  0  0  0  0
   12.0000    2.5981    0.0000 O   0  0  0  0  0  0
    9.7500    1.2990    0.0000 N   0  0  0  0  0  0
   10.5000    0.0000    0.0000 C   0  0  1  0  0  0
   12.0000    0.0000    0.0000 C   0  0  0  0  0  0
   12.7500   -1.2990    0.0000 C   0  0  0  0  0  0
   12.0000   -2.5981    0.0000 C   0  0  0  0  0  0
   14.2500   -1.2990    0.0000 C   0  0  0  0  0  0
    9.7500   -1.2990    0.0000 C   0  0  0  0  0  0
   10.5000   -2.5981    0.0000 O   0  0  0  0  0  0
    8.2500   -1.2990    0.0000 N   0  0  0  0  0  0
    7.5000   -2.5981    0.0000 C   0  0  3  0  0  0
    8.2500   -3.8971    0.0000 C   0  0  0  0  0  0
    9.7500   -3.8971    0.0000 S   0  0  0  0  0  0
    6.0000   -2.5981    0.0000 C   0  0  0  0  0  0
    5.2500   -3.8971    0.0000 O   0  0  0  0  0  0
    5.2500   -1.2990    0.0000 N   0  0  0  0  0  0
    3.7500   -1.2990    0.0000 C   0  0  0  0  0  0
    3.0000    0.0000    0.0000 C   0  0  0  0  0  0
    1.5000    0.0000    0.0000 C   0  0  0  0  0  0
    0.7500   -1.2990    0.0000 C   0  0  0  0  0  0
   -0.7500   -1.2990    0.0000 C   0  0  0  0  0  0
   -1.5000    0.0000    0.0000 C   0  0  0  0  0  0
   -0.7500    1.2990    0.0000 C   0  0  0  0  0  0
    0.7500    1.2990    0.0000 C   0  0  0  0  0  0
   -1.5000    2.5981    0.0000 C   0  0  0  0  0  0
   -3.0000    2.5981    0.0000 O   0  0  0  0  0  0
   -0.7500    3.8971    0.0000 O   0  0  0  0  0  0
  1  2  1  0  0  0
  2  3  1  0  0  0
  2  4  1  0  0  0
  4  5  1  0  0  0
  5  6  1  0  0  0
  6  7  2  0  0  0
  6  8  1  0  0  0
  8  9  1  0  0  0
  9 10  1  0  0  0
  9 15  1  0  0  0
 10 11  1  0  0  0
 11 12  1  0  0  0
 12 13  2  0  0  0
 12 14  1  0  0  0
 15 16  2  0  0  0
 15 17  1  0  0  0
 17 18  1  0  0  0
 18 19  1  0  0  0
 18 23  1  6  0  0
 19 20  1  0  0  0
 20 21  1  0  0  0
 20 22  1  0  0  0
 23 24  2  0  0  0
 23 25  1  0  0  0
 25 26  1  0  0  0
 26 27  1  0  0  0
 26 29  1  0  0  0
 27 28  1  0  0  0
 29 30  2  0  0  0
 29 31  1  0  0  0
 31 32  1  0  0  0
 32 33  1  0  0  0
 33 34  1  0  0  0
 34 35  2  0  0  0
 34 39  1  0  0  0
 35 36  1  0  0  0
 36 37  2  0  0  0
 37 38  1  0  0  0
 38 39  2  0  0  0
 38 40  1  0  0  0
 40 41  2  0  0  0
 40 42  1  0  0  0
M  END
> <s_m_entry_id>
6497

> <s_m_entry_name>
NS3-4A.38

> <CHEMBLID>
CHEMBL116398

> <s_m_Source_Path>
/home/liwei/Desktop/Machine/HCV/Active

> <s_m_Source_File>
NS3-4A.sdf

> <i_m_Source_File_Index>
38

$$$$
CHEMBL116399
                    3D
 Structure written by MMmdl.
 40 40  0  0  1  0            999 V2000
   14.2500    1.2990    0.0000 C   0  0  0  0  0  0
   12.7500    1.2990    0.0000 C   0  0  0  0  0  0
   12.0000    2.5981    0.0000 C   0  0  0  0  0  0
   12.0000    0.0000    0.0000 C   0  0  0  0  0  0
   10.5000    0.0000    0.0000 C   0  0  2  0  0  0
    9.7500    1.2990    0.0000 N   0  0  0  0  0  0
    8.2500    1.2990    0.0000 C   0  0  0  0  0  0
    7.5000    0.0000    0.0000 O   0  0  0  0  0  0
    7.5000    2.5981    0.0000 C   0  0  3  0  0  0
    6.0000    2.5981    0.0000 C   0  0  0  0  0  0
    5.2500    3.8971    0.0000 C   0  0  0  0  0  0
    3.7500    3.8971    0.0000 C   0  0  0  0  0  0
    3.0000    2.5981    0.0000 O   0  0  0  0  0  0
    3.0000    5.1962    0.0000 O   0  0  0  0  0  0
    8.2500    3.8971    0.0000 N   0  0  0  0  0  0
    7.5000    5.1962    0.0000 C   0  0  0  0  0  0
    6.0000    5.1962    0.0000 O   0  0  0  0  0  0
    8.2500    6.4952    0.0000 O   0  0  0  0  0  0
    7.5000    7.7942    0.0000 C   0  0  0  0  0  0
    8.7990    8.5442    0.0000 C   0  0  0  0  0  0
    6.2010    7.0442    0.0000 C   0  0  0  0  0  0
    6.7500    9.0933    0.0000 C   0  0  0  0  0  0
    9.7500   -1.2990    0.0000 C   0  0  0  0  0  0
   10.5000   -2.5981    0.0000 O   0  0  0  0  0  0
    8.2500   -1.2990    0.0000 N   0  0  0  0  0  0
    7.5000   -2.5981    0.0000 C   0  0  1  0  0  0
    8.2500   -3.8971    0.0000 C   0  0  0  0  0  0
    9.7500   -3.8971    0.0000 S   0  0  0  0  0  0
    6.0000   -2.5981    0.0000 C   0  0  0  0  0  0
    5.2500   -3.8971    0.0000 O   0  0  0  0  0  0
    5.2500   -1.2990    0.0000 N   0  0  0  0  0  0
    3.7500   -1.2990    0.0000 C   0  0  0  0  0  0
    3.0000    0.0000    0.0000 C   0  0  0  0  0  0
    1.5000    0.0000    0.0000 C   0  0  0  0  0  0
    0.7500   -1.2990    0.0000 C   0  0  0  0  0  0
   -0.7500   -1.2990    0.0000 C   0  0  0  0  0  0
   -1.5000    0.0000    0.0000 C   0  0  0  0  0  0
   -0.7500    1.2990    0.0000 C   0  0  0  0  0  0
    0.7500    1.2990    0.0000 C   0  0  0  0  0  0
    1.5000    2.5981    0.0000 Cl  0  0  0  0  0  0
  1  2  1  0  0  0
  2  3  1  0  0  0
  2  4  1  0  0  0
  4  5  1  0  0  0
  5  6  1  0  0  0
  5 23  1  1  0  0
  6  7  1  0  0  0
  7  8  2  0  0  0
  7  9  1  0  0  0
  9 10  1  0  0  0
  9 15  1  0  0  0
 10 11  1  0  0  0
 11 12  1  0  0  0
 12 13  2  0  0  0
 12 14  1  0  0  0
 15 16  1  0  0  0
 16 17  2  0  0  0
 16 18  1  0  0  0
 18 19  1  0  0  0
 19 20  1  0  0  0
 19 21  1  0  0  0
 19 22  1  0  0  0
 23 24  2  0  0  0
 23 25  1  0  0  0
 25 26  1  0  0  0
 26 27  1  0  0  0
 26 29  1  1  0  0
 27 28  1  0  0  0
 29 30  2  0  0  0
 29 31  1  0  0  0
 31 32  1  0  0  0
 32 33  1  0  0  0
 33 34  1  0  0  0
 34 35  2  0  0  0
 34 39  1  0  0  0
 35 36  1  0  0  0
 36 37  2  0  0  0
 37 38  1  0  0  0
 38 39  2  0  0  0
 39 40  1  0  0  0
M  END
> <s_m_entry_id>
6498

> <s_m_entry_name>
NS3-4A.39

> <CHEMBLID>
CHEMBL116399

> <s_m_Source_Path>
/home/liwei/Desktop/Machine/HCV/Active

> <s_m_Source_File>
NS3-4A.sdf

> <i_m_Source_File_Index>
39

$$$$
CHEMBL116690
                    3D
 Structure written by MMmdl.
 33 32  0  0  1  0            999 V2000
    0.0000    0.0000    0.0000 C   0  0  0  0  0  0
    1.2990    0.7500    0.0000 C   0  0  0  0  0  0
    2.5981   -0.0000    0.0000 C   0  0  0  0  0  0
    1.2990    2.2500    0.0000 C   0  0  0  0  0  0
    2.5981    3.0000    0.0000 C   0  0  1  0  0  0
    3.8971    2.2500    0.0000 N   0  0  0  0  0  0
    5.1962    3.0000    0.0000 C   0  0  0  0  0  0
    5.1962    4.5000    0.0000 O   0  0  0  0  0  0
    6.4952    2.2500    0.0000 C   0  0  2  0  0  0
    6.4952    0.7500    0.0000 N   0  0  0  0  0  0
    7.7942    0.0000    0.0000 C   0  0  0  0  0  0
    9.0933    0.7500    0.0000 O   0  0  0  0  0  0
    7.7942   -1.5000    0.0000 O   0  0  0  0  0  0
    9.0933   -2.2500    0.0000 C   0  0  0  0  0  0
    8.3433   -3.5490    0.0000 C   0  0  0  0  0  0
    9.8433   -0.9510    0.0000 C   0  0  0  0  0  0
   10.3923   -3.0000    0.0000 C   0  0  0  0  0  0
    7.7942    3.0000    0.0000 C   0  0  0  0  0  0
    9.0933    2.2500    0.0000 C   0  0  0  0  0  0
    7.7942    4.5000    0.0000 C   0  0  0  0  0  0
    2.5981    4.5000    0.0000 C   0  0  0  0  0  0
    1.2990    5.2500    0.0000 O   0  0  0  0  0  0
    3.8971    5.2500    0.0000 N   0  0  0  0  0  0
    3.8971    6.7500    0.0000 C   0  0  2  0  0  0
    5.1962    7.5000    0.0000 C   0  0  0  0  0  0
    6.4952    6.7500    0.0000 C   0  0  0  0  0  0
    7.7942    7.5000    0.0000 F   0  0  0  0  0  0
    6.4952    5.2500    0.0000 F   0  0  0  0  0  0
    2.5981    7.5000    0.0000 C   0  0  0  0  0  0
    1.2990    6.7500    0.0000 O   0  0  0  0  0  0
    2.5981    9.0000    0.0000 C   0  0  0  0  0  0
    3.8971    9.7500    0.0000 O   0  0  0  0  0  0
    1.2990    9.7500    0.0000 O   0  0  0  0  0  0
  1  2  1  0  0  0
  2  3  1  0  0  0
  2  4  1  0  0  0
  4  5  1  0  0  0
  5  6  1  0  0  0
  5 21  1  1  0  0
  6  7  1  0  0  0
  7  8  2  0  0  0
  7  9  1  0  0  0
  9 10  1  0  0  0
  9 18  1  6  0  0
 10 11  1  0  0  0
 11 12  2  0  0  0
 11 13  1  0  0  0
 13 14  1  0  0  0
 14 15  1  0  0  0
 14 16  1  0  0  0
 14 17  1  0  0  0
 18 19  1  0  0  0
 18 20  1  0  0  0
 21 22  2  0  0  0
 21 23  1  0  0  0
 23 24  1  0  0  0
 24 25  1  0  0  0
 24 29  1  6  0  0
 25 26  1  0  0  0
 26 27  1  0  0  0
 26 28  1  0  0  0
 29 30  2  0  0  0
 29 31  1  0  0  0
 31 32  2  0  0  0
 31 33  1  0  0  0
M  END
> <s_m_entry_id>
6499

> <s_m_entry_name>
NS3-4A.40

> <CHEMBLID>
CHEMBL116690

> <s_m_Source_Path>
/home/liwei/Desktop/Machine/HCV/Active

> <s_m_Source_File>
NS3-4A.sdf

> <i_m_Source_File_Index>
40

$$$$
CHEMBL120084
                    3D
 Structure written by MMmdl.
 60 60  0  0  1  0            999 V2000
   14.2500    1.2990    0.0000 C   0  0  0  0  0  0
   12.7500    1.2990    0.0000 C   0  0  0  0  0  0
   12.0000    2.5981    0.0000 C   0  0  0  0  0  0
   12.0000    0.0000    0.0000 C   0  0  0  0  0  0
   10.5000    0.0000    0.0000 C   0  0  2  0  0  0
    9.7500   -1.2990    0.0000 N   0  0  0  0  0  0
    8.2500   -1.2990    0.0000 C   0  0  0  0  0  0
    7.5000    0.0000    0.0000 O   0  0  0  0  0  0
    7.5000   -2.5981    0.0000 C   0  0  1  0  0  0
    6.0000   -2.5981    0.0000 N   0  0  0  0  0  0
    5.2500   -1.2990    0.0000 C   0  0  0  0  0  0
    6.0000    0.0000    0.0000 O   0  0  0  0  0  0
    3.7500   -1.2990    0.0000 C   0  0  2  0  0  0
    3.0000    0.0000    0.0000 C   0  0  0  0  0  0
    1.5000    0.0000    0.0000 C   0  0  0  0  0  0
    0.7500   -1.2990    0.0000 C   0  0  0  0  0  0
   -0.7500   -1.2990    0.0000 C   0  0  0  0  0  0
   -1.5000    0.0000    0.0000 C   0  0  0  0  0  0
   -0.7500    1.2990    0.0000 C   0  0  0  0  0  0
    0.7500    1.2990    0.0000 C   0  0  0  0  0  0
    1.5000    2.5981    0.0000 C   0  0  0  0  0  0
    3.0000   -2.5981    0.0000 N   0  0  0  0  0  0
    3.7500   -3.8971    0.0000 C   0  0  0  0  0  0
    5.2500   -3.8971    0.0000 O   0  0  0  0  0  0
    3.0000   -5.1962    0.0000 C   0  0  2  0  0  0
    3.7500   -6.4952    0.0000 C   0  0  0  0  0  0
    3.0000   -7.7942    0.0000 C   0  0  0  0  0  0
    3.7500   -9.0933    0.0000 C   0  0  0  0  0  0
    5.2500   -9.0933    0.0000 O   0  0  0  0  0  0
    3.0000  -10.3923    0.0000 O   0  0  0  0  0  0
    1.5000   -5.1962    0.0000 N   0  0  0  0  0  0
    0.7500   -6.4952    0.0000 C   0  0  0  0  0  0
    1.5000   -7.7942    0.0000 O   0  0  0  0  0  0
   -0.7500   -6.4952    0.0000 C   0  0  2  0  0  0
   -1.5000   -7.7942    0.0000 C   0  0  0  0  0  0
   -0.7500   -9.0933    0.0000 C   0  0  0  0  0  0
    0.7500   -9.0933    0.0000 O   0  0  0  0  0  0
   -1.5000  -10.3923    0.0000 O   0  0  0  0  0  0
   -1.5000   -5.1962    0.0000 N   0  0  0  0  0  0
   -3.0000   -5.1962    0.0000 C   0  0  0  0  0  0
   -3.7500   -6.4952    0.0000 O   0  0  0  0  0  0
   -3.7500   -3.8971    0.0000 C   0  0  0  0  0  0
   -5.2500   -3.8971    0.0000 C   0  0  0  0  0  0
   -6.0000   -2.5981    0.0000 C   0  0  0  0  0  0
   -5.2500   -1.2990    0.0000 O   0  0  0  0  0  0
   -7.5000   -2.5981    0.0000 O   0  0  0  0  0  0
    8.2500   -3.8971    0.0000 C   0  0  0  0  0  0
    9.5490   -3.1471    0.0000 C   0  0  0  0  0  0
    6.9510   -4.6471    0.0000 C   0  0  0  0  0  0
    9.0000   -5.1962    0.0000 C   0  0  0  0  0  0
    9.7500    1.2990    0.0000 C   0  0  0  0  0  0
    8.2500    1.2990    0.0000 O   0  0  0  0  0  0
   10.5000    2.5981    0.0000 N   0  0  0  0  0  0
    9.7500    3.8971    0.0000 C   0  0  2  0  0  0
    8.2500    3.8971    0.0000 N   0  0  0  0  0  0
   10.5000    5.1962    0.0000 C   0  0  0  0  0  0
   12.0000    5.1962    0.0000 O   0  0  0  0  0  0
    9.7500    6.4952    0.0000 C   0  0  0  0  0  0
    8.2500    6.4952    0.0000 O   0  0  0  0  0  0
   10.5000    7.7942    0.0000 N   0  0  0  0  0  0
  1  2  1  0  0  0
  2  3  1  0  0  0
  2  4  1  0  0  0
  4  5  1  0  0  0
  5  6  1  0  0  0
  5 51  1  1  0  0
  6  7  1  0  0  0
  7  8  2  0  0  0
  7  9  1  0  0  0
  9 10  1  0  0  0
  9 47  1  6  0  0
 10 11  1  0  0  0
 11 12  2  0  0  0
 11 13  1  0  0  0
 13 14  1  0  0  0
 13 22  1  1  0  0
 14 15  1  0  0  0
 15 16  2  0  0  0
 15 20  1  0  0  0
 16 17  1  0  0  0
 17 18  2  0  0  0
 18 19  1  0  0  0
 19 20  2  0  0  0
 20 21  1  0  0  0
 22 23  1  0  0  0
 23 24  2  0  0  0
 23 25  1  0  0  0
 25 26  1  0  0  0
 25 31  1  1  0  0
 26 27  1  0  0  0
 27 28  1  0  0  0
 28 29  2  0  0  0
 28 30  1  0  0  0
 31 32  1  0  0  0
 32 33  2  0  0  0
 32 34  1  0  0  0
 34 35  1  0  0  0
 34 39  1  1  0  0
 35 36  1  0  0  0
 36 37  2  0  0  0
 36 38  1  0  0  0
 39 40  1  0  0  0
 40 41  2  0  0  0
 40 42  1  0  0  0
 42 43  1  0  0  0
 43 44  1  0  0  0
 44 45  2  0  0  0
 44 46  1  0  0  0
 47 48  1  0  0  0
 47 49  1  0  0  0
 47 50  1  0  0  0
 51 52  2  0  0  0
 51 53  1  0  0  0
 53 54  1  0  0  0
 54 55  1  0  0  0
 54 56  1  1  0  0
 56 57  2  0  0  0
 56 58  1  0  0  0
 58 59  2  0  0  0
 58 60  1  0  0  0
M  END
> <s_m_entry_id>
6500

> <s_m_entry_name>
NS3-4A.41

> <CHEMBLID>
CHEMBL120084

> <s_m_Source_Path>
/home/liwei/Desktop/Machine/HCV/Active

> <s_m_Source_File>
NS3-4A.sdf

> <i_m_Source_File_Index>
41

$$$$
CHEMBL128918
                    3D
 Structure written by MMmdl.
 48 51  0  0  1  0            999 V2000
  -13.9395   -6.0719    0.0000 C   0  0  0  0  0  0
  -12.7260   -5.1903    0.0000 C   0  0  0  0  0  0
  -11.3556   -5.8004    0.0000 C   0  0  2  0  0  0
  -10.1421   -4.9187    0.0000 N   0  0  0  0  0  0
   -8.7718   -5.5288    0.0000 C   0  0  0  0  0  0
   -8.6150   -7.0206    0.0000 O   0  0  0  0  0  0
   -7.5583   -4.6471    0.0000 C   0  0  2  0  0  0
   -6.1317   -5.1106    0.0000 C   0  0  0  0  0  0
   -5.2500   -3.8971    0.0000 C   0  0  2  0  0  0
   -6.1317   -2.6836    0.0000 C   0  0  0  0  0  0
   -7.5583   -3.1471    0.0000 N   0  0  0  0  0  0
   -8.7718   -2.2654    0.0000 C   0  0  0  0  0  0
  -10.1421   -2.8755    0.0000 O   0  0  0  0  0  0
   -8.6150   -0.7737    0.0000 C   0  0  2  0  0  0
   -9.8285    0.1080    0.0000 N   0  0  0  0  0  0
   -9.6717    1.5998    0.0000 C   0  0  0  0  0  0
   -8.3014    2.2099    0.0000 O   0  0  0  0  0  0
  -10.8853    2.4815    0.0000 C   0  0  2  0  0  0
  -12.2556    1.8714    0.0000 N   0  0  0  0  0  0
  -13.4691    2.7531    0.0000 C   0  0  0  0  0  0
  -13.3123    4.2448    0.0000 O   0  0  0  0  0  0
  -14.8394    2.1430    0.0000 C   0  0  0  0  0  0
  -14.9962    0.6512    0.0000 C   0  0  0  0  0  0
  -16.3665    0.0411    0.0000 N   0  0  0  0  0  0
  -17.5801    0.9227    0.0000 C   0  0  0  0  0  0
  -17.4233    2.4145    0.0000 C   0  0  0  0  0  0
  -16.0529    3.0246    0.0000 N   0  0  0  0  0  0
  -10.7285    3.9733    0.0000 C   0  0  0  0  0  0
  -11.9420    4.8549    0.0000 C   0  0  0  0  0  0
   -9.3581    4.5834    0.0000 C   0  0  0  0  0  0
   -7.2447   -0.1635    0.0000 C   0  0  0  0  0  0
   -7.0879    1.3282    0.0000 C   0  0  0  0  0  0
   -6.0312   -1.0452    0.0000 C   0  0  0  0  0  0
   -3.7500   -3.8971    0.0000 O   0  0  0  0  0  0
   -3.0000   -5.1962    0.0000 C   0  0  0  0  0  0
   -3.7500   -6.4952    0.0000 O   0  0  0  0  0  0
   -1.5000   -5.1962    0.0000 C   0  0  0  0  0  0
   -0.7500   -6.4952    0.0000 C   0  0  0  0  0  0
    0.7500   -6.4952    0.0000 C   0  0  0  0  0  0
    1.5000   -5.1962    0.0000 C   0  0  0  0  0  0
    0.7500   -3.8971    0.0000 C   0  0  0  0  0  0
    1.5000   -2.5981    0.0000 C   0  0  0  0  0  0
    0.7500   -1.2990    0.0000 C   0  0  0  0  0  0
   -0.7500   -1.2990    0.0000 C   0  0  0  0  0  0
   -1.5000   -2.5981    0.0000 C   0  0  0  0  0  0
   -0.7500   -3.8971    0.0000 C   0  0  0  0  0  0
  -11.1988   -7.2921    0.0000 C   0  0  0  0  0  0
  -12.4124   -8.1738    0.0000 O   0  0  0  0  0  0
  1  2  1  0  0  0
  2  3  1  0  0  0
  3  4  1  0  0  0
  3 47  1  1  0  0
  4  5  1  0  0  0
  5  6  2  0  0  0
  5  7  1  0  0  0
  7  8  1  0  0  0
  7 11  1  1  0  0
  8  9  1  0  0  0
  9 10  1  0  0  0
  9 34  1  6  0  0
 10 11  1  0  0  0
 11 12  1  0  0  0
 12 13  2  0  0  0
 12 14  1  0  0  0
 14 15  1  0  0  0
 14 31  1  6  0  0
 15 16  1  0  0  0
 16 17  2  0  0  0
 16 18  1  0  0  0
 18 19  1  0  0  0
 18 28  1  6  0  0
 19 20  1  0  0  0
 20 21  2  0  0  0
 20 22  1  0  0  0
 22 23  2  0  0  0
 22 27  1  0  0  0
 23 24  1  0  0  0
 24 25  2  0  0  0
 25 26  1  0  0  0
 26 27  2  0  0  0
 28 29  1  0  0  0
 28 30  1  0  0  0
 31 32  1  0  0  0
 31 33  1  0  0  0
 34 35  1  0  0  0
 35 36  2  0  0  0
 35 37  1  0  0  0
 37 38  2  0  0  0
 37 46  1  0  0  0
 38 39  1  0  0  0
 39 40  2  0  0  0
 40 41  1  0  0  0
 41 42  2  0  0  0
 41 46  1  0  0  0
 42 43  1  0  0  0
 43 44  2  0  0  0
 44 45  1  0  0  0
 45 46  2  0  0  0
 47 48  2  0  0  0
M  END
> <s_m_entry_id>
6501

> <s_m_entry_name>
NS3-4A.42

> <CHEMBLID>
CHEMBL128918

> <s_m_Source_Path>
/home/liwei/Desktop/Machine/HCV/Active

> <s_m_Source_File>
NS3-4A.sdf

> <i_m_Source_File_Index>
42

$$$$
CHEMBL130326
                    3D
 Structure written by MMmdl.
 55 56  0  0  1  0            999 V2000
    7.7282  -11.6340    0.0000 C   0  0  0  0  0  0
    6.3579  -11.0239    0.0000 C   0  0  0  0  0  0
    6.2011   -9.5322    0.0000 C   0  0  2  0  0  0
    4.8308   -8.9221    0.0000 N   0  0  0  0  0  0
    4.6740   -7.4303    0.0000 C   0  0  0  0  0  0
    5.8875   -6.5486    0.0000 O   0  0  0  0  0  0
    3.3037   -6.8202    0.0000 C   0  0  2  0  0  0
    2.9918   -5.3529    0.0000 C   0  0  0  0  0  0
    1.5000   -5.1962    0.0000 C   0  0  2  0  0  0
    0.8899   -6.5665    0.0000 C   0  0  0  0  0  0
    2.0046   -7.5702    0.0000 N   0  0  0  0  0  0
    1.8478   -9.0619    0.0000 C   0  0  0  0  0  0
    3.0613   -9.9436    0.0000 O   0  0  0  0  0  0
    0.4775   -9.6721    0.0000 C   0  0  1  0  0  0
   -0.7360   -8.7904    0.0000 N   0  0  0  0  0  0
   -2.1063   -9.4005    0.0000 C   0  0  0  0  0  0
   -2.2631  -10.8923    0.0000 O   0  0  0  0  0  0
   -3.3199   -8.5188    0.0000 C   0  0  1  0  0  0
   -3.1631   -7.0270    0.0000 N   0  0  0  0  0  0
   -4.3766   -6.1453    0.0000 C   0  0  0  0  0  0
   -5.7469   -6.7554    0.0000 O   0  0  0  0  0  0
   -4.2198   -4.6536    0.0000 C   0  0  2  0  0  0
   -5.4333   -3.7719    0.0000 C   0  0  0  0  0  0
   -6.8037   -4.3820    0.0000 C   0  0  0  0  0  0
   -6.9604   -5.8738    0.0000 O   0  0  0  0  0  0
   -8.0172   -3.5003    0.0000 O   0  0  0  0  0  0
   -2.8495   -4.0435    0.0000 N   0  0  0  0  0  0
   -2.6927   -2.5517    0.0000 C   0  0  0  0  0  0
   -1.3224   -1.9416    0.0000 O   0  0  0  0  0  0
   -3.9062   -1.6700    0.0000 C   0  0  2  0  0  0
   -3.7494   -0.1782    0.0000 C   0  0  0  0  0  0
   -4.9630    0.7035    0.0000 C   0  0  0  0  0  0
   -4.8062    2.1952    0.0000 C   0  0  0  0  0  0
   -3.4358    2.8054    0.0000 O   0  0  0  0  0  0
   -6.0197    3.0769    0.0000 O   0  0  0  0  0  0
   -5.2765   -2.2801    0.0000 N   0  0  0  0  0  0
   -6.4901   -1.3984    0.0000 C   0  0  0  0  0  0
   -6.3333    0.0934    0.0000 O   0  0  0  0  0  0
   -7.8604   -2.0085    0.0000 C   0  0  0  0  0  0
   -4.6902   -9.1289    0.0000 C   0  0  0  0  0  0
   -5.9037   -8.2472    0.0000 C   0  0  0  0  0  0
   -4.8470  -10.6207    0.0000 C   0  0  0  0  0  0
    0.3207  -11.1638    0.0000 C   0  0  0  0  0  0
   -1.0496  -11.7739    0.0000 C   0  0  0  0  0  0
    1.5342  -12.0455    0.0000 C   0  0  0  0  0  0
    0.7500   -3.8971    0.0000 O   0  0  0  0  0  0
    1.5000   -2.5981    0.0000 C   0  0  0  0  0  0
    0.7500   -1.2990    0.0000 C   0  0  0  0  0  0
    1.5000    0.0000    0.0000 C   0  0  0  0  0  0
    0.7500    1.2990    0.0000 C   0  0  0  0  0  0
   -0.7500    1.2990    0.0000 C   0  0  0  0  0  0
   -1.5000    0.0000    0.0000 C   0  0  0  0  0  0
   -0.7500   -1.2990    0.0000 C   0  0  0  0  0  0
    7.4146   -8.6505    0.0000 C   0  0  0  0  0  0
    8.7849   -9.2606    0.0000 O   0  0  0  0  0  0
  1  2  1  0  0  0
  2  3  1  0  0  0
  3  4  1  0  0  0
  3 54  1  1  0  0
  4  5  1  0  0  0
  5  6  2  0  0  0
  5  7  1  0  0  0
  7  8  1  0  0  0
  7 11  1  1  0  0
  8  9  1  0  0  0
  9 10  1  0  0  0
  9 46  1  6  0  0
 10 11  1  0  0  0
 11 12  1  0  0  0
 12 13  2  0  0  0
 12 14  1  0  0  0
 14 15  1  0  0  0
 14 43  1  6  0  0
 15 16  1  0  0  0
 16 17  2  0  0  0
 16 18  1  0  0  0
 18 19  1  0  0  0
 18 40  1  6  0  0
 19 20  1  0  0  0
 20 21  2  0  0  0
 20 22  1  0  0  0
 22 23  1  0  0  0
 22 27  1  1  0  0
 23 24  1  0  0  0
 24 25  2  0  0  0
 24 26  1  0  0  0
 27 28  1  0  0  0
 28 29  2  0  0  0
 28 30  1  0  0  0
 30 31  1  0  0  0
 30 36  1  1  0  0
 31 32  1  0  0  0
 32 33  1  0  0  0
 33 34  2  0  0  0
 33 35  1  0  0  0
 36 37  1  0  0  0
 37 38  2  0  0  0
 37 39  1  0  0  0
 40 41  1  0  0  0
 40 42  1  0  0  0
 43 44  1  0  0  0
 43 45  1  0  0  0
 46 47  1  0  0  0
 47 48  1  0  0  0
 48 49  2  0  0  0
 48 53  1  0  0  0
 49 50  1  0  0  0
 50 51  2  0  0  0
 51 52  1  0  0  0
 52 53  2  0  0  0
 54 55  2  0  0  0
M  END
> <s_m_entry_id>
6502

> <s_m_entry_name>
NS3-4A.43

> <CHEMBLID>
CHEMBL130326

> <s_m_Source_Path>
/home/liwei/Desktop/Machine/HCV/Active

> <s_m_Source_File>
NS3-4A.sdf

> <i_m_Source_File_Index>
43

$$$$
CHEMBL130397
                    3D
 Structure written by MMmdl.
 42 44  0  0  1  0            999 V2000
    8.9985    2.5266    0.0000 C   0  0  0  0  0  0
    9.4620    1.1000    0.0000 C   0  0  0  0  0  0
    8.4583   -0.0147    0.0000 C   0  0  2  0  0  0
    8.9218   -1.4413    0.0000 N   0  0  0  0  0  0
    7.9182   -2.5560    0.0000 C   0  0  0  0  0  0
    6.4509   -2.2442    0.0000 O   0  0  0  0  0  0
    8.3817   -3.9826    0.0000 C   0  0  2  0  0  0
    9.8083   -4.4462    0.0000 C   0  0  0  0  0  0
    9.8083   -5.9462    0.0000 C   0  0  2  0  0  0
    8.3817   -6.4097    0.0000 C   0  0  0  0  0  0
    7.5000   -5.1962    0.0000 N   0  0  0  0  0  0
    6.0000   -5.1962    0.0000 C   0  0  0  0  0  0
    5.2500   -3.8971    0.0000 O   0  0  0  0  0  0
    5.2500   -6.4952    0.0000 C   0  0  2  0  0  0
    3.7500   -6.4952    0.0000 N   0  0  0  0  0  0
    3.0000   -5.1962    0.0000 C   0  0  0  0  0  0
    3.7500   -3.8971    0.0000 O   0  0  0  0  0  0
    1.5000   -5.1962    0.0000 C   0  0  2  0  0  0
    0.7500   -3.8971    0.0000 N   0  0  0  0  0  0
    1.5000   -2.5981    0.0000 C   0  0  0  0  0  0
    3.0000   -2.5981    0.0000 O   0  0  0  0  0  0
    0.7500   -1.2990    0.0000 C   0  0  0  0  0  0
    1.5000   -0.0000    0.0000 C   0  0  0  0  0  0
    0.7500    1.2990    0.0000 N   0  0  0  0  0  0
   -0.7500    1.2990    0.0000 C   0  0  0  0  0  0
   -1.5000    0.0000    0.0000 C   0  0  0  0  0  0
   -0.7500   -1.2990    0.0000 N   0  0  0  0  0  0
    0.7500   -6.4952    0.0000 C   0  0  0  0  0  0
    1.5000   -7.7942    0.0000 C   0  0  0  0  0  0
   -0.7500   -6.4952    0.0000 C   0  0  0  0  0  0
    6.0000   -7.7942    0.0000 C   0  0  0  0  0  0
    7.5000   -7.7942    0.0000 C   0  0  0  0  0  0
    5.2500   -9.0933    0.0000 C   0  0  0  0  0  0
   11.0218   -6.8278    0.0000 O   0  0  0  0  0  0
   12.3921   -6.2177    0.0000 C   0  0  0  0  0  0
   12.5489   -4.7259    0.0000 C   0  0  0  0  0  0
   13.9192   -4.1158    0.0000 C   0  0  0  0  0  0
   15.1327   -4.9975    0.0000 C   0  0  0  0  0  0
   14.9760   -6.4893    0.0000 C   0  0  0  0  0  0
   13.6056   -7.0994    0.0000 C   0  0  0  0  0  0
    6.9911    0.2971    0.0000 C   0  0  0  0  0  0
    6.5276    1.7237    0.0000 O   0  0  0  0  0  0
  1  2  1  0  0  0
  2  3  1  0  0  0
  3  4  1  0  0  0
  3 41  1  1  0  0
  4  5  1  0  0  0
  5  6  2  0  0  0
  5  7  1  0  0  0
  7  8  1  0  0  0
  7 11  1  1  0  0
  8  9  1  0  0  0
  9 10  1  0  0  0
  9 34  1  6  0  0
 10 11  1  0  0  0
 11 12  1  0  0  0
 12 13  2  0  0  0
 12 14  1  0  0  0
 14 15  1  0  0  0
 14 31  1  6  0  0
 15 16  1  0  0  0
 16 17  2  0  0  0
 16 18  1  0  0  0
 18 19  1  0  0  0
 18 28  1  6  0  0
 19 20  1  0  0  0
 20 21  2  0  0  0
 20 22  1  0  0  0
 22 23  2  0  0  0
 22 27  1  0  0  0
 23 24  1  0  0  0
 24 25  2  0  0  0
 25 26  1  0  0  0
 26 27  2  0  0  0
 28 29  1  0  0  0
 28 30  1  0  0  0
 31 32  1  0  0  0
 31 33  1  0  0  0
 34 35  1  0  0  0
 35 36  2  0  0  0
 35 40  1  0  0  0
 36 37  1  0  0  0
 37 38  2  0  0  0
 38 39  1  0  0  0
 39 40  2  0  0  0
 41 42  2  0  0  0
M  END
> <s_m_entry_id>
6503

> <s_m_entry_name>
NS3-4A.44

> <CHEMBLID>
CHEMBL130397

> <s_m_Source_Path>
/home/liwei/Desktop/Machine/HCV/Active

> <s_m_Source_File>
NS3-4A.sdf

> <i_m_Source_File_Index>
44

$$$$
CHEMBL131943
                    3D
 Structure written by MMmdl.
 47 49  0  0  1  0            999 V2000
    8.9985  -12.9189    0.0000 C   0  0  0  0  0  0
    9.4620  -11.4923    0.0000 C   0  0  0  0  0  0
    8.4583  -10.3776    0.0000 C   0  0  2  0  0  0
    8.9218   -8.9510    0.0000 N   0  0  0  0  0  0
    7.9182   -7.8363    0.0000 C   0  0  0  0  0  0
    6.4509   -8.1481    0.0000 O   0  0  0  0  0  0
    8.3817   -6.4097    0.0000 C   0  0  2  0  0  0
    9.8083   -5.9462    0.0000 C   0  0  0  0  0  0
    9.8083   -4.4462    0.0000 C   0  0  2  0  0  0
    8.3817   -3.9826    0.0000 C   0  0  0  0  0  0
    7.5000   -5.1962    0.0000 N   0  0  0  0  0  0
    6.0000   -5.1962    0.0000 C   0  0  0  0  0  0
    5.2500   -6.4952    0.0000 O   0  0  0  0  0  0
    5.2500   -3.8971    0.0000 C   0  0  2  0  0  0
    3.7500   -3.8971    0.0000 N   0  0  0  0  0  0
    3.0000   -5.1962    0.0000 C   0  0  0  0  0  0
    3.7500   -6.4952    0.0000 O   0  0  0  0  0  0
    1.5000   -5.1962    0.0000 C   0  0  2  0  0  0
    0.7500   -6.4952    0.0000 N   0  0  0  0  0  0
    1.5000   -7.7942    0.0000 C   0  0  0  0  0  0
    3.0000   -7.7942    0.0000 O   0  0  0  0  0  0
    0.7500   -9.0933    0.0000 C   0  0  0  0  0  0
    1.5000  -10.3923    0.0000 C   0  0  0  0  0  0
    0.7500  -11.6913    0.0000 N   0  0  0  0  0  0
   -0.7500  -11.6913    0.0000 C   0  0  0  0  0  0
   -1.5000  -10.3923    0.0000 C   0  0  0  0  0  0
   -0.7500   -9.0933    0.0000 N   0  0  0  0  0  0
    0.7500   -3.8971    0.0000 C   0  0  0  0  0  0
    1.5000   -2.5981    0.0000 C   0  0  0  0  0  0
   -0.7500   -3.8971    0.0000 C   0  0  0  0  0  0
    6.0000   -2.5981    0.0000 C   0  0  0  0  0  0
    7.5000   -2.5981    0.0000 C   0  0  0  0  0  0
    5.2500   -1.2990    0.0000 C   0  0  0  0  0  0
   11.0218   -3.5645    0.0000 O   0  0  0  0  0  0
   12.3921   -4.1746    0.0000 C   0  0  0  0  0  0
   12.5489   -5.6664    0.0000 O   0  0  0  0  0  0
   13.6056   -3.2929    0.0000 N   0  0  0  0  0  0
   14.9760   -3.9030    0.0000 C   0  0  0  0  0  0
   15.1327   -5.3948    0.0000 C   0  0  0  0  0  0
   16.5031   -6.0049    0.0000 C   0  0  0  0  0  0
   16.6599   -7.4967    0.0000 Cl  0  0  0  0  0  0
   17.7166   -5.1232    0.0000 C   0  0  0  0  0  0
   17.5598   -3.6314    0.0000 C   0  0  0  0  0  0
   16.1895   -3.0213    0.0000 C   0  0  0  0  0  0
   16.0327   -1.5295    0.0000 Cl  0  0  0  0  0  0
    6.9911  -10.6894    0.0000 C   0  0  0  0  0  0
    6.5276  -12.1160    0.0000 O   0  0  0  0  0  0
  1  2  1  0  0  0
  2  3  1  0  0  0
  3  4  1  0  0  0
  3 46  1  1  0  0
  4  5  1  0  0  0
  5  6  2  0  0  0
  5  7  1  0  0  0
  7  8  1  0  0  0
  7 11  1  1  0  0
  8  9  1  0  0  0
  9 10  1  0  0  0
  9 34  1  6  0  0
 10 11  1  0  0  0
 11 12  1  0  0  0
 12 13  2  0  0  0
 12 14  1  0  0  0
 14 15  1  0  0  0
 14 31  1  6  0  0
 15 16  1  0  0  0
 16 17  2  0  0  0
 16 18  1  0  0  0
 18 19  1  0  0  0
 18 28  1  6  0  0
 19 20  1  0  0  0
 20 21  2  0  0  0
 20 22  1  0  0  0
 22 23  2  0  0  0
 22 27  1  0  0  0
 23 24  1  0  0  0
 24 25  2  0  0  0
 25 26  1  0  0  0
 26 27  2  0  0  0
 28 29  1  0  0  0
 28 30  1  0  0  0
 31 32  1  0  0  0
 31 33  1  0  0  0
 34 35  1  0  0  0
 35 36  2  0  0  0
 35 37  1  0  0  0
 37 38  1  0  0  0
 38 39  2  0  0  0
 38 44  1  0  0  0
 39 40  1  0  0  0
 40 41  1  0  0  0
 40 42  2  0  0  0
 42 43  1  0  0  0
 43 44  2  0  0  0
 44 45  1  0  0  0
 46 47  2  0  0  0
M  END
> <s_m_entry_id>
6504

> <s_m_entry_name>
NS3-4A.45

> <CHEMBLID>
CHEMBL131943

> <s_m_Source_Path>
/home/liwei/Desktop/Machine/HCV/Active

> <s_m_Source_File>
NS3-4A.sdf

> <i_m_Source_File_Index>
45

$$$$
CHEMBL133516
                    3D
 Structure written by MMmdl.
 48 51  0  0  1  0            999 V2000
  -13.9395   -6.0719    0.0000 C   0  0  0  0  0  0
  -12.7260   -5.1903    0.0000 C   0  0  0  0  0  0
  -11.3556   -5.8004    0.0000 C   0  0  2  0  0  0
  -10.1421   -4.9187    0.0000 N   0  0  0  0  0  0
   -8.7718   -5.5288    0.0000 C   0  0  0  0  0  0
   -8.6150   -7.0206    0.0000 O   0  0  0  0  0  0
   -7.5583   -4.6471    0.0000 C   0  0  2  0  0  0
   -6.1317   -5.1106    0.0000 C   0  0  0  0  0  0
   -5.2500   -3.8971    0.0000 C   0  0  2  0  0  0
   -6.1317   -2.6836    0.0000 C   0  0  0  0  0  0
   -7.5583   -3.1471    0.0000 N   0  0  0  0  0  0
   -8.7718   -2.2654    0.0000 C   0  0  0  0  0  0
  -10.1421   -2.8755    0.0000 O   0  0  0  0  0  0
   -8.6150   -0.7737    0.0000 C   0  0  2  0  0  0
   -9.8285    0.1080    0.0000 N   0  0  0  0  0  0
   -9.6717    1.5998    0.0000 C   0  0  0  0  0  0
   -8.3014    2.2099    0.0000 O   0  0  0  0  0  0
  -10.8853    2.4815    0.0000 C   0  0  2  0  0  0
  -12.2556    1.8714    0.0000 N   0  0  0  0  0  0
  -13.4691    2.7531    0.0000 C   0  0  0  0  0  0
  -13.3123    4.2448    0.0000 O   0  0  0  0  0  0
  -14.8394    2.1430    0.0000 C   0  0  0  0  0  0
  -14.9962    0.6512    0.0000 C   0  0  0  0  0  0
  -16.3665    0.0411    0.0000 N   0  0  0  0  0  0
  -17.5801    0.9227    0.0000 C   0  0  0  0  0  0
  -17.4233    2.4145    0.0000 C   0  0  0  0  0  0
  -16.0529    3.0246    0.0000 N   0  0  0  0  0  0
  -10.7285    3.9733    0.0000 C   0  0  0  0  0  0
  -11.9420    4.8549    0.0000 C   0  0  0  0  0  0
   -9.3581    4.5834    0.0000 C   0  0  0  0  0  0
   -7.2447   -0.1635    0.0000 C   0  0  0  0  0  0
   -7.0879    1.3282    0.0000 C   0  0  0  0  0  0
   -6.0312   -1.0452    0.0000 C   0  0  0  0  0  0
   -3.7500   -3.8971    0.0000 O   0  0  0  0  0  0
   -3.0000   -5.1962    0.0000 C   0  0  0  0  0  0
   -3.7500   -6.4952    0.0000 O   0  0  0  0  0  0
   -1.5000   -5.1962    0.0000 N   0  0  0  0  0  0
   -0.7500   -6.4952    0.0000 C   0  0  0  0  0  0
    0.7500   -6.4952    0.0000 C   0  0  0  0  0  0
    1.5000   -5.1962    0.0000 C   0  0  0  0  0  0
    0.7500   -3.8971    0.0000 C   0  0  0  0  0  0
    1.5000   -2.5981    0.0000 C   0  0  0  0  0  0
    0.7500   -1.2990    0.0000 C   0  0  0  0  0  0
   -0.7500   -1.2990    0.0000 C   0  0  0  0  0  0
   -1.5000   -2.5981    0.0000 C   0  0  0  0  0  0
   -0.7500   -3.8971    0.0000 C   0  0  0  0  0  0
  -11.1988   -7.2921    0.0000 C   0  0  0  0  0  0
  -12.4124   -8.1738    0.0000 O   0  0  0  0  0  0
  1  2  1  0  0  0
  2  3  1  0  0  0
  3  4  1  0  0  0
  3 47  1  1  0  0
  4  5  1  0  0  0
  5  6  2  0  0  0
  5  7  1  0  0  0
  7  8  1  0  0  0
  7 11  1  1  0  0
  8  9  1  0  0  0
  9 10  1  0  0  0
  9 34  1  6  0  0
 10 11  1  0  0  0
 11 12  1  0  0  0
 12 13  2  0  0  0
 12 14  1  0  0  0
 14 15  1  0  0  0
 14 31  1  6  0  0
 15 16  1  0  0  0
 16 17  2  0  0  0
 16 18  1  0  0  0
 18 19  1  0  0  0
 18 28  1  6  0  0
 19 20  1  0  0  0
 20 21  2  0  0  0
 20 22  1  0  0  0
 22 23  2  0  0  0
 22 27  1  0  0  0
 23 24  1  0  0  0
 24 25  2  0  0  0
 25 26  1  0  0  0
 26 27  2  0  0  0
 28 29  1  0  0  0
 28 30  1  0  0  0
 31 32  1  0  0  0
 31 33  1  0  0  0
 34 35  1  0  0  0
 35 36  2  0  0  0
 35 37  1  0  0  0
 37 38  1  0  0  0
 37 46  1  0  0  0
 38 39  1  0  0  0
 39 40  1  0  0  0
 40 41  1  0  0  0
 41 42  2  0  0  0
 41 46  1  0  0  0
 42 43  1  0  0  0
 43 44  2  0  0  0
 44 45  1  0  0  0
 45 46  2  0  0  0
 47 48  2  0  0  0
M  END
> <s_m_entry_id>
6505

> <s_m_entry_name>
NS3-4A.46

> <CHEMBLID>
CHEMBL133516

> <s_m_Source_Path>
/home/liwei/Desktop/Machine/HCV/Active

> <s_m_Source_File>
NS3-4A.sdf

> <i_m_Source_File_Index>
46

$$$$
CHEMBL159723
                    3D
 Structure written by MMmdl.
 64 66  0  0  1  0            999 V2000
    1.5000    0.0000    0.0000 C   0  0  0  0  0  0
    0.7500   -1.2990    0.0000 C   0  0  0  0  0  0
    1.5000   -2.5981    0.0000 C   0  0  2  0  0  0
    0.7500   -3.8971    0.0000 N   0  0  0  0  0  0
    1.5000   -5.1962    0.0000 C   0  0  0  0  0  0
    3.0000   -5.1962    0.0000 O   0  0  0  0  0  0
    0.7500   -6.4952    0.0000 C   0  0  2  0  0  0
    1.5000   -7.7942    0.0000 C   0  0  0  0  0  0
    0.7500   -9.0933    0.0000 C   0  0  0  0  0  0
    1.5000  -10.3923    0.0000 C   0  0  0  0  0  0
    0.7500  -11.6913    0.0000 C   0  0  0  0  0  0
   -0.7500  -11.6913    0.0000 C   0  0  0  0  0  0
   -1.5000  -10.3923    0.0000 C   0  0  0  0  0  0
   -0.7500   -9.0933    0.0000 C   0  0  0  0  0  0
   -0.7500   -6.4952    0.0000 N   0  0  0  0  0  0
   -1.5000   -5.1962    0.0000 C   0  0  0  0  0  0
   -0.7500   -3.8971    0.0000 O   0  0  0  0  0  0
   -3.0000   -5.1962    0.0000 C   0  0  2  0  0  0
   -3.7500   -6.4952    0.0000 C   0  0  0  0  0  0
   -5.2500   -6.4952    0.0000 C   0  0  0  0  0  0
   -6.0000   -7.7942    0.0000 C   0  0  0  0  0  0
   -5.2500   -9.0933    0.0000 O   0  0  0  0  0  0
   -7.5000   -7.7942    0.0000 O   0  0  0  0  0  0
   -3.7500   -3.8971    0.0000 N   0  0  0  0  0  0
   -5.2500   -3.8971    0.0000 C   0  0  0  0  0  0
   -6.0000   -5.1962    0.0000 O   0  0  0  0  0  0
   -6.0000   -2.5981    0.0000 C   0  0  1  0  0  0
   -5.2500   -1.2990    0.0000 N   0  0  0  0  0  0
   -6.0000    0.0000    0.0000 C   0  0  0  0  0  0
   -6.7735    0.1929    0.0000 O   0  0  0  0  0  0
   -5.2500    1.2990    0.0000 C   0  0  2  0  0  0
   -3.7500    1.2990    0.0000 C   0  0  0  0  0  0
   -3.0000    2.5981    0.0000 C   0  0  0  0  0  0
   -1.5000    2.5981    0.0000 C   0  0  0  0  0  0
   -0.7500    1.2990    0.0000 O   0  0  0  0  0  0
   -0.7500    3.8971    0.0000 O   0  0  0  0  0  0
   -6.0000    2.5981    0.0000 N   0  0  0  0  0  0
   -5.2500    3.8971    0.0000 C   0  0  0  0  0  0
   -3.7500    3.8971    0.0000 O   0  0  0  0  0  0
   -6.0000    5.1962    0.0000 C   0  0  2  0  0  0
   -5.2500    6.4952    0.0000 C   0  0  0  0  0  0
   -6.0000    7.7942    0.0000 C   0  0  0  0  0  0
   -7.5000    7.7942    0.0000 O   0  0  0  0  0  0
   -5.2500    9.0933    0.0000 O   0  0  0  0  0  0
   -7.5000    5.1962    0.0000 N   0  0  0  0  0  0
   -8.2500    3.8971    0.0000 C   0  0  0  0  0  0
   -7.5000    2.5981    0.0000 O   0  0  0  0  0  0
   -9.7500    3.8971    0.0000 C   0  0  0  0  0  0
   -7.5000   -2.5981    0.0000 C   0  0  0  0  0  0
   -8.2500   -1.2990    0.0000 C   0  0  0  0  0  0
   -9.7500   -1.2990    0.0000 C   0  0  0  0  0  0
  -10.5000   -0.0000    0.0000 C   0  0  0  0  0  0
   -9.7500    1.2990    0.0000 C   0  0  0  0  0  0
   -8.2500    1.2990    0.0000 C   0  0  0  0  0  0
   -7.5000    0.0000    0.0000 C   0  0  0  0  0  0
   -8.2500   -3.8971    0.0000 C   0  0  0  0  0  0
   -9.7500   -3.8971    0.0000 C   0  0  0  0  0  0
  -10.5000   -5.1962    0.0000 C   0  0  0  0  0  0
   -9.7500   -6.4952    0.0000 C   0  0  0  0  0  0
   -8.2500   -6.4952    0.0000 C   0  0  0  0  0  0
   -7.5000   -5.1962    0.0000 C   0  0  0  0  0  0
    3.0000   -2.5981    0.0000 C   0  0  0  0  0  0
    3.7500   -3.8971    0.0000 O   0  0  0  0  0  0
    3.7500   -1.2990    0.0000 O   0  0  0  0  0  0
  1  2  1  0  0  0
  2  3  1  0  0  0
  3  4  1  0  0  0
  3 62  1  1  0  0
  4  5  1  0  0  0
  5  6  2  0  0  0
  5  7  1  0  0  0
  7  8  1  0  0  0
  7 15  1  1  0  0
  8  9  1  0  0  0
  9 10  1  0  0  0
  9 14  1  0  0  0
 10 11  1  0  0  0
 11 12  1  0  0  0
 12 13  1  0  0  0
 13 14  1  0  0  0
 15 16  1  0  0  0
 16 17  2  0  0  0
 16 18  1  0  0  0
 18 19  1  0  0  0
 18 24  1  1  0  0
 19 20  1  0  0  0
 20 21  1  0  0  0
 21 22  2  0  0  0
 21 23  1  0  0  0
 24 25  1  0  0  0
 25 26  2  0  0  0
 25 27  1  0  0  0
 27 28  1  0  0  0
 27 49  1  6  0  0
 28 29  1  0  0  0
 29 30  2  0  0  0
 29 31  1  0  0  0
 31 32  1  0  0  0
 31 37  1  1  0  0
 32 33  1  0  0  0
 33 34  1  0  0  0
 34 35  2  0  0  0
 34 36  1  0  0  0
 37 38  1  0  0  0
 38 39  2  0  0  0
 38 40  1  0  0  0
 40 41  1  0  0  0
 40 45  1  1  0  0
 41 42  1  0  0  0
 42 43  2  0  0  0
 42 44  1  0  0  0
 45 46  1  0  0  0
 46 47  2  0  0  0
 46 48  1  0  0  0
 49 50  1  0  0  0
 49 56  1  0  0  0
 50 51  2  0  0  0
 50 55  1  0  0  0
 51 52  1  0  0  0
 52 53  2  0  0  0
 53 54  1  0  0  0
 54 55  2  0  0  0
 56 57  2  0  0  0
 56 61  1  0  0  0
 57 58  1  0  0  0
 58 59  2  0  0  0
 59 60  1  0  0  0
 60 61  2  0  0  0
 62 63  2  0  0  0
 62 64  1  0  0  0
M  END
> <s_m_entry_id>
6506

> <s_m_entry_name>
NS3-4A.47

> <CHEMBLID>
CHEMBL159723

> <s_m_Source_Path>
/home/liwei/Desktop/Machine/HCV/Active

> <s_m_Source_File>
NS3-4A.sdf

> <i_m_Source_File_Index>
47

$$$$
CHEMBL160002
                    3D
 Structure written by MMmdl.
 65 67  0  0  1  0            999 V2000
    1.5000    5.1962    0.0000 C   0  0  0  0  0  0
    3.0000    5.1962    0.0000 C   0  0  0  0  0  0
    3.7500    6.4952    0.0000 O   0  0  0  0  0  0
    3.7500    3.8971    0.0000 N   0  0  0  0  0  0
    5.2500    3.8971    0.0000 C   0  0  1  0  0  0
    6.0000    5.1962    0.0000 C   0  0  0  0  0  0
    7.5000    5.1962    0.0000 C   0  0  0  0  0  0
    8.2500    3.8971    0.0000 O   0  0  0  0  0  0
    8.2500    6.4952    0.0000 O   0  0  0  0  0  0
    6.0000    2.5981    0.0000 C   0  0  0  0  0  0
    7.5000    2.5981    0.0000 O   0  0  0  0  0  0
    5.2500    1.2990    0.0000 N   0  0  0  0  0  0
    6.0000   -0.0000    0.0000 C   0  0  1  0  0  0
    7.5000   -0.0000    0.0000 C   0  0  0  0  0  0
    8.2500    1.2990    0.0000 C   0  0  0  0  0  0
    9.7500    1.2990    0.0000 C   0  0  0  0  0  0
   10.5000   -0.0000    0.0000 O   0  0  0  0  0  0
   10.5000    2.5981    0.0000 O   0  0  0  0  0  0
    5.2500   -1.2990    0.0000 C   0  0  0  0  0  0
    6.0000   -2.5981    0.0000 O   0  0  0  0  0  0
    3.7500   -1.2990    0.0000 N   0  0  0  0  0  0
    3.0000   -2.5981    0.0000 C   0  0  1  0  0  0
    1.5000   -2.5981    0.0000 C   0  0  0  0  0  0
    0.7500   -1.2990    0.0000 C   0  0  0  0  0  0
    1.5000    0.0000    0.0000 C   0  0  0  0  0  0
    0.7500    1.2990    0.0000 C   0  0  0  0  0  0
   -0.7500    1.2990    0.0000 C   0  0  0  0  0  0
   -1.5000    0.0000    0.0000 C   0  0  0  0  0  0
   -0.7500   -1.2990    0.0000 C   0  0  0  0  0  0
    0.7500   -3.8971    0.0000 C   0  0  0  0  0  0
   -0.7500   -3.8971    0.0000 C   0  0  0  0  0  0
   -1.5000   -5.1962    0.0000 C   0  0  0  0  0  0
   -0.7500   -6.4952    0.0000 C   0  0  0  0  0  0
    0.7500   -6.4952    0.0000 C   0  0  0  0  0  0
    1.5000   -5.1962    0.0000 C   0  0  0  0  0  0
    3.7500   -3.8971    0.0000 C   0  0  0  0  0  0
    3.0000   -5.1962    0.0000 O   0  0  0  0  0  0
    5.2500   -3.8971    0.0000 N   0  0  0  0  0  0
    6.0000   -5.1962    0.0000 C   0  0  1  0  0  0
    7.5000   -5.1962    0.0000 C   0  0  0  0  0  0
    8.2500   -6.4952    0.0000 C   0  0  0  0  0  0
    9.7500   -6.4952    0.0000 C   0  0  0  0  0  0
   10.5000   -5.1962    0.0000 O   0  0  0  0  0  0
   10.5000   -7.7942    0.0000 O   0  0  0  0  0  0
    5.2500   -6.4952    0.0000 C   0  0  0  0  0  0
    3.7500   -6.4952    0.0000 O   0  0  0  0  0  0
    6.0000   -7.7942    0.0000 N   0  0  0  0  0  0
    5.2500   -9.0933    0.0000 C   0  0  1  0  0  0
    6.0000  -10.3923    0.0000 C   0  0  0  0  0  0
    5.2500  -11.6913    0.0000 C   0  0  0  0  0  0
    3.7500  -11.6913    0.0000 C   0  0  0  0  0  0
    3.0000  -12.9904    0.0000 C   0  0  0  0  0  0
    3.7500  -14.2894    0.0000 C   0  0  0  0  0  0
    5.2500  -14.2894    0.0000 C   0  0  0  0  0  0
    6.0000  -12.9904    0.0000 C   0  0  0  0  0  0
    3.7500   -9.0933    0.0000 C   0  0  0  0  0  0
    3.0000   -7.7942    0.0000 O   0  0  0  0  0  0
    3.0000  -10.3923    0.0000 N   0  0  0  0  0  0
    1.5000  -10.3923    0.0000 C   0  0  1  0  0  0
    0.7500  -11.6913    0.0000 C   0  0  0  0  0  0
   -0.7500  -11.6913    0.0000 C   0  0  0  0  0  0
   -1.5000  -12.9904    0.0000 F   0  0  0  0  0  0
   -1.5000  -10.3923    0.0000 F   0  0  0  0  0  0
    0.7500   -9.0933    0.0000 C   0  0  0  0  0  0
   -0.7500   -9.0933    0.0000 O   0  0  0  0  0  0
  1  2  1  0  0  0
  2  3  2  0  0  0
  2  4  1  0  0  0
  4  5  1  0  0  0
  5  6  1  0  0  0
  5 10  1  6  0  0
  6  7  1  0  0  0
  7  8  2  0  0  0
  7  9  1  0  0  0
 10 11  2  0  0  0
 10 12  1  0  0  0
 12 13  1  0  0  0
 13 14  1  0  0  0
 13 19  1  6  0  0
 14 15  1  0  0  0
 15 16  1  0  0  0
 16 17  2  0  0  0
 16 18  1  0  0  0
 19 20  2  0  0  0
 19 21  1  0  0  0
 21 22  1  0  0  0
 22 23  1  0  0  0
 22 36  1  6  0  0
 23 24  1  0  0  0
 23 30  1  0  0  0
 24 25  2  0  0  0
 24 29  1  0  0  0
 25 26  1  0  0  0
 26 27  2  0  0  0
 27 28  1  0  0  0
 28 29  2  0  0  0
 30 31  2  0  0  0
 30 35  1  0  0  0
 31 32  1  0  0  0
 32 33  2  0  0  0
 33 34  1  0  0  0
 34 35  2  0  0  0
 36 37  2  0  0  0
 36 38  1  0  0  0
 38 39  1  0  0  0
 39 40  1  0  0  0
 39 45  1  6  0  0
 40 41  1  0  0  0
 41 42  1  0  0  0
 42 43  2  0  0  0
 42 44  1  0  0  0
 45 46  2  0  0  0
 45 47  1  0  0  0
 47 48  1  0  0  0
 48 49  1  0  0  0
 48 56  1  6  0  0
 49 50  1  0  0  0
 50 51  1  0  0  0
 50 55  1  0  0  0
 51 52  1  0  0  0
 52 53  1  0  0  0
 53 54  1  0  0  0
 54 55  1  0  0  0
 56 57  2  0  0  0
 56 58  1  0  0  0
 58 59  1  0  0  0
 59 60  1  0  0  0
 59 64  1  6  0  0
 60 61  1  0  0  0
 61 62  1  0  0  0
 61 63  1  0  0  0
 64 65  2  0  0  0
M  END
> <s_m_entry_id>
6507

> <s_m_entry_name>
NS3-4A.48

> <CHEMBLID>
CHEMBL160002

> <s_m_Source_Path>
/home/liwei/Desktop/Machine/HCV/Active

> <s_m_Source_File>
NS3-4A.sdf

> <i_m_Source_File_Index>
48

$$$$
CHEMBL160018
                    3D
 Structure written by MMmdl.
 35 34  0  0  1  0            999 V2000
    9.9042   -5.8667    0.0000 C   0  0  0  0  0  0
    9.1875   -5.4542    0.0000 C   0  0  1  0  0  0
    7.7500   -5.4542    0.0000 C   0  0  0  0  0  0
    4.1542   -6.6917    0.0000 C   0  0  0  0  0  0
    5.5917   -5.8667    0.0000 C   0  0  0  0  0  0
    8.4667   -5.8667    0.0000 N   0  0  0  0  0  0
    6.3167   -5.4542    0.0000 N   0  0  0  0  0  0
    7.0292   -5.8667    0.0000 C   0  0  1  0  0  0
    9.9042   -6.6917    0.0000 C   0  0  0  0  0  0
    9.1875   -4.6167    0.0000 C   0  0  0  0  0  0
    7.0292   -6.6917    0.0000 C   0  0  0  0  0  0
    4.1542   -5.8667    0.0000 N   0  0  0  0  0  0
    4.8792   -5.4542    0.0000 C   0  0  1  0  0  0
    3.4500   -7.1042    0.0000 O   0  0  0  0  0  0
    4.1542   -3.3917    0.0000 C   0  0  0  0  0  0
   10.6167   -5.4500    0.0000 O   0  0  0  0  0  0
    4.8750   -7.0917    0.0000 O   0  0  0  0  0  0
    7.7500   -4.6167    0.0000 O   0  0  0  0  0  0
    5.5917   -6.6917    0.0000 O   0  0  0  0  0  0
    9.9042   -4.2042    0.0000 C   0  0  0  0  0  0
    6.6167   -7.4042    0.0000 C   0  0  0  0  0  0
   10.6167   -7.1000    0.0000 O   0  0  0  0  0  0
    3.4375   -2.9792    0.0000 O   0  0  0  0  0  0
    3.4542   -7.9292    0.0000 C   0  0  0  0  0  0
    4.8792   -4.6292    0.0000 C   0  0  0  0  0  0
    4.1625   -4.2167    0.0000 C   0  0  0  0  0  0
    9.1917   -7.1042    0.0000 O   0  0  0  0  0  0
    7.0250   -8.1167    0.0000 F   0  0  0  0  0  0
   10.6250   -4.6167    0.0000 F   0  0  0  0  0  0
    9.9042   -3.3792    0.0000 F   0  0  0  0  0  0
    5.7917   -7.3917    0.0000 F   0  0  0  0  0  0
    4.8667   -2.9667    0.0000 O   0  0  0  0  0  0
    3.4542   -8.7542    0.0000 C   0  0  0  0  0  0
    4.1750   -8.3375    0.0000 C   0  0  0  0  0  0
    2.7417   -8.3500    0.0000 C   0  0  0  0  0  0
  1  2  1  0  0  0
  1  9  1  0  0  0
  1 16  2  0  0  0
  2  6  1  0  0  0
  2 10  1  6  0  0
  3  6  1  0  0  0
  3  8  1  0  0  0
  3 18  2  0  0  0
  4 12  1  0  0  0
  4 14  1  0  0  0
  4 17  2  0  0  0
  5  7  1  0  0  0
  5 13  1  0  0  0
  5 19  2  0  0  0
  7  8  1  0  0  0
  8 11  1  6  0  0
  9 22  2  0  0  0
  9 27  1  0  0  0
 10 20  1  0  0  0
 11 21  1  0  0  0
 12 13  1  0  0  0
 13 25  1  6  0  0
 14 24  1  0  0  0
 15 26  1  0  0  0
 15 23  2  0  0  0
 15 32  1  0  0  0
 20 29  1  0  0  0
 20 30  1  0  0  0
 21 28  1  0  0  0
 21 31  1  0  0  0
 24 33  1  0  0  0
 24 34  1  0  0  0
 24 35  1  0  0  0
 25 26  1  0  0  0
M  END
> <s_m_entry_id>
6508

> <s_m_entry_name>
NS3-4A.49

> <CHEMBLID>
CHEMBL160018

> <s_m_Source_Path>
/home/liwei/Desktop/Machine/HCV/Active

> <s_m_Source_File>
NS3-4A.sdf

> <i_m_Source_File_Index>
49

> <MOLREGNO>
269641

> <MAX_PHASE>
0

> <MOLWEIGHT>
517.43

> <ALOGP>
0.42

> <PSA>
188.19

> <HBA>
9

> <HBD>
5

> <RO5>
1

> <RTB>
16

> <RO3>
N

> <ACD_MOST_APKA>
2.03

> <ACD_LOGP>
0.77

> <ACD_LOGD>
-3.97

> <AROMATIC_RINGS>
0

> <HEAVY_ATOMS>
35

> <QED_WEIGHTED>
0.14

> <HBA_LIPINSKI>
12

> <HBD_LIPINSKI>
5

> <NUM_LIPINSKI_RO5_VIOLATIONS>
1

> <MW_MONOISOTOPIC>
517.1683

> <MOLECULAR_SPECIES>
ACID

> <FULL_MOLFORMULA>
C19H27F4N3O9

$$$$
CHEMBL162028
                    3D
 Structure written by MMmdl.
 64 66  0  0  1  0            999 V2000
    1.5000    5.1962    0.0000 C   0  0  0  0  0  0
    3.0000    5.1962    0.0000 C   0  0  0  0  0  0
    3.7500    6.4952    0.0000 O   0  0  0  0  0  0
    3.7500    3.8971    0.0000 N   0  0  0  0  0  0
    5.2500    3.8971    0.0000 C   0  0  1  0  0  0
    6.0000    5.1962    0.0000 C   0  0  0  0  0  0
    7.5000    5.1962    0.0000 C   0  0  0  0  0  0
    8.2500    3.8971    0.0000 O   0  0  0  0  0  0
    8.2500    6.4952    0.0000 O   0  0  0  0  0  0
    6.0000    2.5981    0.0000 C   0  0  0  0  0  0
    7.5000    2.5981    0.0000 O   0  0  0  0  0  0
    5.2500    1.2990    0.0000 N   0  0  0  0  0  0
    6.0000   -0.0000    0.0000 C   0  0  1  0  0  0
    7.5000   -0.0000    0.0000 C   0  0  0  0  0  0
    8.2500    1.2990    0.0000 C   0  0  0  0  0  0
    9.7500    1.2990    0.0000 C   0  0  0  0  0  0
   10.5000   -0.0000    0.0000 O   0  0  0  0  0  0
   10.5000    2.5981    0.0000 O   0  0  0  0  0  0
    5.2500   -1.2990    0.0000 C   0  0  0  0  0  0
    6.0000   -2.5981    0.0000 O   0  0  0  0  0  0
    3.7500   -1.2990    0.0000 N   0  0  0  0  0  0
    3.0000   -2.5981    0.0000 C   0  0  1  0  0  0
    1.5000   -2.5981    0.0000 C   0  0  0  0  0  0
    0.7500   -1.2990    0.0000 C   0  0  0  0  0  0
    1.5000    0.0000    0.0000 C   0  0  0  0  0  0
    0.7500    1.2990    0.0000 C   0  0  0  0  0  0
   -0.7500    1.2990    0.0000 C   0  0  0  0  0  0
   -1.5000    0.0000    0.0000 C   0  0  0  0  0  0
   -0.7500   -1.2990    0.0000 C   0  0  0  0  0  0
    0.7500   -3.8971    0.0000 C   0  0  0  0  0  0
   -0.7500   -3.8971    0.0000 C   0  0  0  0  0  0
   -1.5000   -5.1962    0.0000 C   0  0  0  0  0  0
   -0.7500   -6.4952    0.0000 C   0  0  0  0  0  0
    0.7500   -6.4952    0.0000 C   0  0  0  0  0  0
    1.5000   -5.1962    0.0000 C   0  0  0  0  0  0
    3.7500   -3.8971    0.0000 C   0  0  0  0  0  0
    3.0000   -5.1962    0.0000 O   0  0  0  0  0  0
    5.2500   -3.8971    0.0000 N   0  0  0  0  0  0
    6.0000   -5.1962    0.0000 C   0  0  1  0  0  0
    7.5000   -5.1962    0.0000 C   0  0  0  0  0  0
    8.2500   -6.4952    0.0000 C   0  0  0  0  0  0
    9.7500   -6.4952    0.0000 C   0  0  0  0  0  0
   10.5000   -5.1962    0.0000 O   0  0  0  0  0  0
   10.5000   -7.7942    0.0000 O   0  0  0  0  0  0
    5.2500   -6.4952    0.0000 C   0  0  0  0  0  0
    3.7500   -6.4952    0.0000 O   0  0  0  0  0  0
    6.0000   -7.7942    0.0000 N   0  0  0  0  0  0
    5.2500   -9.0933    0.0000 C   0  0  1  0  0  0
    6.0000  -10.3923    0.0000 C   0  0  0  0  0  0
    5.2500  -11.6913    0.0000 C   0  0  0  0  0  0
    3.7500  -11.6913    0.0000 C   0  0  0  0  0  0
    3.0000  -12.9904    0.0000 C   0  0  0  0  0  0
    3.7500  -14.2894    0.0000 C   0  0  0  0  0  0
    5.2500  -14.2894    0.0000 C   0  0  0  0  0  0
    6.0000  -12.9904    0.0000 C   0  0  0  0  0  0
    3.7500   -9.0933    0.0000 C   0  0  0  0  0  0
    3.0000   -7.7942    0.0000 O   0  0  0  0  0  0
    3.0000  -10.3923    0.0000 N   0  0  0  0  0  0
    1.5000  -10.3923    0.0000 C   0  0  1  0  0  0
    0.7500  -11.6913    0.0000 C   0  0  0  0  0  0
   -0.7500  -11.6913    0.0000 C   0  0  0  0  0  0
   -1.5000  -12.9904    0.0000 C   0  0  0  0  0  0
    0.7500   -9.0933    0.0000 C   0  0  0  0  0  0
   -0.7500   -9.0933    0.0000 O   0  0  0  0  0  0
  1  2  1  0  0  0
  2  3  2  0  0  0
  2  4  1  0  0  0
  4  5  1  0  0  0
  5  6  1  0  0  0
  5 10  1  6  0  0
  6  7  1  0  0  0
  7  8  2  0  0  0
  7  9  1  0  0  0
 10 11  2  0  0  0
 10 12  1  0  0  0
 12 13  1  0  0  0
 13 14  1  0  0  0
 13 19  1  6  0  0
 14 15  1  0  0  0
 15 16  1  0  0  0
 16 17  2  0  0  0
 16 18  1  0  0  0
 19 20  2  0  0  0
 19 21  1  0  0  0
 21 22  1  0  0  0
 22 23  1  0  0  0
 22 36  1  6  0  0
 23 24  1  0  0  0
 23 30  1  0  0  0
 24 25  2  0  0  0
 24 29  1  0  0  0
 25 26  1  0  0  0
 26 27  2  0  0  0
 27 28  1  0  0  0
 28 29  2  0  0  0
 30 31  2  0  0  0
 30 35  1  0  0  0
 31 32  1  0  0  0
 32 33  2  0  0  0
 33 34  1  0  0  0
 34 35  2  0  0  0
 36 37  2  0  0  0
 36 38  1  0  0  0
 38 39  1  0  0  0
 39 40  1  0  0  0
 39 45  1  6  0  0
 40 41  1  0  0  0
 41 42  1  0  0  0
 42 43  2  0  0  0
 42 44  1  0  0  0
 45 46  2  0  0  0
 45 47  1  0  0  0
 47 48  1  0  0  0
 48 49  1  0  0  0
 48 56  1  6  0  0
 49 50  1  0  0  0
 50 51  1  0  0  0
 50 55  1  0  0  0
 51 52  1  0  0  0
 52 53  1  0  0  0
 53 54  1  0  0  0
 54 55  1  0  0  0
 56 57  2  0  0  0
 56 58  1  0  0  0
 58 59  1  0  0  0
 59 60  1  0  0  0
 59 63  1  6  0  0
 60 61  1  0  0  0
 61 62  2  0  0  0
 63 64  2  0  0  0
M  END
> <s_m_entry_id>
6509

> <s_m_entry_name>
NS3-4A.50

> <CHEMBLID>
CHEMBL162028

> <s_m_Source_Path>
/home/liwei/Desktop/Machine/HCV/Active

> <s_m_Source_File>
NS3-4A.sdf

> <i_m_Source_File_Index>
50

$$$$
CHEMBL162162
                    3D
 Structure written by MMmdl.
 37 37  0  0  1  0            999 V2000
   10.3042   -6.4792    0.0000 C   0  0  0  0  0  0
    5.9917   -6.4792    0.0000 C   0  0  0  0  0  0
    9.5875   -6.0667    0.0000 C   0  0  1  0  0  0
    8.1500   -6.0667    0.0000 C   0  0  0  0  0  0
    8.8667   -6.4792    0.0000 N   0  0  0  0  0  0
    6.7167   -6.0667    0.0000 N   0  0  0  0  0  0
    4.5500   -7.3000    0.0000 C   0  0  0  0  0  0
   10.3042   -7.3042    0.0000 C   0  0  0  0  0  0
    9.5875   -5.2375    0.0000 C   0  0  0  0  0  0
    5.2792   -6.0667    0.0000 C   0  0  1  0  0  0
    7.4292   -6.4792    0.0000 C   0  0  1  0  0  0
    4.5542   -6.4750    0.0000 N   0  0  0  0  0  0
    3.8292   -7.7042    0.0000 N   0  0  0  0  0  0
   11.0167   -6.0625    0.0000 O   0  0  0  0  0  0
    5.9917   -7.3042    0.0000 O   0  0  0  0  0  0
    8.1500   -5.2375    0.0000 O   0  0  0  0  0  0
   10.3042   -4.8167    0.0000 C   0  0  0  0  0  0
    5.2625   -7.7167    0.0000 O   0  0  0  0  0  0
   11.0167   -7.7125    0.0000 O   0  0  0  0  0  0
    7.4292   -7.3042    0.0000 C   0  0  0  0  0  0
    5.2792   -5.2375    0.0000 C   0  0  3  0  0  0
    9.5917   -7.7167    0.0000 O   0  0  0  0  0  0
    3.8167   -8.5292    0.0000 C   0  0  0  0  0  0
   11.0167   -5.2375    0.0000 F   0  0  0  0  0  0
   10.3042   -3.9917    0.0000 F   0  0  0  0  0  0
    3.1000   -8.9375    0.0000 C   0  0  0  0  0  0
    8.1500   -7.7250    0.0000 C   0  0  0  0  0  0
    5.9917   -4.8167    0.0000 C   0  0  0  0  0  0
    4.5625   -4.8167    0.0000 C   0  0  0  0  0  0
    3.0917   -9.7667    0.0000 C   0  0  0  0  0  0
    2.3917   -8.5167    0.0000 C   0  0  0  0  0  0
    8.8667   -7.3042    0.0000 C   0  0  0  0  0  0
    8.1500   -8.5542    0.0000 C   0  0  0  0  0  0
    5.9917   -3.9917    0.0000 C   0  0  0  0  0  0
    1.6667   -8.9250    0.0000 C   0  0  0  0  0  0
    2.3750  -10.1667    0.0000 C   0  0  0  0  0  0
    1.6542   -9.7500    0.0000 C   0  0  0  0  0  0
  1  3  1  0  0  0
  1  8  1  0  0  0
  1 14  2  0  0  0
  2  6  1  0  0  0
  2 10  1  0  0  0
  2 15  2  0  0  0
  3  5  1  0  0  0
  3  9  1  6  0  0
  4  5  1  0  0  0
  4 11  1  0  0  0
  4 16  2  0  0  0
  6 11  1  0  0  0
  7 12  1  0  0  0
  7 13  1  0  0  0
  7 18  2  0  0  0
  8 19  2  0  0  0
  8 22  1  0  0  0
  9 17  1  0  0  0
 10 12  1  0  0  0
 10 21  1  6  0  0
 11 20  1  6  0  0
 13 23  1  0  0  0
 17 24  1  0  0  0
 17 25  1  0  0  0
 20 27  1  0  0  0
 21 28  1  0  0  0
 21 29  1  0  0  0
 23 26  1  0  0  0
 26 30  2  0  0  0
 26 31  1  0  0  0
 27 32  1  0  0  0
 27 33  1  0  0  0
 28 34  1  0  0  0
 30 36  1  0  0  0
 31 35  2  0  0  0
 35 37  1  0  0  0
 36 37  2  0  0  0
M  END
> <s_m_entry_id>
6510

> <s_m_entry_name>
NS3-4A.51

> <CHEMBLID>
CHEMBL162162

> <s_m_Source_Path>
/home/liwei/Desktop/Machine/HCV/Active

> <s_m_Source_File>
NS3-4A.sdf

> <i_m_Source_File_Index>
51

> <MOLREGNO>
269029

> <MAX_PHASE>
0

> <MOLWEIGHT>
526.57

> <ALOGP>
2.83

> <PSA>
153.69

> <HBA>
6

> <HBD>
5

> <RO5>
1

> <RTB>
15

> <RO3>
N

> <ACD_MOST_APKA>
2.05

> <ACD_LOGP>
2.26

> <ACD_LOGD>
-1.48

> <AROMATIC_RINGS>
1

> <HEAVY_ATOMS>
37

> <QED_WEIGHTED>
0.22

> <HBA_LIPINSKI>
10

> <HBD_LIPINSKI>
5

> <NUM_LIPINSKI_RO5_VIOLATIONS>
0

> <MW_MONOISOTOPIC>
526.2603

> <MOLECULAR_SPECIES>
ACID

> <FULL_MOLFORMULA>
C25H36F2N4O6

$$$$
CHEMBL162950
                    3D
 Structure written by MMmdl.
 40 41  0  0  1  0            999 V2000
   11.8167   -0.4792    0.0000 C   0  0  0  0  0  0
    7.5125   -0.4792    0.0000 C   0  0  0  0  0  0
   11.1042   -0.0667    0.0000 C   0  0  1  0  0  0
    9.6667   -0.0667    0.0000 C   0  0  0  0  0  0
   10.3792   -0.4792    0.0000 N   0  0  0  0  0  0
    8.2292   -0.0667    0.0000 N   0  0  0  0  0  0
    6.0750   -1.3042    0.0000 C   0  0  0  0  0  0
   11.8250   -1.3042    0.0000 C   0  0  0  0  0  0
   11.1042    0.7708    0.0000 C   0  0  0  0  0  0
    6.7917   -0.0667    0.0000 C   0  0  1  0  0  0
    8.9500   -0.4792    0.0000 C   0  0  1  0  0  0
    6.0667   -0.4792    0.0000 N   0  0  0  0  0  0
   12.5375   -0.0625    0.0000 O   0  0  0  0  0  0
    7.5125   -1.3042    0.0000 O   0  0  0  0  0  0
    9.6667    0.7708    0.0000 O   0  0  0  0  0  0
   11.8167    1.1833    0.0000 C   0  0  0  0  0  0
    8.9500   -1.3042    0.0000 C   0  0  0  0  0  0
    6.7917   -1.7042    0.0000 O   0  0  0  0  0  0
   12.5375   -1.7125    0.0000 O   0  0  0  0  0  0
    5.3542   -1.7167    0.0000 O   0  0  0  0  0  0
    6.7917    0.7583    0.0000 C   0  0  3  0  0  0
   11.1042   -1.7167    0.0000 O   0  0  0  0  0  0
   11.8167    2.0083    0.0000 F   0  0  0  0  0  0
   12.5417    0.7708    0.0000 F   0  0  0  0  0  0
    5.3667   -2.5417    0.0000 C   0  0  0  0  0  0
    8.5292   -2.0167    0.0000 C   0  0  0  0  0  0
    4.6542   -2.9667    0.0000 C   0  0  0  0  0  0
    6.0792    1.1708    0.0000 C   0  0  0  0  0  0
    7.5042    1.1708    0.0000 C   0  0  0  0  0  0
    7.7042   -2.0042    0.0000 C   0  0  0  0  0  0
    8.9375   -2.7250    0.0000 C   0  0  0  0  0  0
    4.6542   -3.7917    0.0000 C   0  0  0  0  0  0
    3.9375   -2.5542    0.0000 C   0  0  0  0  0  0
    6.0750    1.9958    0.0000 C   0  0  0  0  0  0
    3.9417   -4.2125    0.0000 C   0  0  0  0  0  0
    7.2875   -2.7167    0.0000 C   0  0  0  0  0  0
    8.5250   -3.4375    0.0000 C   0  0  0  0  0  0
    3.2167   -2.9750    0.0000 C   0  0  0  0  0  0
    3.2167   -3.8042    0.0000 C   0  0  0  0  0  0
    7.6917   -3.4375    0.0000 C   0  0  0  0  0  0
  1  3  1  0  0  0
  1  8  1  0  0  0
  1 13  2  0  0  0
  2  6  1  0  0  0
  2 10  1  0  0  0
  2 14  2  0  0  0
  3  5  1  0  0  0
  3  9  1  6  0  0
  4  5  1  0  0  0
  4 11  1  0  0  0
  4 15  2  0  0  0
  6 11  1  0  0  0
  7 12  1  0  0  0
  7 18  2  0  0  0
  7 20  1  0  0  0
  8 19  2  0  0  0
  8 22  1  0  0  0
  9 16  1  0  0  0
 10 12  1  0  0  0
 10 21  1  6  0  0
 11 17  1  6  0  0
 16 23  1  0  0  0
 16 24  1  0  0  0
 17 26  1  0  0  0
 20 25  1  0  0  0
 21 28  1  0  0  0
 21 29  1  0  0  0
 25 27  1  0  0  0
 26 30  2  0  0  0
 26 31  1  0  0  0
 27 32  2  0  0  0
 27 33  1  0  0  0
 28 34  1  0  0  0
 30 36  1  0  0  0
 31 37  2  0  0  0
 32 35  1  0  0  0
 33 38  2  0  0  0
 35 39  2  0  0  0
 36 40  2  0  0  0
 37 40  1  0  0  0
 38 39  1  0  0  0
M  END
> <s_m_entry_id>
6511

> <s_m_entry_name>
NS3-4A.52

> <CHEMBLID>
CHEMBL162950

> <s_m_Source_Path>
/home/liwei/Desktop/Machine/HCV/Active

> <s_m_Source_File>
NS3-4A.sdf

> <i_m_Source_File_Index>
52

> <MOLREGNO>
268940

> <MAX_PHASE>
0

> <MOLWEIGHT>
561.57

> <ALOGP>
3.81

> <PSA>
150.89

> <HBA>
7

> <HBD>
4

> <RO5>
1

> <RTB>
16

> <RO3>
N

> <ACD_MOST_APKA>
2.05

> <ACD_LOGP>
4.14

> <ACD_LOGD>
0.4

> <AROMATIC_RINGS>
2

> <HEAVY_ATOMS>
40

> <QED_WEIGHTED>
0.23

> <HBA_LIPINSKI>
10

> <HBD_LIPINSKI>
4

> <NUM_LIPINSKI_RO5_VIOLATIONS>
0

> <MW_MONOISOTOPIC>
561.2287

> <MOLECULAR_SPECIES>
ACID

> <FULL_MOLFORMULA>
C28H33F2N3O7

$$$$
CHEMBL163433
                    3D
 Structure written by MMmdl.
 41 41  0  0  1  0            999 V2000
    9.9250   -5.4000    0.0000 C   0  0  0  0  0  0
    5.6167   -5.4000    0.0000 C   0  0  0  0  0  0
    9.2042   -4.9875    0.0000 C   0  0  1  0  0  0
    7.7667   -4.9875    0.0000 C   0  0  0  0  0  0
    8.4875   -5.4000    0.0000 N   0  0  0  0  0  0
    6.3375   -4.9875    0.0000 N   0  0  0  0  0  0
    4.1792   -6.2250    0.0000 C   0  0  0  0  0  0
    9.9292   -6.2250    0.0000 C   0  0  0  0  0  0
    9.2042   -4.1625    0.0000 C   0  0  0  0  0  0
    4.9000   -4.9875    0.0000 C   0  0  1  0  0  0
    7.0542   -5.4000    0.0000 C   0  0  1  0  0  0
    4.1792   -5.4000    0.0000 N   0  0  0  0  0  0
    2.0167   -9.1000    0.0000 C   0  0  0  0  0  0
    2.7292   -8.6875    0.0000 C   0  0  0  0  0  0
   10.6417   -4.9875    0.0000 O   0  0  0  0  0  0
    5.6167   -6.2292    0.0000 O   0  0  0  0  0  0
    7.7667   -4.1625    0.0000 O   0  0  0  0  0  0
    9.9250   -3.7417    0.0000 C   0  0  0  0  0  0
    3.4625   -6.6292    0.0000 O   0  0  0  0  0  0
   10.6417   -6.6375    0.0000 O   0  0  0  0  0  0
    2.0042   -9.9250    0.0000 O   0  0  0  0  0  0
    4.8875   -6.6375    0.0000 O   0  0  0  0  0  0
    7.0542   -6.2292    0.0000 C   0  0  0  0  0  0
    2.7375   -7.8625    0.0000 C   0  0  0  0  0  0
    3.4500   -9.1042    0.0000 C   0  0  0  0  0  0
    4.9000   -4.1625    0.0000 C   0  0  3  0  0  0
    9.2125   -6.6417    0.0000 O   0  0  0  0  0  0
    1.3042   -8.6792    0.0000 O   0  0  0  0  0  0
    4.1667   -7.8750    0.0000 C   0  0  0  0  0  0
   10.6417   -4.1625    0.0000 F   0  0  0  0  0  0
    9.9250   -2.9125    0.0000 F   0  0  0  0  0  0
    4.8792   -7.4625    0.0000 C   0  0  0  0  0  0
    3.4542   -7.4542    0.0000 C   0  0  0  0  0  0
    4.1625   -8.6917    0.0000 C   0  0  0  0  0  0
    7.7667   -6.6500    0.0000 C   0  0  0  0  0  0
    5.6167   -3.7417    0.0000 C   0  0  0  0  0  0
    4.1792   -3.7417    0.0000 C   0  0  0  0  0  0
    1.3042   -7.8542    0.0000 C   0  0  0  0  0  0
    7.7667   -7.4750    0.0000 C   0  0  0  0  0  0
    8.4875   -6.2292    0.0000 C   0  0  0  0  0  0
    5.6167   -2.9125    0.0000 C   0  0  0  0  0  0
  1  3  1  0  0  0
  1  8  1  0  0  0
  1 15  2  0  0  0
  2  6  1  0  0  0
  2 10  1  0  0  0
  2 16  2  0  0  0
  3  5  1  0  0  0
  3  9  1  6  0  0
  4  5  1  0  0  0
  4 11  1  0  0  0
  4 17  2  0  0  0
  6 11  1  0  0  0
  7 12  1  0  0  0
  7 19  2  0  0  0
  7 22  1  0  0  0
  8 20  2  0  0  0
  8 27  1  0  0  0
  9 18  1  0  0  0
 10 12  1  0  0  0
 10 26  1  6  0  0
 11 23  1  6  0  0
 13 14  1  0  0  0
 13 21  2  0  0  0
 13 28  1  0  0  0
 14 25  1  0  0  0
 14 24  2  0  0  0
 18 30  1  0  0  0
 18 31  1  0  0  0
 22 32  1  0  0  0
 23 35  1  0  0  0
 24 33  1  0  0  0
 25 34  2  0  0  0
 26 36  1  0  0  0
 26 37  1  0  0  0
 28 38  1  0  0  0
 29 32  1  0  0  0
 29 33  2  0  0  0
 29 34  1  0  0  0
 35 39  1  0  0  0
 35 40  1  0  0  0
 36 41  1  0  0  0
M  END
> <s_m_entry_id>
6512

> <s_m_entry_name>
NS3-4A.53

> <CHEMBLID>
CHEMBL163433

> <s_m_Source_Path>
/home/liwei/Desktop/Machine/HCV/Active

> <s_m_Source_File>
NS3-4A.sdf

> <i_m_Source_File_Index>
53

> <MOLREGNO>
269081

> <MAX_PHASE>
0

> <MOLWEIGHT>
585.59

> <ALOGP>
3.34

> <PSA>
177.19

> <HBA>
9

> <HBD>
4

> <RO5>
1

> <RTB>
18

> <RO3>
N

> <ACD_MOST_APKA>
2.05

> <ACD_LOGP>
3.75

> <ACD_LOGD>
0.01

> <AROMATIC_RINGS>
1

> <HEAVY_ATOMS>
41

> <QED_WEIGHTED>
0.15

> <HBA_LIPINSKI>
12

> <HBD_LIPINSKI>
4

> <NUM_LIPINSKI_RO5_VIOLATIONS>
1

> <MW_MONOISOTOPIC>
585.2498

> <MOLECULAR_SPECIES>
ACID

> <FULL_MOLFORMULA>
C27H37F2N3O9

$$$$
CHEMBL163917
                    3D
 Structure written by MMmdl.
 35 34  0  0  1  0            999 V2000
    9.9042   -5.8667    0.0000 C   0  0  0  0  0  0
    9.1875   -5.4542    0.0000 C   0  0  1  0  0  0
    7.7500   -5.4542    0.0000 C   0  0  0  0  0  0
    4.1542   -6.6917    0.0000 C   0  0  0  0  0  0
    5.5917   -5.8667    0.0000 C   0  0  0  0  0  0
    8.4667   -5.8667    0.0000 N   0  0  0  0  0  0
    6.3167   -5.4542    0.0000 N   0  0  0  0  0  0
    9.9042   -6.6917    0.0000 C   0  0  0  0  0  0
    9.1875   -4.6167    0.0000 C   0  0  0  0  0  0
    7.0292   -5.8667    0.0000 C   0  0  1  0  0  0
    4.1542   -5.8667    0.0000 N   0  0  0  0  0  0
    4.8792   -5.4542    0.0000 C   0  0  1  0  0  0
    3.4500   -7.1042    0.0000 O   0  0  0  0  0  0
    4.1542   -3.3917    0.0000 C   0  0  0  0  0  0
   10.6167   -5.4500    0.0000 O   0  0  0  0  0  0
    4.8750   -7.0917    0.0000 O   0  0  0  0  0  0
    7.7500   -4.6167    0.0000 O   0  0  0  0  0  0
    5.5917   -6.6917    0.0000 O   0  0  0  0  0  0
    9.9042   -4.2042    0.0000 C   0  0  0  0  0  0
   10.6167   -7.1000    0.0000 O   0  0  0  0  0  0
    7.0292   -6.6917    0.0000 C   0  0  0  0  0  0
    3.4375   -2.9792    0.0000 O   0  0  0  0  0  0
    3.4542   -7.9292    0.0000 C   0  0  0  0  0  0
    4.8792   -4.6292    0.0000 C   0  0  0  0  0  0
    4.1625   -4.2167    0.0000 C   0  0  0  0  0  0
    9.1917   -7.1042    0.0000 O   0  0  0  0  0  0
   10.6250   -4.6167    0.0000 F   0  0  0  0  0  0
    9.9042   -3.3792    0.0000 F   0  0  0  0  0  0
    4.8667   -2.9667    0.0000 O   0  0  0  0  0  0
    6.6167   -7.4042    0.0000 C   0  0  0  0  0  0
    3.4542   -8.7542    0.0000 C   0  0  0  0  0  0
    4.1750   -8.3375    0.0000 C   0  0  0  0  0  0
    2.7417   -8.3500    0.0000 C   0  0  0  0  0  0
    5.7917   -7.3917    0.0000 C   0  0  0  0  0  0
    7.0250   -8.1167    0.0000 C   0  0  0  0  0  0
  1  2  1  0  0  0
  1  8  1  0  0  0
  1 15  2  0  0  0
  2  6  1  0  0  0
  2  9  1  6  0  0
  3  6  1  0  0  0
  3 10  1  0  0  0
  3 17  2  0  0  0
  4 11  1  0  0  0
  4 13  1  0  0  0
  4 16  2  0  0  0
  5  7  1  0  0  0
  5 12  1  0  0  0
  5 18  2  0  0  0
  7 10  1  0  0  0
  8 20  2  0  0  0
  8 26  1  0  0  0
  9 19  1  0  0  0
 10 21  1  6  0  0
 11 12  1  0  0  0
 12 24  1  6  0  0
 13 23  1  0  0  0
 14 25  1  0  0  0
 14 22  2  0  0  0
 14 29  1  0  0  0
 19 27  1  0  0  0
 19 28  1  0  0  0
 21 30  1  0  0  0
 23 31  1  0  0  0
 23 32  1  0  0  0
 23 33  1  0  0  0
 24 25  1  0  0  0
 30 34  1  0  0  0
 30 35  1  0  0  0
M  END
> <s_m_entry_id>
6513

> <s_m_entry_name>
NS3-4A.54

> <CHEMBLID>
CHEMBL163917

> <s_m_Source_Path>
/home/liwei/Desktop/Machine/HCV/Active

> <s_m_Source_File>
NS3-4A.sdf

> <i_m_Source_File_Index>
54

> <MOLREGNO>
269638

> <MAX_PHASE>
0

> <MOLWEIGHT>
509.5

> <ALOGP>
1.23

> <PSA>
188.19

> <HBA>
9

> <HBD>
5

> <RO5>
1

> <RTB>
16

> <RO3>
N

> <ACD_MOST_APKA>
2.05

> <ACD_LOGP>
1.49

> <ACD_LOGD>
-3.26

> <AROMATIC_RINGS>
0

> <HEAVY_ATOMS>
35

> <QED_WEIGHTED>
0.19

> <HBA_LIPINSKI>
12

> <HBD_LIPINSKI>
5

> <NUM_LIPINSKI_RO5_VIOLATIONS>
1

> <MW_MONOISOTOPIC>
509.2185

> <MOLECULAR_SPECIES>
ACID

> <FULL_MOLFORMULA>
C21H33F2N3O9

$$$$
CHEMBL164538
                    3D
 Structure written by MMmdl.
 34 33  0  0  1  0            999 V2000
    9.9042   -5.8667    0.0000 C   0  0  0  0  0  0
    9.1875   -5.4542    0.0000 C   0  0  1  0  0  0
    5.5917   -5.8667    0.0000 C   0  0  0  0  0  0
    7.7500   -5.4542    0.0000 C   0  0  0  0  0  0
    4.1542   -6.6917    0.0000 C   0  0  0  0  0  0
    8.4667   -5.8667    0.0000 N   0  0  0  0  0  0
    6.3167   -5.4542    0.0000 N   0  0  0  0  0  0
    4.8792   -5.4542    0.0000 C   0  0  2  0  0  0
    9.9042   -6.6917    0.0000 C   0  0  0  0  0  0
    9.1875   -4.6167    0.0000 C   0  0  0  0  0  0
    4.8792   -4.6292    0.0000 C   0  0  0  0  0  0
    7.0292   -5.8667    0.0000 C   0  0  1  0  0  0
    4.1542   -5.8667    0.0000 N   0  0  0  0  0  0
    4.1625   -4.2167    0.0000 C   0  0  0  0  0  0
    3.4500   -7.1042    0.0000 O   0  0  0  0  0  0
   10.6167   -5.4500    0.0000 O   0  0  0  0  0  0
    4.8750   -7.0917    0.0000 O   0  0  0  0  0  0
    7.7500   -4.6167    0.0000 O   0  0  0  0  0  0
    5.5917   -6.6917    0.0000 O   0  0  0  0  0  0
    9.9042   -4.2042    0.0000 C   0  0  0  0  0  0
   10.6167   -7.1000    0.0000 O   0  0  0  0  0  0
    7.0292   -6.6917    0.0000 C   0  0  0  0  0  0
    3.4417   -4.6292    0.0000 O   0  0  0  0  0  0
    3.4542   -7.9292    0.0000 C   0  0  0  0  0  0
    9.1917   -7.1042    0.0000 O   0  0  0  0  0  0
    4.1625   -3.3917    0.0000 O   0  0  0  0  0  0
   10.6250   -4.6167    0.0000 F   0  0  0  0  0  0
    9.9042   -3.3792    0.0000 F   0  0  0  0  0  0
    6.6167   -7.4042    0.0000 C   0  0  0  0  0  0
    3.4542   -8.7542    0.0000 C   0  0  0  0  0  0
    4.1750   -8.3375    0.0000 C   0  0  0  0  0  0
    2.7417   -8.3500    0.0000 C   0  0  0  0  0  0
    5.7917   -7.3917    0.0000 C   0  0  0  0  0  0
    7.0250   -8.1167    0.0000 C   0  0  0  0  0  0
  1  2  1  0  0  0
  1  9  1  0  0  0
  1 16  2  0  0  0
  2  6  1  0  0  0
  2 10  1  6  0  0
  3  7  1  0  0  0
  3  8  1  0  0  0
  3 19  2  0  0  0
  4  6  1  0  0  0
  4 12  1  0  0  0
  4 18  2  0  0  0
  5 13  1  0  0  0
  5 15  1  0  0  0
  5 17  2  0  0  0
  7 12  1  0  0  0
  8 11  1  0  0  0
  8 13  1  1  0  0
  9 21  2  0  0  0
  9 25  1  0  0  0
 10 20  1  0  0  0
 11 14  1  0  0  0
 12 22  1  6  0  0
 14 23  2  0  0  0
 14 26  1  0  0  0
 15 24  1  0  0  0
 20 27  1  0  0  0
 20 28  1  0  0  0
 22 29  1  0  0  0
 24 30  1  0  0  0
 24 31  1  0  0  0
 24 32  1  0  0  0
 29 33  1  0  0  0
 29 34  1  0  0  0
M  END
> <s_m_entry_id>
6514

> <s_m_entry_name>
NS3-4A.55

> <CHEMBLID>
CHEMBL164538

> <s_m_Source_Path>
/home/liwei/Desktop/Machine/HCV/Active

> <s_m_Source_File>
NS3-4A.sdf

> <i_m_Source_File_Index>
55

> <MOLREGNO>
269058

> <MAX_PHASE>
0

> <MOLWEIGHT>
495.47

> <ALOGP>
0.91

> <PSA>
188.19

> <HBA>
9

> <HBD>
5

> <RO5>
0

> <RTB>
15

> <RO3>
N

> <ACD_MOST_APKA>
2.05

> <ACD_LOGP>
1.51

> <ACD_LOGD>
-3.24

> <AROMATIC_RINGS>
0

> <HEAVY_ATOMS>
34

> <QED_WEIGHTED>
0.21

> <HBA_LIPINSKI>
12

> <HBD_LIPINSKI>
5

> <NUM_LIPINSKI_RO5_VIOLATIONS>
1

> <MW_MONOISOTOPIC>
495.2028

> <MOLECULAR_SPECIES>
ACID

> <FULL_MOLFORMULA>
C20H31F2N3O9

$$$$
CHEMBL175172
                    3D
 Structure written by MMmdl.
 48 51  0  0  1  0            999 V2000
   10.0022    3.6413    0.0000 C   0  0  0  0  0  0
    8.9985    2.5266    0.0000 C   0  0  0  0  0  0
    9.4620    1.1000    0.0000 C   0  0  0  0  0  0
    8.4583   -0.0147    0.0000 C   0  0  2  0  0  0
    8.9218   -1.4413    0.0000 N   0  0  0  0  0  0
    7.9182   -2.5560    0.0000 C   0  0  0  0  0  0
    6.4509   -2.2442    0.0000 O   0  0  0  0  0  0
    8.3817   -3.9826    0.0000 C   0  0  2  0  0  0
    9.8083   -4.4462    0.0000 C   0  0  1  0  0  0
   11.0218   -3.5645    0.0000 C   0  0  0  0  0  0
   12.3921   -4.1746    0.0000 C   0  0  0  0  0  0
    9.8083   -5.9462    0.0000 C   0  0  0  0  0  0
    8.3817   -6.4097    0.0000 C   0  0  0  0  0  0
    7.5000   -5.1962    0.0000 N   0  0  0  0  0  0
    6.0000   -5.1962    0.0000 C   0  0  0  0  0  0
    5.2500   -3.8971    0.0000 O   0  0  0  0  0  0
    5.2500   -6.4952    0.0000 C   0  0  2  0  0  0
    3.7500   -6.4952    0.0000 N   0  0  0  0  0  0
    3.0000   -5.1962    0.0000 C   0  0  0  0  0  0
    3.7500   -3.8971    0.0000 O   0  0  0  0  0  0
    1.5000   -5.1962    0.0000 C   0  0  2  0  0  0
    0.7500   -3.8971    0.0000 N   0  0  0  0  0  0
    1.5000   -2.5981    0.0000 C   0  0  3  0  0  0
    3.0000   -2.5981    0.0000 O   0  0  0  0  0  0
    0.7500   -1.2990    0.0000 C   0  0  0  0  0  0
    1.5000    0.0000    0.0000 C   0  0  0  0  0  0
    0.7500    1.2990    0.0000 N   0  0  0  0  0  0
   -0.7500    1.2990    0.0000 C   0  0  0  0  0  0
   -1.5000    0.0000    0.0000 C   0  0  0  0  0  0
   -0.7500   -1.2990    0.0000 N   0  0  0  0  0  0
    0.7500   -6.4952    0.0000 C   0  0  0  0  0  0
   -0.7500   -6.4952    0.0000 C   0  0  0  0  0  0
   -1.5000   -7.7942    0.0000 C   0  0  0  0  0  0
   -0.7500   -9.0933    0.0000 C   0  0  0  0  0  0
    0.7500   -9.0933    0.0000 C   0  0  0  0  0  0
    1.5000   -7.7942    0.0000 C   0  0  0  0  0  0
    6.0000   -7.7942    0.0000 C   0  0  0  0  0  0
    7.2990   -7.0442    0.0000 C   0  0  0  0  0  0
    4.7010   -8.5442    0.0000 C   0  0  0  0  0  0
    6.7500   -9.0933    0.0000 C   0  0  0  0  0  0
    6.9911    0.2971    0.0000 C   0  0  0  0  0  0
    5.9874   -0.8176    0.0000 O   0  0  0  0  0  0
    6.5276    1.7237    0.0000 C   0  0  0  0  0  0
    7.5313    2.8384    0.0000 O   0  0  0  0  0  0
    5.0604    2.0356    0.0000 N   0  0  0  0  0  0
    4.5968    3.4622    0.0000 C   0  0  0  0  0  0
    3.4821    4.4659    0.0000 C   0  0  0  0  0  0
    4.9087    4.9294    0.0000 C   0  0  0  0  0  0
  1  2  1  0  0  0
  2  3  1  0  0  0
  3  4  1  0  0  0
  4  5  1  0  0  0
  4 41  1  1  0  0
  5  6  1  0  0  0
  6  7  2  0  0  0
  6  8  1  0  0  0
  8  9  1  0  0  0
  8 14  1  1  0  0
  9 10  1  0  0  0
  9 12  1  6  0  0
 10 11  1  0  0  0
 12 13  1  0  0  0
 13 14  1  0  0  0
 14 15  1  0  0  0
 15 16  2  0  0  0
 15 17  1  0  0  0
 17 18  1  0  0  0
 17 37  1  6  0  0
 18 19  1  0  0  0
 19 20  2  0  0  0
 19 21  1  0  0  0
 21 22  1  0  0  0
 21 31  1  6  0  0
 22 23  1  0  0  0
 23 24  1  0  0  0
 23 25  1  0  0  0
 25 26  2  0  0  0
 25 30  1  0  0  0
 26 27  1  0  0  0
 27 28  2  0  0  0
 28 29  1  0  0  0
 29 30  2  0  0  0
 31 32  1  0  0  0
 31 36  1  0  0  0
 32 33  1  0  0  0
 33 34  1  0  0  0
 34 35  1  0  0  0
 35 36  1  0  0  0
 37 38  1  0  0  0
 37 39  1  0  0  0
 37 40  1  0  0  0
 41 42  2  0  0  0
 41 43  1  0  0  0
 43 44  2  0  0  0
 43 45  1  0  0  0
 45 46  1  0  0  0
 46 47  1  0  0  0
 46 48  1  0  0  0
 47 48  1  0  0  0
M  END
> <s_m_entry_id>
6515

> <s_m_entry_name>
NS3-4A.56

> <CHEMBLID>
CHEMBL175172

> <s_m_Source_Path>
/home/liwei/Desktop/Machine/HCV/Active

> <s_m_Source_File>
NS3-4A.sdf

> <i_m_Source_File_Index>
56

$$$$
CHEMBL176172
                    3D
 Structure written by MMmdl.
 52 54  0  0  1  0            999 V2000
   10.0022    3.6413    0.0000 C   0  0  0  0  0  0
    8.9985    2.5266    0.0000 C   0  0  0  0  0  0
    9.4620    1.1000    0.0000 C   0  0  0  0  0  0
    8.4583   -0.0147    0.0000 C   0  0  2  0  0  0
    8.9218   -1.4413    0.0000 N   0  0  0  0  0  0
    7.9182   -2.5560    0.0000 C   0  0  0  0  0  0
    6.4509   -2.2442    0.0000 O   0  0  0  0  0  0
    8.3817   -3.9826    0.0000 C   0  0  2  0  0  0
    9.8083   -4.4462    0.0000 C   0  0  1  0  0  0
   11.0218   -3.5645    0.0000 C   0  0  0  0  0  0
   12.3921   -4.1746    0.0000 C   0  0  0  0  0  0
    9.8083   -5.9462    0.0000 C   0  0  0  0  0  0
    8.3817   -6.4097    0.0000 C   0  0  0  0  0  0
    7.5000   -5.1962    0.0000 N   0  0  0  0  0  0
    6.0000   -5.1962    0.0000 C   0  0  0  0  0  0
    5.2500   -3.8971    0.0000 O   0  0  0  0  0  0
    5.2500   -6.4952    0.0000 C   0  0  2  0  0  0
    3.7500   -6.4952    0.0000 N   0  0  0  0  0  0
    3.0000   -5.1962    0.0000 C   0  0  0  0  0  0
    3.7500   -3.8971    0.0000 O   0  0  0  0  0  0
    1.5000   -5.1962    0.0000 C   0  0  2  0  0  0
    0.7500   -3.8971    0.0000 N   0  0  0  0  0  0
    1.5000   -2.5981    0.0000 C   0  0  0  0  0  0
    3.0000   -2.5981    0.0000 O   0  0  0  0  0  0
    0.7500   -1.2990    0.0000 C   0  0  0  0  0  0
    1.5000    0.0000    0.0000 C   0  0  0  0  0  0
    0.7500    1.2990    0.0000 N   0  0  0  0  0  0
   -0.7500    1.2990    0.0000 C   0  0  0  0  0  0
   -1.5000    0.0000    0.0000 C   0  0  0  0  0  0
   -0.7500   -1.2990    0.0000 N   0  0  0  0  0  0
    0.7500   -6.4952    0.0000 C   0  0  0  0  0  0
    1.5000   -7.7942    0.0000 C   0  0  0  0  0  0
   -0.7500   -6.4952    0.0000 C   0  0  0  0  0  0
    6.0000   -7.7942    0.0000 C   0  0  0  0  0  0
    7.5000   -7.7942    0.0000 C   0  0  0  0  0  0
    5.2500   -9.0933    0.0000 C   0  0  0  0  0  0
    6.9911    0.2971    0.0000 C   0  0  0  0  0  0
    5.9874   -0.8176    0.0000 O   0  0  0  0  0  0
    6.5276    1.7237    0.0000 C   0  0  0  0  0  0
    7.5313    2.8384    0.0000 O   0  0  0  0  0  0
    5.0604    2.0356    0.0000 N   0  0  0  0  0  0
    4.5968    3.4622    0.0000 C   0  0  1  0  0  0
    3.1296    3.7740    0.0000 C   0  0  0  0  0  0
    2.6661    5.2006    0.0000 C   0  0  0  0  0  0
    3.6698    6.3153    0.0000 C   0  0  0  0  0  0
    3.2063    7.7419    0.0000 C   0  0  0  0  0  0
    1.7390    8.0538    0.0000 C   0  0  0  0  0  0
    0.7353    6.9391    0.0000 C   0  0  0  0  0  0
    1.1989    5.5125    0.0000 C   0  0  0  0  0  0
    5.6005    4.5769    0.0000 C   0  0  0  0  0  0
    7.0677    4.2650    0.0000 O   0  0  0  0  0  0
    5.1370    6.0035    0.0000 O   0  0  0  0  0  0
  1  2  1  0  0  0
  2  3  1  0  0  0
  3  4  1  0  0  0
  4  5  1  0  0  0
  4 37  1  1  0  0
  5  6  1  0  0  0
  6  7  2  0  0  0
  6  8  1  0  0  0
  8  9  1  0  0  0
  8 14  1  1  0  0
  9 10  1  0  0  0
  9 12  1  6  0  0
 10 11  1  0  0  0
 12 13  1  0  0  0
 13 14  1  0  0  0
 14 15  1  0  0  0
 15 16  2  0  0  0
 15 17  1  0  0  0
 17 18  1  0  0  0
 17 34  1  6  0  0
 18 19  1  0  0  0
 19 20  2  0  0  0
 19 21  1  0  0  0
 21 22  1  0  0  0
 21 31  1  6  0  0
 22 23  1  0  0  0
 23 24  2  0  0  0
 23 25  1  0  0  0
 25 26  2  0  0  0
 25 30  1  0  0  0
 26 27  1  0  0  0
 27 28  2  0  0  0
 28 29  1  0  0  0
 29 30  2  0  0  0
 31 32  1  0  0  0
 31 33  1  0  0  0
 34 35  1  0  0  0
 34 36  1  0  0  0
 37 38  2  0  0  0
 37 39  1  0  0  0
 39 40  2  0  0  0
 39 41  1  0  0  0
 41 42  1  0  0  0
 42 43  1  0  0  0
 42 50  1  6  0  0
 43 44  1  0  0  0
 44 45  2  0  0  0
 44 49  1  0  0  0
 45 46  1  0  0  0
 46 47  2  0  0  0
 47 48  1  0  0  0
 48 49  2  0  0  0
 50 51  2  0  0  0
 50 52  1  0  0  0
M  END
> <s_m_entry_id>
6516

> <s_m_entry_name>
NS3-4A.57

> <CHEMBLID>
CHEMBL176172

> <s_m_Source_Path>
/home/liwei/Desktop/Machine/HCV/Active

> <s_m_Source_File>
NS3-4A.sdf

> <i_m_Source_File_Index>
57

$$$$
CHEMBL177235
                    3D
 Structure written by MMmdl.
 47 49  0  0  1  0            999 V2000
    8.9985    2.5266    0.0000 C   0  0  0  0  0  0
    9.4620    1.1000    0.0000 C   0  0  0  0  0  0
    8.4583   -0.0147    0.0000 C   0  0  2  0  0  0
    8.9218   -1.4413    0.0000 N   0  0  0  0  0  0
    7.9182   -2.5560    0.0000 C   0  0  0  0  0  0
    6.4509   -2.2442    0.0000 O   0  0  0  0  0  0
    8.3817   -3.9826    0.0000 C   0  0  2  0  0  0
    9.8083   -4.4462    0.0000 C   0  0  1  0  0  0
   11.0218   -3.5645    0.0000 C   0  0  0  0  0  0
    9.8083   -5.9462    0.0000 C   0  0  0  0  0  0
    8.3817   -6.4097    0.0000 C   0  0  0  0  0  0
    7.5000   -5.1962    0.0000 N   0  0  0  0  0  0
    6.0000   -5.1962    0.0000 C   0  0  0  0  0  0
    5.2500   -3.8971    0.0000 O   0  0  0  0  0  0
    5.2500   -6.4952    0.0000 C   0  0  2  0  0  0
    3.7500   -6.4952    0.0000 N   0  0  0  0  0  0
    3.0000   -5.1962    0.0000 C   0  0  0  0  0  0
    3.7500   -3.8971    0.0000 O   0  0  0  0  0  0
    1.5000   -5.1962    0.0000 C   0  0  2  0  0  0
    0.7500   -3.8971    0.0000 N   0  0  0  0  0  0
    1.5000   -2.5981    0.0000 C   0  0  0  0  0  0
    3.0000   -2.5981    0.0000 O   0  0  0  0  0  0
    0.7500   -1.2990    0.0000 C   0  0  0  0  0  0
    1.5000    0.0000    0.0000 C   0  0  0  0  0  0
    0.7500    1.2990    0.0000 N   0  0  0  0  0  0
   -0.7500    1.2990    0.0000 C   0  0  0  0  0  0
   -1.5000    0.0000    0.0000 C   0  0  0  0  0  0
   -0.7500   -1.2990    0.0000 N   0  0  0  0  0  0
    0.7500   -6.4952    0.0000 C   0  0  0  0  0  0
    1.5000   -7.7942    0.0000 C   0  0  0  0  0  0
   -0.7500   -6.4952    0.0000 C   0  0  0  0  0  0
    6.0000   -7.7942    0.0000 C   0  0  0  0  0  0
    7.5000   -7.7942    0.0000 C   0  0  0  0  0  0
    5.2500   -9.0933    0.0000 C   0  0  0  0  0  0
    6.9911    0.2971    0.0000 C   0  0  0  0  0  0
    5.9874   -0.8176    0.0000 O   0  0  0  0  0  0
    6.5276    1.7237    0.0000 C   0  0  0  0  0  0
    7.5313    2.8384    0.0000 O   0  0  0  0  0  0
    5.0604    2.0356    0.0000 N   0  0  0  0  0  0
    4.5968    3.4622    0.0000 C   0  0  1  0  0  0
    3.1296    3.7740    0.0000 C   0  0  0  0  0  0
    5.6005    4.5769    0.0000 C   0  0  0  0  0  0
    7.0677    4.2650    0.0000 C   0  0  0  0  0  0
    8.0714    5.3797    0.0000 C   0  0  0  0  0  0
    7.6079    6.8063    0.0000 C   0  0  0  0  0  0
    6.1407    7.1182    0.0000 C   0  0  0  0  0  0
    5.1370    6.0035    0.0000 C   0  0  0  0  0  0
  1  2  1  0  0  0
  2  3  1  0  0  0
  3  4  1  0  0  0
  3 35  1  1  0  0
  4  5  1  0  0  0
  5  6  2  0  0  0
  5  7  1  0  0  0
  7  8  1  0  0  0
  7 12  1  1  0  0
  8  9  1  0  0  0
  8 10  1  6  0  0
 10 11  1  0  0  0
 11 12  1  0  0  0
 12 13  1  0  0  0
 13 14  2  0  0  0
 13 15  1  0  0  0
 15 16  1  0  0  0
 15 32  1  6  0  0
 16 17  1  0  0  0
 17 18  2  0  0  0
 17 19  1  0  0  0
 19 20  1  0  0  0
 19 29  1  6  0  0
 20 21  1  0  0  0
 21 22  2  0  0  0
 21 23  1  0  0  0
 23 24  2  0  0  0
 23 28  1  0  0  0
 24 25  1  0  0  0
 25 26  2  0  0  0
 26 27  1  0  0  0
 27 28  2  0  0  0
 29 30  1  0  0  0
 29 31  1  0  0  0
 32 33  1  0  0  0
 32 34  1  0  0  0
 35 36  2  0  0  0
 35 37  1  0  0  0
 37 38  2  0  0  0
 37 39  1  0  0  0
 39 40  1  0  0  0
 40 41  1  0  0  0
 40 42  1  6  0  0
 42 43  2  0  0  0
 42 47  1  0  0  0
 43 44  1  0  0  0
 44 45  2  0  0  0
 45 46  1  0  0  0
 46 47  2  0  0  0
M  END
> <s_m_entry_id>
6517

> <s_m_entry_name>
NS3-4A.58

> <CHEMBLID>
CHEMBL177235

> <s_m_Source_Path>
/home/liwei/Desktop/Machine/HCV/Active

> <s_m_Source_File>
NS3-4A.sdf

> <i_m_Source_File_Index>
58

$$$$
CHEMBL181465
                    3D
 Structure written by MMmdl.
 55 58  0  0  1  0            999 V2000
   14.0846  -15.2566    0.0000 C   0  0  0  0  0  0
   13.0809  -14.1419    0.0000 C   0  0  0  0  0  0
   13.5444  -12.7153    0.0000 C   0  0  0  0  0  0
   11.6137  -14.4538    0.0000 C   0  0  0  0  0  0
   10.6100  -13.3391    0.0000 O   0  0  0  0  0  0
    9.1428  -13.6509    0.0000 C   0  0  0  0  0  0
    8.6792  -15.0775    0.0000 O   0  0  0  0  0  0
    8.1391  -12.5362    0.0000 N   0  0  0  0  0  0
    6.6718  -12.8481    0.0000 C   0  0  1  0  0  0
    6.2083  -14.2747    0.0000 C   0  0  0  0  0  0
    7.2120  -15.3894    0.0000 C   0  0  0  0  0  0
    4.7411  -14.5865    0.0000 C   0  0  0  0  0  0
    5.6682  -11.7334    0.0000 C   0  0  0  0  0  0
    4.2009  -12.0452    0.0000 O   0  0  0  0  0  0
    6.1317  -10.3068    0.0000 N   0  0  0  0  0  0
    7.5583   -9.8433    0.0000 C   0  0  0  0  0  0
    7.5583   -8.3433    0.0000 C   0  0  1  0  0  0
    6.1317   -7.8797    0.0000 C   0  0  0  0  0  0
    5.2500   -9.0933    0.0000 C   0  0  1  0  0  0
    3.7500   -9.0933    0.0000 C   0  0  0  0  0  0
    3.0000  -10.3923    0.0000 O   0  0  0  0  0  0
    3.0000   -7.7942    0.0000 N   0  0  0  0  0  0
    1.5000   -7.7942    0.0000 C   0  0  1  0  0  0
    0.7500   -9.0933    0.0000 C   0  0  0  0  0  0
   -0.7500   -9.0933    0.0000 C   0  0  0  0  0  0
   -1.5000  -10.3923    0.0000 F   0  0  0  0  0  0
   -1.5000   -7.7942    0.0000 F   0  0  0  0  0  0
    0.7500   -6.4952    0.0000 C   0  0  0  0  0  0
   -0.7500   -6.4952    0.0000 O   0  0  0  0  0  0
    1.5000   -5.1962    0.0000 N   0  0  0  0  0  0
    0.7500   -3.8971    0.0000 C   0  0  0  0  0  0
    1.5000   -2.5981    0.0000 C   0  0  0  0  0  0
    0.7500   -1.2990    0.0000 C   0  0  0  0  0  0
    1.5000    0.0000    0.0000 C   0  0  0  0  0  0
    0.7500    1.2990    0.0000 C   0  0  0  0  0  0
   -0.7500    1.2990    0.0000 C   0  0  0  0  0  0
   -1.5000    0.0000    0.0000 C   0  0  0  0  0  0
   -3.0000    0.0000    0.0000 N   0  0  0  0  0  0
   -3.7500    1.2990    0.0000 C   0  0  3  0  0  0
   -3.0000    2.5981    0.0000 C   0  0  0  0  0  0
   -1.5000    2.5981    0.0000 O   0  0  0  0  0  0
   -3.7500    3.8971    0.0000 O   0  0  0  0  0  0
   -5.2500    1.2990    0.0000 C   0  0  0  0  0  0
   -6.0000    2.5981    0.0000 C   0  0  0  0  0  0
   -7.5000    2.5981    0.0000 C   0  0  0  0  0  0
   -8.2500    1.2990    0.0000 C   0  0  0  0  0  0
   -7.5000    0.0000    0.0000 C   0  0  0  0  0  0
   -6.0000    0.0000    0.0000 C   0  0  0  0  0  0
   -0.7500   -1.2990    0.0000 C   0  0  0  0  0  0
    8.7718   -7.4616    0.0000 C   0  0  0  0  0  0
   10.1421   -8.0717    0.0000 C   0  0  0  0  0  0
   11.3556   -7.1900    0.0000 C   0  0  0  0  0  0
   11.1988   -5.6982    0.0000 C   0  0  0  0  0  0
    9.8285   -5.0881    0.0000 C   0  0  0  0  0  0
    8.6150   -5.9698    0.0000 C   0  0  0  0  0  0
  1  2  1  0  0  0
  2  3  1  0  0  0
  2  4  1  0  0  0
  4  5  1  0  0  0
  5  6  1  0  0  0
  6  7  2  0  0  0
  6  8  1  0  0  0
  8  9  1  0  0  0
  9 10  1  0  0  0
  9 13  1  6  0  0
 10 11  1  0  0  0
 10 12  1  0  0  0
 13 14  2  0  0  0
 13 15  1  0  0  0
 15 16  1  0  0  0
 15 19  1  0  0  0
 16 17  1  0  0  0
 17 18  1  0  0  0
 17 50  1  6  0  0
 18 19  1  0  0  0
 19 20  1  6  0  0
 20 21  2  0  0  0
 20 22  1  0  0  0
 22 23  1  0  0  0
 23 24  1  0  0  0
 23 28  1  6  0  0
 24 25  1  0  0  0
 25 26  1  0  0  0
 25 27  1  0  0  0
 28 29  2  0  0  0
 28 30  1  0  0  0
 30 31  1  0  0  0
 31 32  1  0  0  0
 32 33  1  0  0  0
 33 34  2  0  0  0
 33 49  1  0  0  0
 34 35  1  0  0  0
 35 36  2  0  0  0
 36 37  1  0  0  0
 37 38  1  0  0  0
 37 49  2  0  0  0
 38 39  1  0  0  0
 39 40  1  0  0  0
 39 43  1  0  0  0
 40 41  2  0  0  0
 40 42  1  0  0  0
 43 44  2  0  0  0
 43 48  1  0  0  0
 44 45  1  0  0  0
 45 46  2  0  0  0
 46 47  1  0  0  0
 47 48  2  0  0  0
 50 51  1  0  0  0
 50 55  1  0  0  0
 51 52  1  0  0  0
 52 53  1  0  0  0
 53 54  1  0  0  0
 54 55  1  0  0  0
M  END
> <s_m_entry_id>
6518

> <s_m_entry_name>
NS3-4A.59

> <CHEMBLID>
CHEMBL181465

> <s_m_Source_Path>
/home/liwei/Desktop/Machine/HCV/Active

> <s_m_Source_File>
NS3-4A.sdf

> <i_m_Source_File_Index>
59

$$$$
CHEMBL183312
                    3D
 Structure written by MMmdl.
 49 51  0  0  1  0            999 V2000
   14.0846  -15.2566    0.0000 C   0  0  0  0  0  0
   13.0809  -14.1419    0.0000 C   0  0  0  0  0  0
   13.5444  -12.7153    0.0000 C   0  0  0  0  0  0
   11.6137  -14.4538    0.0000 C   0  0  0  0  0  0
   10.6100  -13.3391    0.0000 O   0  0  0  0  0  0
    9.1428  -13.6509    0.0000 C   0  0  0  0  0  0
    8.6792  -15.0775    0.0000 O   0  0  0  0  0  0
    8.1391  -12.5362    0.0000 N   0  0  0  0  0  0
    6.6718  -12.8481    0.0000 C   0  0  1  0  0  0
    6.2083  -14.2747    0.0000 C   0  0  0  0  0  0
    7.2120  -15.3894    0.0000 C   0  0  0  0  0  0
    4.7411  -14.5865    0.0000 C   0  0  0  0  0  0
    5.6682  -11.7334    0.0000 C   0  0  0  0  0  0
    4.2009  -12.0452    0.0000 O   0  0  0  0  0  0
    6.1317  -10.3068    0.0000 N   0  0  0  0  0  0
    7.5583   -9.8433    0.0000 C   0  0  0  0  0  0
    7.5583   -8.3433    0.0000 C   0  0  1  0  0  0
    6.1317   -7.8797    0.0000 C   0  0  0  0  0  0
    5.2500   -9.0933    0.0000 C   0  0  1  0  0  0
    3.7500   -9.0933    0.0000 C   0  0  0  0  0  0
    3.0000  -10.3923    0.0000 O   0  0  0  0  0  0
    3.0000   -7.7942    0.0000 N   0  0  0  0  0  0
    1.5000   -7.7942    0.0000 C   0  0  1  0  0  0
    0.7500   -9.0933    0.0000 C   0  0  0  0  0  0
   -0.7500   -9.0933    0.0000 C   0  0  0  0  0  0
   -1.5000  -10.3923    0.0000 F   0  0  0  0  0  0
   -1.5000   -7.7942    0.0000 F   0  0  0  0  0  0
    0.7500   -6.4952    0.0000 C   0  0  0  0  0  0
   -0.7500   -6.4952    0.0000 O   0  0  0  0  0  0
    1.5000   -5.1962    0.0000 N   0  0  0  0  0  0
    0.7500   -3.8971    0.0000 C   0  0  0  0  0  0
    1.5000   -2.5981    0.0000 C   0  0  0  0  0  0
    0.7500   -1.2990    0.0000 C   0  0  0  0  0  0
    1.5000    0.0000    0.0000 C   0  0  0  0  0  0
    0.7500    1.2990    0.0000 C   0  0  0  0  0  0
   -0.7500    1.2990    0.0000 C   0  0  0  0  0  0
   -1.5000    0.0000    0.0000 C   0  0  0  0  0  0
   -3.0000    0.0000    0.0000 C   0  0  0  0  0  0
   -3.7500    1.2990    0.0000 C   0  0  0  0  0  0
   -5.2500    1.2990    0.0000 C   0  0  0  0  0  0
   -6.0000    0.0000    0.0000 O   0  0  0  0  0  0
   -6.0000    2.5981    0.0000 O   0  0  0  0  0  0
   -0.7500   -1.2990    0.0000 C   0  0  0  0  0  0
    8.7718   -7.4616    0.0000 C   0  0  0  0  0  0
   10.1421   -8.0717    0.0000 C   0  0  0  0  0  0
   11.3556   -7.1900    0.0000 C   0  0  0  0  0  0
   11.1988   -5.6982    0.0000 C   0  0  0  0  0  0
    9.8285   -5.0881    0.0000 C   0  0  0  0  0  0
    8.6150   -5.9698    0.0000 C   0  0  0  0  0  0
  1  2  1  0  0  0
  2  3  1  0  0  0
  2  4  1  0  0  0
  4  5  1  0  0  0
  5  6  1  0  0  0
  6  7  2  0  0  0
  6  8  1  0  0  0
  8  9  1  0  0  0
  9 10  1  0  0  0
  9 13  1  6  0  0
 10 11  1  0  0  0
 10 12  1  0  0  0
 13 14  2  0  0  0
 13 15  1  0  0  0
 15 16  1  0  0  0
 15 19  1  0  0  0
 16 17  1  0  0  0
 17 18  1  0  0  0
 17 44  1  6  0  0
 18 19  1  0  0  0
 19 20  1  6  0  0
 20 21  2  0  0  0
 20 22  1  0  0  0
 22 23  1  0  0  0
 23 24  1  0  0  0
 23 28  1  6  0  0
 24 25  1  0  0  0
 25 26  1  0  0  0
 25 27  1  0  0  0
 28 29  2  0  0  0
 28 30  1  0  0  0
 30 31  1  0  0  0
 31 32  1  0  0  0
 32 33  1  0  0  0
 33 34  2  0  0  0
 33 43  1  0  0  0
 34 35  1  0  0  0
 35 36  2  0  0  0
 36 37  1  0  0  0
 37 38  1  0  0  0
 37 43  2  0  0  0
 38 39  2  0  0  0
 39 40  1  0  0  0
 40 41  2  0  0  0
 40 42  1  0  0  0
 44 45  2  0  0  0
 44 49  1  0  0  0
 45 46  1  0  0  0
 46 47  2  0  0  0
 47 48  1  0  0  0
 48 49  2  0  0  0
M  END
> <s_m_entry_id>
6519

> <s_m_entry_name>
NS3-4A.60

> <CHEMBLID>
CHEMBL183312

> <s_m_Source_Path>
/home/liwei/Desktop/Machine/HCV/Active

> <s_m_Source_File>
NS3-4A.sdf

> <i_m_Source_File_Index>
60

$$$$
CHEMBL185139
                    3D
 Structure written by MMmdl.
 63 67  0  0  1  0            999 V2000
   -7.5000   -7.7942    0.0000 C   0  0  0  0  0  0
   -6.0000   -7.7942    0.0000 O   0  0  0  0  0  0
   -5.2500   -6.4952    0.0000 C   0  0  0  0  0  0
   -6.0000   -5.1962    0.0000 C   0  0  0  0  0  0
   -5.2500   -3.8971    0.0000 C   0  0  0  0  0  0
   -3.7500   -3.8971    0.0000 C   0  0  0  0  0  0
   -3.0000   -2.5981    0.0000 C   0  0  0  0  0  0
   -3.7500   -1.2990    0.0000 O   0  0  0  0  0  0
   -5.2500   -1.2990    0.0000 C   0  0  2  0  0  0
   -6.1317   -2.5126    0.0000 C   0  0  0  0  0  0
   -7.5583   -2.0490    0.0000 C   0  0  2  0  0  0
   -7.5583   -0.5490    0.0000 N   0  0  0  0  0  0
   -6.1317   -0.0855    0.0000 C   0  0  0  0  0  0
   -8.7718    0.3326    0.0000 C   0  0  0  0  0  0
  -10.1421   -0.2775    0.0000 O   0  0  0  0  0  0
   -8.6150    1.8244    0.0000 C   0  0  3  0  0  0
   -9.8285    2.7061    0.0000 N   0  0  0  0  0  0
   -9.6717    4.1979    0.0000 C   0  0  0  0  0  0
  -10.8853    5.0796    0.0000 O   0  0  0  0  0  0
   -8.3014    4.8080    0.0000 O   0  0  0  0  0  0
   -8.1446    6.2998    0.0000 C   0  0  0  0  0  0
   -6.7743    6.9099    0.0000 C   0  0  0  0  0  0
   -6.6175    8.4017    0.0000 C   0  0  0  0  0  0
   -5.5608    6.0282    0.0000 C   0  0  0  0  0  0
   -7.2447    2.4345    0.0000 C   0  0  0  0  0  0
   -6.6346    1.0642    0.0000 C   0  0  0  0  0  0
   -7.8548    3.8048    0.0000 C   0  0  0  0  0  0
   -5.8744    3.0446    0.0000 C   0  0  0  0  0  0
   -8.7718   -2.9307    0.0000 C   0  0  0  0  0  0
   -8.6150   -4.4225    0.0000 O   0  0  0  0  0  0
  -10.1421   -2.3206    0.0000 N   0  0  0  0  0  0
  -11.3556   -3.2023    0.0000 C   0  0  1  0  0  0
  -12.7260   -2.5922    0.0000 C   0  0  0  0  0  0
  -13.9395   -3.4739    0.0000 C   0  0  0  0  0  0
  -15.3098   -2.8638    0.0000 F   0  0  0  0  0  0
  -13.7827   -4.9656    0.0000 F   0  0  0  0  0  0
  -11.1988   -4.6941    0.0000 C   0  0  0  0  0  0
   -9.8285   -5.3042    0.0000 O   0  0  0  0  0  0
  -12.4124   -5.5757    0.0000 N   0  0  0  0  0  0
  -12.2556   -7.0675    0.0000 C   0  0  0  0  0  0
  -13.4691   -7.9492    0.0000 C   0  0  0  0  0  0
  -13.3123   -9.4410    0.0000 C   0  0  0  0  0  0
  -14.5258  -10.3227    0.0000 C   0  0  0  0  0  0
  -15.8961   -9.7126    0.0000 F   0  0  0  0  0  0
  -14.3690  -11.8145    0.0000 C   0  0  0  0  0  0
  -12.9987  -12.4246    0.0000 C   0  0  0  0  0  0
  -11.7852  -11.5429    0.0000 C   0  0  0  0  0  0
  -11.9420  -10.0511    0.0000 C   0  0  0  0  0  0
  -10.7285   -9.1694    0.0000 F   0  0  0  0  0  0
  -12.8419  -13.9163    0.0000 C   0  0  0  0  0  0
  -11.4716  -14.5264    0.0000 O   0  0  0  0  0  0
  -14.0555  -14.7980    0.0000 O   0  0  0  0  0  0
   -1.5000   -2.5981    0.0000 C   0  0  0  0  0  0
   -0.7500   -3.8971    0.0000 C   0  0  0  0  0  0
   -1.5000   -5.1962    0.0000 N   0  0  0  0  0  0
   -3.0000   -5.1962    0.0000 C   0  0  0  0  0  0
   -3.7500   -6.4952    0.0000 C   0  0  0  0  0  0
    0.7500   -3.8971    0.0000 C   0  0  0  0  0  0
    1.5000   -5.1962    0.0000 C   0  0  0  0  0  0
    3.0000   -5.1962    0.0000 C   0  0  0  0  0  0
    3.7500   -3.8971    0.0000 C   0  0  0  0  0  0
    3.0000   -2.5981    0.0000 C   0  0  0  0  0  0
    1.5000   -2.5981    0.0000 C   0  0  0  0  0  0
  1  2  1  0  0  0
  2  3  1  0  0  0
  3  4  2  0  0  0
  3 57  1  0  0  0
  4  5  1  0  0  0
  5  6  2  0  0  0
  6  7  1  0  0  0
  6 56  1  0  0  0
  7  8  1  0  0  0
  7 53  2  0  0  0
  8  9  1  0  0  0
  9 10  1  0  0  0
  9 13  1  6  0  0
 10 11  1  0  0  0
 11 12  1  0  0  0
 11 29  1  1  0  0
 12 13  1  0  0  0
 12 14  1  0  0  0
 14 15  2  0  0  0
 14 16  1  0  0  0
 16 17  1  0  0  0
 16 25  1  0  0  0
 17 18  1  0  0  0
 18 19  2  0  0  0
 18 20  1  0  0  0
 20 21  1  0  0  0
 21 22  1  0  0  0
 22 23  1  0  0  0
 22 24  1  0  0  0
 25 26  1  0  0  0
 25 27  1  0  0  0
 25 28  1  0  0  0
 29 30  2  0  0  0
 29 31  1  0  0  0
 31 32  1  0  0  0
 32 33  1  0  0  0
 32 37  1  6  0  0
 33 34  1  0  0  0
 34 35  1  0  0  0
 34 36  1  0  0  0
 37 38  2  0  0  0
 37 39  1  0  0  0
 39 40  1  0  0  0
 40 41  1  0  0  0
 41 42  1  0  0  0
 42 43  2  0  0  0
 42 48  1  0  0  0
 43 44  1  0  0  0
 43 45  1  0  0  0
 45 46  2  0  0  0
 46 47  1  0  0  0
 46 50  1  0  0  0
 47 48  2  0  0  0
 48 49  1  0  0  0
 50 51  2  0  0  0
 50 52  1  0  0  0
 53 54  1  0  0  0
 54 55  2  0  0  0
 54 58  1  0  0  0
 55 56  1  0  0  0
 56 57  2  0  0  0
 58 59  2  0  0  0
 58 63  1  0  0  0
 59 60  1  0  0  0
 60 61  2  0  0  0
 61 62  1  0  0  0
 62 63  2  0  0  0
M  END
> <s_m_entry_id>
6520

> <s_m_entry_name>
NS3-4A.61

> <CHEMBLID>
CHEMBL185139

> <s_m_Source_Path>
/home/liwei/Desktop/Machine/HCV/Active

> <s_m_Source_File>
NS3-4A.sdf

> <i_m_Source_File_Index>
61

$$$$
CHEMBL214100
                    3D
 Structure written by MMmdl.
 73 76  0  0  1  0            999 V2000
    1.5000    5.1962    0.0000 C   0  0  0  0  0  0
    3.0000    5.1962    0.0000 C   0  0  0  0  0  0
    3.7500    6.4952    0.0000 O   0  0  0  0  0  0
    3.7500    3.8971    0.0000 N   0  0  0  0  0  0
    5.2500    3.8971    0.0000 C   0  0  1  0  0  0
    6.0000    5.1962    0.0000 C   0  0  0  0  0  0
    7.5000    5.1962    0.0000 C   0  0  0  0  0  0
    8.2500    3.8971    0.0000 O   0  0  0  0  0  0
    8.2500    6.4952    0.0000 O   0  0  0  0  0  0
    6.0000    2.5981    0.0000 C   0  0  0  0  0  0
    7.5000    2.5981    0.0000 O   0  0  0  0  0  0
    5.2500    1.2990    0.0000 N   0  0  0  0  0  0
    6.0000   -0.0000    0.0000 C   0  0  1  0  0  0
    7.5000   -0.0000    0.0000 C   0  0  0  0  0  0
    8.2500    1.2990    0.0000 C   0  0  0  0  0  0
    9.7500    1.2990    0.0000 C   0  0  0  0  0  0
   10.5000   -0.0000    0.0000 O   0  0  0  0  0  0
   10.5000    2.5981    0.0000 O   0  0  0  0  0  0
    5.2500   -1.2990    0.0000 C   0  0  0  0  0  0
    6.0000   -2.5981    0.0000 O   0  0  0  0  0  0
    3.7500   -1.2990    0.0000 N   0  0  0  0  0  0
    3.0000   -2.5981    0.0000 C   0  0  1  0  0  0
    1.5000   -2.5981    0.0000 C   0  0  0  0  0  0
    0.7500   -1.2990    0.0000 C   0  0  0  0  0  0
    1.5000    0.0000    0.0000 C   0  0  0  0  0  0
    0.7500    1.2990    0.0000 C   0  0  0  0  0  0
   -0.7500    1.2990    0.0000 C   0  0  0  0  0  0
   -1.5000    0.0000    0.0000 C   0  0  0  0  0  0
   -0.7500   -1.2990    0.0000 C   0  0  0  0  0  0
    0.7500   -3.8971    0.0000 C   0  0  0  0  0  0
   -0.7500   -3.8971    0.0000 C   0  0  0  0  0  0
   -1.5000   -5.1962    0.0000 C   0  0  0  0  0  0
   -0.7500   -6.4952    0.0000 C   0  0  0  0  0  0
    0.7500   -6.4952    0.0000 C   0  0  0  0  0  0
    1.5000   -5.1962    0.0000 C   0  0  0  0  0  0
    3.7500   -3.8971    0.0000 C   0  0  0  0  0  0
    3.0000   -5.1962    0.0000 O   0  0  0  0  0  0
    5.2500   -3.8971    0.0000 N   0  0  0  0  0  0
    6.0000   -5.1962    0.0000 C   0  0  1  0  0  0
    7.5000   -5.1962    0.0000 C   0  0  0  0  0  0
    8.2500   -6.4952    0.0000 C   0  0  0  0  0  0
    9.7500   -6.4952    0.0000 C   0  0  0  0  0  0
   10.5000   -5.1962    0.0000 O   0  0  0  0  0  0
   10.5000   -7.7942    0.0000 O   0  0  0  0  0  0
    5.2500   -6.4952    0.0000 C   0  0  0  0  0  0
    3.7500   -6.4952    0.0000 O   0  0  0  0  0  0
    6.0000   -7.7942    0.0000 N   0  0  0  0  0  0
    5.2500   -9.0933    0.0000 C   0  0  1  0  0  0
    6.0000  -10.3923    0.0000 C   0  0  0  0  0  0
    5.2500  -11.6913    0.0000 C   0  0  0  0  0  0
    3.7500  -11.6913    0.0000 C   0  0  0  0  0  0
    3.0000  -12.9904    0.0000 C   0  0  0  0  0  0
    3.7500  -14.2894    0.0000 C   0  0  0  0  0  0
    5.2500  -14.2894    0.0000 C   0  0  0  0  0  0
    6.0000  -12.9904    0.0000 C   0  0  0  0  0  0
    3.7500   -9.0933    0.0000 C   0  0  0  0  0  0
    3.0000   -7.7942    0.0000 O   0  0  0  0  0  0
    3.0000  -10.3923    0.0000 N   0  0  0  0  0  0
    1.5000  -10.3923    0.0000 C   0  0  1  0  0  0
    0.7500   -9.0933    0.0000 C   0  0  0  0  0  0
   -0.7500   -9.0933    0.0000 S   0  0  0  0  0  0
    0.7500  -11.6913    0.0000 C   0  0  0  0  0  0
    1.5000  -12.9904    0.0000 O   0  0  0  0  0  0
   -0.7500  -11.6913    0.0000 N   0  0  0  0  0  0
   -1.5000  -12.9904    0.0000 C   0  0  0  0  0  0
   -3.0000  -12.9904    0.0000 C   0  0  0  0  0  0
   -3.7500  -14.2894    0.0000 C   0  0  0  0  0  0
   -5.2500  -14.2894    0.0000 C   0  0  0  0  0  0
   -6.0000  -12.9904    0.0000 C   0  0  0  0  0  0
   -7.5000  -12.9904    0.0000 C   0  0  0  0  0  0
   -8.2500  -14.2894    0.0000 C   0  0  0  0  0  0
   -7.5000  -15.5885    0.0000 C   0  0  0  0  0  0
   -6.0000  -15.5885    0.0000 C   0  0  0  0  0  0
  1  2  1  0  0  0
  2  3  2  0  0  0
  2  4  1  0  0  0
  4  5  1  0  0  0
  5  6  1  0  0  0
  5 10  1  6  0  0
  6  7  1  0  0  0
  7  8  2  0  0  0
  7  9  1  0  0  0
 10 11  2  0  0  0
 10 12  1  0  0  0
 12 13  1  0  0  0
 13 14  1  0  0  0
 13 19  1  6  0  0
 14 15  1  0  0  0
 15 16  1  0  0  0
 16 17  2  0  0  0
 16 18  1  0  0  0
 19 20  2  0  0  0
 19 21  1  0  0  0
 21 22  1  0  0  0
 22 23  1  0  0  0
 22 36  1  6  0  0
 23 24  1  0  0  0
 23 30  1  0  0  0
 24 25  2  0  0  0
 24 29  1  0  0  0
 25 26  1  0  0  0
 26 27  2  0  0  0
 27 28  1  0  0  0
 28 29  2  0  0  0
 30 31  2  0  0  0
 30 35  1  0  0  0
 31 32  1  0  0  0
 32 33  2  0  0  0
 33 34  1  0  0  0
 34 35  2  0  0  0
 36 37  2  0  0  0
 36 38  1  0  0  0
 38 39  1  0  0  0
 39 40  1  0  0  0
 39 45  1  6  0  0
 40 41  1  0  0  0
 41 42  1  0  0  0
 42 43  2  0  0  0
 42 44  1  0  0  0
 45 46  2  0  0  0
 45 47  1  0  0  0
 47 48  1  0  0  0
 48 49  1  0  0  0
 48 56  1  6  0  0
 49 50  1  0  0  0
 50 51  1  0  0  0
 50 55  1  0  0  0
 51 52  1  0  0  0
 52 53  1  0  0  0
 53 54  1  0  0  0
 54 55  1  0  0  0
 56 57  2  0  0  0
 56 58  1  0  0  0
 58 59  1  0  0  0
 59 60  1  0  0  0
 59 62  1  1  0  0
 60 61  1  0  0  0
 62 63  2  0  0  0
 62 64  1  0  0  0
 64 65  1  0  0  0
 65 66  1  0  0  0
 66 67  1  0  0  0
 67 68  1  0  0  0
 68 69  2  0  0  0
 68 73  1  0  0  0
 69 70  1  0  0  0
 70 71  2  0  0  0
 71 72  1  0  0  0
 72 73  2  0  0  0
M  END
> <s_m_entry_id>
6521

> <s_m_entry_name>
NS3-4A.62

> <CHEMBLID>
CHEMBL214100

> <s_m_Source_Path>
/home/liwei/Desktop/Machine/HCV/Active

> <s_m_Source_File>
NS3-4A.sdf

> <i_m_Source_File_Index>
62

$$$$
CHEMBL216266
                    3D
 Structure written by MMmdl.
 74 77  0  0  1  0            999 V2000
    1.5000    5.1962    0.0000 C   0  0  0  0  0  0
    3.0000    5.1962    0.0000 C   0  0  0  0  0  0
    3.7500    6.4952    0.0000 O   0  0  0  0  0  0
    3.7500    3.8971    0.0000 N   0  0  0  0  0  0
    5.2500    3.8971    0.0000 C   0  0  1  0  0  0
    6.0000    5.1962    0.0000 C   0  0  0  0  0  0
    7.5000    5.1962    0.0000 C   0  0  0  0  0  0
    8.2500    3.8971    0.0000 O   0  0  0  0  0  0
    8.2500    6.4952    0.0000 O   0  0  0  0  0  0
    6.0000    2.5981    0.0000 C   0  0  0  0  0  0
    7.5000    2.5981    0.0000 O   0  0  0  0  0  0
    5.2500    1.2990    0.0000 N   0  0  0  0  0  0
    6.0000   -0.0000    0.0000 C   0  0  1  0  0  0
    7.5000   -0.0000    0.0000 C   0  0  0  0  0  0
    8.2500    1.2990    0.0000 C   0  0  0  0  0  0
    9.7500    1.2990    0.0000 C   0  0  0  0  0  0
   10.5000   -0.0000    0.0000 O   0  0  0  0  0  0
   10.5000    2.5981    0.0000 O   0  0  0  0  0  0
    5.2500   -1.2990    0.0000 C   0  0  0  0  0  0
    6.0000   -2.5981    0.0000 O   0  0  0  0  0  0
    3.7500   -1.2990    0.0000 N   0  0  0  0  0  0
    3.0000   -2.5981    0.0000 C   0  0  1  0  0  0
    1.5000   -2.5981    0.0000 C   0  0  0  0  0  0
    0.7500   -1.2990    0.0000 C   0  0  0  0  0  0
    1.5000    0.0000    0.0000 C   0  0  0  0  0  0
    0.7500    1.2990    0.0000 C   0  0  0  0  0  0
   -0.7500    1.2990    0.0000 C   0  0  0  0  0  0
   -1.5000    0.0000    0.0000 C   0  0  0  0  0  0
   -0.7500   -1.2990    0.0000 C   0  0  0  0  0  0
    0.7500   -3.8971    0.0000 C   0  0  0  0  0  0
   -0.7500   -3.8971    0.0000 C   0  0  0  0  0  0
   -1.5000   -5.1962    0.0000 C   0  0  0  0  0  0
   -0.7500   -6.4952    0.0000 C   0  0  0  0  0  0
    0.7500   -6.4952    0.0000 C   0  0  0  0  0  0
    1.5000   -5.1962    0.0000 C   0  0  0  0  0  0
    3.7500   -3.8971    0.0000 C   0  0  0  0  0  0
    3.0000   -5.1962    0.0000 O   0  0  0  0  0  0
    5.2500   -3.8971    0.0000 N   0  0  0  0  0  0
    6.0000   -5.1962    0.0000 C   0  0  1  0  0  0
    7.5000   -5.1962    0.0000 C   0  0  0  0  0  0
    8.2500   -6.4952    0.0000 C   0  0  0  0  0  0
    9.7500   -6.4952    0.0000 C   0  0  0  0  0  0
   10.5000   -5.1962    0.0000 O   0  0  0  0  0  0
   10.5000   -7.7942    0.0000 O   0  0  0  0  0  0
    5.2500   -6.4952    0.0000 C   0  0  0  0  0  0
    3.7500   -6.4952    0.0000 O   0  0  0  0  0  0
    6.0000   -7.7942    0.0000 N   0  0  0  0  0  0
    5.2500   -9.0933    0.0000 C   0  0  1  0  0  0
    6.0000  -10.3923    0.0000 C   0  0  0  0  0  0
    5.2500  -11.6913    0.0000 C   0  0  0  0  0  0
    3.7500  -11.6913    0.0000 C   0  0  0  0  0  0
    3.0000  -12.9904    0.0000 C   0  0  0  0  0  0
    3.7500  -14.2894    0.0000 C   0  0  0  0  0  0
    5.2500  -14.2894    0.0000 C   0  0  0  0  0  0
    6.0000  -12.9904    0.0000 C   0  0  0  0  0  0
    3.7500   -9.0933    0.0000 C   0  0  0  0  0  0
    3.0000   -7.7942    0.0000 O   0  0  0  0  0  0
    3.0000  -10.3923    0.0000 N   0  0  0  0  0  0
    1.5000  -10.3923    0.0000 C   0  0  1  0  0  0
    0.7500  -11.6913    0.0000 C   0  0  0  0  0  0
   -0.7500  -11.6913    0.0000 C   0  0  0  0  0  0
   -1.5000  -12.9904    0.0000 F   0  0  0  0  0  0
   -1.5000  -10.3923    0.0000 F   0  0  0  0  0  0
    0.7500   -9.0933    0.0000 C   0  0  0  0  0  0
    1.5000   -7.7942    0.0000 O   0  0  0  0  0  0
   -0.7500   -9.0933    0.0000 N   0  0  0  0  0  0
   -1.5000   -7.7942    0.0000 O   0  0  0  0  0  0
   -3.0000   -7.7942    0.0000 C   0  0  0  0  0  0
   -3.7500   -6.4952    0.0000 C   0  0  0  0  0  0
   -3.0000   -5.1962    0.0000 C   0  0  0  0  0  0
   -3.7500   -3.8971    0.0000 C   0  0  0  0  0  0
   -5.2500   -3.8971    0.0000 C   0  0  0  0  0  0
   -6.0000   -5.1962    0.0000 C   0  0  0  0  0  0
   -5.2500   -6.4952    0.0000 C   0  0  0  0  0  0
  1  2  1  0  0  0
  2  3  2  0  0  0
  2  4  1  0  0  0
  4  5  1  0  0  0
  5  6  1  0  0  0
  5 10  1  6  0  0
  6  7  1  0  0  0
  7  8  2  0  0  0
  7  9  1  0  0  0
 10 11  2  0  0  0
 10 12  1  0  0  0
 12 13  1  0  0  0
 13 14  1  0  0  0
 13 19  1  6  0  0
 14 15  1  0  0  0
 15 16  1  0  0  0
 16 17  2  0  0  0
 16 18  1  0  0  0
 19 20  2  0  0  0
 19 21  1  0  0  0
 21 22  1  0  0  0
 22 23  1  0  0  0
 22 36  1  6  0  0
 23 24  1  0  0  0
 23 30  1  0  0  0
 24 25  2  0  0  0
 24 29  1  0  0  0
 25 26  1  0  0  0
 26 27  2  0  0  0
 27 28  1  0  0  0
 28 29  2  0  0  0
 30 31  2  0  0  0
 30 35  1  0  0  0
 31 32  1  0  0  0
 32 33  2  0  0  0
 33 34  1  0  0  0
 34 35  2  0  0  0
 36 37  2  0  0  0
 36 38  1  0  0  0
 38 39  1  0  0  0
 39 40  1  0  0  0
 39 45  1  6  0  0
 40 41  1  0  0  0
 41 42  1  0  0  0
 42 43  2  0  0  0
 42 44  1  0  0  0
 45 46  2  0  0  0
 45 47  1  0  0  0
 47 48  1  0  0  0
 48 49  1  0  0  0
 48 56  1  6  0  0
 49 50  1  0  0  0
 50 51  1  0  0  0
 50 55  1  0  0  0
 51 52  1  0  0  0
 52 53  1  0  0  0
 53 54  1  0  0  0
 54 55  1  0  0  0
 56 57  2  0  0  0
 56 58  1  0  0  0
 58 59  1  0  0  0
 59 60  1  0  0  0
 59 64  1  6  0  0
 60 61  1  0  0  0
 61 62  1  0  0  0
 61 63  1  0  0  0
 64 65  2  0  0  0
 64 66  1  0  0  0
 66 67  1  0  0  0
 67 68  1  0  0  0
 68 69  1  0  0  0
 69 70  2  0  0  0
 69 74  1  0  0  0
 70 71  1  0  0  0
 71 72  2  0  0  0
 72 73  1  0  0  0
 73 74  2  0  0  0
M  END
> <s_m_entry_id>
6522

> <s_m_entry_name>
NS3-4A.63

> <CHEMBLID>
CHEMBL216266

> <s_m_Source_Path>
/home/liwei/Desktop/Machine/HCV/Active

> <s_m_Source_File>
NS3-4A.sdf

> <i_m_Source_File_Index>
63

$$$$
CHEMBL216587
                    3D
 Structure written by MMmdl.
 74 78  0  0  1  0            999 V2000
    3.8971    3.1427    0.0000 C   0  0  0  0  0  0
    3.8971    1.6427    0.0000 C   0  0  0  0  0  0
    5.1962    0.8927    0.0000 O   0  0  0  0  0  0
    2.5981    0.8927    0.0000 N   0  0  0  0  0  0
    2.5981   -0.6073    0.0000 C   0  0  1  0  0  0
    3.8971   -1.3573    0.0000 C   0  0  0  0  0  0
    3.8971   -2.8573    0.0000 C   0  0  0  0  0  0
    2.5981   -3.6073    0.0000 O   0  0  0  0  0  0
    5.1962   -3.6073    0.0000 O   0  0  0  0  0  0
    1.2990   -1.3573    0.0000 C   0  0  0  0  0  0
    1.2990   -2.8573    0.0000 O   0  0  0  0  0  0
    0.0000   -0.6073    0.0000 N   0  0  0  0  0  0
   -1.2990   -1.3573    0.0000 C   0  0  1  0  0  0
   -1.2990   -2.8573    0.0000 C   0  0  0  0  0  0
    0.0000   -3.6073    0.0000 C   0  0  0  0  0  0
    0.0000   -5.1073    0.0000 C   0  0  0  0  0  0
   -1.2990   -5.8573    0.0000 O   0  0  0  0  0  0
    1.2990   -5.8573    0.0000 O   0  0  0  0  0  0
   -2.5981   -0.6073    0.0000 C   0  0  0  0  0  0
   -3.8971   -1.3573    0.0000 O   0  0  0  0  0  0
   -2.5981    0.8927    0.0000 N   0  0  0  0  0  0
   -3.8971    1.6427    0.0000 C   0  0  1  0  0  0
   -3.8971    3.1427    0.0000 C   0  0  0  0  0  0
   -2.5981    3.8927    0.0000 C   0  0  0  0  0  0
   -1.2990    3.1427    0.0000 C   0  0  0  0  0  0
    0.0000    3.8927    0.0000 C   0  0  0  0  0  0
    0.0000    5.3927    0.0000 C   0  0  0  0  0  0
   -1.2990    6.1427    0.0000 C   0  0  0  0  0  0
   -2.5981    5.3927    0.0000 C   0  0  0  0  0  0
   -5.1962    3.8927    0.0000 C   0  0  0  0  0  0
   -5.1962    5.3927    0.0000 C   0  0  0  0  0  0
   -6.4952    6.1427    0.0000 C   0  0  0  0  0  0
   -7.7942    5.3927    0.0000 C   0  0  0  0  0  0
   -7.7942    3.8927    0.0000 C   0  0  0  0  0  0
   -6.4952    3.1427    0.0000 C   0  0  0  0  0  0
   -5.1962    0.8927    0.0000 C   0  0  0  0  0  0
   -6.4952    1.6427    0.0000 O   0  0  0  0  0  0
   -5.1962   -0.6073    0.0000 N   0  0  0  0  0  0
   -6.4952   -1.3573    0.0000 C   0  0  1  0  0  0
   -7.7942   -0.6073    0.0000 C   0  0  0  0  0  0
   -7.7942    0.8927    0.0000 C   0  0  0  0  0  0
   -9.0933    1.6427    0.0000 C   0  0  0  0  0  0
  -10.3923    0.8927    0.0000 O   0  0  0  0  0  0
   -9.0933    3.1427    0.0000 O   0  0  0  0  0  0
   -6.4952   -2.8573    0.0000 C   0  0  0  0  0  0
   -7.7942   -3.6073    0.0000 O   0  0  0  0  0  0
   -5.1962   -3.6073    0.0000 N   0  0  0  0  0  0
   -5.1962   -5.1073    0.0000 C   0  0  1  0  0  0
   -6.4952   -5.8573    0.0000 C   0  0  0  0  0  0
   -6.4952   -7.3573    0.0000 C   0  0  0  0  0  0
   -5.1962   -8.1073    0.0000 C   0  0  0  0  0  0
   -5.1962   -9.6073    0.0000 C   0  0  0  0  0  0
   -6.4952  -10.3573    0.0000 C   0  0  0  0  0  0
   -7.7942   -9.6073    0.0000 C   0  0  0  0  0  0
   -7.7942   -8.1073    0.0000 C   0  0  0  0  0  0
   -3.8971   -5.8573    0.0000 C   0  0  0  0  0  0
   -2.5981   -5.1073    0.0000 O   0  0  0  0  0  0
   -3.8971   -7.3573    0.0000 N   0  0  0  0  0  0
   -2.5981   -8.1073    0.0000 C   0  0  1  0  0  0
   -1.2990   -7.3573    0.0000 C   0  0  0  0  0  0
    0.0000   -8.1073    0.0000 C   0  0  0  0  0  0
    0.1929   -8.8808    0.0000 F   0  0  0  0  0  0
    1.2990   -7.3573    0.0000 F   0  0  0  0  0  0
   -2.5981   -9.6073    0.0000 C   0  0  0  0  0  0
   -3.8971  -10.3573    0.0000 O   0  0  0  0  0  0
   -1.2990  -10.3573    0.0000 C   0  0  0  0  0  0
    0.0713   -9.7472    0.0000 N   0  0  0  0  0  0
    1.0750  -10.8619    0.0000 C   0  0  0  0  0  0
    2.5750  -10.8619    0.0000 C   0  0  0  0  0  0
    3.3250  -12.1610    0.0000 C   0  0  0  0  0  0
    2.5750  -13.4600    0.0000 C   0  0  0  0  0  0
    1.0750  -13.4600    0.0000 C   0  0  0  0  0  0
    0.3250  -12.1610    0.0000 C   0  0  0  0  0  0
   -1.1422  -11.8491    0.0000 S   0  0  0  0  0  0
  1  2  1  0  0  0
  2  3  2  0  0  0
  2  4  1  0  0  0
  4  5  1  0  0  0
  5  6  1  0  0  0
  5 10  1  6  0  0
  6  7  1  0  0  0
  7  8  2  0  0  0
  7  9  1  0  0  0
 10 11  2  0  0  0
 10 12  1  0  0  0
 12 13  1  0  0  0
 13 14  1  0  0  0
 13 19  1  6  0  0
 14 15  1  0  0  0
 15 16  1  0  0  0
 16 17  2  0  0  0
 16 18  1  0  0  0
 19 20  2  0  0  0
 19 21  1  0  0  0
 21 22  1  0  0  0
 22 23  1  0  0  0
 22 36  1  6  0  0
 23 24  1  0  0  0
 23 30  1  0  0  0
 24 25  2  0  0  0
 24 29  1  0  0  0
 25 26  1  0  0  0
 26 27  2  0  0  0
 27 28  1  0  0  0
 28 29  2  0  0  0
 30 31  2  0  0  0
 30 35  1  0  0  0
 31 32  1  0  0  0
 32 33  2  0  0  0
 33 34  1  0  0  0
 34 35  2  0  0  0
 36 37  2  0  0  0
 36 38  1  0  0  0
 38 39  1  0  0  0
 39 40  1  0  0  0
 39 45  1  6  0  0
 40 41  1  0  0  0
 41 42  1  0  0  0
 42 43  2  0  0  0
 42 44  1  0  0  0
 45 46  2  0  0  0
 45 47  1  0  0  0
 47 48  1  0  0  0
 48 49  1  0  0  0
 48 56  1  6  0  0
 49 50  1  0  0  0
 50 51  1  0  0  0
 50 55  1  0  0  0
 51 52  1  0  0  0
 52 53  1  0  0  0
 53 54  1  0  0  0
 54 55  1  0  0  0
 56 57  2  0  0  0
 56 58  1  0  0  0
 58 59  1  0  0  0
 59 60  1  0  0  0
 59 64  1  6  0  0
 60 61  1  0  0  0
 61 62  1  0  0  0
 61 63  1  0  0  0
 64 65  2  0  0  0
 64 66  1  0  0  0
 66 67  2  0  0  0
 66 74  1  0  0  0
 67 68  1  0  0  0
 68 69  2  0  0  0
 68 73  1  0  0  0
 69 70  1  0  0  0
 70 71  2  0  0  0
 71 72  1  0  0  0
 72 73  2  0  0  0
 73 74  1  0  0  0
M  END
> <s_m_entry_id>
6523

> <s_m_entry_name>
NS3-4A.64

> <CHEMBLID>
CHEMBL216587

> <s_m_Source_Path>
/home/liwei/Desktop/Machine/HCV/Active

> <s_m_Source_File>
NS3-4A.sdf

> <i_m_Source_File_Index>
64

$$$$
CHEMBL216588
                    3D
 Structure written by MMmdl.
 70 73  0  0  1  0            999 V2000
    1.5000    5.1962    0.0000 C   0  0  0  0  0  0
    3.0000    5.1962    0.0000 C   0  0  0  0  0  0
    3.7500    6.4952    0.0000 O   0  0  0  0  0  0
    3.7500    3.8971    0.0000 N   0  0  0  0  0  0
    5.2500    3.8971    0.0000 C   0  0  1  0  0  0
    6.0000    5.1962    0.0000 C   0  0  0  0  0  0
    7.5000    5.1962    0.0000 C   0  0  0  0  0  0
    8.2500    3.8971    0.0000 O   0  0  0  0  0  0
    8.2500    6.4952    0.0000 O   0  0  0  0  0  0
    6.0000    2.5981    0.0000 C   0  0  0  0  0  0
    7.5000    2.5981    0.0000 O   0  0  0  0  0  0
    5.2500    1.2990    0.0000 N   0  0  0  0  0  0
    6.0000   -0.0000    0.0000 C   0  0  1  0  0  0
    7.5000   -0.0000    0.0000 C   0  0  0  0  0  0
    8.2500    1.2990    0.0000 C   0  0  0  0  0  0
    9.7500    1.2990    0.0000 C   0  0  0  0  0  0
   10.5000   -0.0000    0.0000 O   0  0  0  0  0  0
   10.5000    2.5981    0.0000 O   0  0  0  0  0  0
    5.2500   -1.2990    0.0000 C   0  0  0  0  0  0
    6.0000   -2.5981    0.0000 O   0  0  0  0  0  0
    3.7500   -1.2990    0.0000 N   0  0  0  0  0  0
    3.0000   -2.5981    0.0000 C   0  0  1  0  0  0
    1.5000   -2.5981    0.0000 C   0  0  0  0  0  0
    0.7500   -1.2990    0.0000 C   0  0  0  0  0  0
    1.5000    0.0000    0.0000 C   0  0  0  0  0  0
    0.7500    1.2990    0.0000 C   0  0  0  0  0  0
   -0.7500    1.2990    0.0000 C   0  0  0  0  0  0
   -1.5000    0.0000    0.0000 C   0  0  0  0  0  0
   -0.7500   -1.2990    0.0000 C   0  0  0  0  0  0
    0.7500   -3.8971    0.0000 C   0  0  0  0  0  0
   -0.7500   -3.8971    0.0000 C   0  0  0  0  0  0
   -1.5000   -5.1962    0.0000 C   0  0  0  0  0  0
   -0.7500   -6.4952    0.0000 C   0  0  0  0  0  0
    0.7500   -6.4952    0.0000 C   0  0  0  0  0  0
    1.5000   -5.1962    0.0000 C   0  0  0  0  0  0
    3.7500   -3.8971    0.0000 C   0  0  0  0  0  0
    3.0000   -5.1962    0.0000 O   0  0  0  0  0  0
    5.2500   -3.8971    0.0000 N   0  0  0  0  0  0
    6.0000   -5.1962    0.0000 C   0  0  1  0  0  0
    7.5000   -5.1962    0.0000 C   0  0  0  0  0  0
    8.2500   -6.4952    0.0000 C   0  0  0  0  0  0
    9.7500   -6.4952    0.0000 C   0  0  0  0  0  0
   10.5000   -5.1962    0.0000 O   0  0  0  0  0  0
   10.5000   -7.7942    0.0000 O   0  0  0  0  0  0
    5.2500   -6.4952    0.0000 C   0  0  0  0  0  0
    3.7500   -6.4952    0.0000 O   0  0  0  0  0  0
    6.0000   -7.7942    0.0000 N   0  0  0  0  0  0
    5.2500   -9.0933    0.0000 C   0  0  1  0  0  0
    6.0000  -10.3923    0.0000 C   0  0  0  0  0  0
    5.2500  -11.6913    0.0000 C   0  0  0  0  0  0
    3.7500  -11.6913    0.0000 C   0  0  0  0  0  0
    3.0000  -12.9904    0.0000 C   0  0  0  0  0  0
    3.7500  -14.2894    0.0000 C   0  0  0  0  0  0
    5.2500  -14.2894    0.0000 C   0  0  0  0  0  0
    6.0000  -12.9904    0.0000 C   0  0  0  0  0  0
    3.7500   -9.0933    0.0000 C   0  0  0  0  0  0
    3.0000   -7.7942    0.0000 O   0  0  0  0  0  0
    3.0000  -10.3923    0.0000 N   0  0  0  0  0  0
    1.5000  -10.3923    0.0000 C   0  0  1  0  0  0
    0.7500  -11.6913    0.0000 C   0  0  0  0  0  0
   -0.7500  -11.6913    0.0000 C   0  0  0  0  0  0
   -1.5000  -12.9904    0.0000 F   0  0  0  0  0  0
   -1.3038  -11.1179    0.0000 F   0  0  0  0  0  0
    0.7500   -9.0933    0.0000 C   0  0  0  0  0  0
    1.5000   -7.7942    0.0000 O   0  0  0  0  0  0
   -0.7500   -9.0933    0.0000 C   0  0  0  0  0  0
   -1.6317   -7.8797    0.0000 N   0  0  0  0  0  0
   -3.0583   -8.3433    0.0000 C   0  0  0  0  0  0
   -3.0583   -9.8433    0.0000 C   0  0  0  0  0  0
   -1.6317  -10.3068    0.0000 S   0  0  0  0  0  0
  1  2  1  0  0  0
  2  3  2  0  0  0
  2  4  1  0  0  0
  4  5  1  0  0  0
  5  6  1  0  0  0
  5 10  1  6  0  0
  6  7  1  0  0  0
  7  8  2  0  0  0
  7  9  1  0  0  0
 10 11  2  0  0  0
 10 12  1  0  0  0
 12 13  1  0  0  0
 13 14  1  0  0  0
 13 19  1  6  0  0
 14 15  1  0  0  0
 15 16  1  0  0  0
 16 17  2  0  0  0
 16 18  1  0  0  0
 19 20  2  0  0  0
 19 21  1  0  0  0
 21 22  1  0  0  0
 22 23  1  0  0  0
 22 36  1  6  0  0
 23 24  1  0  0  0
 23 30  1  0  0  0
 24 25  2  0  0  0
 24 29  1  0  0  0
 25 26  1  0  0  0
 26 27  2  0  0  0
 27 28  1  0  0  0
 28 29  2  0  0  0
 30 31  2  0  0  0
 30 35  1  0  0  0
 31 32  1  0  0  0
 32 33  2  0  0  0
 33 34  1  0  0  0
 34 35  2  0  0  0
 36 37  2  0  0  0
 36 38  1  0  0  0
 38 39  1  0  0  0
 39 40  1  0  0  0
 39 45  1  6  0  0
 40 41  1  0  0  0
 41 42  1  0  0  0
 42 43  2  0  0  0
 42 44  1  0  0  0
 45 46  2  0  0  0
 45 47  1  0  0  0
 47 48  1  0  0  0
 48 49  1  0  0  0
 48 56  1  6  0  0
 49 50  1  0  0  0
 50 51  1  0  0  0
 50 55  1  0  0  0
 51 52  1  0  0  0
 52 53  1  0  0  0
 53 54  1  0  0  0
 54 55  1  0  0  0
 56 57  2  0  0  0
 56 58  1  0  0  0
 58 59  1  0  0  0
 59 60  1  0  0  0
 59 64  1  6  0  0
 60 61  1  0  0  0
 61 62  1  0  0  0
 61 63  1  0  0  0
 64 65  2  0  0  0
 64 66  1  0  0  0
 66 67  2  0  0  0
 66 70  1  0  0  0
 67 68  1  0  0  0
 68 69  2  0  0  0
 69 70  1  0  0  0
M  END
> <s_m_entry_id>
6524

> <s_m_entry_name>
NS3-4A.65

> <CHEMBLID>
CHEMBL216588

> <s_m_Source_Path>
/home/liwei/Desktop/Machine/HCV/Active

> <s_m_Source_File>
NS3-4A.sdf

> <i_m_Source_File_Index>
65

$$$$
CHEMBL217122
                    3D
 Structure written by MMmdl.
 74 78  0  0  1  0            999 V2000
    3.8971    3.1427    0.0000 C   0  0  0  0  0  0
    3.8971    1.6427    0.0000 C   0  0  0  0  0  0
    5.1962    0.8927    0.0000 O   0  0  0  0  0  0
    2.5981    0.8927    0.0000 N   0  0  0  0  0  0
    2.5981   -0.6073    0.0000 C   0  0  1  0  0  0
    3.8971   -1.3573    0.0000 C   0  0  0  0  0  0
    3.8971   -2.8573    0.0000 C   0  0  0  0  0  0
    2.5981   -3.6073    0.0000 O   0  0  0  0  0  0
    5.1962   -3.6073    0.0000 O   0  0  0  0  0  0
    1.2990   -1.3573    0.0000 C   0  0  0  0  0  0
    1.2990   -2.8573    0.0000 O   0  0  0  0  0  0
    0.0000   -0.6073    0.0000 N   0  0  0  0  0  0
   -1.2990   -1.3573    0.0000 C   0  0  1  0  0  0
   -1.2990   -2.8573    0.0000 C   0  0  0  0  0  0
    0.0000   -3.6073    0.0000 C   0  0  0  0  0  0
    0.0000   -5.1073    0.0000 C   0  0  0  0  0  0
   -1.2990   -5.8573    0.0000 O   0  0  0  0  0  0
    1.2990   -5.8573    0.0000 O   0  0  0  0  0  0
   -2.5981   -0.6073    0.0000 C   0  0  0  0  0  0
   -3.8971   -1.3573    0.0000 O   0  0  0  0  0  0
   -2.5981    0.8927    0.0000 N   0  0  0  0  0  0
   -3.8971    1.6427    0.0000 C   0  0  1  0  0  0
   -3.8971    3.1427    0.0000 C   0  0  0  0  0  0
   -2.5981    3.8927    0.0000 C   0  0  0  0  0  0
   -1.2990    3.1427    0.0000 C   0  0  0  0  0  0
    0.0000    3.8927    0.0000 C   0  0  0  0  0  0
    0.0000    5.3927    0.0000 C   0  0  0  0  0  0
   -1.2990    6.1427    0.0000 C   0  0  0  0  0  0
   -2.5981    5.3927    0.0000 C   0  0  0  0  0  0
   -5.1962    3.8927    0.0000 C   0  0  0  0  0  0
   -5.1962    5.3927    0.0000 C   0  0  0  0  0  0
   -6.4952    6.1427    0.0000 C   0  0  0  0  0  0
   -7.7942    5.3927    0.0000 C   0  0  0  0  0  0
   -7.7942    3.8927    0.0000 C   0  0  0  0  0  0
   -6.4952    3.1427    0.0000 C   0  0  0  0  0  0
   -5.1962    0.8927    0.0000 C   0  0  0  0  0  0
   -6.4952    1.6427    0.0000 O   0  0  0  0  0  0
   -5.1962   -0.6073    0.0000 N   0  0  0  0  0  0
   -6.4952   -1.3573    0.0000 C   0  0  1  0  0  0
   -7.7942   -0.6073    0.0000 C   0  0  0  0  0  0
   -7.7942    0.8927    0.0000 C   0  0  0  0  0  0
   -9.0933    1.6427    0.0000 C   0  0  0  0  0  0
  -10.3923    0.8927    0.0000 O   0  0  0  0  0  0
   -9.0933    3.1427    0.0000 O   0  0  0  0  0  0
   -6.4952   -2.8573    0.0000 C   0  0  0  0  0  0
   -7.7942   -3.6073    0.0000 O   0  0  0  0  0  0
   -5.1962   -3.6073    0.0000 N   0  0  0  0  0  0
   -5.1962   -5.1073    0.0000 C   0  0  1  0  0  0
   -6.4952   -5.8573    0.0000 C   0  0  0  0  0  0
   -6.4952   -7.3573    0.0000 C   0  0  0  0  0  0
   -5.1962   -8.1073    0.0000 C   0  0  0  0  0  0
   -5.1962   -9.6073    0.0000 C   0  0  0  0  0  0
   -6.4952  -10.3573    0.0000 C   0  0  0  0  0  0
   -7.7942   -9.6073    0.0000 C   0  0  0  0  0  0
   -7.7942   -8.1073    0.0000 C   0  0  0  0  0  0
   -3.8971   -5.8573    0.0000 C   0  0  0  0  0  0
   -2.5981   -5.1073    0.0000 O   0  0  0  0  0  0
   -3.8971   -7.3573    0.0000 N   0  0  0  0  0  0
   -2.5981   -8.1073    0.0000 C   0  0  1  0  0  0
   -1.2990   -7.3573    0.0000 C   0  0  0  0  0  0
    0.0000   -8.1073    0.0000 C   0  0  0  0  0  0
    0.1929   -8.8808    0.0000 F   0  0  0  0  0  0
    1.2990   -7.3573    0.0000 F   0  0  0  0  0  0
   -2.5981   -9.6073    0.0000 C   0  0  0  0  0  0
   -3.8971  -10.3573    0.0000 O   0  0  0  0  0  0
   -1.2990  -10.3573    0.0000 C   0  0  0  0  0  0
    0.0713   -9.7472    0.0000 O   0  0  0  0  0  0
    1.0750  -10.8619    0.0000 C   0  0  0  0  0  0
    2.5750  -10.8619    0.0000 C   0  0  0  0  0  0
    3.3250  -12.1610    0.0000 C   0  0  0  0  0  0
    2.5750  -13.4600    0.0000 C   0  0  0  0  0  0
    1.0750  -13.4600    0.0000 C   0  0  0  0  0  0
    0.3250  -12.1610    0.0000 C   0  0  0  0  0  0
   -1.1422  -11.8491    0.0000 N   0  0  0  0  0  0
  1  2  1  0  0  0
  2  3  2  0  0  0
  2  4  1  0  0  0
  4  5  1  0  0  0
  5  6  1  0  0  0
  5 10  1  6  0  0
  6  7  1  0  0  0
  7  8  2  0  0  0
  7  9  1  0  0  0
 10 11  2  0  0  0
 10 12  1  0  0  0
 12 13  1  0  0  0
 13 14  1  0  0  0
 13 19  1  6  0  0
 14 15  1  0  0  0
 15 16  1  0  0  0
 16 17  2  0  0  0
 16 18  1  0  0  0
 19 20  2  0  0  0
 19 21  1  0  0  0
 21 22  1  0  0  0
 22 23  1  0  0  0
 22 36  1  6  0  0
 23 24  1  0  0  0
 23 30  1  0  0  0
 24 25  2  0  0  0
 24 29  1  0  0  0
 25 26  1  0  0  0
 26 27  2  0  0  0
 27 28  1  0  0  0
 28 29  2  0  0  0
 30 31  2  0  0  0
 30 35  1  0  0  0
 31 32  1  0  0  0
 32 33  2  0  0  0
 33 34  1  0  0  0
 34 35  2  0  0  0
 36 37  2  0  0  0
 36 38  1  0  0  0
 38 39  1  0  0  0
 39 40  1  0  0  0
 39 45  1  6  0  0
 40 41  1  0  0  0
 41 42  1  0  0  0
 42 43  2  0  0  0
 42 44  1  0  0  0
 45 46  2  0  0  0
 45 47  1  0  0  0
 47 48  1  0  0  0
 48 49  1  0  0  0
 48 56  1  6  0  0
 49 50  1  0  0  0
 50 51  1  0  0  0
 50 55  1  0  0  0
 51 52  1  0  0  0
 52 53  1  0  0  0
 53 54  1  0  0  0
 54 55  1  0  0  0
 56 57  2  0  0  0
 56 58  1  0  0  0
 58 59  1  0  0  0
 59 60  1  0  0  0
 59 64  1  6  0  0
 60 61  1  0  0  0
 61 62  1  0  0  0
 61 63  1  0  0  0
 64 65  2  0  0  0
 64 66  1  0  0  0
 66 67  1  0  0  0
 66 74  2  0  0  0
 67 68  1  0  0  0
 68 69  2  0  0  0
 68 73  1  0  0  0
 69 70  1  0  0  0
 70 71  2  0  0  0
 71 72  1  0  0  0
 72 73  2  0  0  0
 73 74  1  0  0  0
M  END
> <s_m_entry_id>
6525

> <s_m_entry_name>
NS3-4A.66

> <CHEMBLID>
CHEMBL217122

> <s_m_Source_Path>
/home/liwei/Desktop/Machine/HCV/Active

> <s_m_Source_File>
NS3-4A.sdf

> <i_m_Source_File_Index>
66

$$$$
CHEMBL224074
                    3D
 Structure written by MMmdl.
 45 45  0  0  1  0            999 V2000
   14.2500    6.4952    0.0000 C   0  0  0  0  0  0
   12.7500    6.4952    0.0000 C   0  0  0  0  0  0
   12.0000    5.1962    0.0000 C   0  0  0  0  0  0
   10.5000    5.1962    0.0000 C   0  0  3  0  0  0
    9.7500    6.4952    0.0000 N   0  0  0  0  0  0
   10.5000    7.7942    0.0000 C   0  0  0  0  0  0
   12.0000    7.7942    0.0000 O   0  0  0  0  0  0
    9.7500    9.0933    0.0000 C   0  0  2  0  0  0
   10.5000   10.3923    0.0000 C   0  0  0  0  0  0
    9.7500   11.6913    0.0000 C   0  0  0  0  0  0
   10.5000   12.9904    0.0000 C   0  0  0  0  0  0
    8.2500   11.6913    0.0000 C   0  0  0  0  0  0
    8.2500    9.0933    0.0000 N   0  0  0  0  0  0
    7.5000    7.7942    0.0000 C   0  0  0  0  0  0
    8.2500    6.4952    0.0000 O   0  0  0  0  0  0
    6.0000    7.7942    0.0000 C   0  0  3  0  0  0
    5.2500    6.4952    0.0000 C   0  0  0  0  0  0
    3.7500    6.4952    0.0000 C   0  0  0  0  0  0
    3.0000    5.1962    0.0000 C   0  0  0  0  0  0
    1.5000    5.1962    0.0000 C   0  0  0  0  0  0
    0.7500    3.8971    0.0000 C   0  0  0  0  0  0
   -0.7500    3.8971    0.0000 C   0  0  0  0  0  0
    1.5000    2.5981    0.0000 C   0  0  0  0  0  0
    5.2500    9.0933    0.0000 C   0  0  0  0  0  0
    3.7500    9.0933    0.0000 C   0  0  0  0  0  0
    6.0000   10.3923    0.0000 C   0  0  0  0  0  0
    9.7500    3.8971    0.0000 C   0  0  0  0  0  0
   10.5000    2.5981    0.0000 O   0  0  0  0  0  0
    8.2500    3.8971    0.0000 C   0  0  0  0  0  0
    7.5000    5.1962    0.0000 O   0  0  0  0  0  0
    7.5000    2.5981    0.0000 N   0  0  0  0  0  0
    6.0000    2.5981    0.0000 C   0  0  0  0  0  0
    5.2500    1.2990    0.0000 C   0  0  0  0  0  0
    6.0000   -0.0000    0.0000 O   0  0  0  0  0  0
    3.7500    1.2990    0.0000 N   0  0  0  0  0  0
    3.0000    0.0000    0.0000 C   0  0  2  0  0  0
    3.7500   -1.2990    0.0000 C   0  0  0  0  0  0
    3.0000   -2.5981    0.0000 O   0  0  0  0  0  0
    5.2500   -1.2990    0.0000 O   0  0  0  0  0  0
    1.5000    0.0000    0.0000 C   0  0  0  0  0  0
    0.7500   -1.2990    0.0000 C   0  0  0  0  0  0
   -0.7500   -1.2990    0.0000 C   0  0  0  0  0  0
   -1.5000    0.0000    0.0000 C   0  0  0  0  0  0
   -0.7500    1.2990    0.0000 C   0  0  0  0  0  0
    0.7500    1.2990    0.0000 C   0  0  0  0  0  0
  1  2  1  0  0  0
  2  3  1  0  0  0
  3  4  1  0  0  0
  4  5  1  0  0  0
  4 27  1  0  0  0
  5  6  1  0  0  0
  6  7  2  0  0  0
  6  8  1  0  0  0
  8  9  1  0  0  0
  8 13  1  1  0  0
  9 10  1  0  0  0
 10 11  1  0  0  0
 10 12  1  0  0  0
 13 14  1  0  0  0
 14 15  2  0  0  0
 14 16  1  0  0  0
 16 17  1  0  0  0
 16 24  1  0  0  0
 17 18  1  0  0  0
 18 19  2  0  0  0
 19 20  1  0  0  0
 20 21  1  0  0  0
 21 22  1  0  0  0
 21 23  1  0  0  0
 24 25  1  0  0  0
 24 26  1  0  0  0
 27 28  2  0  0  0
 27 29  1  0  0  0
 29 30  2  0  0  0
 29 31  1  0  0  0
 31 32  1  0  0  0
 32 33  1  0  0  0
 33 34  2  0  0  0
 33 35  1  0  0  0
 35 36  1  0  0  0
 36 37  1  0  0  0
 36 40  1  1  0  0
 37 38  2  0  0  0
 37 39  1  0  0  0
 40 41  2  0  0  0
 40 45  1  0  0  0
 41 42  1  0  0  0
 42 43  2  0  0  0
 43 44  1  0  0  0
 44 45  2  0  0  0
M  END
> <s_m_entry_id>
6526

> <s_m_entry_name>
NS3-4A.67

> <CHEMBLID>
CHEMBL224074

> <s_m_Source_Path>
/home/liwei/Desktop/Machine/HCV/Active

> <s_m_Source_File>
NS3-4A.sdf

> <i_m_Source_File_Index>
67

$$$$
CHEMBL226763
                    3D
 Structure written by MMmdl.
 37 39  0  0  1  0            999 V2000
   -3.6922   -7.2452    0.0000 C   0  0  0  0  0  0
   -4.9913   -6.4952    0.0000 C   0  0  0  0  0  0
   -6.2903   -5.7452    0.0000 C   0  0  0  0  0  0
   -5.7413   -7.7942    0.0000 C   0  0  0  0  0  0
   -4.2413   -5.1962    0.0000 N   0  0  0  0  0  0
   -4.9913   -3.8971    0.0000 C   0  0  0  0  0  0
   -6.4913   -3.8971    0.0000 O   0  0  0  0  0  0
   -4.2413   -2.5981    0.0000 N   0  0  0  0  0  0
   -4.9913   -1.2990    0.0000 C   0  0  3  0  0  0
   -4.2413    0.0000    0.0000 C   0  0  0  0  0  0
   -4.9913    1.2990    0.0000 O   0  0  0  0  0  0
   -2.7413    0.0000    0.0000 N   0  0  0  0  0  0
   -1.8596   -1.2135    0.0000 C   0  0  0  0  0  0
   -0.4330   -0.7500    0.0000 C   0  0  1  0  0  0
   -0.4330    0.7500    0.0000 C   0  0  1  0  0  0
   -1.8596    1.2135    0.0000 C   0  0  3  0  0  0
   -2.3231    2.6401    0.0000 C   0  0  0  0  0  0
   -3.7903    2.9520    0.0000 O   0  0  0  0  0  0
   -1.3194    3.7548    0.0000 N   0  0  0  0  0  0
   -1.7830    5.1814    0.0000 C   0  0  1  0  0  0
   -0.7793    6.2961    0.0000 C   0  0  0  0  0  0
    0.6880    5.9843    0.0000 C   0  0  0  0  0  0
    1.9460    6.8012    0.0000 C   0  0  0  0  0  0
    2.7629    5.5432    0.0000 C   0  0  0  0  0  0
    1.5049    4.7263    0.0000 C   0  0  0  0  0  0
   -3.2502    5.4933    0.0000 C   0  0  0  0  0  0
   -4.2539    4.3786    0.0000 O   0  0  0  0  0  0
   -3.7137    6.9199    0.0000 C   0  0  0  0  0  0
   -2.7100    8.0346    0.0000 O   0  0  0  0  0  0
   -5.1809    7.2317    0.0000 N   0  0  0  0  0  0
    0.8660    0.0000    0.0000 C   0  0  0  0  0  0
    1.8302    1.1491    0.0000 F   0  0  0  0  0  0
    1.8302   -1.1491    0.0000 F   0  0  0  0  0  0
   -6.4913   -1.2990    0.0000 C   0  0  0  0  0  0
   -6.4913   -2.7990    0.0000 C   0  0  0  0  0  0
   -6.4913    0.2010    0.0000 C   0  0  0  0  0  0
   -7.9913   -1.2990    0.0000 C   0  0  0  0  0  0
  1  2  1  0  0  0
  2  3  1  0  0  0
  2  4  1  0  0  0
  2  5  1  0  0  0
  5  6  1  0  0  0
  6  7  2  0  0  0
  6  8  1  0  0  0
  8  9  1  0  0  0
  9 10  1  0  0  0
  9 34  1  0  0  0
 10 11  2  0  0  0
 10 12  1  0  0  0
 12 13  1  0  0  0
 12 16  1  0  0  0
 13 14  1  0  0  0
 14 15  1  0  0  0
 14 31  1  1  0  0
 15 16  1  0  0  0
 15 31  1  6  0  0
 16 17  1  0  0  0
 17 18  2  0  0  0
 17 19  1  0  0  0
 19 20  1  0  0  0
 20 21  1  0  0  0
 20 26  1  6  0  0
 21 22  1  0  0  0
 22 23  1  0  0  0
 22 25  1  0  0  0
 23 24  1  0  0  0
 24 25  1  0  0  0
 26 27  2  0  0  0
 26 28  1  0  0  0
 28 29  2  0  0  0
 28 30  1  0  0  0
 31 32  1  0  0  0
 31 33  1  0  0  0
 34 35  1  0  0  0
 34 36  1  0  0  0
 34 37  1  0  0  0
M  END
> <s_m_entry_id>
6527

> <s_m_entry_name>
NS3-4A.68

> <CHEMBLID>
CHEMBL226763

> <s_m_Source_Path>
/home/liwei/Desktop/Machine/HCV/Active

> <s_m_Source_File>
NS3-4A.sdf

> <i_m_Source_File_Index>
68

$$$$
CHEMBL227375
                    3D
 Structure written by MMmdl.
 40 43  0  0  1  0            999 V2000
   -2.0490    2.0490    0.0000 C   0  0  0  0  0  0
   -0.7500    1.2990    0.0000 C   0  0  0  0  0  0
    0.5490    0.5490    0.0000 C   0  0  0  0  0  0
   -0.0000    2.5981    0.0000 C   0  0  0  0  0  0
   -1.5000   -0.0000    0.0000 O   0  0  0  0  0  0
   -0.7500   -1.2990    0.0000 C   0  0  0  0  0  0
    0.7500   -1.2990    0.0000 O   0  0  0  0  0  0
   -1.5000   -2.5981    0.0000 N   0  0  0  0  0  0
   -0.7500   -3.8971    0.0000 C   0  0  3  0  0  0
   -1.5000   -5.1962    0.0000 C   0  0  0  0  0  0
   -3.0000   -5.1962    0.0000 C   0  0  0  0  0  0
   -3.7500   -6.4952    0.0000 C   0  0  0  0  0  0
   -3.0000   -7.7942    0.0000 C   0  0  0  0  0  0
   -1.5000   -7.7942    0.0000 C   0  0  0  0  0  0
   -0.7500   -6.4952    0.0000 C   0  0  0  0  0  0
    0.7500   -3.8971    0.0000 C   0  0  0  0  0  0
    1.5000   -2.5981    0.0000 O   0  0  0  0  0  0
    1.5000   -5.1962    0.0000 N   0  0  0  0  0  0
    0.8899   -6.5665    0.0000 C   0  0  0  0  0  0
    2.0046   -7.5702    0.0000 C   0  0  1  0  0  0
    3.3037   -6.8202    0.0000 C   0  0  1  0  0  0
    2.9918   -5.3529    0.0000 C   0  0  3  0  0  0
    3.9955   -4.2382    0.0000 C   0  0  0  0  0  0
    3.5320   -2.8116    0.0000 O   0  0  0  0  0  0
    5.4627   -4.5501    0.0000 N   0  0  0  0  0  0
    6.4664   -3.4354    0.0000 C   0  0  1  0  0  0
    7.9336   -3.7472    0.0000 C   0  0  0  0  0  0
    8.3971   -5.1738    0.0000 C   0  0  0  0  0  0
    7.5155   -6.3874    0.0000 C   0  0  0  0  0  0
    8.3971   -7.6009    0.0000 C   0  0  0  0  0  0
    9.8237   -7.1374    0.0000 C   0  0  0  0  0  0
    9.8237   -5.6374    0.0000 C   0  0  0  0  0  0
    6.0029   -2.0088    0.0000 C   0  0  0  0  0  0
    4.5356   -1.6969    0.0000 O   0  0  0  0  0  0
    7.0066   -0.8941    0.0000 C   0  0  0  0  0  0
    8.4738   -1.2059    0.0000 O   0  0  0  0  0  0
    6.5430    0.5325    0.0000 N   0  0  0  0  0  0
    3.3037   -8.3202    0.0000 C   0  0  0  0  0  0
    4.7809   -8.5806    0.0000 C   0  0  0  0  0  0
    2.7906   -9.7297    0.0000 C   0  0  0  0  0  0
  1  2  1  0  0  0
  2  3  1  0  0  0
  2  4  1  0  0  0
  2  5  1  0  0  0
  5  6  1  0  0  0
  6  7  2  0  0  0
  6  8  1  0  0  0
  8  9  1  0  0  0
  9 10  1  0  0  0
  9 16  1  0  0  0
 10 11  1  0  0  0
 10 15  1  0  0  0
 11 12  1  0  0  0
 12 13  1  0  0  0
 13 14  1  0  0  0
 14 15  1  0  0  0
 16 17  2  0  0  0
 16 18  1  0  0  0
 18 19  1  0  0  0
 18 22  1  0  0  0
 19 20  1  0  0  0
 20 21  1  0  0  0
 20 38  1  6  0  0
 21 22  1  0  0  0
 21 38  1  1  0  0
 22 23  1  0  0  0
 23 24  2  0  0  0
 23 25  1  0  0  0
 25 26  1  0  0  0
 26 27  1  0  0  0
 26 33  1  6  0  0
 27 28  1  0  0  0
 28 29  1  0  0  0
 28 32  1  0  0  0
 29 30  1  0  0  0
 30 31  1  0  0  0
 31 32  1  0  0  0
 33 34  2  0  0  0
 33 35  1  0  0  0
 35 36  2  0  0  0
 35 37  1  0  0  0
 38 39  1  0  0  0
 38 40  1  0  0  0
M  END
> <s_m_entry_id>
6528

> <s_m_entry_name>
NS3-4A.69

> <CHEMBLID>
CHEMBL227375

> <s_m_Source_Path>
/home/liwei/Desktop/Machine/HCV/Active

> <s_m_Source_File>
NS3-4A.sdf

> <i_m_Source_File_Index>
69

$$$$
CHEMBL227398
                    3D
 Structure written by MMmdl.
 35 35  0  0  1  0            999 V2000
    3.3107   -9.0933    0.0000 C   0  0  0  0  0  0
    2.5607   -7.7942    0.0000 C   0  0  0  0  0  0
    1.0607   -7.7942    0.0000 C   0  0  0  0  0  0
    3.3107   -6.4952    0.0000 C   0  0  0  0  0  0
    2.5607   -5.1962    0.0000 C   0  0  2  0  0  0
    1.0607   -5.1962    0.0000 N   0  0  0  0  0  0
    0.3107   -3.8971    0.0000 C   0  0  0  0  0  0
    1.0607   -2.5981    0.0000 O   0  0  0  0  0  0
   -1.1893   -3.8971    0.0000 C   0  0  3  0  0  0
   -1.9393   -5.1962    0.0000 N   0  0  0  0  0  0
   -3.4393   -5.1962    0.0000 C   0  0  0  0  0  0
   -4.1893   -3.8971    0.0000 O   0  0  0  0  0  0
   -4.1893   -6.4952    0.0000 O   0  0  0  0  0  0
   -5.6893   -6.4952    0.0000 C   0  0  0  0  0  0
   -5.6893   -7.9952    0.0000 C   0  0  0  0  0  0
   -5.6893   -4.9952    0.0000 C   0  0  0  0  0  0
   -7.1893   -6.4952    0.0000 C   0  0  0  0  0  0
   -1.9393   -2.5981    0.0000 C   0  0  0  0  0  0
   -3.2384   -3.3481    0.0000 C   0  0  0  0  0  0
   -0.6403   -1.8481    0.0000 C   0  0  0  0  0  0
   -2.6893   -1.2990    0.0000 C   0  0  0  0  0  0
    3.3107   -3.8971    0.0000 C   0  0  0  0  0  0
    4.8107   -3.8971    0.0000 O   0  0  0  0  0  0
    2.5607   -2.5981    0.0000 N   0  0  0  0  0  0
    3.3107   -1.2990    0.0000 C   0  0  1  0  0  0
    2.5607    0.0000    0.0000 C   0  0  0  0  0  0
    1.0607    0.0000    0.0000 C   0  0  0  0  0  0
   -0.0000   -1.0607    0.0000 C   0  0  0  0  0  0
   -1.0607    0.0000    0.0000 C   0  0  0  0  0  0
    0.0000    1.0607    0.0000 C   0  0  0  0  0  0
    4.8107   -1.2990    0.0000 C   0  0  0  0  0  0
    5.5607   -2.5981    0.0000 O   0  0  0  0  0  0
    5.5607   -0.0000    0.0000 C   0  0  0  0  0  0
    7.0607   -0.0000    0.0000 O   0  0  0  0  0  0
    4.8107    1.2990    0.0000 N   0  0  0  0  0  0
  1  2  1  0  0  0
  2  3  1  0  0  0
  2  4  1  0  0  0
  4  5  1  0  0  0
  5  6  1  0  0  0
  5 22  1  1  0  0
  6  7  1  0  0  0
  7  8  2  0  0  0
  7  9  1  0  0  0
  9 10  1  0  0  0
  9 18  1  0  0  0
 10 11  1  0  0  0
 11 12  2  0  0  0
 11 13  1  0  0  0
 13 14  1  0  0  0
 14 15  1  0  0  0
 14 16  1  0  0  0
 14 17  1  0  0  0
 18 19  1  0  0  0
 18 20  1  0  0  0
 18 21  1  0  0  0
 22 23  2  0  0  0
 22 24  1  0  0  0
 24 25  1  0  0  0
 25 26  1  0  0  0
 25 31  1  6  0  0
 26 27  1  0  0  0
 27 28  1  0  0  0
 27 30  1  0  0  0
 28 29  1  0  0  0
 29 30  1  0  0  0
 31 32  2  0  0  0
 31 33  1  0  0  0
 33 34  2  0  0  0
 33 35  1  0  0  0
M  END
> <s_m_entry_id>
6529

> <s_m_entry_name>
NS3-4A.70

> <CHEMBLID>
CHEMBL227398

> <s_m_Source_Path>
/home/liwei/Desktop/Machine/HCV/Active

> <s_m_Source_File>
NS3-4A.sdf

> <i_m_Source_File_Index>
70

$$$$
CHEMBL227399
                    3D
 Structure written by MMmdl.
 35 37  0  0  1  0            999 V2000
   -7.2413   -2.5981    0.0000 C   0  0  0  0  0  0
   -6.4913   -1.2990    0.0000 C   0  0  0  0  0  0
   -7.2413    0.0000    0.0000 C   0  0  0  0  0  0
   -4.9913   -1.2990    0.0000 C   0  0  2  0  0  0
   -4.2413   -2.5981    0.0000 N   0  0  0  0  0  0
   -4.9913   -3.8971    0.0000 C   0  0  0  0  0  0
   -6.4913   -3.8971    0.0000 O   0  0  0  0  0  0
   -4.2413   -5.1962    0.0000 N   0  0  0  0  0  0
   -4.9913   -6.4952    0.0000 C   0  0  0  0  0  0
   -3.6922   -7.2452    0.0000 C   0  0  0  0  0  0
   -6.2903   -5.7452    0.0000 C   0  0  0  0  0  0
   -5.7413   -7.7942    0.0000 C   0  0  0  0  0  0
   -4.2413    0.0000    0.0000 C   0  0  0  0  0  0
   -4.9913    1.2990    0.0000 O   0  0  0  0  0  0
   -2.7413    0.0000    0.0000 N   0  0  0  0  0  0
   -1.8596   -1.2135    0.0000 C   0  0  0  0  0  0
   -0.4330   -0.7500    0.0000 C   0  0  1  0  0  0
   -0.4330    0.7500    0.0000 C   0  0  1  0  0  0
   -1.8596    1.2135    0.0000 C   0  0  3  0  0  0
   -2.3231    2.6401    0.0000 C   0  0  0  0  0  0
   -3.7903    2.9520    0.0000 O   0  0  0  0  0  0
   -1.3194    3.7548    0.0000 N   0  0  0  0  0  0
   -1.7830    5.1814    0.0000 C   0  0  1  0  0  0
   -0.7793    6.2961    0.0000 C   0  0  0  0  0  0
    0.6880    5.9843    0.0000 C   0  0  0  0  0  0
    1.8027    4.9806    0.0000 C   0  0  0  0  0  0
    2.1145    6.4478    0.0000 C   0  0  0  0  0  0
   -3.2502    5.4933    0.0000 C   0  0  0  0  0  0
   -4.2539    4.3786    0.0000 O   0  0  0  0  0  0
   -3.7137    6.9199    0.0000 C   0  0  0  0  0  0
   -2.7100    8.0346    0.0000 O   0  0  0  0  0  0
   -5.1809    7.2317    0.0000 N   0  0  0  0  0  0
    0.8660    0.0000    0.0000 C   0  0  0  0  0  0
    1.8302    1.1491    0.0000 C   0  0  0  0  0  0
    1.8302   -1.1491    0.0000 C   0  0  0  0  0  0
  1  2  1  0  0  0
  2  3  1  0  0  0
  2  4  1  0  0  0
  4  5  1  0  0  0
  4 13  1  1  0  0
  5  6  1  0  0  0
  6  7  2  0  0  0
  6  8  1  0  0  0
  8  9  1  0  0  0
  9 10  1  0  0  0
  9 11  1  0  0  0
  9 12  1  0  0  0
 13 14  2  0  0  0
 13 15  1  0  0  0
 15 16  1  0  0  0
 15 19  1  0  0  0
 16 17  1  0  0  0
 17 18  1  0  0  0
 17 33  1  6  0  0
 18 19  1  0  0  0
 18 33  1  1  0  0
 19 20  1  0  0  0
 20 21  2  0  0  0
 20 22  1  0  0  0
 22 23  1  0  0  0
 23 24  1  0  0  0
 23 28  1  6  0  0
 24 25  1  0  0  0
 25 26  1  0  0  0
 25 27  1  0  0  0
 26 27  1  0  0  0
 28 29  2  0  0  0
 28 30  1  0  0  0
 30 31  2  0  0  0
 30 32  1  0  0  0
 33 34  1  0  0  0
 33 35  1  0  0  0
M  END
> <s_m_entry_id>
6530

> <s_m_entry_name>
NS3-4A.71

> <CHEMBLID>
CHEMBL227399

> <s_m_Source_Path>
/home/liwei/Desktop/Machine/HCV/Active

> <s_m_Source_File>
NS3-4A.sdf

> <i_m_Source_File_Index>
71

$$$$
CHEMBL227450
                    3D
 Structure written by MMmdl.
 36 37  0  0  1  0            999 V2000
   -8.1154   -7.8555    0.0000 C   0  0  0  0  0  0
   -7.6518   -6.4289    0.0000 C   0  0  0  0  0  0
   -6.1846   -6.1170    0.0000 C   0  0  0  0  0  0
   -5.7211   -4.6904    0.0000 C   0  0  0  0  0  0
   -4.2539   -4.3786    0.0000 C   0  0  2  0  0  0
   -3.7903   -2.9520    0.0000 N   0  0  0  0  0  0
   -2.3231   -2.6401    0.0000 C   0  0  0  0  0  0
   -1.3194   -3.7548    0.0000 O   0  0  0  0  0  0
   -1.8596   -1.2135    0.0000 C   0  0  3  0  0  0
   -0.4330   -0.7500    0.0000 C   0  0  2  0  0  0
   -0.4330    0.7500    0.0000 C   0  0  2  0  0  0
   -1.8596    1.2135    0.0000 C   0  0  0  0  0  0
   -2.7413    0.0000    0.0000 N   0  0  0  0  0  0
   -4.2413    0.0000    0.0000 C   0  0  0  0  0  0
   -4.9913   -1.2990    0.0000 O   0  0  0  0  0  0
   -4.9913    1.2990    0.0000 C   0  0  3  0  0  0
   -4.2413    2.5981    0.0000 N   0  0  0  0  0  0
   -4.9913    3.8971    0.0000 C   0  0  0  0  0  0
   -6.4913    3.8971    0.0000 O   0  0  0  0  0  0
   -4.2413    5.1962    0.0000 O   0  0  0  0  0  0
   -4.9913    6.4952    0.0000 C   0  0  0  0  0  0
   -3.6922    7.2452    0.0000 C   0  0  0  0  0  0
   -6.2903    5.7452    0.0000 C   0  0  0  0  0  0
   -5.7413    7.7942    0.0000 C   0  0  0  0  0  0
   -6.4913    1.2990    0.0000 C   0  0  0  0  0  0
   -6.4913    2.7990    0.0000 C   0  0  0  0  0  0
   -6.4913   -0.2010    0.0000 C   0  0  0  0  0  0
   -7.9913    1.2990    0.0000 C   0  0  0  0  0  0
    0.8660    0.0000    0.0000 C   0  0  0  0  0  0
    1.8302    1.1491    0.0000 C   0  0  0  0  0  0
    1.8302   -1.1491    0.0000 C   0  0  0  0  0  0
   -3.2502   -5.4933    0.0000 C   0  0  0  0  0  0
   -1.7830   -5.1814    0.0000 O   0  0  0  0  0  0
   -3.7137   -6.9199    0.0000 C   0  0  0  0  0  0
   -5.1809   -7.2317    0.0000 O   0  0  0  0  0  0
   -2.7100   -8.0346    0.0000 N   0  0  0  0  0  0
  1  2  1  0  0  0
  2  3  1  0  0  0
  3  4  1  0  0  0
  4  5  1  0  0  0
  5  6  1  0  0  0
  5 32  1  1  0  0
  6  7  1  0  0  0
  7  8  2  0  0  0
  7  9  1  0  0  0
  9 10  1  0  0  0
  9 13  1  0  0  0
 10 11  1  0  0  0
 10 29  1  6  0  0
 11 12  1  0  0  0
 11 29  1  1  0  0
 12 13  1  0  0  0
 13 14  1  0  0  0
 14 15  2  0  0  0
 14 16  1  0  0  0
 16 17  1  0  0  0
 16 25  1  0  0  0
 17 18  1  0  0  0
 18 19  2  0  0  0
 18 20  1  0  0  0
 20 21  1  0  0  0
 21 22  1  0  0  0
 21 23  1  0  0  0
 21 24  1  0  0  0
 25 26  1  0  0  0
 25 27  1  0  0  0
 25 28  1  0  0  0
 29 30  1  0  0  0
 29 31  1  0  0  0
 32 33  2  0  0  0
 32 34  1  0  0  0
 34 35  2  0  0  0
 34 36  1  0  0  0
M  END
> <s_m_entry_id>
6531

> <s_m_entry_name>
NS3-4A.72

> <CHEMBLID>
CHEMBL227450

> <s_m_Source_Path>
/home/liwei/Desktop/Machine/HCV/Active

> <s_m_Source_File>
NS3-4A.sdf

> <i_m_Source_File_Index>
72

$$$$
CHEMBL227471
                    3D
 Structure written by MMmdl.
 35 36  0  0  1  0            999 V2000
   -7.6518   -6.4289    0.0000 C   0  0  0  0  0  0
   -6.1846   -6.1170    0.0000 C   0  0  0  0  0  0
   -5.7211   -4.6904    0.0000 C   0  0  0  0  0  0
   -4.2539   -4.3786    0.0000 C   0  0  2  0  0  0
   -3.7903   -2.9520    0.0000 N   0  0  0  0  0  0
   -2.3231   -2.6401    0.0000 C   0  0  0  0  0  0
   -1.3194   -3.7548    0.0000 O   0  0  0  0  0  0
   -1.8596   -1.2135    0.0000 C   0  0  3  0  0  0
   -0.4330   -0.7500    0.0000 C   0  0  2  0  0  0
   -0.4330    0.7500    0.0000 C   0  0  2  0  0  0
   -1.8596    1.2135    0.0000 C   0  0  0  0  0  0
   -2.7413    0.0000    0.0000 N   0  0  0  0  0  0
   -4.2413    0.0000    0.0000 C   0  0  0  0  0  0
   -4.9913   -1.2990    0.0000 O   0  0  0  0  0  0
   -4.9913    1.2990    0.0000 C   0  0  3  0  0  0
   -4.2413    2.5981    0.0000 N   0  0  0  0  0  0
   -4.9913    3.8971    0.0000 C   0  0  0  0  0  0
   -6.4913    3.8971    0.0000 O   0  0  0  0  0  0
   -4.2413    5.1962    0.0000 O   0  0  0  0  0  0
   -4.9913    6.4952    0.0000 C   0  0  0  0  0  0
   -3.6922    7.2452    0.0000 C   0  0  0  0  0  0
   -6.2903    5.7452    0.0000 C   0  0  0  0  0  0
   -5.7413    7.7942    0.0000 C   0  0  0  0  0  0
   -6.4913    1.2990    0.0000 C   0  0  0  0  0  0
   -6.4913    2.7990    0.0000 C   0  0  0  0  0  0
   -6.4913   -0.2010    0.0000 C   0  0  0  0  0  0
   -7.9913    1.2990    0.0000 C   0  0  0  0  0  0
    0.8660    0.0000    0.0000 C   0  0  0  0  0  0
    1.8302    1.1491    0.0000 C   0  0  0  0  0  0
    1.8302   -1.1491    0.0000 C   0  0  0  0  0  0
   -3.2502   -5.4933    0.0000 C   0  0  0  0  0  0
   -1.7830   -5.1814    0.0000 O   0  0  0  0  0  0
   -3.7137   -6.9199    0.0000 C   0  0  0  0  0  0
   -5.1809   -7.2317    0.0000 O   0  0  0  0  0  0
   -2.7100   -8.0346    0.0000 N   0  0  0  0  0  0
  1  2  1  0  0  0
  2  3  1  0  0  0
  3  4  1  0  0  0
  4  5  1  0  0  0
  4 31  1  1  0  0
  5  6  1  0  0  0
  6  7  2  0  0  0
  6  8  1  0  0  0
  8  9  1  0  0  0
  8 12  1  0  0  0
  9 10  1  0  0  0
  9 28  1  6  0  0
 10 11  1  0  0  0
 10 28  1  1  0  0
 11 12  1  0  0  0
 12 13  1  0  0  0
 13 14  2  0  0  0
 13 15  1  0  0  0
 15 16  1  0  0  0
 15 24  1  0  0  0
 16 17  1  0  0  0
 17 18  2  0  0  0
 17 19  1  0  0  0
 19 20  1  0  0  0
 20 21  1  0  0  0
 20 22  1  0  0  0
 20 23  1  0  0  0
 24 25  1  0  0  0
 24 26  1  0  0  0
 24 27  1  0  0  0
 28 29  1  0  0  0
 28 30  1  0  0  0
 31 32  2  0  0  0
 31 33  1  0  0  0
 33 34  2  0  0  0
 33 35  1  0  0  0
M  END
> <s_m_entry_id>
6532

> <s_m_entry_name>
NS3-4A.73

> <CHEMBLID>
CHEMBL227471

> <s_m_Source_Path>
/home/liwei/Desktop/Machine/HCV/Active

> <s_m_Source_File>
NS3-4A.sdf

> <i_m_Source_File_Index>
73

$$$$
CHEMBL227477
                    3D
 Structure written by MMmdl.
 38 40  0  0  1  0            999 V2000
   -3.6922   -7.2452    0.0000 C   0  0  0  0  0  0
   -4.9913   -6.4952    0.0000 C   0  0  0  0  0  0
   -6.2903   -5.7452    0.0000 C   0  0  0  0  0  0
   -5.7413   -7.7942    0.0000 C   0  0  0  0  0  0
   -4.2413   -5.1962    0.0000 N   0  0  0  0  0  0
   -4.9913   -3.8971    0.0000 C   0  0  0  0  0  0
   -6.4913   -3.8971    0.0000 O   0  0  0  0  0  0
   -4.2413   -2.5981    0.0000 N   0  0  0  0  0  0
   -4.9913   -1.2990    0.0000 C   0  0  3  0  0  0
   -4.2413    0.0000    0.0000 C   0  0  0  0  0  0
   -4.9913    1.2990    0.0000 O   0  0  0  0  0  0
   -2.7413    0.0000    0.0000 N   0  0  0  0  0  0
   -1.8596   -1.2135    0.0000 C   0  0  0  0  0  0
   -0.4330   -0.7500    0.0000 C   0  0  1  0  0  0
   -0.4330    0.7500    0.0000 C   0  0  1  0  0  0
   -1.8596    1.2135    0.0000 C   0  0  3  0  0  0
   -2.3231    2.6401    0.0000 C   0  0  0  0  0  0
   -3.7903    2.9520    0.0000 O   0  0  0  0  0  0
   -1.3194    3.7548    0.0000 N   0  0  0  0  0  0
   -1.7830    5.1814    0.0000 C   0  0  1  0  0  0
   -0.7793    6.2961    0.0000 C   0  0  0  0  0  0
    0.6880    5.9843    0.0000 C   0  0  3  0  0  0
    1.8027    4.9806    0.0000 C   0  0  0  0  0  0
    2.1145    6.4478    0.0000 C   0  0  0  0  0  0
    3.6136    6.3954    0.0000 F   0  0  0  0  0  0
    1.9058    7.9332    0.0000 F   0  0  0  0  0  0
   -3.2502    5.4933    0.0000 C   0  0  0  0  0  0
   -4.2539    4.3786    0.0000 O   0  0  0  0  0  0
   -3.7137    6.9199    0.0000 C   0  0  0  0  0  0
   -2.7100    8.0346    0.0000 O   0  0  0  0  0  0
   -5.1809    7.2317    0.0000 N   0  0  0  0  0  0
    0.8660    0.0000    0.0000 C   0  0  0  0  0  0
    1.8302    1.1491    0.0000 C   0  0  0  0  0  0
    1.8302   -1.1491    0.0000 C   0  0  0  0  0  0
   -6.4913   -1.2990    0.0000 C   0  0  0  0  0  0
   -6.4913   -2.7990    0.0000 C   0  0  0  0  0  0
   -6.4913    0.2010    0.0000 C   0  0  0  0  0  0
   -7.9913   -1.2990    0.0000 C   0  0  0  0  0  0
  1  2  1  0  0  0
  2  3  1  0  0  0
  2  4  1  0  0  0
  2  5  1  0  0  0
  5  6  1  0  0  0
  6  7  2  0  0  0
  6  8  1  0  0  0
  8  9  1  0  0  0
  9 10  1  0  0  0
  9 35  1  0  0  0
 10 11  2  0  0  0
 10 12  1  0  0  0
 12 13  1  0  0  0
 12 16  1  0  0  0
 13 14  1  0  0  0
 14 15  1  0  0  0
 14 32  1  6  0  0
 15 16  1  0  0  0
 15 32  1  1  0  0
 16 17  1  0  0  0
 17 18  2  0  0  0
 17 19  1  0  0  0
 19 20  1  0  0  0
 20 21  1  0  0  0
 20 27  1  6  0  0
 21 22  1  0  0  0
 22 23  1  0  0  0
 22 24  1  0  0  0
 23 24  1  0  0  0
 24 25  1  0  0  0
 24 26  1  0  0  0
 27 28  2  0  0  0
 27 29  1  0  0  0
 29 30  2  0  0  0
 29 31  1  0  0  0
 32 33  1  0  0  0
 32 34  1  0  0  0
 35 36  1  0  0  0
 35 37  1  0  0  0
 35 38  1  0  0  0
M  END
> <s_m_entry_id>
6533

> <s_m_entry_name>
NS3-4A.74

> <CHEMBLID>
CHEMBL227477

> <s_m_Source_Path>
/home/liwei/Desktop/Machine/HCV/Active

> <s_m_Source_File>
NS3-4A.sdf

> <i_m_Source_File_Index>
74

$$$$
CHEMBL227502
                    3D
 Structure written by MMmdl.
 35 38  0  0  1  0            999 V2000
   -0.7500    1.2990    0.0000 C   0  0  0  0  0  0
   -1.5000   -0.0000    0.0000 O   0  0  0  0  0  0
   -0.7500   -1.2990    0.0000 C   0  0  0  0  0  0
    0.7500   -1.2990    0.0000 O   0  0  0  0  0  0
   -1.5000   -2.5981    0.0000 N   0  0  0  0  0  0
   -0.7500   -3.8971    0.0000 C   0  0  3  0  0  0
   -1.5000   -5.1962    0.0000 C   0  0  0  0  0  0
   -3.0000   -5.1962    0.0000 C   0  0  0  0  0  0
   -3.7500   -6.4952    0.0000 C   0  0  0  0  0  0
   -3.0000   -7.7942    0.0000 C   0  0  0  0  0  0
   -1.5000   -7.7942    0.0000 C   0  0  0  0  0  0
   -0.7500   -6.4952    0.0000 C   0  0  0  0  0  0
    0.7500   -3.8971    0.0000 C   0  0  0  0  0  0
    1.5000   -2.5981    0.0000 O   0  0  0  0  0  0
    1.5000   -5.1962    0.0000 N   0  0  0  0  0  0
    0.8899   -6.5665    0.0000 C   0  0  0  0  0  0
    2.0046   -7.5702    0.0000 C   0  0  1  0  0  0
    3.3037   -6.8202    0.0000 C   0  0  1  0  0  0
    2.9918   -5.3529    0.0000 C   0  0  3  0  0  0
    3.9955   -4.2382    0.0000 C   0  0  0  0  0  0
    3.5320   -2.8116    0.0000 O   0  0  0  0  0  0
    5.4627   -4.5501    0.0000 N   0  0  0  0  0  0
    6.4664   -3.4354    0.0000 C   0  0  1  0  0  0
    7.9336   -3.7472    0.0000 C   0  0  0  0  0  0
    8.3971   -5.1738    0.0000 C   0  0  0  0  0  0
    8.0853   -6.6411    0.0000 C   0  0  0  0  0  0
    9.5119   -6.1775    0.0000 C   0  0  0  0  0  0
    6.0029   -2.0088    0.0000 C   0  0  0  0  0  0
    4.5356   -1.6969    0.0000 O   0  0  0  0  0  0
    7.0066   -0.8941    0.0000 C   0  0  0  0  0  0
    8.4738   -1.2059    0.0000 O   0  0  0  0  0  0
    6.5430    0.5325    0.0000 N   0  0  0  0  0  0
    3.3037   -8.3202    0.0000 C   0  0  0  0  0  0
    4.7809   -8.5806    0.0000 C   0  0  0  0  0  0
    2.7906   -9.7297    0.0000 C   0  0  0  0  0  0
  1  2  1  0  0  0
  2  3  1  0  0  0
  3  4  2  0  0  0
  3  5  1  0  0  0
  5  6  1  0  0  0
  6  7  1  0  0  0
  6 13  1  0  0  0
  7  8  1  0  0  0
  7 12  1  0  0  0
  8  9  1  0  0  0
  9 10  1  0  0  0
 10 11  1  0  0  0
 11 12  1  0  0  0
 13 14  2  0  0  0
 13 15  1  0  0  0
 15 16  1  0  0  0
 15 19  1  0  0  0
 16 17  1  0  0  0
 17 18  1  0  0  0
 17 33  1  6  0  0
 18 19  1  0  0  0
 18 33  1  1  0  0
 19 20  1  0  0  0
 20 21  2  0  0  0
 20 22  1  0  0  0
 22 23  1  0  0  0
 23 24  1  0  0  0
 23 28  1  6  0  0
 24 25  1  0  0  0
 25 26  1  0  0  0
 25 27  1  0  0  0
 26 27  1  0  0  0
 28 29  2  0  0  0
 28 30  1  0  0  0
 30 31  2  0  0  0
 30 32  1  0  0  0
 33 34  1  0  0  0
 33 35  1  0  0  0
M  END
> <s_m_entry_id>
6534

> <s_m_entry_name>
NS3-4A.75

> <CHEMBLID>
CHEMBL227502

> <s_m_Source_Path>
/home/liwei/Desktop/Machine/HCV/Active

> <s_m_Source_File>
NS3-4A.sdf

> <i_m_Source_File_Index>
75

$$$$
CHEMBL227516
                    3D
 Structure written by MMmdl.
 39 41  0  0  1  0            999 V2000
    5.5644    6.3204    0.0000 C   0  0  0  0  0  0
    4.4497    7.3241    0.0000 C   0  0  0  0  0  0
    3.3350    8.3277    0.0000 C   0  0  0  0  0  0
    5.4534    8.4388    0.0000 C   0  0  0  0  0  0
    3.4460    6.2093    0.0000 N   0  0  0  0  0  0
    1.9788    6.5212    0.0000 C   0  0  0  0  0  0
    1.5153    7.9478    0.0000 O   0  0  0  0  0  0
    0.9751    5.4065    0.0000 N   0  0  0  0  0  0
   -0.4921    5.7184    0.0000 C   0  0  3  0  0  0
   -1.4958    4.6036    0.0000 C   0  0  0  0  0  0
   -2.9630    4.9155    0.0000 O   0  0  0  0  0  0
   -1.0323    3.1771    0.0000 N   0  0  0  0  0  0
    0.3943    2.7135    0.0000 C   0  0  0  0  0  0
    0.3943    1.2135    0.0000 C   0  0  2  0  0  0
    1.2760    0.0000    0.0000 O   0  0  0  0  0  0
    0.3943   -1.2135    0.0000 C   0  0  0  0  0  0
    1.6933   -1.9635    0.0000 C   0  0  0  0  0  0
   -0.2158   -2.5838    0.0000 C   0  0  0  0  0  0
   -1.0323   -0.7500    0.0000 C   0  0  0  0  0  0
   -1.0323    0.7500    0.0000 C   0  0  2  0  0  0
   -1.9140    1.9635    0.0000 C   0  0  3  0  0  0
   -3.4140    1.9635    0.0000 C   0  0  0  0  0  0
   -4.1640    0.6645    0.0000 O   0  0  0  0  0  0
   -4.1640    3.2626    0.0000 N   0  0  0  0  0  0
   -5.6640    3.2626    0.0000 C   0  0  1  0  0  0
   -6.4140    4.5616    0.0000 C   0  0  0  0  0  0
   -5.6640    5.8606    0.0000 C   0  0  0  0  0  0
   -6.0522    7.3095    0.0000 C   0  0  0  0  0  0
   -4.6033    7.6978    0.0000 C   0  0  0  0  0  0
   -4.2151    6.2489    0.0000 C   0  0  0  0  0  0
   -6.4140    1.9635    0.0000 C   0  0  0  0  0  0
   -5.6640    0.6645    0.0000 O   0  0  0  0  0  0
   -7.9140    1.9635    0.0000 C   0  0  0  0  0  0
   -8.6640    0.6645    0.0000 O   0  0  0  0  0  0
   -8.6640    3.2626    0.0000 N   0  0  0  0  0  0
   -0.9556    7.1449    0.0000 C   0  0  0  0  0  0
    0.4709    7.6085    0.0000 C   0  0  0  0  0  0
   -2.3822    6.6814    0.0000 C   0  0  0  0  0  0
   -1.4192    8.5715    0.0000 C   0  0  0  0  0  0
  1  2  1  0  0  0
  2  3  1  0  0  0
  2  4  1  0  0  0
  2  5  1  0  0  0
  5  6  1  0  0  0
  6  7  2  0  0  0
  6  8  1  0  0  0
  8  9  1  0  0  0
  9 10  1  0  0  0
  9 36  1  0  0  0
 10 11  2  0  0  0
 10 12  1  0  0  0
 12 13  1  0  0  0
 12 21  1  0  0  0
 13 14  1  0  0  0
 14 15  1  0  0  0
 14 20  1  6  0  0
 15 16  1  0  0  0
 16 17  1  0  0  0
 16 18  1  0  0  0
 16 19  1  0  0  0
 19 20  1  0  0  0
 20 21  1  6  0  0
 21 22  1  0  0  0
 22 23  2  0  0  0
 22 24  1  0  0  0
 24 25  1  0  0  0
 25 26  1  0  0  0
 25 31  1  6  0  0
 26 27  1  0  0  0
 27 28  1  0  0  0
 27 30  1  0  0  0
 28 29  1  0  0  0
 29 30  1  0  0  0
 31 32  2  0  0  0
 31 33  1  0  0  0
 33 34  2  0  0  0
 33 35  1  0  0  0
 36 37  1  0  0  0
 36 38  1  0  0  0
 36 39  1  0  0  0
M  END
> <s_m_entry_id>
6535

> <s_m_entry_name>
NS3-4A.76

> <CHEMBLID>
CHEMBL227516

> <s_m_Source_Path>
/home/liwei/Desktop/Machine/HCV/Active

> <s_m_Source_File>
NS3-4A.sdf

> <i_m_Source_File_Index>
76

$$$$
CHEMBL227661
                    3D
 Structure written by MMmdl.
 38 40  0  0  1  0            999 V2000
   -8.1920   -3.8876    0.0000 C   0  0  0  0  0  0
   -6.7248   -3.5757    0.0000 C   0  0  0  0  0  0
   -6.2613   -2.1491    0.0000 C   0  0  0  0  0  0
   -5.7211   -4.6904    0.0000 C   0  0  0  0  0  0
   -4.2539   -4.3786    0.0000 C   0  0  2  0  0  0
   -3.7903   -2.9520    0.0000 N   0  0  0  0  0  0
   -2.3231   -2.6401    0.0000 C   0  0  0  0  0  0
   -1.3194   -3.7548    0.0000 O   0  0  0  0  0  0
   -1.8596   -1.2135    0.0000 C   0  0  3  0  0  0
   -0.4330   -0.7500    0.0000 C   0  0  2  0  0  0
   -0.4330    0.7500    0.0000 C   0  0  2  0  0  0
   -1.8596    1.2135    0.0000 C   0  0  0  0  0  0
   -2.7413    0.0000    0.0000 N   0  0  0  0  0  0
   -4.2413    0.0000    0.0000 C   0  0  0  0  0  0
   -4.9913   -1.2990    0.0000 O   0  0  0  0  0  0
   -4.9913    1.2990    0.0000 C   0  0  3  0  0  0
   -4.2413    2.5981    0.0000 N   0  0  0  0  0  0
   -4.9913    3.8971    0.0000 C   0  0  0  0  0  0
   -6.4913    3.8971    0.0000 O   0  0  0  0  0  0
   -4.2413    5.1962    0.0000 O   0  0  0  0  0  0
   -4.9913    6.4952    0.0000 C   0  0  0  0  0  0
   -3.6922    7.2452    0.0000 C   0  0  0  0  0  0
   -6.2903    5.7452    0.0000 C   0  0  0  0  0  0
   -5.7413    7.7942    0.0000 C   0  0  0  0  0  0
   -6.4913    1.2990    0.0000 C   0  0  0  0  0  0
   -7.2413    2.5981    0.0000 C   0  0  0  0  0  0
   -8.7413    2.5981    0.0000 C   0  0  0  0  0  0
   -9.4913    1.2990    0.0000 C   0  0  0  0  0  0
   -8.7413    0.0000    0.0000 C   0  0  0  0  0  0
   -7.2413    0.0000    0.0000 C   0  0  0  0  0  0
    0.8660    0.0000    0.0000 C   0  0  0  0  0  0
    1.8302    1.1491    0.0000 C   0  0  0  0  0  0
    1.8302   -1.1491    0.0000 C   0  0  0  0  0  0
   -3.2502   -5.4933    0.0000 C   0  0  0  0  0  0
   -1.7830   -5.1814    0.0000 O   0  0  0  0  0  0
   -3.7137   -6.9199    0.0000 C   0  0  0  0  0  0
   -2.7100   -8.0346    0.0000 O   0  0  0  0  0  0
   -5.1809   -7.2317    0.0000 N   0  0  0  0  0  0
  1  2  1  0  0  0
  2  3  1  0  0  0
  2  4  1  0  0  0
  4  5  1  0  0  0
  5  6  1  0  0  0
  5 34  1  1  0  0
  6  7  1  0  0  0
  7  8  2  0  0  0
  7  9  1  0  0  0
  9 10  1  0  0  0
  9 13  1  0  0  0
 10 11  1  0  0  0
 10 31  1  6  0  0
 11 12  1  0  0  0
 11 31  1  1  0  0
 12 13  1  0  0  0
 13 14  1  0  0  0
 14 15  2  0  0  0
 14 16  1  0  0  0
 16 17  1  0  0  0
 16 25  1  0  0  0
 17 18  1  0  0  0
 18 19  2  0  0  0
 18 20  1  0  0  0
 20 21  1  0  0  0
 21 22  1  0  0  0
 21 23  1  0  0  0
 21 24  1  0  0  0
 25 26  1  0  0  0
 25 30  1  0  0  0
 26 27  1  0  0  0
 27 28  1  0  0  0
 28 29  1  0  0  0
 29 30  1  0  0  0
 31 32  1  0  0  0
 31 33  1  0  0  0
 34 35  2  0  0  0
 34 36  1  0  0  0
 36 37  2  0  0  0
 36 38  1  0  0  0
M  END
> <s_m_entry_id>
6536

> <s_m_entry_name>
NS3-4A.77

> <CHEMBLID>
CHEMBL227661

> <s_m_Source_Path>
/home/liwei/Desktop/Machine/HCV/Active

> <s_m_Source_File>
NS3-4A.sdf

> <i_m_Source_File_Index>
77

$$$$
CHEMBL227712
                    3D
 Structure written by MMmdl.
 38 41  0  0  1  0            999 V2000
   -2.0490    2.0490    0.0000 C   0  0  0  0  0  0
   -0.7500    1.2990    0.0000 C   0  0  0  0  0  0
    0.5490    0.5490    0.0000 C   0  0  0  0  0  0
   -0.0000    2.5981    0.0000 C   0  0  0  0  0  0
   -1.5000   -0.0000    0.0000 O   0  0  0  0  0  0
   -0.7500   -1.2990    0.0000 C   0  0  0  0  0  0
    0.7500   -1.2990    0.0000 O   0  0  0  0  0  0
   -1.5000   -2.5981    0.0000 N   0  0  0  0  0  0
   -0.7500   -3.8971    0.0000 C   0  0  3  0  0  0
   -1.5000   -5.1962    0.0000 C   0  0  0  0  0  0
   -3.0000   -5.1962    0.0000 C   0  0  0  0  0  0
   -3.7500   -6.4952    0.0000 C   0  0  0  0  0  0
   -3.0000   -7.7942    0.0000 C   0  0  0  0  0  0
   -1.5000   -7.7942    0.0000 C   0  0  0  0  0  0
   -0.7500   -6.4952    0.0000 C   0  0  0  0  0  0
    0.7500   -3.8971    0.0000 C   0  0  0  0  0  0
    1.5000   -2.5981    0.0000 O   0  0  0  0  0  0
    1.5000   -5.1962    0.0000 N   0  0  0  0  0  0
    0.8899   -6.5665    0.0000 C   0  0  0  0  0  0
    2.0046   -7.5702    0.0000 C   0  0  1  0  0  0
    3.3037   -6.8202    0.0000 C   0  0  1  0  0  0
    2.9918   -5.3529    0.0000 C   0  0  3  0  0  0
    3.9955   -4.2382    0.0000 C   0  0  0  0  0  0
    3.5320   -2.8116    0.0000 O   0  0  0  0  0  0
    5.4627   -4.5501    0.0000 N   0  0  0  0  0  0
    6.4664   -3.4354    0.0000 C   0  0  1  0  0  0
    7.9336   -3.7472    0.0000 C   0  0  0  0  0  0
    8.3971   -5.1738    0.0000 C   0  0  0  0  0  0
    8.0853   -6.6411    0.0000 C   0  0  0  0  0  0
    9.5119   -6.1775    0.0000 C   0  0  0  0  0  0
    6.0029   -2.0088    0.0000 C   0  0  0  0  0  0
    4.5356   -1.6969    0.0000 O   0  0  0  0  0  0
    7.0066   -0.8941    0.0000 C   0  0  0  0  0  0
    8.4738   -1.2059    0.0000 O   0  0  0  0  0  0
    6.5430    0.5325    0.0000 N   0  0  0  0  0  0
    3.3037   -8.3202    0.0000 C   0  0  0  0  0  0
    4.7809   -8.5806    0.0000 C   0  0  0  0  0  0
    2.7906   -9.7297    0.0000 C   0  0  0  0  0  0
  1  2  1  0  0  0
  2  3  1  0  0  0
  2  4  1  0  0  0
  2  5  1  0  0  0
  5  6  1  0  0  0
  6  7  2  0  0  0
  6  8  1  0  0  0
  8  9  1  0  0  0
  9 10  1  0  0  0
  9 16  1  0  0  0
 10 11  1  0  0  0
 10 15  1  0  0  0
 11 12  1  0  0  0
 12 13  1  0  0  0
 13 14  1  0  0  0
 14 15  1  0  0  0
 16 17  2  0  0  0
 16 18  1  0  0  0
 18 19  1  0  0  0
 18 22  1  0  0  0
 19 20  1  0  0  0
 20 21  1  0  0  0
 20 36  1  6  0  0
 21 22  1  0  0  0
 21 36  1  1  0  0
 22 23  1  0  0  0
 23 24  2  0  0  0
 23 25  1  0  0  0
 25 26  1  0  0  0
 26 27  1  0  0  0
 26 31  1  6  0  0
 27 28  1  0  0  0
 28 29  1  0  0  0
 28 30  1  0  0  0
 29 30  1  0  0  0
 31 32  2  0  0  0
 31 33  1  0  0  0
 33 34  2  0  0  0
 33 35  1  0  0  0
 36 37  1  0  0  0
 36 38  1  0  0  0
M  END
> <s_m_entry_id>
6537

> <s_m_entry_name>
NS3-4A.78

> <CHEMBLID>
CHEMBL227712

> <s_m_Source_Path>
/home/liwei/Desktop/Machine/HCV/Active

> <s_m_Source_File>
NS3-4A.sdf

> <i_m_Source_File_Index>
78

$$$$
CHEMBL227723
                    3D
 Structure written by MMmdl.
 36 39  0  0  1  0            999 V2000
   -1.5000    2.5981    0.0000 C   0  0  0  0  0  0
   -0.7500    1.2990    0.0000 C   0  0  0  0  0  0
   -1.5000   -0.0000    0.0000 O   0  0  0  0  0  0
   -0.7500   -1.2990    0.0000 C   0  0  0  0  0  0
    0.7500   -1.2990    0.0000 O   0  0  0  0  0  0
   -1.5000   -2.5981    0.0000 N   0  0  0  0  0  0
   -0.7500   -3.8971    0.0000 C   0  0  3  0  0  0
   -1.5000   -5.1962    0.0000 C   0  0  0  0  0  0
   -3.0000   -5.1962    0.0000 C   0  0  0  0  0  0
   -3.7500   -6.4952    0.0000 C   0  0  0  0  0  0
   -3.0000   -7.7942    0.0000 C   0  0  0  0  0  0
   -1.5000   -7.7942    0.0000 C   0  0  0  0  0  0
   -0.7500   -6.4952    0.0000 C   0  0  0  0  0  0
    0.7500   -3.8971    0.0000 C   0  0  0  0  0  0
    1.5000   -2.5981    0.0000 O   0  0  0  0  0  0
    1.5000   -5.1962    0.0000 N   0  0  0  0  0  0
    0.8899   -6.5665    0.0000 C   0  0  0  0  0  0
    2.0046   -7.5702    0.0000 C   0  0  1  0  0  0
    3.3037   -6.8202    0.0000 C   0  0  1  0  0  0
    2.9918   -5.3529    0.0000 C   0  0  3  0  0  0
    3.9955   -4.2382    0.0000 C   0  0  0  0  0  0
    3.5320   -2.8116    0.0000 O   0  0  0  0  0  0
    5.4627   -4.5501    0.0000 N   0  0  0  0  0  0
    6.4664   -3.4354    0.0000 C   0  0  1  0  0  0
    7.9336   -3.7472    0.0000 C   0  0  0  0  0  0
    8.3971   -5.1738    0.0000 C   0  0  0  0  0  0
    8.0853   -6.6411    0.0000 C   0  0  0  0  0  0
    9.5119   -6.1775    0.0000 C   0  0  0  0  0  0
    6.0029   -2.0088    0.0000 C   0  0  0  0  0  0
    4.5356   -1.6969    0.0000 O   0  0  0  0  0  0
    7.0066   -0.8941    0.0000 C   0  0  0  0  0  0
    8.4738   -1.2059    0.0000 O   0  0  0  0  0  0
    6.5430    0.5325    0.0000 N   0  0  0  0  0  0
    3.3037   -8.3202    0.0000 C   0  0  0  0  0  0
    4.7809   -8.5806    0.0000 C   0  0  0  0  0  0
    2.7906   -9.7297    0.0000 C   0  0  0  0  0  0
  1  2  1  0  0  0
  2  3  1  0  0  0
  3  4  1  0  0  0
  4  5  2  0  0  0
  4  6  1  0  0  0
  6  7  1  0  0  0
  7  8  1  0  0  0
  7 14  1  0  0  0
  8  9  1  0  0  0
  8 13  1  0  0  0
  9 10  1  0  0  0
 10 11  1  0  0  0
 11 12  1  0  0  0
 12 13  1  0  0  0
 14 15  2  0  0  0
 14 16  1  0  0  0
 16 17  1  0  0  0
 16 20  1  0  0  0
 17 18  1  0  0  0
 18 19  1  0  0  0
 18 34  1  6  0  0
 19 20  1  0  0  0
 19 34  1  1  0  0
 20 21  1  0  0  0
 21 22  2  0  0  0
 21 23  1  0  0  0
 23 24  1  0  0  0
 24 25  1  0  0  0
 24 29  1  6  0  0
 25 26  1  0  0  0
 26 27  1  0  0  0
 26 28  1  0  0  0
 27 28  1  0  0  0
 29 30  2  0  0  0
 29 31  1  0  0  0
 31 32  2  0  0  0
 31 33  1  0  0  0
 34 35  1  0  0  0
 34 36  1  0  0  0
M  END
> <s_m_entry_id>
6538

> <s_m_entry_name>
NS3-4A.79

> <CHEMBLID>
CHEMBL227723

> <s_m_Source_Path>
/home/liwei/Desktop/Machine/HCV/Active

> <s_m_Source_File>
NS3-4A.sdf

> <i_m_Source_File_Index>
79

$$$$
CHEMBL227889
                    3D
 Structure written by MMmdl.
 37 39  0  0  1  0            999 V2000
    2.2882   -7.9581    0.0000 C   0  0  0  0  0  0
    0.8393   -8.3463    0.0000 C   0  0  0  0  0  0
   -0.6096   -8.7345    0.0000 C   0  0  0  0  0  0
    1.2275   -9.7952    0.0000 C   0  0  0  0  0  0
    0.4511   -6.8974    0.0000 N   0  0  0  0  0  0
   -0.9978   -6.5092    0.0000 C   0  0  0  0  0  0
   -2.0585   -7.5698    0.0000 O   0  0  0  0  0  0
   -1.3861   -5.0603    0.0000 N   0  0  0  0  0  0
   -2.8349   -4.6721    0.0000 C   0  0  3  0  0  0
   -3.2232   -3.2232    0.0000 C   0  0  0  0  0  0
   -4.6721   -2.8349    0.0000 O   0  0  0  0  0  0
   -2.1625   -2.1625    0.0000 N   0  0  0  0  0  0
   -0.6810   -2.3972    0.0000 C   0  0  0  0  0  0
   -0.0000   -1.0607    0.0000 C   0  0  2  0  0  0
    1.0607    0.0000    0.0000 O   0  0  0  0  0  0
    0.0000    1.0607    0.0000 C   0  0  0  0  0  0
   -1.0607    2.1213    0.0000 C   0  0  0  0  0  0
    1.0607    2.1213    0.0000 C   0  0  0  0  0  0
   -1.0607    0.0000    0.0000 C   0  0  2  0  0  0
   -2.3972   -0.6810    0.0000 C   0  0  3  0  0  0
   -3.7337    0.0000    0.0000 C   0  0  0  0  0  0
   -4.9917   -0.8170    0.0000 O   0  0  0  0  0  0
   -3.8122    1.4979    0.0000 N   0  0  0  0  0  0
   -5.1487    2.1789    0.0000 C   0  0  1  0  0  0
   -5.2272    3.6769    0.0000 C   0  0  0  0  0  0
   -3.9692    4.4938    0.0000 C   0  0  0  0  0  0
   -2.4712    4.5723    0.0000 C   0  0  0  0  0  0
   -3.2882    5.8303    0.0000 C   0  0  0  0  0  0
   -6.4067    1.3620    0.0000 C   0  0  0  0  0  0
   -6.3282   -0.1360    0.0000 O   0  0  0  0  0  0
   -7.7432    2.0430    0.0000 C   0  0  0  0  0  0
   -7.8217    3.5409    0.0000 O   0  0  0  0  0  0
   -9.0012    1.2260    0.0000 N   0  0  0  0  0  0
   -3.8956   -5.7327    0.0000 C   0  0  0  0  0  0
   -2.8349   -6.7934    0.0000 C   0  0  0  0  0  0
   -4.9563   -4.6721    0.0000 C   0  0  0  0  0  0
   -4.9563   -6.7934    0.0000 C   0  0  0  0  0  0
  1  2  1  0  0  0
  2  3  1  0  0  0
  2  4  1  0  0  0
  2  5  1  0  0  0
  5  6  1  0  0  0
  6  7  2  0  0  0
  6  8  1  0  0  0
  8  9  1  0  0  0
  9 10  1  0  0  0
  9 34  1  0  0  0
 10 11  2  0  0  0
 10 12  1  0  0  0
 12 13  1  0  0  0
 12 20  1  0  0  0
 13 14  1  0  0  0
 14 15  1  0  0  0
 14 19  1  6  0  0
 15 16  1  0  0  0
 16 17  1  0  0  0
 16 18  1  0  0  0
 16 19  1  0  0  0
 19 20  1  6  0  0
 20 21  1  0  0  0
 21 22  2  0  0  0
 21 23  1  0  0  0
 23 24  1  0  0  0
 24 25  1  0  0  0
 24 29  1  6  0  0
 25 26  1  0  0  0
 26 27  1  0  0  0
 26 28  1  0  0  0
 27 28  1  0  0  0
 29 30  2  0  0  0
 29 31  1  0  0  0
 31 32  2  0  0  0
 31 33  1  0  0  0
 34 35  1  0  0  0
 34 36  1  0  0  0
 34 37  1  0  0  0
M  END
> <s_m_entry_id>
6539

> <s_m_entry_name>
NS3-4A.80

> <CHEMBLID>
CHEMBL227889

> <s_m_Source_Path>
/home/liwei/Desktop/Machine/HCV/Active

> <s_m_Source_File>
NS3-4A.sdf

> <i_m_Source_File_Index>
80

$$$$
CHEMBL227941
                    3D
 Structure written by MMmdl.
 37 39  0  0  1  0            999 V2000
   -7.6518   -6.4289    0.0000 C   0  0  0  0  0  0
   -6.1846   -6.1170    0.0000 C   0  0  0  0  0  0
   -5.7211   -4.6904    0.0000 C   0  0  0  0  0  0
   -4.2539   -4.3786    0.0000 C   0  0  2  0  0  0
   -3.7903   -2.9520    0.0000 N   0  0  0  0  0  0
   -2.3231   -2.6401    0.0000 C   0  0  0  0  0  0
   -1.3194   -3.7548    0.0000 O   0  0  0  0  0  0
   -1.8596   -1.2135    0.0000 C   0  0  3  0  0  0
   -0.4330   -0.7500    0.0000 C   0  0  2  0  0  0
   -0.4330    0.7500    0.0000 C   0  0  2  0  0  0
   -1.8596    1.2135    0.0000 C   0  0  0  0  0  0
   -2.7413    0.0000    0.0000 N   0  0  0  0  0  0
   -4.2413    0.0000    0.0000 C   0  0  0  0  0  0
   -4.9913   -1.2990    0.0000 O   0  0  0  0  0  0
   -4.9913    1.2990    0.0000 C   0  0  3  0  0  0
   -4.2413    2.5981    0.0000 N   0  0  0  0  0  0
   -4.9913    3.8971    0.0000 C   0  0  0  0  0  0
   -6.4913    3.8971    0.0000 O   0  0  0  0  0  0
   -4.2413    5.1962    0.0000 N   0  0  0  0  0  0
   -4.9913    6.4952    0.0000 C   0  0  0  0  0  0
   -3.6922    7.2452    0.0000 C   0  0  0  0  0  0
   -6.2903    5.7452    0.0000 C   0  0  0  0  0  0
   -5.7413    7.7942    0.0000 C   0  0  0  0  0  0
   -6.4913    1.2990    0.0000 C   0  0  0  0  0  0
   -7.2413    2.5981    0.0000 C   0  0  0  0  0  0
   -8.7413    2.5981    0.0000 C   0  0  0  0  0  0
   -9.4913    1.2990    0.0000 C   0  0  0  0  0  0
   -8.7413    0.0000    0.0000 C   0  0  0  0  0  0
   -7.2413    0.0000    0.0000 C   0  0  0  0  0  0
    0.8660    0.0000    0.0000 C   0  0  0  0  0  0
    1.8302    1.1491    0.0000 C   0  0  0  0  0  0
    1.8302   -1.1491    0.0000 C   0  0  0  0  0  0
   -3.2502   -5.4933    0.0000 C   0  0  0  0  0  0
   -1.7830   -5.1814    0.0000 O   0  0  0  0  0  0
   -3.7137   -6.9199    0.0000 C   0  0  0  0  0  0
   -5.1809   -7.2317    0.0000 O   0  0  0  0  0  0
   -2.7100   -8.0346    0.0000 N   0  0  0  0  0  0
  1  2  1  0  0  0
  2  3  1  0  0  0
  3  4  1  0  0  0
  4  5  1  0  0  0
  4 33  1  1  0  0
  5  6  1  0  0  0
  6  7  2  0  0  0
  6  8  1  0  0  0
  8  9  1  0  0  0
  8 12  1  0  0  0
  9 10  1  0  0  0
  9 30  1  6  0  0
 10 11  1  0  0  0
 10 30  1  1  0  0
 11 12  1  0  0  0
 12 13  1  0  0  0
 13 14  2  0  0  0
 13 15  1  0  0  0
 15 16  1  0  0  0
 15 24  1  0  0  0
 16 17  1  0  0  0
 17 18  2  0  0  0
 17 19  1  0  0  0
 19 20  1  0  0  0
 20 21  1  0  0  0
 20 22  1  0  0  0
 20 23  1  0  0  0
 24 25  1  0  0  0
 24 29  1  0  0  0
 25 26  1  0  0  0
 26 27  1  0  0  0
 27 28  1  0  0  0
 28 29  1  0  0  0
 30 31  1  0  0  0
 30 32  1  0  0  0
 33 34  2  0  0  0
 33 35  1  0  0  0
 35 36  2  0  0  0
 35 37  1  0  0  0
M  END
> <s_m_entry_id>
6540

> <s_m_entry_name>
NS3-4A.81

> <CHEMBLID>
CHEMBL227941

> <s_m_Source_Path>
/home/liwei/Desktop/Machine/HCV/Active

> <s_m_Source_File>
NS3-4A.sdf

> <i_m_Source_File_Index>
81

$$$$
CHEMBL228027
                    3D
 Structure written by MMmdl.
 36 38  0  0  1  0            999 V2000
   -6.1846   -6.1170    0.0000 C   0  0  0  0  0  0
   -5.7211   -4.6904    0.0000 C   0  0  0  0  0  0
   -4.2539   -4.3786    0.0000 C   0  0  3  0  0  0
   -3.7903   -2.9520    0.0000 N   0  0  0  0  0  0
   -2.3231   -2.6401    0.0000 C   0  0  0  0  0  0
   -1.3194   -3.7548    0.0000 O   0  0  0  0  0  0
   -1.8596   -1.2135    0.0000 C   0  0  3  0  0  0
   -0.4330   -0.7500    0.0000 C   0  0  2  0  0  0
   -0.4330    0.7500    0.0000 C   0  0  2  0  0  0
   -1.8596    1.2135    0.0000 C   0  0  0  0  0  0
   -2.7413    0.0000    0.0000 N   0  0  0  0  0  0
   -4.2413    0.0000    0.0000 C   0  0  0  0  0  0
   -4.9913   -1.2990    0.0000 O   0  0  0  0  0  0
   -4.9913    1.2990    0.0000 C   0  0  3  0  0  0
   -4.2413    2.5981    0.0000 N   0  0  0  0  0  0
   -4.9913    3.8971    0.0000 C   0  0  0  0  0  0
   -6.4913    3.8971    0.0000 O   0  0  0  0  0  0
   -4.2413    5.1962    0.0000 O   0  0  0  0  0  0
   -4.9913    6.4952    0.0000 C   0  0  0  0  0  0
   -3.6922    7.2452    0.0000 C   0  0  0  0  0  0
   -6.2903    5.7452    0.0000 C   0  0  0  0  0  0
   -5.7413    7.7942    0.0000 C   0  0  0  0  0  0
   -6.4913    1.2990    0.0000 C   0  0  0  0  0  0
   -7.2413    2.5981    0.0000 C   0  0  0  0  0  0
   -8.7413    2.5981    0.0000 C   0  0  0  0  0  0
   -9.4913    1.2990    0.0000 C   0  0  0  0  0  0
   -8.7413    0.0000    0.0000 C   0  0  0  0  0  0
   -7.2413    0.0000    0.0000 C   0  0  0  0  0  0
    0.8660    0.0000    0.0000 C   0  0  0  0  0  0
    1.8302    1.1491    0.0000 C   0  0  0  0  0  0
    1.8302   -1.1491    0.0000 C   0  0  0  0  0  0
   -3.2502   -5.4933    0.0000 C   0  0  0  0  0  0
   -1.7830   -5.1814    0.0000 O   0  0  0  0  0  0
   -3.7137   -6.9199    0.0000 C   0  0  0  0  0  0
   -5.1809   -7.2317    0.0000 O   0  0  0  0  0  0
   -2.7100   -8.0346    0.0000 N   0  0  0  0  0  0
  1  2  1  0  0  0
  2  3  1  0  0  0
  3  4  1  0  0  0
  3 32  1  0  0  0
  4  5  1  0  0  0
  5  6  2  0  0  0
  5  7  1  0  0  0
  7  8  1  0  0  0
  7 11  1  0  0  0
  8  9  1  0  0  0
  8 29  1  6  0  0
  9 10  1  0  0  0
  9 29  1  1  0  0
 10 11  1  0  0  0
 11 12  1  0  0  0
 12 13  2  0  0  0
 12 14  1  0  0  0
 14 15  1  0  0  0
 14 23  1  0  0  0
 15 16  1  0  0  0
 16 17  2  0  0  0
 16 18  1  0  0  0
 18 19  1  0  0  0
 19 20  1  0  0  0
 19 21  1  0  0  0
 19 22  1  0  0  0
 23 24  1  0  0  0
 23 28  1  0  0  0
 24 25  1  0  0  0
 25 26  1  0  0  0
 26 27  1  0  0  0
 27 28  1  0  0  0
 29 30  1  0  0  0
 29 31  1  0  0  0
 32 33  2  0  0  0
 32 34  1  0  0  0
 34 35  2  0  0  0
 34 36  1  0  0  0
M  END
> <s_m_entry_id>
6541

> <s_m_entry_name>
NS3-4A.82

> <CHEMBLID>
CHEMBL228027

> <s_m_Source_Path>
/home/liwei/Desktop/Machine/HCV/Active

> <s_m_Source_File>
NS3-4A.sdf

> <i_m_Source_File_Index>
82

$$$$
CHEMBL228109
                    3D
 Structure written by MMmdl.
 37 39  0  0  1  0            999 V2000
   -7.6518   -6.4289    0.0000 C   0  0  0  0  0  0
   -6.1846   -6.1170    0.0000 C   0  0  0  0  0  0
   -5.7211   -4.6904    0.0000 C   0  0  0  0  0  0
   -4.2539   -4.3786    0.0000 C   0  0  2  0  0  0
   -3.7903   -2.9520    0.0000 N   0  0  0  0  0  0
   -2.3231   -2.6401    0.0000 C   0  0  0  0  0  0
   -1.3194   -3.7548    0.0000 O   0  0  0  0  0  0
   -1.8596   -1.2135    0.0000 C   0  0  3  0  0  0
   -0.4330   -0.7500    0.0000 C   0  0  2  0  0  0
   -0.4330    0.7500    0.0000 C   0  0  2  0  0  0
   -1.8596    1.2135    0.0000 C   0  0  0  0  0  0
   -2.7413    0.0000    0.0000 N   0  0  0  0  0  0
   -4.2413    0.0000    0.0000 C   0  0  0  0  0  0
   -4.9913   -1.2990    0.0000 O   0  0  0  0  0  0
   -4.9913    1.2990    0.0000 C   0  0  3  0  0  0
   -4.2413    2.5981    0.0000 N   0  0  0  0  0  0
   -4.9913    3.8971    0.0000 C   0  0  0  0  0  0
   -6.4913    3.8971    0.0000 O   0  0  0  0  0  0
   -4.2413    5.1962    0.0000 O   0  0  0  0  0  0
   -4.9913    6.4952    0.0000 C   0  0  0  0  0  0
   -3.6922    7.2452    0.0000 C   0  0  0  0  0  0
   -6.2903    5.7452    0.0000 C   0  0  0  0  0  0
   -5.7413    7.7942    0.0000 C   0  0  0  0  0  0
   -6.4913    1.2990    0.0000 C   0  0  0  0  0  0
   -7.2413    2.5981    0.0000 C   0  0  0  0  0  0
   -8.7413    2.5981    0.0000 C   0  0  0  0  0  0
   -9.4913    1.2990    0.0000 C   0  0  0  0  0  0
   -8.7413    0.0000    0.0000 C   0  0  0  0  0  0
   -7.2413    0.0000    0.0000 C   0  0  0  0  0  0
    0.8660    0.0000    0.0000 C   0  0  0  0  0  0
    1.8302    1.1491    0.0000 C   0  0  0  0  0  0
    1.8302   -1.1491    0.0000 C   0  0  0  0  0  0
   -3.2502   -5.4933    0.0000 C   0  0  0  0  0  0
   -1.7830   -5.1814    0.0000 O   0  0  0  0  0  0
   -3.7137   -6.9199    0.0000 C   0  0  0  0  0  0
   -5.1809   -7.2317    0.0000 O   0  0  0  0  0  0
   -2.7100   -8.0346    0.0000 N   0  0  0  0  0  0
  1  2  1  0  0  0
  2  3  1  0  0  0
  3  4  1  0  0  0
  4  5  1  0  0  0
  4 33  1  1  0  0
  5  6  1  0  0  0
  6  7  2  0  0  0
  6  8  1  0  0  0
  8  9  1  0  0  0
  8 12  1  0  0  0
  9 10  1  0  0  0
  9 30  1  6  0  0
 10 11  1  0  0  0
 10 30  1  1  0  0
 11 12  1  0  0  0
 12 13  1  0  0  0
 13 14  2  0  0  0
 13 15  1  0  0  0
 15 16  1  0  0  0
 15 24  1  0  0  0
 16 17  1  0  0  0
 17 18  2  0  0  0
 17 19  1  0  0  0
 19 20  1  0  0  0
 20 21  1  0  0  0
 20 22  1  0  0  0
 20 23  1  0  0  0
 24 25  1  0  0  0
 24 29  1  0  0  0
 25 26  1  0  0  0
 26 27  1  0  0  0
 27 28  1  0  0  0
 28 29  1  0  0  0
 30 31  1  0  0  0
 30 32  1  0  0  0
 33 34  2  0  0  0
 33 35  1  0  0  0
 35 36  2  0  0  0
 35 37  1  0  0  0
M  END
> <s_m_entry_id>
6542

> <s_m_entry_name>
NS3-4A.83

> <CHEMBLID>
CHEMBL228109

> <s_m_Source_Path>
/home/liwei/Desktop/Machine/HCV/Active

> <s_m_Source_File>
NS3-4A.sdf

> <i_m_Source_File_Index>
83

$$$$
CHEMBL228248
                    3D
 Structure written by MMmdl.
 36 37  0  0  1  0            999 V2000
   -8.1920   -3.8876    0.0000 C   0  0  0  0  0  0
   -6.7248   -3.5757    0.0000 C   0  0  0  0  0  0
   -6.2613   -2.1491    0.0000 C   0  0  0  0  0  0
   -5.7211   -4.6904    0.0000 C   0  0  0  0  0  0
   -4.2539   -4.3786    0.0000 C   0  0  2  0  0  0
   -3.7903   -2.9520    0.0000 N   0  0  0  0  0  0
   -2.3231   -2.6401    0.0000 C   0  0  0  0  0  0
   -1.3194   -3.7548    0.0000 O   0  0  0  0  0  0
   -1.8596   -1.2135    0.0000 C   0  0  3  0  0  0
   -0.4330   -0.7500    0.0000 C   0  0  2  0  0  0
   -0.4330    0.7500    0.0000 C   0  0  2  0  0  0
   -1.8596    1.2135    0.0000 C   0  0  0  0  0  0
   -2.7413    0.0000    0.0000 N   0  0  0  0  0  0
   -4.2413    0.0000    0.0000 C   0  0  0  0  0  0
   -4.9913   -1.2990    0.0000 O   0  0  0  0  0  0
   -4.9913    1.2990    0.0000 C   0  0  3  0  0  0
   -4.2413    2.5981    0.0000 N   0  0  0  0  0  0
   -4.9913    3.8971    0.0000 C   0  0  0  0  0  0
   -6.4913    3.8971    0.0000 O   0  0  0  0  0  0
   -4.2413    5.1962    0.0000 O   0  0  0  0  0  0
   -4.9913    6.4952    0.0000 C   0  0  0  0  0  0
   -3.6922    7.2452    0.0000 C   0  0  0  0  0  0
   -6.2903    5.7452    0.0000 C   0  0  0  0  0  0
   -5.7413    7.7942    0.0000 C   0  0  0  0  0  0
   -6.4913    1.2990    0.0000 C   0  0  0  0  0  0
   -6.4913    2.7990    0.0000 C   0  0  0  0  0  0
   -6.4913   -0.2010    0.0000 C   0  0  0  0  0  0
   -7.9913    1.2990    0.0000 C   0  0  0  0  0  0
    0.8660    0.0000    0.0000 C   0  0  0  0  0  0
    1.8302    1.1491    0.0000 C   0  0  0  0  0  0
    1.8302   -1.1491    0.0000 C   0  0  0  0  0  0
   -3.2502   -5.4933    0.0000 C   0  0  0  0  0  0
   -1.7830   -5.1814    0.0000 O   0  0  0  0  0  0
   -3.7137   -6.9199    0.0000 C   0  0  0  0  0  0
   -5.1809   -7.2317    0.0000 O   0  0  0  0  0  0
   -2.7100   -8.0346    0.0000 N   0  0  0  0  0  0
  1  2  1  0  0  0
  2  3  1  0  0  0
  2  4  1  0  0  0
  4  5  1  0  0  0
  5  6  1  0  0  0
  5 32  1  1  0  0
  6  7  1  0  0  0
  7  8  2  0  0  0
  7  9  1  0  0  0
  9 10  1  0  0  0
  9 13  1  0  0  0
 10 11  1  0  0  0
 10 29  1  6  0  0
 11 12  1  0  0  0
 11 29  1  1  0  0
 12 13  1  0  0  0
 13 14  1  0  0  0
 14 15  2  0  0  0
 14 16  1  0  0  0
 16 17  1  0  0  0
 16 25  1  0  0  0
 17 18  1  0  0  0
 18 19  2  0  0  0
 18 20  1  0  0  0
 20 21  1  0  0  0
 21 22  1  0  0  0
 21 23  1  0  0  0
 21 24  1  0  0  0
 25 26  1  0  0  0
 25 27  1  0  0  0
 25 28  1  0  0  0
 29 30  1  0  0  0
 29 31  1  0  0  0
 32 33  2  0  0  0
 32 34  1  0  0  0
 34 35  2  0  0  0
 34 36  1  0  0  0
M  END
> <s_m_entry_id>
6543

> <s_m_entry_name>
NS3-4A.84

> <CHEMBLID>
CHEMBL228248

> <s_m_Source_Path>
/home/liwei/Desktop/Machine/HCV/Active

> <s_m_Source_File>
NS3-4A.sdf

> <i_m_Source_File_Index>
84

$$$$
CHEMBL228254
                    3D
 Structure written by MMmdl.
 35 37  0  0  1  0            999 V2000
   -3.6922   -7.2452    0.0000 C   0  0  0  0  0  0
   -4.9913   -6.4952    0.0000 C   0  0  0  0  0  0
   -6.2903   -5.7452    0.0000 C   0  0  0  0  0  0
   -5.7413   -7.7942    0.0000 C   0  0  0  0  0  0
   -4.2413   -5.1962    0.0000 N   0  0  0  0  0  0
   -4.9913   -3.8971    0.0000 C   0  0  0  0  0  0
   -6.4913   -3.8971    0.0000 O   0  0  0  0  0  0
   -4.2413   -2.5981    0.0000 N   0  0  0  0  0  0
   -4.9913   -1.2990    0.0000 C   0  0  3  0  0  0
   -4.2413    0.0000    0.0000 C   0  0  0  0  0  0
   -4.9913    1.2990    0.0000 O   0  0  0  0  0  0
   -2.7413    0.0000    0.0000 N   0  0  0  0  0  0
   -1.8596   -1.2135    0.0000 C   0  0  0  0  0  0
   -0.4330   -0.7500    0.0000 C   0  0  1  0  0  0
   -0.4330    0.7500    0.0000 C   0  0  1  0  0  0
   -1.8596    1.2135    0.0000 C   0  0  3  0  0  0
   -2.3231    2.6401    0.0000 C   0  0  0  0  0  0
   -3.7903    2.9520    0.0000 O   0  0  0  0  0  0
   -1.3194    3.7548    0.0000 N   0  0  0  0  0  0
   -1.7830    5.1814    0.0000 C   0  0  3  0  0  0
   -0.7793    6.2961    0.0000 C   0  0  0  0  0  0
   -0.4674    7.7634    0.0000 C   0  0  0  0  0  0
    0.6473    6.7597    0.0000 C   0  0  0  0  0  0
   -3.2502    5.4933    0.0000 C   0  0  0  0  0  0
   -4.2539    4.3786    0.0000 O   0  0  0  0  0  0
   -3.7137    6.9199    0.0000 C   0  0  0  0  0  0
   -2.7100    8.0346    0.0000 O   0  0  0  0  0  0
   -5.1809    7.2317    0.0000 N   0  0  0  0  0  0
    0.8660    0.0000    0.0000 C   0  0  0  0  0  0
    1.8302    1.1491    0.0000 C   0  0  0  0  0  0
    1.8302   -1.1491    0.0000 C   0  0  0  0  0  0
   -6.4913   -1.2990    0.0000 C   0  0  0  0  0  0
   -6.4913   -2.7990    0.0000 C   0  0  0  0  0  0
   -6.4913    0.2010    0.0000 C   0  0  0  0  0  0
   -7.9913   -1.2990    0.0000 C   0  0  0  0  0  0
  1  2  1  0  0  0
  2  3  1  0  0  0
  2  4  1  0  0  0
  2  5  1  0  0  0
  5  6  1  0  0  0
  6  7  2  0  0  0
  6  8  1  0  0  0
  8  9  1  0  0  0
  9 10  1  0  0  0
  9 32  1  0  0  0
 10 11  2  0  0  0
 10 12  1  0  0  0
 12 13  1  0  0  0
 12 16  1  0  0  0
 13 14  1  0  0  0
 14 15  1  0  0  0
 14 29  1  6  0  0
 15 16  1  0  0  0
 15 29  1  1  0  0
 16 17  1  0  0  0
 17 18  2  0  0  0
 17 19  1  0  0  0
 19 20  1  0  0  0
 20 21  1  0  0  0
 20 24  1  0  0  0
 21 22  1  0  0  0
 21 23  1  0  0  0
 22 23  1  0  0  0
 24 25  2  0  0  0
 24 26  1  0  0  0
 26 27  2  0  0  0
 26 28  1  0  0  0
 29 30  1  0  0  0
 29 31  1  0  0  0
 32 33  1  0  0  0
 32 34  1  0  0  0
 32 35  1  0  0  0
M  END
> <s_m_entry_id>
6544

> <s_m_entry_name>
NS3-4A.85

> <CHEMBLID>
CHEMBL228254

> <s_m_Source_Path>
/home/liwei/Desktop/Machine/HCV/Active

> <s_m_Source_File>
NS3-4A.sdf

> <i_m_Source_File_Index>
85

$$$$
CHEMBL258638
                    3D
 Structure written by MMmdl.
 52 56  0  0  1  0            999 V2000
   13.8191  -12.6825    0.0000 C   0  0  2  0  0  0
   14.6441  -12.6825    0.0000 C   0  0  0  0  0  0
   14.2316  -11.9679    0.0000 C   0  0  2  0  0  0
   14.9420  -11.5503    0.0000 C   0  0  0  0  0  0
   15.6589  -11.9542    0.0000 O   0  0  0  0  0  0
   14.9355  -10.7236    0.0000 O   0  0  0  0  0  0
   13.5166  -11.5549    0.0000 N   0  0  0  0  0  0
   12.8020  -11.9672    0.0000 C   0  0  0  0  0  0
   12.0885  -11.5543    0.0000 C   0  0  2  0  0  0
   12.8018  -12.7922    0.0000 O   0  0  0  0  0  0
   11.8266  -10.7682    0.0000 C   0  0  0  0  0  0
   11.0017  -10.7747    0.0000 C   0  0  2  0  0  0
   10.7529  -11.5613    0.0000 C   0  0  0  0  0  0
   11.4241  -12.0409    0.0000 N   0  0  0  0  0  0
   11.4290  -12.8659    0.0000 C   0  0  0  0  0  0
   14.5295  -13.0950    0.0000 C   0  0  0  0  0  0
   14.5275  -13.9200    0.0000 C   0  0  0  0  0  0
   12.1460  -13.2742    0.0000 O   0  0  0  0  0  0
   10.7169  -13.2826    0.0000 N   0  0  0  0  0  0
   13.4020  -13.3929    0.0000 H   0  0  0  0  0  0
   12.7970  -11.1332    0.0000 H   0  0  0  0  0  0
   10.0011  -12.8657    0.0000 N   0  0  0  0  0  0
    9.2851  -13.2756    0.0000 C   0  0  0  0  0  0
    9.2820  -14.1006    0.0000 O   0  0  0  0  0  0
    8.5721  -12.8604    0.0000 O   0  0  0  0  0  0
    8.5752  -12.0354    0.0000 C   0  0  0  0  0  0
    8.5665  -11.2065    0.0000 C   0  0  0  0  0  0
    9.4002  -12.0327    0.0000 C   0  0  0  0  0  0
    7.7503  -12.0421    0.0000 C   0  0  0  0  0  0
   10.2853  -10.3586    0.0000 O   0  0  0  0  0  0
   10.2874   -9.5336    0.0000 C   0  0  0  0  0  0
   11.0061   -9.1264    0.0000 C   0  0  0  0  0  0
   11.0085   -8.3021    0.0000 C   0  0  0  0  0  0
   10.2945   -7.8870    0.0000 N   0  0  0  0  0  0
    9.5777   -9.1251    0.0000 C   0  0  0  0  0  0
    9.5767   -8.3053    0.0000 C   0  0  0  0  0  0
    8.8674   -7.8981    0.0000 C   0  0  0  0  0  0
    8.1587   -8.3095    0.0000 C   0  0  0  0  0  0
    8.1638   -9.1323    0.0000 C   0  0  0  0  0  0
    8.8736   -9.5358    0.0000 C   0  0  0  0  0  0
   11.7243   -7.8917    0.0000 C   0  0  0  0  0  0
   12.4343   -8.3075    0.0000 C   0  0  0  0  0  0
   13.1495   -7.8979    0.0000 C   0  0  0  0  0  0
   13.1525   -7.0720    0.0000 C   0  0  0  0  0  0
   12.4342   -6.6575    0.0000 C   0  0  0  0  0  0
   11.7219   -7.0696    0.0000 C   0  0  0  0  0  0
    7.4425   -7.9001    0.0000 O   0  0  0  0  0  0
    7.4391   -7.0751    0.0000 C   0  0  0  0  0  0
   10.7179  -14.1076    0.0000 C   0  0  0  0  0  0
   11.4328  -14.5194    0.0000 C   0  0  0  0  0  0
   11.4337  -15.3444    0.0000 C   0  0  0  0  0  0
   12.1468  -14.1061    0.0000 C   0  0  0  0  0  0
  1  3  1  0  0  0
  1 16  1  0  0  0
  1 20  1  0  0  0
  1  2  1  6  0  0
  2  3  1  0  0  0
  3  7  1  0  0  0
  3  4  1  1  0  0
  4  5  1  0  0  0
  4  6  2  0  0  0
  7  8  1  0  0  0
  8  9  1  0  0  0
  8 10  2  0  0  0
  9 14  1  0  0  0
  9 21  1  0  0  0
  9 11  1  6  0  0
 11 12  1  0  0  0
 12 13  1  0  0  0
 12 30  1  6  0  0
 13 14  1  0  0  0
 14 15  1  0  0  0
 15 18  2  0  0  0
 15 19  1  0  0  0
 16 17  2  0  0  0
 19 22  1  0  0  0
 19 49  1  0  0  0
 22 23  1  0  0  0
 23 24  2  0  0  0
 23 25  1  0  0  0
 25 26  1  0  0  0
 26 27  1  0  0  0
 26 28  1  0  0  0
 26 29  1  0  0  0
 30 31  1  0  0  0
 31 32  2  0  0  0
 31 35  1  0  0  0
 32 33  1  0  0  0
 33 34  2  0  0  0
 33 41  1  0  0  0
 34 36  1  0  0  0
 35 36  1  0  0  0
 35 40  2  0  0  0
 36 37  2  0  0  0
 37 38  1  0  0  0
 38 39  2  0  0  0
 38 47  1  0  0  0
 39 40  1  0  0  0
 41 42  2  0  0  0
 41 46  1  0  0  0
 42 43  1  0  0  0
 43 44  2  0  0  0
 44 45  1  0  0  0
 45 46  2  0  0  0
 47 48  1  0  0  0
 49 50  1  0  0  0
 50 51  1  0  0  0
 50 52  1  0  0  0
M  END
> <s_m_entry_id>
6922

> <s_m_entry_name>
CHEMBL258638.1

> <CHEMBLID>
CHEMBL258638

> <s_m_Source_Path>
/home/liwei/Desktop/Machine/HCV/Active/buchong

> <s_m_Source_File>
CHEMBL258638.sdf

> <i_m_Source_File_Index>
1

> <MOLREGNO>
427926

> <MAX_PHASE>
0

> <MOLWEIGHT>
687.78

> <PSA>
159.62

> <HBA>
9

> <HBD>
3

> <RO5>
1

> <RTB>
13

> <RO3>
N

> <ACD_MOST_APKA>
4.31

> <ACD_LOGP>
4.58

> <ACD_LOGD>
1.62

> <AROMATIC_RINGS>
3

> <HEAVY_ATOMS>
50

> <QED_WEIGHTED>
0.17

> <HBA_LIPINSKI>
13

> <HBD_LIPINSKI>
3

> <NUM_LIPINSKI_RO5_VIOLATIONS>
1

> <MW_MONOISOTOPIC>
687.3268

> <MOLECULAR_SPECIES>
ACID

> <FULL_MOLFORMULA>
C37H45N5O8

> <ACD_MOST_BPKA>
6.14

> <ALOGP>
5

$$$$
CHEMBL259478
                    3D
 Structure written by MMmdl.
 60 65  0  0  1  0            999 V2000
   -7.5000   -7.7942    0.0000 C   0  0  0  0  0  0
   -6.0000   -7.7942    0.0000 O   0  0  0  0  0  0
   -5.2500   -6.4952    0.0000 C   0  0  0  0  0  0
   -6.0000   -5.1962    0.0000 C   0  0  0  0  0  0
   -5.2500   -3.8971    0.0000 C   0  0  0  0  0  0
   -3.7500   -3.8971    0.0000 C   0  0  0  0  0  0
   -3.0000   -2.5981    0.0000 C   0  0  0  0  0  0
   -3.7500   -1.2990    0.0000 O   0  0  0  0  0  0
   -5.2500   -1.2990    0.0000 C   0  0  2  0  0  0
   -6.1317   -2.5126    0.0000 C   0  0  0  0  0  0
   -7.5583   -2.0490    0.0000 C   0  0  2  0  0  0
   -7.5583   -0.5490    0.0000 N   0  0  0  0  0  0
   -6.1317   -0.0855    0.0000 C   0  0  0  0  0  0
   -8.7718    0.3326    0.0000 C   0  0  0  0  0  0
  -10.1421   -0.2775    0.0000 O   0  0  0  0  0  0
   -8.6150    1.8244    0.0000 C   0  0  1  0  0  0
   -9.8285    2.7061    0.0000 N   0  0  0  0  0  0
   -9.6717    4.1979    0.0000 C   0  0  0  0  0  0
  -10.8853    5.0796    0.0000 O   0  0  0  0  0  0
   -8.3014    4.8080    0.0000 O   0  0  0  0  0  0
   -8.1446    6.2998    0.0000 C   0  0  0  0  0  0
   -6.6528    6.1430    0.0000 C   0  0  0  0  0  0
   -9.6364    6.4566    0.0000 C   0  0  0  0  0  0
   -7.9878    7.7916    0.0000 C   0  0  0  0  0  0
   -7.2447    2.4345    0.0000 C   0  0  0  0  0  0
   -6.6346    1.0642    0.0000 C   0  0  0  0  0  0
   -7.8548    3.8048    0.0000 C   0  0  0  0  0  0
   -5.8744    3.0446    0.0000 C   0  0  0  0  0  0
   -8.7718   -2.9307    0.0000 C   0  0  0  0  0  0
   -8.6150   -4.4225    0.0000 O   0  0  0  0  0  0
  -10.1421   -2.3206    0.0000 N   0  0  0  0  0  0
  -11.3556   -3.2023    0.0000 C   0  0  0  0  0  0
  -11.1988   -4.6941    0.0000 C   0  0  0  0  0  0
  -12.4124   -5.5757    0.0000 C   0  0  0  0  0  0
  -13.7827   -4.9656    0.0000 C   0  0  0  0  0  0
  -13.9395   -3.4739    0.0000 C   0  0  0  0  0  0
  -12.7260   -2.5922    0.0000 C   0  0  0  0  0  0
  -12.8827   -1.1004    0.0000 C   0  0  0  0  0  0
  -11.6692   -0.2187    0.0000 O   0  0  0  0  0  0
  -14.2531   -0.4903    0.0000 N   0  0  0  0  0  0
  -14.4099    1.0015    0.0000 S   0  0  0  0  0  0
  -12.9181    1.1583    0.0000 O   0  0  0  0  0  0
  -15.9016    0.8447    0.0000 O   0  0  0  0  0  0
  -14.5666    2.4933    0.0000 C   0  0  0  0  0  0
  -15.9370    3.1034    0.0000 C   0  0  0  0  0  0
  -16.0938    4.5952    0.0000 C   0  0  0  0  0  0
  -14.8802    5.4768    0.0000 C   0  0  0  0  0  0
  -13.5099    4.8667    0.0000 C   0  0  0  0  0  0
  -13.3531    3.3749    0.0000 C   0  0  0  0  0  0
   -1.5000   -2.5981    0.0000 C   0  0  0  0  0  0
   -0.7500   -3.8971    0.0000 C   0  0  0  0  0  0
   -1.5000   -5.1962    0.0000 N   0  0  0  0  0  0
   -3.0000   -5.1962    0.0000 C   0  0  0  0  0  0
   -3.7500   -6.4952    0.0000 C   0  0  0  0  0  0
    0.7500   -3.8971    0.0000 C   0  0  0  0  0  0
    1.5000   -5.1962    0.0000 C   0  0  0  0  0  0
    3.0000   -5.1962    0.0000 C   0  0  0  0  0  0
    3.7500   -3.8971    0.0000 C   0  0  0  0  0  0
    3.0000   -2.5981    0.0000 C   0  0  0  0  0  0
    1.5000   -2.5981    0.0000 C   0  0  0  0  0  0
  1  2  1  0  0  0
  2  3  1  0  0  0
  3  4  2  0  0  0
  3 54  1  0  0  0
  4  5  1  0  0  0
  5  6  2  0  0  0
  6  7  1  0  0  0
  6 53  1  0  0  0
  7  8  1  0  0  0
  7 50  2  0  0  0
  8  9  1  0  0  0
  9 10  1  0  0  0
  9 13  1  6  0  0
 10 11  1  0  0  0
 11 12  1  0  0  0
 11 29  1  1  0  0
 12 13  1  0  0  0
 12 14  1  0  0  0
 14 15  2  0  0  0
 14 16  1  0  0  0
 16 17  1  0  0  0
 16 25  1  6  0  0
 17 18  1  0  0  0
 18 19  2  0  0  0
 18 20  1  0  0  0
 20 21  1  0  0  0
 21 22  1  0  0  0
 21 23  1  0  0  0
 21 24  1  0  0  0
 25 26  1  0  0  0
 25 27  1  0  0  0
 25 28  1  0  0  0
 29 30  2  0  0  0
 29 31  1  0  0  0
 31 32  1  0  0  0
 32 33  2  0  0  0
 32 37  1  0  0  0
 33 34  1  0  0  0
 34 35  2  0  0  0
 35 36  1  0  0  0
 36 37  2  0  0  0
 37 38  1  0  0  0
 38 39  2  0  0  0
 38 40  1  0  0  0
 40 41  1  0  0  0
 41 42  2  0  0  0
 41 43  2  0  0  0
 41 44  1  0  0  0
 44 45  2  0  0  0
 44 49  1  0  0  0
 45 46  1  0  0  0
 46 47  2  0  0  0
 47 48  1  0  0  0
 48 49  2  0  0  0
 50 51  1  0  0  0
 51 52  2  0  0  0
 51 55  1  0  0  0
 52 53  1  0  0  0
 53 54  2  0  0  0
 55 56  2  0  0  0
 55 60  1  0  0  0
 56 57  1  0  0  0
 57 58  2  0  0  0
 58 59  1  0  0  0
 59 60  2  0  0  0
M  END
> <s_m_entry_id>
6545

> <s_m_entry_name>
NS3-4A.86

> <CHEMBLID>
CHEMBL259478

> <s_m_Source_Path>
/home/liwei/Desktop/Machine/HCV/Active

> <s_m_Source_File>
NS3-4A.sdf

> <i_m_Source_File_Index>
86

$$$$
CHEMBL261963
                    3D
 Structure written by MMmdl.
 72 73  0  0  1  0            999 V2000
    6.0000  -12.9904    0.0000 C   0  0  0  0  0  0
    5.2500  -11.6913    0.0000 C   0  0  0  0  0  0
    3.7500  -11.6913    0.0000 C   0  0  0  0  0  0
    6.0000  -10.3923    0.0000 C   0  0  0  0  0  0
    5.2500   -9.0933    0.0000 C   0  0  2  0  0  0
    6.0000   -7.7942    0.0000 N   0  0  0  0  0  0
    5.2500   -6.4952    0.0000 C   0  0  0  0  0  0
    3.7500   -6.4952    0.0000 O   0  0  0  0  0  0
    6.0000   -5.1962    0.0000 C   0  0  1  0  0  0
    5.2500   -3.8971    0.0000 N   0  0  0  0  0  0
    3.7500   -3.8971    0.0000 C   0  0  0  0  0  0
    3.0000   -5.1962    0.0000 O   0  0  0  0  0  0
    3.0000   -2.5981    0.0000 C   0  0  2  0  0  0
    1.5000   -2.5981    0.0000 C   0  0  0  0  0  0
    0.7500   -1.2990    0.0000 C   0  0  0  0  0  0
    1.5000    0.0000    0.0000 C   0  0  0  0  0  0
    0.7500    1.2990    0.0000 C   0  0  0  0  0  0
   -0.7500    1.2990    0.0000 C   0  0  0  0  0  0
   -1.5000    0.0000    0.0000 C   0  0  0  0  0  0
   -0.7500   -1.2990    0.0000 C   0  0  0  0  0  0
   -1.5000   -2.5981    0.0000 C   0  0  0  0  0  0
    3.7500   -1.2990    0.0000 N   0  0  0  0  0  0
    5.2500   -1.2990    0.0000 C   0  0  0  0  0  0
    6.0000   -2.5981    0.0000 O   0  0  0  0  0  0
    6.0000   -0.0000    0.0000 C   0  0  2  0  0  0
    7.5000   -0.0000    0.0000 C   0  0  0  0  0  0
    8.2500    1.2990    0.0000 C   0  0  0  0  0  0
    9.7500    1.2990    0.0000 C   0  0  0  0  0  0
   10.5000   -0.0000    0.0000 O   0  0  0  0  0  0
   10.5000    2.5981    0.0000 O   0  0  0  0  0  0
    5.2500    1.2990    0.0000 N   0  0  0  0  0  0
    6.0000    2.5981    0.0000 C   0  0  0  0  0  0
    7.5000    2.5981    0.0000 O   0  0  0  0  0  0
    5.2500    3.8971    0.0000 C   0  0  2  0  0  0
    6.0000    5.1962    0.0000 C   0  0  0  0  0  0
    7.5000    5.1962    0.0000 C   0  0  0  0  0  0
    8.2500    3.8971    0.0000 O   0  0  0  0  0  0
    8.2500    6.4952    0.0000 O   0  0  0  0  0  0
    3.7500    3.8971    0.0000 N   0  0  0  0  0  0
    3.0000    5.1962    0.0000 C   0  0  0  0  0  0
    3.7500    6.4952    0.0000 O   0  0  0  0  0  0
    1.5000    5.1962    0.0000 C   0  0  0  0  0  0
    0.7500    6.4952    0.0000 C   0  0  0  0  0  0
   -0.7500    6.4952    0.0000 C   0  0  0  0  0  0
   -1.5000    5.1962    0.0000 O   0  0  0  0  0  0
   -1.5000    7.7942    0.0000 O   0  0  0  0  0  0
    7.5000   -5.1962    0.0000 C   0  0  0  0  0  0
    7.5000   -6.6962    0.0000 C   0  0  0  0  0  0
    7.5000   -3.6962    0.0000 C   0  0  0  0  0  0
    9.0000   -5.1962    0.0000 C   0  0  0  0  0  0
    3.7500   -9.0933    0.0000 C   0  0  0  0  0  0
    3.0000   -7.7942    0.0000 O   0  0  0  0  0  0
    3.0000  -10.3923    0.0000 N   0  0  0  0  0  0
    1.5000  -10.3923    0.0000 C   0  0  2  0  0  0
    0.7500  -11.6913    0.0000 C   0  0  0  0  0  0
    1.5000  -12.9904    0.0000 C   0  0  0  0  0  0
    2.2500  -14.2894    0.0000 F   0  0  0  0  0  0
    0.2010  -13.7404    0.0000 F   0  0  0  0  0  0
    2.7990  -12.2404    0.0000 F   0  0  0  0  0  0
    0.7500   -9.0933    0.0000 C   0  0  0  0  0  0
    1.5000   -7.7942    0.0000 O   0  0  0  0  0  0
   -0.7500   -9.0933    0.0000 C   0  0  0  0  0  0
   -1.5000  -10.3923    0.0000 O   0  0  0  0  0  0
   -1.5000   -7.7942    0.0000 N   0  0  0  0  0  0
   -3.0000   -7.7942    0.0000 C   0  0  0  0  0  0
   -3.7500   -6.4952    0.0000 C   0  0  0  0  0  0
   -3.0000   -5.1962    0.0000 C   0  0  0  0  0  0
   -3.7500   -3.8971    0.0000 C   0  0  0  0  0  0
   -5.2500   -3.8971    0.0000 C   0  0  0  0  0  0
   -6.0000   -2.5981    0.0000 O   0  0  0  0  0  0
   -6.0000   -5.1962    0.0000 C   0  0  0  0  0  0
   -5.2500   -6.4952    0.0000 C   0  0  0  0  0  0
  1  2  1  0  0  0
  2  3  1  0  0  0
  2  4  1  0  0  0
  4  5  1  0  0  0
  5  6  1  0  0  0
  5 51  1  1  0  0
  6  7  1  0  0  0
  7  8  2  0  0  0
  7  9  1  0  0  0
  9 10  1  0  0  0
  9 47  1  6  0  0
 10 11  1  0  0  0
 11 12  2  0  0  0
 11 13  1  0  0  0
 13 14  1  0  0  0
 13 22  1  1  0  0
 14 15  1  0  0  0
 15 16  2  0  0  0
 15 20  1  0  0  0
 16 17  1  0  0  0
 17 18  2  0  0  0
 18 19  1  0  0  0
 19 20  2  0  0  0
 20 21  1  0  0  0
 22 23  1  0  0  0
 23 24  2  0  0  0
 23 25  1  0  0  0
 25 26  1  0  0  0
 25 31  1  1  0  0
 26 27  1  0  0  0
 27 28  1  0  0  0
 28 29  2  0  0  0
 28 30  1  0  0  0
 31 32  1  0  0  0
 32 33  2  0  0  0
 32 34  1  0  0  0
 34 35  1  0  0  0
 34 39  1  1  0  0
 35 36  1  0  0  0
 36 37  2  0  0  0
 36 38  1  0  0  0
 39 40  1  0  0  0
 40 41  2  0  0  0
 40 42  1  0  0  0
 42 43  1  0  0  0
 43 44  1  0  0  0
 44 45  2  0  0  0
 44 46  1  0  0  0
 47 48  1  0  0  0
 47 49  1  0  0  0
 47 50  1  0  0  0
 51 52  2  0  0  0
 51 53  1  0  0  0
 53 54  1  0  0  0
 54 55  1  0  0  0
 54 60  1  6  0  0
 55 56  1  0  0  0
 56 57  1  0  0  0
 56 58  1  0  0  0
 56 59  1  0  0  0
 60 61  2  0  0  0
 60 62  1  0  0  0
 62 63  2  0  0  0
 62 64  1  0  0  0
 64 65  1  0  0  0
 65 66  1  0  0  0
 66 67  2  0  0  0
 66 72  1  0  0  0
 67 68  1  0  0  0
 68 69  2  0  0  0
 69 70  1  0  0  0
 69 71  1  0  0  0
 71 72  2  0  0  0
M  END
> <s_m_entry_id>
6546

> <s_m_entry_name>
NS3-4A.87

> <CHEMBLID>
CHEMBL261963

> <s_m_Source_Path>
/home/liwei/Desktop/Machine/HCV/Active

> <s_m_Source_File>
NS3-4A.sdf

> <i_m_Source_File_Index>
87

$$$$
CHEMBL262654
                    3D
 Structure written by MMmdl.
 71 72  0  0  1  0            999 V2000
    6.0000  -12.9904    0.0000 C   0  0  0  0  0  0
    5.2500  -11.6913    0.0000 C   0  0  0  0  0  0
    3.7500  -11.6913    0.0000 C   0  0  0  0  0  0
    6.0000  -10.3923    0.0000 C   0  0  0  0  0  0
    5.2500   -9.0933    0.0000 C   0  0  2  0  0  0
    6.0000   -7.7942    0.0000 N   0  0  0  0  0  0
    5.2500   -6.4952    0.0000 C   0  0  0  0  0  0
    3.7500   -6.4952    0.0000 O   0  0  0  0  0  0
    6.0000   -5.1962    0.0000 C   0  0  1  0  0  0
    5.2500   -3.8971    0.0000 N   0  0  0  0  0  0
    3.7500   -3.8971    0.0000 C   0  0  0  0  0  0
    3.0000   -5.1962    0.0000 O   0  0  0  0  0  0
    3.0000   -2.5981    0.0000 C   0  0  2  0  0  0
    1.5000   -2.5981    0.0000 C   0  0  0  0  0  0
    0.7500   -1.2990    0.0000 C   0  0  0  0  0  0
    1.5000    0.0000    0.0000 C   0  0  0  0  0  0
    0.7500    1.2990    0.0000 C   0  0  0  0  0  0
   -0.7500    1.2990    0.0000 C   0  0  0  0  0  0
   -1.5000    0.0000    0.0000 C   0  0  0  0  0  0
   -0.7500   -1.2990    0.0000 C   0  0  0  0  0  0
   -1.5000   -2.5981    0.0000 C   0  0  0  0  0  0
    3.7500   -1.2990    0.0000 N   0  0  0  0  0  0
    5.2500   -1.2990    0.0000 C   0  0  0  0  0  0
    6.0000   -2.5981    0.0000 O   0  0  0  0  0  0
    6.0000   -0.0000    0.0000 C   0  0  2  0  0  0
    7.5000   -0.0000    0.0000 C   0  0  0  0  0  0
    8.2500    1.2990    0.0000 C   0  0  0  0  0  0
    9.7500    1.2990    0.0000 C   0  0  0  0  0  0
   10.5000   -0.0000    0.0000 O   0  0  0  0  0  0
   10.5000    2.5981    0.0000 O   0  0  0  0  0  0
    5.2500    1.2990    0.0000 N   0  0  0  0  0  0
    6.0000    2.5981    0.0000 C   0  0  0  0  0  0
    7.5000    2.5981    0.0000 O   0  0  0  0  0  0
    5.2500    3.8971    0.0000 C   0  0  2  0  0  0
    6.0000    5.1962    0.0000 C   0  0  0  0  0  0
    7.5000    5.1962    0.0000 C   0  0  0  0  0  0
    8.2500    3.8971    0.0000 O   0  0  0  0  0  0
    8.2500    6.4952    0.0000 O   0  0  0  0  0  0
    3.7500    3.8971    0.0000 N   0  0  0  0  0  0
    3.0000    5.1962    0.0000 C   0  0  0  0  0  0
    3.7500    6.4952    0.0000 O   0  0  0  0  0  0
    1.5000    5.1962    0.0000 C   0  0  0  0  0  0
    0.7500    6.4952    0.0000 C   0  0  0  0  0  0
   -0.7500    6.4952    0.0000 C   0  0  0  0  0  0
   -1.5000    5.1962    0.0000 O   0  0  0  0  0  0
   -1.5000    7.7942    0.0000 O   0  0  0  0  0  0
    7.5000   -5.1962    0.0000 C   0  0  0  0  0  0
    7.5000   -6.6962    0.0000 C   0  0  0  0  0  0
    7.5000   -3.6962    0.0000 C   0  0  0  0  0  0
    9.0000   -5.1962    0.0000 C   0  0  0  0  0  0
    3.7500   -9.0933    0.0000 C   0  0  0  0  0  0
    3.0000   -7.7942    0.0000 O   0  0  0  0  0  0
    3.0000  -10.3923    0.0000 N   0  0  0  0  0  0
    1.5000  -10.3923    0.0000 C   0  0  2  0  0  0
    0.7500  -11.6913    0.0000 C   0  0  0  0  0  0
    1.5000  -12.9904    0.0000 C   0  0  0  0  0  0
    2.2500  -14.2894    0.0000 F   0  0  0  0  0  0
    0.2010  -13.7404    0.0000 F   0  0  0  0  0  0
    2.7990  -12.2404    0.0000 F   0  0  0  0  0  0
    0.7500   -9.0933    0.0000 C   0  0  0  0  0  0
    1.5000   -7.7942    0.0000 O   0  0  0  0  0  0
   -0.7500   -9.0933    0.0000 C   0  0  0  0  0  0
   -1.5000  -10.3923    0.0000 O   0  0  0  0  0  0
   -1.5000   -7.7942    0.0000 N   0  0  0  0  0  0
   -3.0000   -7.7942    0.0000 C   0  0  0  0  0  0
   -3.7500   -6.4952    0.0000 C   0  0  0  0  0  0
   -3.0000   -5.1962    0.0000 C   0  0  0  0  0  0
   -3.7500   -3.8971    0.0000 C   0  0  0  0  0  0
   -5.2500   -3.8971    0.0000 C   0  0  0  0  0  0
   -6.0000   -5.1962    0.0000 C   0  0  0  0  0  0
   -5.2500   -6.4952    0.0000 C   0  0  0  0  0  0
  1  2  1  0  0  0
  2  3  1  0  0  0
  2  4  1  0  0  0
  4  5  1  0  0  0
  5  6  1  0  0  0
  5 51  1  1  0  0
  6  7  1  0  0  0
  7  8  2  0  0  0
  7  9  1  0  0  0
  9 10  1  0  0  0
  9 47  1  6  0  0
 10 11  1  0  0  0
 11 12  2  0  0  0
 11 13  1  0  0  0
 13 14  1  0  0  0
 13 22  1  1  0  0
 14 15  1  0  0  0
 15 16  2  0  0  0
 15 20  1  0  0  0
 16 17  1  0  0  0
 17 18  2  0  0  0
 18 19  1  0  0  0
 19 20  2  0  0  0
 20 21  1  0  0  0
 22 23  1  0  0  0
 23 24  2  0  0  0
 23 25  1  0  0  0
 25 26  1  0  0  0
 25 31  1  1  0  0
 26 27  1  0  0  0
 27 28  1  0  0  0
 28 29  2  0  0  0
 28 30  1  0  0  0
 31 32  1  0  0  0
 32 33  2  0  0  0
 32 34  1  0  0  0
 34 35  1  0  0  0
 34 39  1  1  0  0
 35 36  1  0  0  0
 36 37  2  0  0  0
 36 38  1  0  0  0
 39 40  1  0  0  0
 40 41  2  0  0  0
 40 42  1  0  0  0
 42 43  1  0  0  0
 43 44  1  0  0  0
 44 45  2  0  0  0
 44 46  1  0  0  0
 47 48  1  0  0  0
 47 49  1  0  0  0
 47 50  1  0  0  0
 51 52  2  0  0  0
 51 53  1  0  0  0
 53 54  1  0  0  0
 54 55  1  0  0  0
 54 60  1  6  0  0
 55 56  1  0  0  0
 56 57  1  0  0  0
 56 58  1  0  0  0
 56 59  1  0  0  0
 60 61  2  0  0  0
 60 62  1  0  0  0
 62 63  2  0  0  0
 62 64  1  0  0  0
 64 65  1  0  0  0
 65 66  1  0  0  0
 66 67  2  0  0  0
 66 71  1  0  0  0
 67 68  1  0  0  0
 68 69  2  0  0  0
 69 70  1  0  0  0
 70 71  2  0  0  0
M  END
> <s_m_entry_id>
6547

> <s_m_entry_name>
NS3-4A.88

> <CHEMBLID>
CHEMBL262654

> <s_m_Source_Path>
/home/liwei/Desktop/Machine/HCV/Active

> <s_m_Source_File>
NS3-4A.sdf

> <i_m_Source_File_Index>
88

$$$$
CHEMBL263172
                    3D
 Structure written by MMmdl.
 73 76  0  0  1  0            999 V2000
    1.5000    5.1962    0.0000 C   0  0  0  0  0  0
    3.0000    5.1962    0.0000 C   0  0  0  0  0  0
    3.7500    6.4952    0.0000 O   0  0  0  0  0  0
    3.7500    3.8971    0.0000 N   0  0  0  0  0  0
    5.2500    3.8971    0.0000 C   0  0  1  0  0  0
    6.0000    5.1962    0.0000 C   0  0  0  0  0  0
    7.5000    5.1962    0.0000 C   0  0  0  0  0  0
    8.2500    6.4952    0.0000 O   0  0  0  0  0  0
    8.2500    3.8971    0.0000 O   0  0  0  0  0  0
    6.0000    2.5981    0.0000 C   0  0  0  0  0  0
    7.5000    2.5981    0.0000 O   0  0  0  0  0  0
    5.2500    1.2990    0.0000 N   0  0  0  0  0  0
    6.0000   -0.0000    0.0000 C   0  0  1  0  0  0
    7.5000   -0.0000    0.0000 C   0  0  0  0  0  0
    8.2500    1.2990    0.0000 C   0  0  0  0  0  0
    9.7500    1.2990    0.0000 C   0  0  0  0  0  0
   10.5000   -0.0000    0.0000 O   0  0  0  0  0  0
   10.5000    2.5981    0.0000 O   0  0  0  0  0  0
    5.2500   -1.2990    0.0000 C   0  0  0  0  0  0
    6.0000   -2.5981    0.0000 O   0  0  0  0  0  0
    3.7500   -1.2990    0.0000 N   0  0  0  0  0  0
    3.0000   -2.5981    0.0000 C   0  0  1  0  0  0
    1.5000   -2.5981    0.0000 C   0  0  0  0  0  0
    0.7500   -1.2990    0.0000 C   0  0  0  0  0  0
    1.5000    0.0000    0.0000 C   0  0  0  0  0  0
    0.7500    1.2990    0.0000 C   0  0  0  0  0  0
   -0.7500    1.2990    0.0000 C   0  0  0  0  0  0
   -1.5000    0.0000    0.0000 C   0  0  0  0  0  0
   -0.7500   -1.2990    0.0000 C   0  0  0  0  0  0
    0.7500   -3.8971    0.0000 C   0  0  0  0  0  0
   -0.7500   -3.8971    0.0000 C   0  0  0  0  0  0
   -1.5000   -5.1962    0.0000 C   0  0  0  0  0  0
   -0.7500   -6.4952    0.0000 C   0  0  0  0  0  0
    0.7500   -6.4952    0.0000 C   0  0  0  0  0  0
    1.5000   -5.1962    0.0000 C   0  0  0  0  0  0
    3.7500   -3.8971    0.0000 C   0  0  0  0  0  0
    3.0000   -5.1962    0.0000 O   0  0  0  0  0  0
    5.2500   -3.8971    0.0000 N   0  0  0  0  0  0
    6.0000   -5.1962    0.0000 C   0  0  1  0  0  0
    7.5000   -5.1962    0.0000 C   0  0  0  0  0  0
    8.2500   -6.4952    0.0000 C   0  0  0  0  0  0
    9.7500   -6.4952    0.0000 C   0  0  0  0  0  0
   10.5000   -5.1962    0.0000 O   0  0  0  0  0  0
   10.5000   -7.7942    0.0000 O   0  0  0  0  0  0
    5.2500   -6.4952    0.0000 C   0  0  0  0  0  0
    3.7500   -6.4952    0.0000 O   0  0  0  0  0  0
    6.0000   -7.7942    0.0000 N   0  0  0  0  0  0
    5.2500   -9.0933    0.0000 C   0  0  1  0  0  0
    6.0000  -10.3923    0.0000 C   0  0  0  0  0  0
    5.2500  -11.6913    0.0000 C   0  0  0  0  0  0
    3.7500  -11.6913    0.0000 C   0  0  0  0  0  0
    3.0000  -12.9904    0.0000 C   0  0  0  0  0  0
    3.7500  -14.2894    0.0000 C   0  0  0  0  0  0
    5.2500  -14.2894    0.0000 C   0  0  0  0  0  0
    6.0000  -12.9904    0.0000 C   0  0  0  0  0  0
    3.7500   -9.0933    0.0000 C   0  0  0  0  0  0
    3.0000   -7.7942    0.0000 O   0  0  0  0  0  0
    3.0000  -10.3923    0.0000 N   0  0  0  0  0  0
    1.5000  -10.3923    0.0000 C   0  0  1  0  0  0
    0.7500   -9.0933    0.0000 C   0  0  0  0  0  0
   -0.7500   -9.0933    0.0000 S   0  0  0  0  0  0
    0.7500  -11.6913    0.0000 C   0  0  0  0  0  0
    1.5000  -12.9904    0.0000 O   0  0  0  0  0  0
   -0.7500  -11.6913    0.0000 N   0  0  0  0  0  0
   -1.5000  -12.9904    0.0000 C   0  0  0  0  0  0
   -3.0000  -12.9904    0.0000 C   0  0  0  0  0  0
   -3.7500  -14.2894    0.0000 C   0  0  0  0  0  0
   -5.2500  -14.2894    0.0000 C   0  0  0  0  0  0
   -6.0000  -15.5885    0.0000 C   0  0  0  0  0  0
   -5.2500  -16.8875    0.0000 C   0  0  0  0  0  0
   -3.7500  -16.8875    0.0000 C   0  0  0  0  0  0
   -3.0000  -15.5885    0.0000 C   0  0  0  0  0  0
   -1.5000  -15.5885    0.0000 Cl  0  0  0  0  0  0
  1  2  1  0  0  0
  2  3  2  0  0  0
  2  4  1  0  0  0
  4  5  1  0  0  0
  5  6  1  0  0  0
  5 10  1  6  0  0
  6  7  1  0  0  0
  7  8  2  0  0  0
  7  9  1  0  0  0
 10 11  2  0  0  0
 10 12  1  0  0  0
 12 13  1  0  0  0
 13 14  1  0  0  0
 13 19  1  6  0  0
 14 15  1  0  0  0
 15 16  1  0  0  0
 16 17  2  0  0  0
 16 18  1  0  0  0
 19 20  2  0  0  0
 19 21  1  0  0  0
 21 22  1  0  0  0
 22 23  1  0  0  0
 22 36  1  6  0  0
 23 24  1  0  0  0
 23 30  1  0  0  0
 24 25  2  0  0  0
 24 29  1  0  0  0
 25 26  1  0  0  0
 26 27  2  0  0  0
 27 28  1  0  0  0
 28 29  2  0  0  0
 30 31  2  0  0  0
 30 35  1  0  0  0
 31 32  1  0  0  0
 32 33  2  0  0  0
 33 34  1  0  0  0
 34 35  2  0  0  0
 36 37  2  0  0  0
 36 38  1  0  0  0
 38 39  1  0  0  0
 39 40  1  0  0  0
 39 45  1  6  0  0
 40 41  1  0  0  0
 41 42  1  0  0  0
 42 43  2  0  0  0
 42 44  1  0  0  0
 45 46  2  0  0  0
 45 47  1  0  0  0
 47 48  1  0  0  0
 48 49  1  0  0  0
 48 56  1  6  0  0
 49 50  1  0  0  0
 50 51  1  0  0  0
 50 55  1  0  0  0
 51 52  1  0  0  0
 52 53  1  0  0  0
 53 54  1  0  0  0
 54 55  1  0  0  0
 56 57  2  0  0  0
 56 58  1  0  0  0
 58 59  1  0  0  0
 59 60  1  0  0  0
 59 62  1  1  0  0
 60 61  1  0  0  0
 62 63  2  0  0  0
 62 64  1  0  0  0
 64 65  1  0  0  0
 65 66  1  0  0  0
 66 67  1  0  0  0
 67 68  2  0  0  0
 67 72  1  0  0  0
 68 69  1  0  0  0
 69 70  2  0  0  0
 70 71  1  0  0  0
 71 72  2  0  0  0
 72 73  1  0  0  0
M  END
> <s_m_entry_id>
6548

> <s_m_entry_name>
NS3-4A.89

> <CHEMBLID>
CHEMBL263172

> <s_m_Source_Path>
/home/liwei/Desktop/Machine/HCV/Active

> <s_m_Source_File>
NS3-4A.sdf

> <i_m_Source_File_Index>
89

$$$$
CHEMBL263183
                    3D
 Structure written by MMmdl.
 53 55  0  0  1  0            999 V2000
   14.0846  -15.2566    0.0000 C   0  0  0  0  0  0
   13.0809  -14.1419    0.0000 C   0  0  0  0  0  0
   13.5444  -12.7153    0.0000 C   0  0  0  0  0  0
   11.6137  -14.4538    0.0000 C   0  0  0  0  0  0
   10.6100  -13.3391    0.0000 O   0  0  0  0  0  0
    9.1428  -13.6509    0.0000 C   0  0  0  0  0  0
    8.6792  -15.0775    0.0000 O   0  0  0  0  0  0
    8.1391  -12.5362    0.0000 N   0  0  0  0  0  0
    6.6718  -12.8481    0.0000 C   0  0  1  0  0  0
    6.2083  -14.2747    0.0000 C   0  0  0  0  0  0
    7.2120  -15.3894    0.0000 C   0  0  0  0  0  0
    4.7411  -14.5865    0.0000 C   0  0  0  0  0  0
    5.6682  -11.7334    0.0000 C   0  0  0  0  0  0
    4.2009  -12.0452    0.0000 O   0  0  0  0  0  0
    6.1317  -10.3068    0.0000 N   0  0  0  0  0  0
    7.5583   -9.8433    0.0000 C   0  0  0  0  0  0
    7.5583   -8.3433    0.0000 C   0  0  1  0  0  0
    6.1317   -7.8797    0.0000 C   0  0  0  0  0  0
    5.2500   -9.0933    0.0000 C   0  0  3  0  0  0
    3.7500   -9.0933    0.0000 C   0  0  0  0  0  0
    3.0000  -10.3923    0.0000 O   0  0  0  0  0  0
    3.0000   -7.7942    0.0000 N   0  0  0  0  0  0
    1.5000   -7.7942    0.0000 C   0  0  1  0  0  0
    0.7500   -9.0933    0.0000 C   0  0  0  0  0  0
   -0.7500   -9.0933    0.0000 C   0  0  0  0  0  0
   -1.5000  -10.3923    0.0000 F   0  0  0  0  0  0
   -1.5000   -7.7942    0.0000 F   0  0  0  0  0  0
    0.7500   -6.4952    0.0000 C   0  0  0  0  0  0
   -0.7500   -6.4952    0.0000 O   0  0  0  0  0  0
    1.5000   -5.1962    0.0000 N   0  0  0  0  0  0
    0.7500   -3.8971    0.0000 C   0  0  0  0  0  0
    1.5000   -2.5981    0.0000 C   0  0  0  0  0  0
    0.7500   -1.2990    0.0000 C   0  0  0  0  0  0
    1.5000    0.0000    0.0000 C   0  0  0  0  0  0
    3.0000    0.0000    0.0000 F   0  0  0  0  0  0
    0.7500    1.2990    0.0000 C   0  0  0  0  0  0
   -0.7500    1.2990    0.0000 C   0  0  0  0  0  0
   -1.5000    0.0000    0.0000 C   0  0  0  0  0  0
   -0.7500   -1.2990    0.0000 C   0  0  0  0  0  0
   -1.5000   -2.5981    0.0000 F   0  0  0  0  0  0
   -1.5000    2.5981    0.0000 C   0  0  0  0  0  0
   -3.0000    2.5981    0.0000 O   0  0  0  0  0  0
   -0.7500    3.8971    0.0000 N   0  0  0  0  0  0
   -1.5000    5.1962    0.0000 S   0  0  0  0  0  0
   -2.7990    4.4462    0.0000 O   0  0  0  0  0  0
   -0.2010    5.9462    0.0000 O   0  0  0  0  0  0
   -2.2500    6.4952    0.0000 C   0  0  0  0  0  0
    8.7718   -7.4616    0.0000 C   0  0  0  0  0  0
   10.1421   -8.0717    0.0000 C   0  0  0  0  0  0
   11.3556   -7.1900    0.0000 C   0  0  0  0  0  0
   11.1988   -5.6982    0.0000 C   0  0  0  0  0  0
    9.8285   -5.0881    0.0000 C   0  0  0  0  0  0
    8.6150   -5.9698    0.0000 C   0  0  0  0  0  0
  1  2  1  0  0  0
  2  3  1  0  0  0
  2  4  1  0  0  0
  4  5  1  0  0  0
  5  6  1  0  0  0
  6  7  2  0  0  0
  6  8  1  0  0  0
  8  9  1  0  0  0
  9 10  1  0  0  0
  9 13  1  6  0  0
 10 11  1  0  0  0
 10 12  1  0  0  0
 13 14  2  0  0  0
 13 15  1  0  0  0
 15 16  1  0  0  0
 15 19  1  0  0  0
 16 17  1  0  0  0
 17 18  1  0  0  0
 17 48  1  6  0  0
 18 19  1  0  0  0
 19 20  1  0  0  0
 20 21  2  0  0  0
 20 22  1  0  0  0
 22 23  1  0  0  0
 23 24  1  0  0  0
 23 28  1  6  0  0
 24 25  1  0  0  0
 25 26  1  0  0  0
 25 27  1  0  0  0
 28 29  2  0  0  0
 28 30  1  0  0  0
 30 31  1  0  0  0
 31 32  1  0  0  0
 32 33  1  0  0  0
 33 34  2  0  0  0
 33 39  1  0  0  0
 34 35  1  0  0  0
 34 36  1  0  0  0
 36 37  2  0  0  0
 37 38  1  0  0  0
 37 41  1  0  0  0
 38 39  2  0  0  0
 39 40  1  0  0  0
 41 42  2  0  0  0
 41 43  1  0  0  0
 43 44  1  0  0  0
 44 45  2  0  0  0
 44 46  2  0  0  0
 44 47  1  0  0  0
 48 49  1  0  0  0
 48 53  1  0  0  0
 49 50  1  0  0  0
 50 51  1  0  0  0
 51 52  1  0  0  0
 52 53  1  0  0  0
M  END
> <s_m_entry_id>
6549

> <s_m_entry_name>
NS3-4A.90

> <CHEMBLID>
CHEMBL263183

> <s_m_Source_Path>
/home/liwei/Desktop/Machine/HCV/Active

> <s_m_Source_File>
NS3-4A.sdf

> <i_m_Source_File_Index>
90

$$$$
CHEMBL263598
                    3D
 Structure written by MMmdl.
 71 74  0  0  1  0            999 V2000
    1.5000    5.1962    0.0000 C   0  0  0  0  0  0
    3.0000    5.1962    0.0000 C   0  0  0  0  0  0
    3.7500    6.4952    0.0000 O   0  0  0  0  0  0
    3.7500    3.8971    0.0000 N   0  0  0  0  0  0
    5.2500    3.8971    0.0000 C   0  0  1  0  0  0
    6.0000    5.1962    0.0000 C   0  0  0  0  0  0
    7.5000    5.1962    0.0000 C   0  0  0  0  0  0
    8.2500    3.8971    0.0000 O   0  0  0  0  0  0
    8.2500    6.4952    0.0000 O   0  0  0  0  0  0
    6.0000    2.5981    0.0000 C   0  0  0  0  0  0
    7.5000    2.5981    0.0000 O   0  0  0  0  0  0
    5.2500    1.2990    0.0000 N   0  0  0  0  0  0
    6.0000   -0.0000    0.0000 C   0  0  1  0  0  0
    7.5000   -0.0000    0.0000 C   0  0  0  0  0  0
    8.2500    1.2990    0.0000 C   0  0  0  0  0  0
    9.7500    1.2990    0.0000 C   0  0  0  0  0  0
   10.5000   -0.0000    0.0000 O   0  0  0  0  0  0
   10.5000    2.5981    0.0000 O   0  0  0  0  0  0
    5.2500   -1.2990    0.0000 C   0  0  0  0  0  0
    6.0000   -2.5981    0.0000 O   0  0  0  0  0  0
    3.7500   -1.2990    0.0000 N   0  0  0  0  0  0
    3.0000   -2.5981    0.0000 C   0  0  1  0  0  0
    1.5000   -2.5981    0.0000 C   0  0  0  0  0  0
    0.7500   -1.2990    0.0000 C   0  0  0  0  0  0
    1.5000    0.0000    0.0000 C   0  0  0  0  0  0
    0.7500    1.2990    0.0000 C   0  0  0  0  0  0
   -0.7500    1.2990    0.0000 C   0  0  0  0  0  0
   -1.5000    0.0000    0.0000 C   0  0  0  0  0  0
   -0.7500   -1.2990    0.0000 C   0  0  0  0  0  0
    0.7500   -3.8971    0.0000 C   0  0  0  0  0  0
   -0.7500   -3.8971    0.0000 C   0  0  0  0  0  0
   -1.5000   -5.1962    0.0000 C   0  0  0  0  0  0
   -0.7500   -6.4952    0.0000 C   0  0  0  0  0  0
    0.7500   -6.4952    0.0000 C   0  0  0  0  0  0
    1.5000   -5.1962    0.0000 C   0  0  0  0  0  0
    3.7500   -3.8971    0.0000 C   0  0  0  0  0  0
    3.0000   -5.1962    0.0000 O   0  0  0  0  0  0
    5.2500   -3.8971    0.0000 N   0  0  0  0  0  0
    6.0000   -5.1962    0.0000 C   0  0  1  0  0  0
    7.5000   -5.1962    0.0000 C   0  0  0  0  0  0
    8.2500   -6.4952    0.0000 C   0  0  0  0  0  0
    9.7500   -6.4952    0.0000 C   0  0  0  0  0  0
   10.5000   -5.1962    0.0000 O   0  0  0  0  0  0
   10.5000   -7.7942    0.0000 O   0  0  0  0  0  0
    5.2500   -6.4952    0.0000 C   0  0  0  0  0  0
    3.7500   -6.4952    0.0000 O   0  0  0  0  0  0
    6.0000   -7.7942    0.0000 N   0  0  0  0  0  0
    5.2500   -9.0933    0.0000 C   0  0  1  0  0  0
    6.0000  -10.3923    0.0000 C   0  0  0  0  0  0
    5.2500  -11.6913    0.0000 C   0  0  0  0  0  0
    3.7500  -11.6913    0.0000 C   0  0  0  0  0  0
    3.0000  -12.9904    0.0000 C   0  0  0  0  0  0
    3.7500  -14.2894    0.0000 C   0  0  0  0  0  0
    5.2500  -14.2894    0.0000 C   0  0  0  0  0  0
    6.0000  -12.9904    0.0000 C   0  0  0  0  0  0
    3.7500   -9.0933    0.0000 C   0  0  0  0  0  0
    3.0000   -7.7942    0.0000 O   0  0  0  0  0  0
    3.0000  -10.3923    0.0000 N   0  0  0  0  0  0
    1.5000  -10.3923    0.0000 C   0  0  1  0  0  0
    0.7500   -9.0933    0.0000 C   0  0  0  0  0  0
   -0.7500   -9.0933    0.0000 S   0  0  0  0  0  0
    0.7500  -11.6913    0.0000 C   0  0  0  0  0  0
    1.5000  -12.9904    0.0000 O   0  0  0  0  0  0
   -0.7500  -11.6913    0.0000 N   0  0  0  0  0  0
   -1.5000  -12.9904    0.0000 C   0  0  0  0  0  0
   -3.0000  -12.9904    0.0000 C   0  0  0  0  0  0
   -3.7500  -11.6913    0.0000 C   0  0  0  0  0  0
   -5.2500  -11.6913    0.0000 C   0  0  0  0  0  0
   -6.0000  -12.9904    0.0000 C   0  0  0  0  0  0
   -5.2500  -14.2894    0.0000 C   0  0  0  0  0  0
   -3.7500  -14.2894    0.0000 C   0  0  0  0  0  0
  1  2  1  0  0  0
  2  3  2  0  0  0
  2  4  1  0  0  0
  4  5  1  0  0  0
  5  6  1  0  0  0
  5 10  1  6  0  0
  6  7  1  0  0  0
  7  8  2  0  0  0
  7  9  1  0  0  0
 10 11  2  0  0  0
 10 12  1  0  0  0
 12 13  1  0  0  0
 13 14  1  0  0  0
 13 19  1  6  0  0
 14 15  1  0  0  0
 15 16  1  0  0  0
 16 17  2  0  0  0
 16 18  1  0  0  0
 19 20  2  0  0  0
 19 21  1  0  0  0
 21 22  1  0  0  0
 22 23  1  0  0  0
 22 36  1  6  0  0
 23 24  1  0  0  0
 23 30  1  0  0  0
 24 25  2  0  0  0
 24 29  1  0  0  0
 25 26  1  0  0  0
 26 27  2  0  0  0
 27 28  1  0  0  0
 28 29  2  0  0  0
 30 31  2  0  0  0
 30 35  1  0  0  0
 31 32  1  0  0  0
 32 33  2  0  0  0
 33 34  1  0  0  0
 34 35  2  0  0  0
 36 37  2  0  0  0
 36 38  1  0  0  0
 38 39  1  0  0  0
 39 40  1  0  0  0
 39 45  1  6  0  0
 40 41  1  0  0  0
 41 42  1  0  0  0
 42 43  2  0  0  0
 42 44  1  0  0  0
 45 46  2  0  0  0
 45 47  1  0  0  0
 47 48  1  0  0  0
 48 49  1  0  0  0
 48 56  1  6  0  0
 49 50  1  0  0  0
 50 51  1  0  0  0
 50 55  1  0  0  0
 51 52  1  0  0  0
 52 53  1  0  0  0
 53 54  1  0  0  0
 54 55  1  0  0  0
 56 57  2  0  0  0
 56 58  1  0  0  0
 58 59  1  0  0  0
 59 60  1  0  0  0
 59 62  1  1  0  0
 60 61  1  0  0  0
 62 63  2  0  0  0
 62 64  1  0  0  0
 64 65  1  0  0  0
 65 66  1  0  0  0
 66 67  2  0  0  0
 66 71  1  0  0  0
 67 68  1  0  0  0
 68 69  2  0  0  0
 69 70  1  0  0  0
 70 71  2  0  0  0
M  END
> <s_m_entry_id>
6550

> <s_m_entry_name>
NS3-4A.91

> <CHEMBLID>
CHEMBL263598

> <s_m_Source_Path>
/home/liwei/Desktop/Machine/HCV/Active

> <s_m_Source_File>
NS3-4A.sdf

> <i_m_Source_File_Index>
91

$$$$
CHEMBL263695
                    3D
 Structure written by MMmdl.
 73 77  0  0  1  0            999 V2000
    1.5000    5.1962    0.0000 C   0  0  0  0  0  0
    3.0000    5.1962    0.0000 C   0  0  0  0  0  0
    3.7500    6.4952    0.0000 O   0  0  0  0  0  0
    3.7500    3.8971    0.0000 N   0  0  0  0  0  0
    5.2500    3.8971    0.0000 C   0  0  1  0  0  0
    6.0000    5.1962    0.0000 C   0  0  0  0  0  0
    7.5000    5.1962    0.0000 C   0  0  0  0  0  0
    8.2500    3.8971    0.0000 O   0  0  0  0  0  0
    8.2500    6.4952    0.0000 O   0  0  0  0  0  0
    6.0000    2.5981    0.0000 C   0  0  0  0  0  0
    7.5000    2.5981    0.0000 O   0  0  0  0  0  0
    5.2500    1.2990    0.0000 N   0  0  0  0  0  0
    6.0000   -0.0000    0.0000 C   0  0  1  0  0  0
    7.5000   -0.0000    0.0000 C   0  0  0  0  0  0
    8.2500    1.2990    0.0000 C   0  0  0  0  0  0
    9.7500    1.2990    0.0000 C   0  0  0  0  0  0
   10.5000   -0.0000    0.0000 O   0  0  0  0  0  0
   10.5000    2.5981    0.0000 O   0  0  0  0  0  0
    5.2500   -1.2990    0.0000 C   0  0  0  0  0  0
    6.0000   -2.5981    0.0000 O   0  0  0  0  0  0
    3.7500   -1.2990    0.0000 N   0  0  0  0  0  0
    3.0000   -2.5981    0.0000 C   0  0  1  0  0  0
    1.5000   -2.5981    0.0000 C   0  0  0  0  0  0
    0.7500   -1.2990    0.0000 C   0  0  0  0  0  0
    1.5000    0.0000    0.0000 C   0  0  0  0  0  0
    0.7500    1.2990    0.0000 C   0  0  0  0  0  0
   -0.7500    1.2990    0.0000 C   0  0  0  0  0  0
   -1.5000    0.0000    0.0000 C   0  0  0  0  0  0
   -0.7500   -1.2990    0.0000 C   0  0  0  0  0  0
    0.7500   -3.8971    0.0000 C   0  0  0  0  0  0
   -0.7500   -3.8971    0.0000 C   0  0  0  0  0  0
   -1.5000   -5.1962    0.0000 C   0  0  0  0  0  0
   -0.7500   -6.4952    0.0000 C   0  0  0  0  0  0
    0.7500   -6.4952    0.0000 C   0  0  0  0  0  0
    1.5000   -5.1962    0.0000 C   0  0  0  0  0  0
    3.7500   -3.8971    0.0000 C   0  0  0  0  0  0
    3.0000   -5.1962    0.0000 O   0  0  0  0  0  0
    5.2500   -3.8971    0.0000 N   0  0  0  0  0  0
    6.0000   -5.1962    0.0000 C   0  0  1  0  0  0
    7.5000   -5.1962    0.0000 C   0  0  0  0  0  0
    8.2500   -6.4952    0.0000 C   0  0  0  0  0  0
    9.7500   -6.4952    0.0000 C   0  0  0  0  0  0
   10.5000   -5.1962    0.0000 O   0  0  0  0  0  0
   10.5000   -7.7942    0.0000 O   0  0  0  0  0  0
    5.2500   -6.4952    0.0000 C   0  0  0  0  0  0
    3.7500   -6.4952    0.0000 O   0  0  0  0  0  0
    6.0000   -7.7942    0.0000 N   0  0  0  0  0  0
    5.2500   -9.0933    0.0000 C   0  0  1  0  0  0
    6.0000  -10.3923    0.0000 C   0  0  0  0  0  0
    5.2500  -11.6913    0.0000 C   0  0  0  0  0  0
    3.7500  -11.6913    0.0000 C   0  0  0  0  0  0
    3.0000  -12.9904    0.0000 C   0  0  0  0  0  0
    3.7500  -14.2894    0.0000 C   0  0  0  0  0  0
    5.2500  -14.2894    0.0000 C   0  0  0  0  0  0
    6.0000  -12.9904    0.0000 C   0  0  0  0  0  0
    3.7500   -9.0933    0.0000 C   0  0  0  0  0  0
    3.0000   -7.7942    0.0000 O   0  0  0  0  0  0
    3.0000  -10.3923    0.0000 N   0  0  0  0  0  0
    1.5000  -10.3923    0.0000 C   0  0  1  0  0  0
    0.7500   -9.0933    0.0000 C   0  0  0  0  0  0
   -0.7500   -9.0933    0.0000 S   0  0  0  0  0  0
    0.7500  -11.6913    0.0000 C   0  0  0  0  0  0
    1.5000  -12.9904    0.0000 O   0  0  0  0  0  0
   -0.7500  -11.6913    0.0000 N   0  0  0  0  0  0
   -1.5000  -12.9904    0.0000 C   0  0  0  0  0  0
   -0.7500  -14.2894    0.0000 C   0  0  0  0  0  0
   -1.5000  -15.5885    0.0000 C   0  0  0  0  0  0
   -3.0000  -15.5885    0.0000 C   0  0  0  0  0  0
   -3.7500  -14.2894    0.0000 C   0  0  0  0  0  0
   -3.0000  -12.9904    0.0000 C   0  0  0  0  0  0
   -3.7500  -11.6913    0.0000 C   0  0  0  0  0  0
   -3.7500  -10.1913    0.0000 C   0  0  0  0  0  0
   -5.0490  -10.9413    0.0000 C   0  0  0  0  0  0
  1  2  1  0  0  0
  2  3  2  0  0  0
  2  4  1  0  0  0
  4  5  1  0  0  0
  5  6  1  0  0  0
  5 10  1  6  0  0
  6  7  1  0  0  0
  7  8  2  0  0  0
  7  9  1  0  0  0
 10 11  2  0  0  0
 10 12  1  0  0  0
 12 13  1  0  0  0
 13 14  1  0  0  0
 13 19  1  6  0  0
 14 15  1  0  0  0
 15 16  1  0  0  0
 16 17  2  0  0  0
 16 18  1  0  0  0
 19 20  2  0  0  0
 19 21  1  0  0  0
 21 22  1  0  0  0
 22 23  1  0  0  0
 22 36  1  6  0  0
 23 24  1  0  0  0
 23 30  1  0  0  0
 24 25  2  0  0  0
 24 29  1  0  0  0
 25 26  1  0  0  0
 26 27  2  0  0  0
 27 28  1  0  0  0
 28 29  2  0  0  0
 30 31  2  0  0  0
 30 35  1  0  0  0
 31 32  1  0  0  0
 32 33  2  0  0  0
 33 34  1  0  0  0
 34 35  2  0  0  0
 36 37  2  0  0  0
 36 38  1  0  0  0
 38 39  1  0  0  0
 39 40  1  0  0  0
 39 45  1  6  0  0
 40 41  1  0  0  0
 41 42  1  0  0  0
 42 43  2  0  0  0
 42 44  1  0  0  0
 45 46  2  0  0  0
 45 47  1  0  0  0
 47 48  1  0  0  0
 48 49  1  0  0  0
 48 56  1  6  0  0
 49 50  1  0  0  0
 50 51  1  0  0  0
 50 55  1  0  0  0
 51 52  1  0  0  0
 52 53  1  0  0  0
 53 54  1  0  0  0
 54 55  1  0  0  0
 56 57  2  0  0  0
 56 58  1  0  0  0
 58 59  1  0  0  0
 59 60  1  0  0  0
 59 62  1  1  0  0
 60 61  1  0  0  0
 62 63  2  0  0  0
 62 64  1  0  0  0
 64 65  1  0  0  0
 65 66  2  0  0  0
 65 70  1  0  0  0
 66 67  1  0  0  0
 67 68  2  0  0  0
 68 69  1  0  0  0
 69 70  2  0  0  0
 70 71  1  0  0  0
 71 72  1  0  0  0
 71 73  1  0  0  0
 72 73  1  0  0  0
M  END
> <s_m_entry_id>
6551

> <s_m_entry_name>
NS3-4A.92

> <CHEMBLID>
CHEMBL263695

> <s_m_Source_Path>
/home/liwei/Desktop/Machine/HCV/Active

> <s_m_Source_File>
NS3-4A.sdf

> <i_m_Source_File_Index>
92

$$$$
CHEMBL263772
                    3D
 Structure written by MMmdl.
 72 73  0  0  1  0            999 V2000
    6.0000  -12.9904    0.0000 C   0  0  0  0  0  0
    5.2500  -11.6913    0.0000 C   0  0  0  0  0  0
    3.7500  -11.6913    0.0000 C   0  0  0  0  0  0
    6.0000  -10.3923    0.0000 C   0  0  0  0  0  0
    5.2500   -9.0933    0.0000 C   0  0  2  0  0  0
    6.0000   -7.7942    0.0000 N   0  0  0  0  0  0
    5.2500   -6.4952    0.0000 C   0  0  0  0  0  0
    3.7500   -6.4952    0.0000 O   0  0  0  0  0  0
    6.0000   -5.1962    0.0000 C   0  0  1  0  0  0
    5.2500   -3.8971    0.0000 N   0  0  0  0  0  0
    3.7500   -3.8971    0.0000 C   0  0  0  0  0  0
    3.0000   -5.1962    0.0000 O   0  0  0  0  0  0
    3.0000   -2.5981    0.0000 C   0  0  2  0  0  0
    1.5000   -2.5981    0.0000 C   0  0  0  0  0  0
    0.7500   -1.2990    0.0000 C   0  0  0  0  0  0
    1.5000    0.0000    0.0000 C   0  0  0  0  0  0
    0.7500    1.2990    0.0000 C   0  0  0  0  0  0
   -0.7500    1.2990    0.0000 C   0  0  0  0  0  0
   -1.5000    0.0000    0.0000 C   0  0  0  0  0  0
   -0.7500   -1.2990    0.0000 C   0  0  0  0  0  0
   -1.5000   -2.5981    0.0000 C   0  0  0  0  0  0
    3.7500   -1.2990    0.0000 N   0  0  0  0  0  0
    5.2500   -1.2990    0.0000 C   0  0  0  0  0  0
    6.0000   -2.5981    0.0000 O   0  0  0  0  0  0
    6.0000   -0.0000    0.0000 C   0  0  2  0  0  0
    7.5000   -0.0000    0.0000 C   0  0  0  0  0  0
    8.2500    1.2990    0.0000 C   0  0  0  0  0  0
    9.7500    1.2990    0.0000 C   0  0  0  0  0  0
   10.5000   -0.0000    0.0000 O   0  0  0  0  0  0
   10.5000    2.5981    0.0000 O   0  0  0  0  0  0
    5.2500    1.2990    0.0000 N   0  0  0  0  0  0
    6.0000    2.5981    0.0000 C   0  0  0  0  0  0
    7.5000    2.5981    0.0000 O   0  0  0  0  0  0
    5.2500    3.8971    0.0000 C   0  0  2  0  0  0
    6.0000    5.1962    0.0000 C   0  0  0  0  0  0
    7.5000    5.1962    0.0000 C   0  0  0  0  0  0
    8.2500    3.8971    0.0000 O   0  0  0  0  0  0
    8.2500    6.4952    0.0000 O   0  0  0  0  0  0
    3.7500    3.8971    0.0000 N   0  0  0  0  0  0
    3.0000    5.1962    0.0000 C   0  0  0  0  0  0
    3.7500    6.4952    0.0000 O   0  0  0  0  0  0
    1.5000    5.1962    0.0000 C   0  0  0  0  0  0
    0.7500    6.4952    0.0000 C   0  0  0  0  0  0
   -0.7500    6.4952    0.0000 C   0  0  0  0  0  0
   -1.5000    5.1962    0.0000 O   0  0  0  0  0  0
   -1.5000    7.7942    0.0000 O   0  0  0  0  0  0
    7.5000   -5.1962    0.0000 C   0  0  0  0  0  0
    7.5000   -6.6962    0.0000 C   0  0  0  0  0  0
    7.5000   -3.6962    0.0000 C   0  0  0  0  0  0
    9.0000   -5.1962    0.0000 C   0  0  0  0  0  0
    3.7500   -9.0933    0.0000 C   0  0  0  0  0  0
    3.0000   -7.7942    0.0000 O   0  0  0  0  0  0
    3.0000  -10.3923    0.0000 N   0  0  0  0  0  0
    1.5000  -10.3923    0.0000 C   0  0  2  0  0  0
    0.7500  -11.6913    0.0000 C   0  0  0  0  0  0
    1.5000  -12.9904    0.0000 C   0  0  0  0  0  0
    2.2500  -14.2894    0.0000 F   0  0  0  0  0  0
    0.2010  -13.7404    0.0000 F   0  0  0  0  0  0
    2.7990  -12.2404    0.0000 F   0  0  0  0  0  0
    0.7500   -9.0933    0.0000 C   0  0  0  0  0  0
    1.5000   -7.7942    0.0000 O   0  0  0  0  0  0
   -0.7500   -9.0933    0.0000 C   0  0  0  0  0  0
   -1.5000   -7.7942    0.0000 O   0  0  0  0  0  0
   -1.5000  -10.3923    0.0000 N   0  0  0  0  0  0
   -3.0000  -10.3923    0.0000 C   0  0  1  0  0  0
   -3.7500  -11.6913    0.0000 C   0  0  0  0  0  0
   -3.7500   -9.0933    0.0000 C   0  0  0  0  0  0
   -5.2500   -9.0933    0.0000 C   0  0  0  0  0  0
   -6.0000   -7.7942    0.0000 C   0  0  0  0  0  0
   -5.2500   -6.4952    0.0000 C   0  0  0  0  0  0
   -3.7500   -6.4952    0.0000 C   0  0  0  0  0  0
   -3.0000   -7.7942    0.0000 C   0  0  0  0  0  0
  1  2  1  0  0  0
  2  3  1  0  0  0
  2  4  1  0  0  0
  4  5  1  0  0  0
  5  6  1  0  0  0
  5 51  1  1  0  0
  6  7  1  0  0  0
  7  8  2  0  0  0
  7  9  1  0  0  0
  9 10  1  0  0  0
  9 47  1  6  0  0
 10 11  1  0  0  0
 11 12  2  0  0  0
 11 13  1  0  0  0
 13 14  1  0  0  0
 13 22  1  1  0  0
 14 15  1  0  0  0
 15 16  2  0  0  0
 15 20  1  0  0  0
 16 17  1  0  0  0
 17 18  2  0  0  0
 18 19  1  0  0  0
 19 20  2  0  0  0
 20 21  1  0  0  0
 22 23  1  0  0  0
 23 24  2  0  0  0
 23 25  1  0  0  0
 25 26  1  0  0  0
 25 31  1  1  0  0
 26 27  1  0  0  0
 27 28  1  0  0  0
 28 29  2  0  0  0
 28 30  1  0  0  0
 31 32  1  0  0  0
 32 33  2  0  0  0
 32 34  1  0  0  0
 34 35  1  0  0  0
 34 39  1  1  0  0
 35 36  1  0  0  0
 36 37  2  0  0  0
 36 38  1  0  0  0
 39 40  1  0  0  0
 40 41  2  0  0  0
 40 42  1  0  0  0
 42 43  1  0  0  0
 43 44  1  0  0  0
 44 45  2  0  0  0
 44 46  1  0  0  0
 47 48  1  0  0  0
 47 49  1  0  0  0
 47 50  1  0  0  0
 51 52  2  0  0  0
 51 53  1  0  0  0
 53 54  1  0  0  0
 54 55  1  0  0  0
 54 60  1  6  0  0
 55 56  1  0  0  0
 56 57  1  0  0  0
 56 58  1  0  0  0
 56 59  1  0  0  0
 60 61  2  0  0  0
 60 62  1  0  0  0
 62 63  2  0  0  0
 62 64  1  0  0  0
 64 65  1  0  0  0
 65 66  1  0  0  0
 65 67  1  6  0  0
 67 68  2  0  0  0
 67 72  1  0  0  0
 68 69  1  0  0  0
 69 70  2  0  0  0
 70 71  1  0  0  0
 71 72  2  0  0  0
M  END
> <s_m_entry_id>
6552

> <s_m_entry_name>
NS3-4A.93

> <CHEMBLID>
CHEMBL263772

> <s_m_Source_Path>
/home/liwei/Desktop/Machine/HCV/Active

> <s_m_Source_File>
NS3-4A.sdf

> <i_m_Source_File_Index>
93

$$$$
CHEMBL264008
                    3D
 Structure written by MMmdl.
 72 75  0  0  1  0            999 V2000
    1.5000    5.1962    0.0000 C   0  0  0  0  0  0
    3.0000    5.1962    0.0000 C   0  0  0  0  0  0
    3.7500    6.4952    0.0000 O   0  0  0  0  0  0
    3.7500    3.8971    0.0000 N   0  0  0  0  0  0
    5.2500    3.8971    0.0000 C   0  0  1  0  0  0
    6.0000    5.1962    0.0000 C   0  0  0  0  0  0
    7.5000    5.1962    0.0000 C   0  0  0  0  0  0
    8.2500    6.4952    0.0000 O   0  0  0  0  0  0
    8.2500    3.8971    0.0000 O   0  0  0  0  0  0
    6.0000    2.5981    0.0000 C   0  0  0  0  0  0
    7.5000    2.5981    0.0000 O   0  0  0  0  0  0
    5.2500    1.2990    0.0000 N   0  0  0  0  0  0
    6.0000   -0.0000    0.0000 C   0  0  1  0  0  0
    7.5000   -0.0000    0.0000 C   0  0  0  0  0  0
    8.2500    1.2990    0.0000 C   0  0  0  0  0  0
    9.7500    1.2990    0.0000 C   0  0  0  0  0  0
   10.5000   -0.0000    0.0000 O   0  0  0  0  0  0
   10.5000    2.5981    0.0000 O   0  0  0  0  0  0
    5.2500   -1.2990    0.0000 C   0  0  0  0  0  0
    6.0000   -2.5981    0.0000 O   0  0  0  0  0  0
    3.7500   -1.2990    0.0000 N   0  0  0  0  0  0
    3.0000   -2.5981    0.0000 C   0  0  1  0  0  0
    1.5000   -2.5981    0.0000 C   0  0  0  0  0  0
    0.7500   -1.2990    0.0000 C   0  0  0  0  0  0
    1.5000    0.0000    0.0000 C   0  0  0  0  0  0
    0.7500    1.2990    0.0000 C   0  0  0  0  0  0
   -0.7500    1.2990    0.0000 C   0  0  0  0  0  0
   -1.5000    0.0000    0.0000 C   0  0  0  0  0  0
   -0.7500   -1.2990    0.0000 C   0  0  0  0  0  0
    0.7500   -3.8971    0.0000 C   0  0  0  0  0  0
   -0.7500   -3.8971    0.0000 C   0  0  0  0  0  0
   -1.5000   -5.1962    0.0000 C   0  0  0  0  0  0
   -0.7500   -6.4952    0.0000 C   0  0  0  0  0  0
    0.7500   -6.4952    0.0000 C   0  0  0  0  0  0
    1.5000   -5.1962    0.0000 C   0  0  0  0  0  0
    3.7500   -3.8971    0.0000 C   0  0  0  0  0  0
    3.0000   -5.1962    0.0000 O   0  0  0  0  0  0
    5.2500   -3.8971    0.0000 N   0  0  0  0  0  0
    6.0000   -5.1962    0.0000 C   0  0  1  0  0  0
    7.5000   -5.1962    0.0000 C   0  0  0  0  0  0
    8.2500   -6.4952    0.0000 C   0  0  0  0  0  0
    9.7500   -6.4952    0.0000 C   0  0  0  0  0  0
   10.5000   -5.1962    0.0000 O   0  0  0  0  0  0
   10.5000   -7.7942    0.0000 O   0  0  0  0  0  0
    5.2500   -6.4952    0.0000 C   0  0  0  0  0  0
    3.7500   -6.4952    0.0000 O   0  0  0  0  0  0
    6.0000   -7.7942    0.0000 N   0  0  0  0  0  0
    5.2500   -9.0933    0.0000 C   0  0  1  0  0  0
    6.0000  -10.3923    0.0000 C   0  0  0  0  0  0
    5.2500  -11.6913    0.0000 C   0  0  0  0  0  0
    3.7500  -11.6913    0.0000 C   0  0  0  0  0  0
    3.0000  -12.9904    0.0000 C   0  0  0  0  0  0
    3.7500  -14.2894    0.0000 C   0  0  0  0  0  0
    5.2500  -14.2894    0.0000 C   0  0  0  0  0  0
    6.0000  -12.9904    0.0000 C   0  0  0  0  0  0
    3.7500   -9.0933    0.0000 C   0  0  0  0  0  0
    3.0000   -7.7942    0.0000 O   0  0  0  0  0  0
    3.0000  -10.3923    0.0000 N   0  0  0  0  0  0
    1.5000  -10.3923    0.0000 C   0  0  1  0  0  0
    0.7500   -9.0933    0.0000 C   0  0  0  0  0  0
   -0.7500   -9.0933    0.0000 S   0  0  0  0  0  0
    0.7500  -11.6913    0.0000 C   0  0  0  0  0  0
    1.5000  -12.9904    0.0000 O   0  0  0  0  0  0
   -0.7500  -11.6913    0.0000 N   0  0  0  0  0  0
   -1.5000  -12.9904    0.0000 C   0  0  0  0  0  0
   -3.0000  -12.9904    0.0000 C   0  0  0  0  0  0
   -3.7500  -14.2894    0.0000 C   0  0  0  0  0  0
   -5.2500  -14.2894    0.0000 C   0  0  0  0  0  0
   -6.0000  -15.5885    0.0000 C   0  0  0  0  0  0
   -5.2500  -16.8875    0.0000 C   0  0  0  0  0  0
   -3.7500  -16.8875    0.0000 C   0  0  0  0  0  0
   -3.0000  -15.5885    0.0000 C   0  0  0  0  0  0
  1  2  1  0  0  0
  2  3  2  0  0  0
  2  4  1  0  0  0
  4  5  1  0  0  0
  5  6  1  0  0  0
  5 10  1  6  0  0
  6  7  1  0  0  0
  7  8  2  0  0  0
  7  9  1  0  0  0
 10 11  2  0  0  0
 10 12  1  0  0  0
 12 13  1  0  0  0
 13 14  1  0  0  0
 13 19  1  6  0  0
 14 15  1  0  0  0
 15 16  1  0  0  0
 16 17  2  0  0  0
 16 18  1  0  0  0
 19 20  2  0  0  0
 19 21  1  0  0  0
 21 22  1  0  0  0
 22 23  1  0  0  0
 22 36  1  6  0  0
 23 24  1  0  0  0
 23 30  1  0  0  0
 24 25  2  0  0  0
 24 29  1  0  0  0
 25 26  1  0  0  0
 26 27  2  0  0  0
 27 28  1  0  0  0
 28 29  2  0  0  0
 30 31  2  0  0  0
 30 35  1  0  0  0
 31 32  1  0  0  0
 32 33  2  0  0  0
 33 34  1  0  0  0
 34 35  2  0  0  0
 36 37  2  0  0  0
 36 38  1  0  0  0
 38 39  1  0  0  0
 39 40  1  0  0  0
 39 45  1  6  0  0
 40 41  1  0  0  0
 41 42  1  0  0  0
 42 43  2  0  0  0
 42 44  1  0  0  0
 45 46  2  0  0  0
 45 47  1  0  0  0
 47 48  1  0  0  0
 48 49  1  0  0  0
 48 56  1  6  0  0
 49 50  1  0  0  0
 50 51  1  0  0  0
 50 55  1  0  0  0
 51 52  1  0  0  0
 52 53  1  0  0  0
 53 54  1  0  0  0
 54 55  1  0  0  0
 56 57  2  0  0  0
 56 58  1  0  0  0
 58 59  1  0  0  0
 59 60  1  0  0  0
 59 62  1  1  0  0
 60 61  1  0  0  0
 62 63  2  0  0  0
 62 64  1  0  0  0
 64 65  1  0  0  0
 65 66  1  0  0  0
 66 67  1  0  0  0
 67 68  1  0  0  0
 67 72  1  0  0  0
 68 69  1  0  0  0
 69 70  1  0  0  0
 70 71  1  0  0  0
 71 72  1  0  0  0
M  END
> <s_m_entry_id>
6553

> <s_m_entry_name>
NS3-4A.94

> <CHEMBLID>
CHEMBL264008

> <s_m_Source_Path>
/home/liwei/Desktop/Machine/HCV/Active

> <s_m_Source_File>
NS3-4A.sdf

> <i_m_Source_File_Index>
94

$$$$
CHEMBL264914
                    3D
 Structure written by MMmdl.
 36 38  0  0  1  0            999 V2000
   -3.6922   -7.2452    0.0000 C   0  0  0  0  0  0
   -4.9913   -6.4952    0.0000 C   0  0  0  0  0  0
   -6.2903   -5.7452    0.0000 C   0  0  0  0  0  0
   -5.7413   -7.7942    0.0000 C   0  0  0  0  0  0
   -4.2413   -5.1962    0.0000 N   0  0  0  0  0  0
   -4.9913   -3.8971    0.0000 C   0  0  0  0  0  0
   -6.4913   -3.8971    0.0000 O   0  0  0  0  0  0
   -4.2413   -2.5981    0.0000 N   0  0  0  0  0  0
   -4.9913   -1.2990    0.0000 C   0  0  3  0  0  0
   -4.2413    0.0000    0.0000 C   0  0  0  0  0  0
   -4.9913    1.2990    0.0000 O   0  0  0  0  0  0
   -2.7413    0.0000    0.0000 N   0  0  0  0  0  0
   -1.8596   -1.2135    0.0000 C   0  0  0  0  0  0
   -0.4330   -0.7500    0.0000 C   0  0  1  0  0  0
   -0.4330    0.7500    0.0000 C   0  0  1  0  0  0
   -1.8596    1.2135    0.0000 C   0  0  3  0  0  0
   -2.3231    2.6401    0.0000 C   0  0  0  0  0  0
   -3.7903    2.9520    0.0000 O   0  0  0  0  0  0
   -1.3194    3.7548    0.0000 N   0  0  0  0  0  0
   -1.7830    5.1814    0.0000 C   0  0  3  0  0  0
   -0.7793    6.2961    0.0000 C   0  0  0  0  0  0
    0.7187    6.3746    0.0000 C   0  0  0  0  0  0
    0.6402    7.8726    0.0000 C   0  0  0  0  0  0
   -0.8578    7.7941    0.0000 C   0  0  0  0  0  0
   -3.2502    5.4933    0.0000 C   0  0  0  0  0  0
   -4.2539    4.3786    0.0000 O   0  0  0  0  0  0
   -3.7137    6.9199    0.0000 C   0  0  0  0  0  0
   -2.7100    8.0346    0.0000 O   0  0  0  0  0  0
   -5.1809    7.2317    0.0000 N   0  0  0  0  0  0
    0.8660    0.0000    0.0000 C   0  0  0  0  0  0
    1.8302    1.1491    0.0000 C   0  0  0  0  0  0
    1.8302   -1.1491    0.0000 C   0  0  0  0  0  0
   -6.4913   -1.2990    0.0000 C   0  0  0  0  0  0
   -6.4913   -2.7990    0.0000 C   0  0  0  0  0  0
   -6.4913    0.2010    0.0000 C   0  0  0  0  0  0
   -7.9913   -1.2990    0.0000 C   0  0  0  0  0  0
  1  2  1  0  0  0
  2  3  1  0  0  0
  2  4  1  0  0  0
  2  5  1  0  0  0
  5  6  1  0  0  0
  6  7  2  0  0  0
  6  8  1  0  0  0
  8  9  1  0  0  0
  9 10  1  0  0  0
  9 33  1  0  0  0
 10 11  2  0  0  0
 10 12  1  0  0  0
 12 13  1  0  0  0
 12 16  1  0  0  0
 13 14  1  0  0  0
 14 15  1  0  0  0
 14 30  1  6  0  0
 15 16  1  0  0  0
 15 30  1  1  0  0
 16 17  1  0  0  0
 17 18  2  0  0  0
 17 19  1  0  0  0
 19 20  1  0  0  0
 20 21  1  0  0  0
 20 25  1  0  0  0
 21 22  1  0  0  0
 21 24  1  0  0  0
 22 23  1  0  0  0
 23 24  1  0  0  0
 25 26  2  0  0  0
 25 27  1  0  0  0
 27 28  2  0  0  0
 27 29  1  0  0  0
 30 31  1  0  0  0
 30 32  1  0  0  0
 33 34  1  0  0  0
 33 35  1  0  0  0
 33 36  1  0  0  0
M  END
> <s_m_entry_id>
6554

> <s_m_entry_name>
NS3-4A.95

> <CHEMBLID>
CHEMBL264914

> <s_m_Source_Path>
/home/liwei/Desktop/Machine/HCV/Active

> <s_m_Source_File>
NS3-4A.sdf

> <i_m_Source_File_Index>
95

$$$$
CHEMBL265015
                    3D
 Structure written by MMmdl.
 72 75  0  0  1  0            999 V2000
    1.5000    5.1962    0.0000 C   0  0  0  0  0  0
    3.0000    5.1962    0.0000 C   0  0  0  0  0  0
    3.7500    6.4952    0.0000 O   0  0  0  0  0  0
    3.7500    3.8971    0.0000 N   0  0  0  0  0  0
    5.2500    3.8971    0.0000 C   0  0  1  0  0  0
    6.0000    5.1962    0.0000 C   0  0  0  0  0  0
    7.5000    5.1962    0.0000 C   0  0  0  0  0  0
    8.2500    6.4952    0.0000 O   0  0  0  0  0  0
    8.2500    3.8971    0.0000 O   0  0  0  0  0  0
    6.0000    2.5981    0.0000 C   0  0  0  0  0  0
    7.5000    2.5981    0.0000 O   0  0  0  0  0  0
    5.2500    1.2990    0.0000 N   0  0  0  0  0  0
    6.0000   -0.0000    0.0000 C   0  0  1  0  0  0
    7.5000   -0.0000    0.0000 C   0  0  0  0  0  0
    8.2500    1.2990    0.0000 C   0  0  0  0  0  0
    9.7500    1.2990    0.0000 C   0  0  0  0  0  0
   10.5000   -0.0000    0.0000 O   0  0  0  0  0  0
   10.5000    2.5981    0.0000 O   0  0  0  0  0  0
    5.2500   -1.2990    0.0000 C   0  0  0  0  0  0
    6.0000   -2.5981    0.0000 O   0  0  0  0  0  0
    3.7500   -1.2990    0.0000 N   0  0  0  0  0  0
    3.0000   -2.5981    0.0000 C   0  0  1  0  0  0
    1.5000   -2.5981    0.0000 C   0  0  0  0  0  0
    0.7500   -1.2990    0.0000 C   0  0  0  0  0  0
    1.5000    0.0000    0.0000 C   0  0  0  0  0  0
    0.7500    1.2990    0.0000 C   0  0  0  0  0  0
   -0.7500    1.2990    0.0000 C   0  0  0  0  0  0
   -1.5000    0.0000    0.0000 C   0  0  0  0  0  0
   -0.7500   -1.2990    0.0000 C   0  0  0  0  0  0
    0.7500   -3.8971    0.0000 C   0  0  0  0  0  0
   -0.7500   -3.8971    0.0000 C   0  0  0  0  0  0
   -1.5000   -5.1962    0.0000 C   0  0  0  0  0  0
   -0.7500   -6.4952    0.0000 C   0  0  0  0  0  0
    0.7500   -6.4952    0.0000 C   0  0  0  0  0  0
    1.5000   -5.1962    0.0000 C   0  0  0  0  0  0
    3.7500   -3.8971    0.0000 C   0  0  0  0  0  0
    3.0000   -5.1962    0.0000 O   0  0  0  0  0  0
    5.2500   -3.8971    0.0000 N   0  0  0  0  0  0
    6.0000   -5.1962    0.0000 C   0  0  1  0  0  0
    7.5000   -5.1962    0.0000 C   0  0  0  0  0  0
    8.2500   -6.4952    0.0000 C   0  0  0  0  0  0
    9.7500   -6.4952    0.0000 C   0  0  0  0  0  0
   10.5000   -5.1962    0.0000 O   0  0  0  0  0  0
   10.5000   -7.7942    0.0000 O   0  0  0  0  0  0
    5.2500   -6.4952    0.0000 C   0  0  0  0  0  0
    3.7500   -6.4952    0.0000 O   0  0  0  0  0  0
    6.0000   -7.7942    0.0000 N   0  0  0  0  0  0
    5.2500   -9.0933    0.0000 C   0  0  1  0  0  0
    6.0000  -10.3923    0.0000 C   0  0  0  0  0  0
    5.2500  -11.6913    0.0000 C   0  0  0  0  0  0
    3.7500  -11.6913    0.0000 C   0  0  0  0  0  0
    3.0000  -12.9904    0.0000 C   0  0  0  0  0  0
    3.7500  -14.2894    0.0000 C   0  0  0  0  0  0
    5.2500  -14.2894    0.0000 C   0  0  0  0  0  0
    6.0000  -12.9904    0.0000 C   0  0  0  0  0  0
    3.7500   -9.0933    0.0000 C   0  0  0  0  0  0
    3.0000   -7.7942    0.0000 O   0  0  0  0  0  0
    3.0000  -10.3923    0.0000 N   0  0  0  0  0  0
    1.5000  -10.3923    0.0000 C   0  0  1  0  0  0
    0.7500   -9.0933    0.0000 C   0  0  0  0  0  0
   -0.7500   -9.0933    0.0000 S   0  0  0  0  0  0
    0.7500  -11.6913    0.0000 C   0  0  0  0  0  0
    1.5000  -12.9904    0.0000 O   0  0  0  0  0  0
   -0.7500  -11.6913    0.0000 N   0  0  0  0  0  0
   -1.5000  -12.9904    0.0000 C   0  0  0  0  0  0
   -3.0000  -12.9904    0.0000 C   0  0  0  0  0  0
   -3.7500  -14.2894    0.0000 C   0  0  0  0  0  0
   -5.2500  -14.2894    0.0000 C   0  0  0  0  0  0
   -6.0000  -15.5885    0.0000 C   0  0  0  0  0  0
   -5.2500  -16.8875    0.0000 C   0  0  0  0  0  0
   -3.7500  -16.8875    0.0000 C   0  0  0  0  0  0
   -3.0000  -15.5885    0.0000 C   0  0  0  0  0  0
  1  2  1  0  0  0
  2  3  2  0  0  0
  2  4  1  0  0  0
  4  5  1  0  0  0
  5  6  1  0  0  0
  5 10  1  6  0  0
  6  7  1  0  0  0
  7  8  2  0  0  0
  7  9  1  0  0  0
 10 11  2  0  0  0
 10 12  1  0  0  0
 12 13  1  0  0  0
 13 14  1  0  0  0
 13 19  1  6  0  0
 14 15  1  0  0  0
 15 16  1  0  0  0
 16 17  2  0  0  0
 16 18  1  0  0  0
 19 20  2  0  0  0
 19 21  1  0  0  0
 21 22  1  0  0  0
 22 23  1  0  0  0
 22 36  1  6  0  0
 23 24  1  0  0  0
 23 30  1  0  0  0
 24 25  2  0  0  0
 24 29  1  0  0  0
 25 26  1  0  0  0
 26 27  2  0  0  0
 27 28  1  0  0  0
 28 29  2  0  0  0
 30 31  2  0  0  0
 30 35  1  0  0  0
 31 32  1  0  0  0
 32 33  2  0  0  0
 33 34  1  0  0  0
 34 35  2  0  0  0
 36 37  2  0  0  0
 36 38  1  0  0  0
 38 39  1  0  0  0
 39 40  1  0  0  0
 39 45  1  6  0  0
 40 41  1  0  0  0
 41 42  1  0  0  0
 42 43  2  0  0  0
 42 44  1  0  0  0
 45 46  2  0  0  0
 45 47  1  0  0  0
 47 48  1  0  0  0
 48 49  1  0  0  0
 48 56  1  6  0  0
 49 50  1  0  0  0
 50 51  1  0  0  0
 50 55  1  0  0  0
 51 52  1  0  0  0
 52 53  1  0  0  0
 53 54  1  0  0  0
 54 55  1  0  0  0
 56 57  2  0  0  0
 56 58  1  0  0  0
 58 59  1  0  0  0
 59 60  1  0  0  0
 59 62  1  1  0  0
 60 61  1  0  0  0
 62 63  2  0  0  0
 62 64  1  0  0  0
 64 65  1  0  0  0
 65 66  1  0  0  0
 66 67  1  0  0  0
 67 68  2  0  0  0
 67 72  1  0  0  0
 68 69  1  0  0  0
 69 70  2  0  0  0
 70 71  1  0  0  0
 71 72  2  0  0  0
M  END
> <s_m_entry_id>
6555

> <s_m_entry_name>
NS3-4A.96

> <CHEMBLID>
CHEMBL265015

> <s_m_Source_Path>
/home/liwei/Desktop/Machine/HCV/Active

> <s_m_Source_File>
NS3-4A.sdf

> <i_m_Source_File_Index>
96

$$$$
CHEMBL265298
                    3D
 Structure written by MMmdl.
 73 77  0  0  1  0            999 V2000
   -0.0000   -0.6073    0.0000 C   0  0  0  0  0  0
    1.2990   -1.3573    0.0000 C   0  0  0  0  0  0
    1.2990   -2.8573    0.0000 O   0  0  0  0  0  0
    2.5981   -0.6073    0.0000 N   0  0  0  0  0  0
    3.8971   -1.3573    0.0000 C   0  0  1  0  0  0
    5.1962   -0.6073    0.0000 C   0  0  0  0  0  0
    5.1962    0.8927    0.0000 C   0  0  0  0  0  0
    3.8971    1.6427    0.0000 O   0  0  0  0  0  0
    6.4952    1.6427    0.0000 O   0  0  0  0  0  0
    3.8971   -2.8573    0.0000 C   0  0  0  0  0  0
    5.1962   -3.6073    0.0000 O   0  0  0  0  0  0
    2.5981   -3.6073    0.0000 N   0  0  0  0  0  0
    2.5981   -5.1073    0.0000 C   0  0  1  0  0  0
    1.2990   -5.8573    0.0000 C   0  0  0  0  0  0
    0.0000   -5.1073    0.0000 C   0  0  0  0  0  0
   -1.2990   -5.8573    0.0000 C   0  0  0  0  0  0
   -1.2990   -7.3573    0.0000 O   0  0  0  0  0  0
   -2.5981   -5.1073    0.0000 O   0  0  0  0  0  0
    3.8971   -5.8573    0.0000 C   0  0  0  0  0  0
    3.8971   -7.3573    0.0000 O   0  0  0  0  0  0
    5.1962   -5.1073    0.0000 N   0  0  0  0  0  0
    6.4952   -5.8573    0.0000 C   0  0  1  0  0  0
    7.7942   -5.1073    0.0000 C   0  0  0  0  0  0
    7.7942   -3.6073    0.0000 C   0  0  0  0  0  0
    9.0933   -2.8573    0.0000 C   0  0  0  0  0  0
    9.0933   -1.3573    0.0000 C   0  0  0  0  0  0
    7.7942   -0.6073    0.0000 C   0  0  0  0  0  0
    6.4952   -1.3573    0.0000 C   0  0  0  0  0  0
    6.4952   -2.8573    0.0000 C   0  0  0  0  0  0
    9.0933   -5.8573    0.0000 C   0  0  0  0  0  0
    9.0933   -7.3573    0.0000 C   0  0  0  0  0  0
   10.3923   -8.1073    0.0000 C   0  0  0  0  0  0
   11.6913   -7.3573    0.0000 C   0  0  0  0  0  0
   11.6913   -5.8573    0.0000 C   0  0  0  0  0  0
   10.3923   -5.1073    0.0000 C   0  0  0  0  0  0
    6.4952   -7.3573    0.0000 C   0  0  0  0  0  0
    7.7942   -8.1073    0.0000 O   0  0  0  0  0  0
    5.1962   -8.1073    0.0000 N   0  0  0  0  0  0
    5.1962   -9.6073    0.0000 C   0  0  1  0  0  0
    6.4952  -10.3573    0.0000 C   0  0  0  0  0  0
    7.7942   -9.6073    0.0000 C   0  0  0  0  0  0
    9.0933  -10.3573    0.0000 C   0  0  0  0  0  0
    9.0933  -11.8573    0.0000 O   0  0  0  0  0  0
   10.3923   -9.6073    0.0000 O   0  0  0  0  0  0
    3.8971  -10.3573    0.0000 C   0  0  0  0  0  0
    3.8971  -11.8573    0.0000 O   0  0  0  0  0  0
    2.5981   -9.6073    0.0000 N   0  0  0  0  0  0
    1.2990  -10.3573    0.0000 C   0  0  1  0  0  0
    1.2990  -11.8573    0.0000 C   0  0  0  0  0  0
    0.0000  -12.6073    0.0000 C   0  0  0  0  0  0
    0.0000  -14.1073    0.0000 C   0  0  0  0  0  0
   -1.2990  -14.8573    0.0000 C   0  0  0  0  0  0
   -2.5981  -14.1073    0.0000 C   0  0  0  0  0  0
   -2.5981  -12.6073    0.0000 C   0  0  0  0  0  0
   -1.2990  -11.8573    0.0000 C   0  0  0  0  0  0
    0.0000   -9.6073    0.0000 C   0  0  0  0  0  0
   -0.0000   -8.1073    0.0000 O   0  0  0  0  0  0
   -1.2990  -10.3573    0.0000 N   0  0  0  0  0  0
   -2.5981   -9.6073    0.0000 C   0  0  1  0  0  0
   -2.5981   -8.1073    0.0000 C   0  0  0  0  0  0
   -3.8971   -7.3573    0.0000 S   0  0  0  0  0  0
   -3.8971  -10.3573    0.0000 C   0  0  0  0  0  0
   -5.1962   -9.6073    0.0000 O   0  0  0  0  0  0
   -3.8971  -11.8573    0.0000 N   0  0  0  0  0  0
   -5.1962  -12.6073    0.0000 C   0  0  0  0  0  0
   -5.3529  -14.0991    0.0000 C   0  0  0  0  0  0
   -6.8202  -14.4110    0.0000 C   0  0  0  0  0  0
   -7.5702  -15.7100    0.0000 C   0  0  0  0  0  0
   -9.0702  -15.7100    0.0000 C   0  0  0  0  0  0
   -9.8202  -14.4110    0.0000 C   0  0  0  0  0  0
   -9.0702  -13.1119    0.0000 C   0  0  0  0  0  0
   -7.5702  -13.1119    0.0000 C   0  0  0  0  0  0
   -6.5665  -11.9972    0.0000 C   0  0  0  0  0  0
  1  2  1  0  0  0
  2  3  2  0  0  0
  2  4  1  0  0  0
  4  5  1  0  0  0
  5  6  1  0  0  0
  5 10  1  6  0  0
  6  7  1  0  0  0
  7  8  2  0  0  0
  7  9  1  0  0  0
 10 11  2  0  0  0
 10 12  1  0  0  0
 12 13  1  0  0  0
 13 14  1  0  0  0
 13 19  1  6  0  0
 14 15  1  0  0  0
 15 16  1  0  0  0
 16 17  2  0  0  0
 16 18  1  0  0  0
 19 20  2  0  0  0
 19 21  1  0  0  0
 21 22  1  0  0  0
 22 23  1  0  0  0
 22 36  1  6  0  0
 23 24  1  0  0  0
 23 30  1  0  0  0
 24 25  2  0  0  0
 24 29  1  0  0  0
 25 26  1  0  0  0
 26 27  2  0  0  0
 27 28  1  0  0  0
 28 29  2  0  0  0
 30 31  2  0  0  0
 30 35  1  0  0  0
 31 32  1  0  0  0
 32 33  2  0  0  0
 33 34  1  0  0  0
 34 35  2  0  0  0
 36 37  2  0  0  0
 36 38  1  0  0  0
 38 39  1  0  0  0
 39 40  1  0  0  0
 39 45  1  6  0  0
 40 41  1  0  0  0
 41 42  1  0  0  0
 42 43  2  0  0  0
 42 44  1  0  0  0
 45 46  2  0  0  0
 45 47  1  0  0  0
 47 48  1  0  0  0
 48 49  1  0  0  0
 48 56  1  6  0  0
 49 50  1  0  0  0
 50 51  1  0  0  0
 50 55  1  0  0  0
 51 52  1  0  0  0
 52 53  1  0  0  0
 53 54  1  0  0  0
 54 55  1  0  0  0
 56 57  2  0  0  0
 56 58  1  0  0  0
 58 59  1  0  0  0
 59 60  1  0  0  0
 59 62  1  1  0  0
 60 61  1  0  0  0
 62 63  2  0  0  0
 62 64  1  0  0  0
 64 65  1  0  0  0
 65 66  1  0  0  0
 65 73  1  0  0  0
 66 67  1  0  0  0
 67 68  2  0  0  0
 67 72  1  0  0  0
 68 69  1  0  0  0
 69 70  2  0  0  0
 70 71  1  0  0  0
 71 72  2  0  0  0
 72 73  1  0  0  0
M  END
> <s_m_entry_id>
6556

> <s_m_entry_name>
NS3-4A.97

> <CHEMBLID>
CHEMBL265298

> <s_m_Source_Path>
/home/liwei/Desktop/Machine/HCV/Active

> <s_m_Source_File>
NS3-4A.sdf

> <i_m_Source_File_Index>
97

$$$$
CHEMBL269187
                    3D
 Structure written by MMmdl.
 74 75  0  0  1  0            999 V2000
    6.0000  -12.9904    0.0000 C   0  0  0  0  0  0
    5.2500  -11.6913    0.0000 C   0  0  0  0  0  0
    3.7500  -11.6913    0.0000 C   0  0  0  0  0  0
    6.0000  -10.3923    0.0000 C   0  0  0  0  0  0
    5.2500   -9.0933    0.0000 C   0  0  2  0  0  0
    6.0000   -7.7942    0.0000 N   0  0  0  0  0  0
    5.2500   -6.4952    0.0000 C   0  0  0  0  0  0
    3.7500   -6.4952    0.0000 O   0  0  0  0  0  0
    6.0000   -5.1962    0.0000 C   0  0  1  0  0  0
    5.2500   -3.8971    0.0000 N   0  0  0  0  0  0
    3.7500   -3.8971    0.0000 C   0  0  0  0  0  0
    3.0000   -5.1962    0.0000 O   0  0  0  0  0  0
    3.0000   -2.5981    0.0000 C   0  0  2  0  0  0
    1.5000   -2.5981    0.0000 C   0  0  0  0  0  0
    0.7500   -1.2990    0.0000 C   0  0  0  0  0  0
    1.5000    0.0000    0.0000 C   0  0  0  0  0  0
    0.7500    1.2990    0.0000 C   0  0  0  0  0  0
   -0.7500    1.2990    0.0000 C   0  0  0  0  0  0
   -1.5000    0.0000    0.0000 C   0  0  0  0  0  0
   -0.7500   -1.2990    0.0000 C   0  0  0  0  0  0
   -1.5000   -2.5981    0.0000 C   0  0  0  0  0  0
    3.7500   -1.2990    0.0000 N   0  0  0  0  0  0
    5.2500   -1.2990    0.0000 C   0  0  0  0  0  0
    6.0000   -2.5981    0.0000 O   0  0  0  0  0  0
    6.0000   -0.0000    0.0000 C   0  0  2  0  0  0
    7.5000   -0.0000    0.0000 C   0  0  0  0  0  0
    8.2500    1.2990    0.0000 C   0  0  0  0  0  0
    9.7500    1.2990    0.0000 C   0  0  0  0  0  0
   10.5000   -0.0000    0.0000 O   0  0  0  0  0  0
   10.5000    2.5981    0.0000 O   0  0  0  0  0  0
    5.2500    1.2990    0.0000 N   0  0  0  0  0  0
    6.0000    2.5981    0.0000 C   0  0  0  0  0  0
    7.5000    2.5981    0.0000 O   0  0  0  0  0  0
    5.2500    3.8971    0.0000 C   0  0  2  0  0  0
    6.0000    5.1962    0.0000 C   0  0  0  0  0  0
    7.5000    5.1962    0.0000 C   0  0  0  0  0  0
    8.2500    3.8971    0.0000 O   0  0  0  0  0  0
    8.2500    6.4952    0.0000 O   0  0  0  0  0  0
    3.7500    3.8971    0.0000 N   0  0  0  0  0  0
    3.0000    5.1962    0.0000 C   0  0  0  0  0  0
    3.7500    6.4952    0.0000 O   0  0  0  0  0  0
    1.5000    5.1962    0.0000 C   0  0  0  0  0  0
    0.7500    6.4952    0.0000 C   0  0  0  0  0  0
   -0.7500    6.4952    0.0000 C   0  0  0  0  0  0
   -1.5000    5.1962    0.0000 O   0  0  0  0  0  0
   -1.5000    7.7942    0.0000 O   0  0  0  0  0  0
    7.5000   -5.1962    0.0000 C   0  0  0  0  0  0
    7.5000   -6.6962    0.0000 C   0  0  0  0  0  0
    7.5000   -3.6962    0.0000 C   0  0  0  0  0  0
    9.0000   -5.1962    0.0000 C   0  0  0  0  0  0
    3.7500   -9.0933    0.0000 C   0  0  0  0  0  0
    3.0000   -7.7942    0.0000 O   0  0  0  0  0  0
    3.0000  -10.3923    0.0000 N   0  0  0  0  0  0
    1.5000  -10.3923    0.0000 C   0  0  2  0  0  0
    0.7500  -11.6913    0.0000 C   0  0  0  0  0  0
    1.5000  -12.9904    0.0000 C   0  0  0  0  0  0
    2.2500  -14.2894    0.0000 F   0  0  0  0  0  0
    0.2010  -13.7404    0.0000 F   0  0  0  0  0  0
    2.7990  -12.2404    0.0000 F   0  0  0  0  0  0
    0.7500   -9.0933    0.0000 C   0  0  0  0  0  0
    1.5000   -7.7942    0.0000 O   0  0  0  0  0  0
   -0.7500   -9.0933    0.0000 C   0  0  0  0  0  0
   -1.5000  -10.3923    0.0000 O   0  0  0  0  0  0
   -1.5000   -7.7942    0.0000 N   0  0  0  0  0  0
   -3.0000   -7.7942    0.0000 C   0  0  1  0  0  0
   -3.7500   -6.4952    0.0000 C   0  0  0  0  0  0
   -5.2500   -6.4952    0.0000 C   0  0  0  0  0  0
   -3.0000   -5.1962    0.0000 C   0  0  0  0  0  0
   -3.7500   -9.0933    0.0000 C   0  0  0  0  0  0
   -5.2500   -9.0933    0.0000 C   0  0  0  0  0  0
   -6.0000  -10.3923    0.0000 C   0  0  0  0  0  0
   -5.2500  -11.6913    0.0000 C   0  0  0  0  0  0
   -3.7500  -11.6913    0.0000 C   0  0  0  0  0  0
   -3.0000  -10.3923    0.0000 C   0  0  0  0  0  0
  1  2  1  0  0  0
  2  3  1  0  0  0
  2  4  1  0  0  0
  4  5  1  0  0  0
  5  6  1  0  0  0
  5 51  1  1  0  0
  6  7  1  0  0  0
  7  8  2  0  0  0
  7  9  1  0  0  0
  9 10  1  0  0  0
  9 47  1  6  0  0
 10 11  1  0  0  0
 11 12  2  0  0  0
 11 13  1  0  0  0
 13 14  1  0  0  0
 13 22  1  1  0  0
 14 15  1  0  0  0
 15 16  2  0  0  0
 15 20  1  0  0  0
 16 17  1  0  0  0
 17 18  2  0  0  0
 18 19  1  0  0  0
 19 20  2  0  0  0
 20 21  1  0  0  0
 22 23  1  0  0  0
 23 24  2  0  0  0
 23 25  1  0  0  0
 25 26  1  0  0  0
 25 31  1  1  0  0
 26 27  1  0  0  0
 27 28  1  0  0  0
 28 29  2  0  0  0
 28 30  1  0  0  0
 31 32  1  0  0  0
 32 33  2  0  0  0
 32 34  1  0  0  0
 34 35  1  0  0  0
 34 39  1  1  0  0
 35 36  1  0  0  0
 36 37  2  0  0  0
 36 38  1  0  0  0
 39 40  1  0  0  0
 40 41  2  0  0  0
 40 42  1  0  0  0
 42 43  1  0  0  0
 43 44  1  0  0  0
 44 45  2  0  0  0
 44 46  1  0  0  0
 47 48  1  0  0  0
 47 49  1  0  0  0
 47 50  1  0  0  0
 51 52  2  0  0  0
 51 53  1  0  0  0
 53 54  1  0  0  0
 54 55  1  0  0  0
 54 60  1  6  0  0
 55 56  1  0  0  0
 56 57  1  0  0  0
 56 58  1  0  0  0
 56 59  1  0  0  0
 60 61  2  0  0  0
 60 62  1  0  0  0
 62 63  2  0  0  0
 62 64  1  0  0  0
 64 65  1  0  0  0
 65 66  1  0  0  0
 65 69  1  6  0  0
 66 67  1  0  0  0
 66 68  1  0  0  0
 69 70  2  0  0  0
 69 74  1  0  0  0
 70 71  1  0  0  0
 71 72  2  0  0  0
 72 73  1  0  0  0
 73 74  2  0  0  0
M  END
> <s_m_entry_id>
6557

> <s_m_entry_name>
NS3-4A.98

> <CHEMBLID>
CHEMBL269187

> <s_m_Source_Path>
/home/liwei/Desktop/Machine/HCV/Active

> <s_m_Source_File>
NS3-4A.sdf

> <i_m_Source_File_Index>
98

$$$$
CHEMBL284771
                    3D
 Structure written by MMmdl.
 66 71  0  0  1  0            999 V2000
  -13.3052   -7.3045    0.0000 C   0  0  0  0  0  0
  -12.0917   -8.1862    0.0000 C   0  0  0  0  0  0
  -10.7213   -7.5761    0.0000 C   0  0  0  0  0  0
   -9.5078   -8.4577    0.0000 C   0  0  3  0  0  0
   -8.1375   -7.8476    0.0000 N   0  0  0  0  0  0
   -6.9240   -8.7293    0.0000 C   0  0  0  0  0  0
   -7.0808  -10.2211    0.0000 O   0  0  0  0  0  0
   -5.5537   -8.1192    0.0000 C   0  0  2  0  0  0
   -5.2418   -6.6520    0.0000 C   0  0  0  0  0  0
   -3.7500   -6.4952    0.0000 C   0  0  2  0  0  0
   -3.1399   -7.8655    0.0000 C   0  0  0  0  0  0
   -4.2546   -8.8692    0.0000 N   0  0  0  0  0  0
   -4.0978  -10.3610    0.0000 C   0  0  0  0  0  0
   -5.3113  -11.2427    0.0000 O   0  0  0  0  0  0
   -2.7275  -10.9711    0.0000 C   0  0  2  0  0  0
   -1.5140  -10.0894    0.0000 N   0  0  0  0  0  0
   -0.1437  -10.6995    0.0000 C   0  0  0  0  0  0
    0.0131  -12.1913    0.0000 O   0  0  0  0  0  0
    1.0699   -9.8178    0.0000 C   0  0  2  0  0  0
    0.9131   -8.3261    0.0000 N   0  0  0  0  0  0
    2.1266   -7.4444    0.0000 C   0  0  0  0  0  0
    3.4969   -8.0545    0.0000 O   0  0  0  0  0  0
    1.9698   -5.9526    0.0000 C   0  0  0  0  0  0
    3.1833   -5.0709    0.0000 C   0  0  0  0  0  0
    3.0265   -3.5791    0.0000 N   0  0  0  0  0  0
    1.6562   -2.9690    0.0000 C   0  0  0  0  0  0
    0.4427   -3.8507    0.0000 C   0  0  0  0  0  0
    0.5995   -5.3425    0.0000 N   0  0  0  0  0  0
    2.4402  -10.4279    0.0000 C   0  0  0  0  0  0
    3.6537   -9.5463    0.0000 C   0  0  0  0  0  0
    2.5970  -11.9197    0.0000 C   0  0  0  0  0  0
   -2.5707  -12.4629    0.0000 C   0  0  0  0  0  0
   -1.2004  -13.0730    0.0000 C   0  0  0  0  0  0
   -3.7842  -13.3446    0.0000 C   0  0  0  0  0  0
   -3.0000   -5.1962    0.0000 O   0  0  0  0  0  0
   -3.7500   -3.8971    0.0000 C   0  0  0  0  0  0
   -5.2500   -3.8971    0.0000 O   0  0  0  0  0  0
   -3.0000   -2.5981    0.0000 N   0  0  0  0  0  0
   -3.7500   -1.2990    0.0000 C   0  0  0  0  0  0
   -3.0000    0.0000    0.0000 C   0  0  0  0  0  0
   -1.5000    0.0000    0.0000 C   0  0  0  0  0  0
   -0.7500    1.2990    0.0000 C   0  0  0  0  0  0
    0.7500    1.2990    0.0000 C   0  0  0  0  0  0
    1.5000   -0.0000    0.0000 C   0  0  0  0  0  0
    0.7500   -1.2990    0.0000 C   0  0  0  0  0  0
   -0.7500   -1.2990    0.0000 C   0  0  0  0  0  0
   -1.5000   -2.5981    0.0000 C   0  0  0  0  0  0
   -9.6646   -9.9495    0.0000 C   0  0  0  0  0  0
   -8.4511  -10.8312    0.0000 O   0  0  0  0  0  0
  -11.0349  -10.5596    0.0000 C   0  0  0  0  0  0
  -12.2484   -9.6779    0.0000 O   0  0  0  0  0  0
  -11.1917  -12.0514    0.0000 N   0  0  0  0  0  0
  -12.5620  -12.6615    0.0000 C   0  0  1  0  0  0
  -12.7188  -14.1533    0.0000 C   0  0  0  0  0  0
  -13.7756  -11.7798    0.0000 C   0  0  0  0  0  0
  -13.6188  -10.2881    0.0000 O   0  0  0  0  0  0
  -15.1459  -12.3899    0.0000 C   0  0  0  0  0  0
  -15.3027  -13.8817    0.0000 C   0  0  0  0  0  0
  -16.6730  -14.4918    0.0000 C   0  0  0  0  0  0
  -17.8865  -13.6101    0.0000 C   0  0  0  0  0  0
  -17.7297  -12.1184    0.0000 C   0  0  0  0  0  0
  -18.9432  -11.2367    0.0000 C   0  0  0  0  0  0
  -18.7865   -9.7449    0.0000 C   0  0  0  0  0  0
  -17.4161   -9.1348    0.0000 C   0  0  0  0  0  0
  -16.2026  -10.0165    0.0000 C   0  0  0  0  0  0
  -16.3594  -11.5083    0.0000 C   0  0  0  0  0  0
  1  2  1  0  0  0
  2  3  1  0  0  0
  3  4  1  0  0  0
  4  5  1  0  0  0
  4 48  1  0  0  0
  5  6  1  0  0  0
  6  7  2  0  0  0
  6  8  1  0  0  0
  8  9  1  0  0  0
  8 12  1  1  0  0
  9 10  1  0  0  0
 10 11  1  0  0  0
 10 35  1  6  0  0
 11 12  1  0  0  0
 12 13  1  0  0  0
 13 14  2  0  0  0
 13 15  1  0  0  0
 15 16  1  0  0  0
 15 32  1  6  0  0
 16 17  1  0  0  0
 17 18  2  0  0  0
 17 19  1  0  0  0
 19 20  1  0  0  0
 19 29  1  6  0  0
 20 21  1  0  0  0
 21 22  2  0  0  0
 21 23  1  0  0  0
 23 24  2  0  0  0
 23 28  1  0  0  0
 24 25  1  0  0  0
 25 26  2  0  0  0
 26 27  1  0  0  0
 27 28  2  0  0  0
 29 30  1  0  0  0
 29 31  1  0  0  0
 32 33  1  0  0  0
 32 34  1  0  0  0
 35 36  1  0  0  0
 36 37  2  0  0  0
 36 38  1  0  0  0
 38 39  1  0  0  0
 38 47  1  0  0  0
 39 40  1  0  0  0
 40 41  1  0  0  0
 41 42  2  0  0  0
 41 46  1  0  0  0
 42 43  1  0  0  0
 43 44  2  0  0  0
 44 45  1  0  0  0
 45 46  2  0  0  0
 46 47  1  0  0  0
 48 49  2  0  0  0
 48 50  1  0  0  0
 50 51  2  0  0  0
 50 52  1  0  0  0
 52 53  1  0  0  0
 53 54  1  0  0  0
 53 55  1  6  0  0
 55 56  2  0  0  0
 55 57  1  0  0  0
 57 58  2  0  0  0
 57 66  1  0  0  0
 58 59  1  0  0  0
 59 60  2  0  0  0
 60 61  1  0  0  0
 61 62  2  0  0  0
 61 66  1  0  0  0
 62 63  1  0  0  0
 63 64  2  0  0  0
 64 65  1  0  0  0
 65 66  2  0  0  0
M  END
> <s_m_entry_id>
6558

> <s_m_entry_name>
NS3-4A.99

> <CHEMBLID>
CHEMBL284771

> <s_m_Source_Path>
/home/liwei/Desktop/Machine/HCV/Active

> <s_m_Source_File>
NS3-4A.sdf

> <i_m_Source_File_Index>
99

$$$$
CHEMBL285069
                    3D
 Structure written by MMmdl.
 60 64  0  0  1  0            999 V2000
  -13.3052   -7.3045    0.0000 C   0  0  0  0  0  0
  -12.0917   -8.1862    0.0000 C   0  0  0  0  0  0
  -10.7213   -7.5761    0.0000 C   0  0  0  0  0  0
   -9.5078   -8.4577    0.0000 C   0  0  3  0  0  0
   -8.1375   -7.8476    0.0000 N   0  0  0  0  0  0
   -6.9240   -8.7293    0.0000 C   0  0  0  0  0  0
   -7.0808  -10.2211    0.0000 O   0  0  0  0  0  0
   -5.5537   -8.1192    0.0000 C   0  0  2  0  0  0
   -5.2418   -6.6520    0.0000 C   0  0  0  0  0  0
   -3.7500   -6.4952    0.0000 C   0  0  2  0  0  0
   -3.1399   -7.8655    0.0000 C   0  0  0  0  0  0
   -4.2546   -8.8692    0.0000 N   0  0  0  0  0  0
   -4.0978  -10.3610    0.0000 C   0  0  0  0  0  0
   -5.3113  -11.2427    0.0000 O   0  0  0  0  0  0
   -2.7275  -10.9711    0.0000 C   0  0  2  0  0  0
   -1.5140  -10.0894    0.0000 N   0  0  0  0  0  0
   -0.1437  -10.6995    0.0000 C   0  0  0  0  0  0
    0.0131  -12.1913    0.0000 O   0  0  0  0  0  0
    1.0699   -9.8178    0.0000 C   0  0  2  0  0  0
    0.9131   -8.3261    0.0000 N   0  0  0  0  0  0
    2.1266   -7.4444    0.0000 C   0  0  0  0  0  0
    3.4969   -8.0545    0.0000 O   0  0  0  0  0  0
    1.9698   -5.9526    0.0000 C   0  0  0  0  0  0
    3.1833   -5.0709    0.0000 C   0  0  0  0  0  0
    3.0265   -3.5791    0.0000 N   0  0  0  0  0  0
    1.6562   -2.9690    0.0000 C   0  0  0  0  0  0
    0.4427   -3.8507    0.0000 C   0  0  0  0  0  0
    0.5995   -5.3425    0.0000 N   0  0  0  0  0  0
    2.4402  -10.4279    0.0000 C   0  0  0  0  0  0
    3.6537   -9.5463    0.0000 C   0  0  0  0  0  0
    2.5970  -11.9197    0.0000 C   0  0  0  0  0  0
   -2.5707  -12.4629    0.0000 C   0  0  0  0  0  0
   -1.2004  -13.0730    0.0000 C   0  0  0  0  0  0
   -3.7842  -13.3446    0.0000 C   0  0  0  0  0  0
   -3.0000   -5.1962    0.0000 O   0  0  0  0  0  0
   -3.7500   -3.8971    0.0000 C   0  0  0  0  0  0
   -5.2500   -3.8971    0.0000 O   0  0  0  0  0  0
   -3.0000   -2.5981    0.0000 N   0  0  0  0  0  0
   -3.7500   -1.2990    0.0000 C   0  0  0  0  0  0
   -3.0000    0.0000    0.0000 C   0  0  0  0  0  0
   -1.5000    0.0000    0.0000 C   0  0  0  0  0  0
   -0.7500    1.2990    0.0000 C   0  0  0  0  0  0
    0.7500    1.2990    0.0000 C   0  0  0  0  0  0
    1.5000   -0.0000    0.0000 C   0  0  0  0  0  0
    0.7500   -1.2990    0.0000 C   0  0  0  0  0  0
   -0.7500   -1.2990    0.0000 C   0  0  0  0  0  0
   -1.5000   -2.5981    0.0000 C   0  0  0  0  0  0
   -9.6646   -9.9495    0.0000 C   0  0  0  0  0  0
   -8.4511  -10.8312    0.0000 O   0  0  0  0  0  0
  -11.0349  -10.5596    0.0000 C   0  0  0  0  0  0
  -12.2484   -9.6779    0.0000 O   0  0  0  0  0  0
  -11.1917  -12.0514    0.0000 N   0  0  0  0  0  0
  -12.5620  -12.6615    0.0000 C   0  0  1  0  0  0
  -12.7188  -14.1533    0.0000 C   0  0  0  0  0  0
  -13.7756  -11.7798    0.0000 C   0  0  0  0  0  0
  -13.6188  -10.2881    0.0000 C   0  0  0  0  0  0
  -14.8323   -9.4064    0.0000 C   0  0  0  0  0  0
  -16.2026  -10.0165    0.0000 C   0  0  0  0  0  0
  -16.3594  -11.5083    0.0000 C   0  0  0  0  0  0
  -15.1459  -12.3899    0.0000 C   0  0  0  0  0  0
  1  2  1  0  0  0
  2  3  1  0  0  0
  3  4  1  0  0  0
  4  5  1  0  0  0
  4 48  1  0  0  0
  5  6  1  0  0  0
  6  7  2  0  0  0
  6  8  1  0  0  0
  8  9  1  0  0  0
  8 12  1  1  0  0
  9 10  1  0  0  0
 10 11  1  0  0  0
 10 35  1  6  0  0
 11 12  1  0  0  0
 12 13  1  0  0  0
 13 14  2  0  0  0
 13 15  1  0  0  0
 15 16  1  0  0  0
 15 32  1  6  0  0
 16 17  1  0  0  0
 17 18  2  0  0  0
 17 19  1  0  0  0
 19 20  1  0  0  0
 19 29  1  6  0  0
 20 21  1  0  0  0
 21 22  2  0  0  0
 21 23  1  0  0  0
 23 24  2  0  0  0
 23 28  1  0  0  0
 24 25  1  0  0  0
 25 26  2  0  0  0
 26 27  1  0  0  0
 27 28  2  0  0  0
 29 30  1  0  0  0
 29 31  1  0  0  0
 32 33  1  0  0  0
 32 34  1  0  0  0
 35 36  1  0  0  0
 36 37  2  0  0  0
 36 38  1  0  0  0
 38 39  1  0  0  0
 38 47  1  0  0  0
 39 40  1  0  0  0
 40 41  1  0  0  0
 41 42  2  0  0  0
 41 46  1  0  0  0
 42 43  1  0  0  0
 43 44  2  0  0  0
 44 45  1  0  0  0
 45 46  2  0  0  0
 46 47  1  0  0  0
 48 49  2  0  0  0
 48 50  1  0  0  0
 50 51  2  0  0  0
 50 52  1  0  0  0
 52 53  1  0  0  0
 53 54  1  0  0  0
 53 55  1  6  0  0
 55 56  2  0  0  0
 55 60  1  0  0  0
 56 57  1  0  0  0
 57 58  2  0  0  0
 58 59  1  0  0  0
 59 60  2  0  0  0
M  END
> <s_m_entry_id>
6559

> <s_m_entry_name>
NS3-4A.100

> <CHEMBLID>
CHEMBL285069

> <s_m_Source_Path>
/home/liwei/Desktop/Machine/HCV/Active

> <s_m_Source_File>
NS3-4A.sdf

> <i_m_Source_File_Index>
100

$$$$
CHEMBL285260
                    3D
 Structure written by MMmdl.
 56 59  0  0  1  0            999 V2000
   -7.4248  -15.9896    0.0000 C   0  0  0  0  0  0
   -6.2113  -15.1079    0.0000 C   0  0  0  0  0  0
   -6.3681  -13.6161    0.0000 C   0  0  0  0  0  0
   -5.1546  -12.7344    0.0000 C   0  0  3  0  0  0
   -5.3113  -11.2427    0.0000 N   0  0  0  0  0  0
   -4.0978  -10.3610    0.0000 C   0  0  0  0  0  0
   -2.7275  -10.9711    0.0000 O   0  0  0  0  0  0
   -4.2546   -8.8692    0.0000 C   0  0  2  0  0  0
   -3.1399   -7.8655    0.0000 C   0  0  0  0  0  0
   -3.7500   -6.4952    0.0000 C   0  0  2  0  0  0
   -5.2418   -6.6520    0.0000 C   0  0  0  0  0  0
   -5.5537   -8.1192    0.0000 N   0  0  0  0  0  0
   -6.9240   -8.7293    0.0000 C   0  0  0  0  0  0
   -7.0808  -10.2211    0.0000 O   0  0  0  0  0  0
   -8.1375   -7.8476    0.0000 C   0  0  2  0  0  0
   -7.9807   -6.3558    0.0000 N   0  0  0  0  0  0
   -9.1942   -5.4742    0.0000 C   0  0  0  0  0  0
  -10.5645   -6.0843    0.0000 O   0  0  0  0  0  0
   -9.0374   -3.9824    0.0000 C   0  0  2  0  0  0
   -7.6671   -3.3723    0.0000 N   0  0  0  0  0  0
   -7.5103   -1.8805    0.0000 C   0  0  0  0  0  0
   -8.7238   -0.9988    0.0000 O   0  0  0  0  0  0
   -6.1400   -1.2704    0.0000 C   0  0  0  0  0  0
   -4.9265   -2.1521    0.0000 C   0  0  0  0  0  0
   -3.5562   -1.5420    0.0000 N   0  0  0  0  0  0
   -3.3994   -0.0502    0.0000 C   0  0  0  0  0  0
   -4.6129    0.8315    0.0000 C   0  0  0  0  0  0
   -5.9832    0.2214    0.0000 N   0  0  0  0  0  0
  -10.2510   -3.1007    0.0000 C   0  0  0  0  0  0
  -10.0942   -1.6089    0.0000 C   0  0  0  0  0  0
  -11.6213   -3.7108    0.0000 C   0  0  0  0  0  0
   -9.5078   -8.4577    0.0000 C   0  0  0  0  0  0
  -10.7213   -7.5761    0.0000 C   0  0  0  0  0  0
   -9.6646   -9.9495    0.0000 C   0  0  0  0  0  0
   -3.0000   -5.1962    0.0000 O   0  0  0  0  0  0
   -1.5000   -5.1962    0.0000 C   0  0  0  0  0  0
   -0.7500   -6.4952    0.0000 O   0  0  0  0  0  0
   -0.7500   -3.8971    0.0000 N   0  0  0  0  0  0
    0.7500   -3.8971    0.0000 C   0  0  0  0  0  0
    1.5000   -2.5981    0.0000 C   0  0  0  0  0  0
    0.7500   -1.2990    0.0000 C   0  0  0  0  0  0
    1.5000    0.0000    0.0000 C   0  0  0  0  0  0
    0.7500    1.2990    0.0000 C   0  0  0  0  0  0
   -0.7500    1.2990    0.0000 C   0  0  0  0  0  0
   -1.5000    0.0000    0.0000 C   0  0  0  0  0  0
   -0.7500   -1.2990    0.0000 C   0  0  0  0  0  0
   -1.5000   -2.5981    0.0000 C   0  0  0  0  0  0
   -3.7842  -13.3446    0.0000 C   0  0  0  0  0  0
   -2.5707  -12.4629    0.0000 O   0  0  0  0  0  0
   -3.6274  -14.8363    0.0000 C   0  0  0  0  0  0
   -4.8410  -15.7180    0.0000 O   0  0  0  0  0  0
   -2.2571  -15.4464    0.0000 N   0  0  0  0  0  0
   -2.1003  -16.9382    0.0000 C   0  0  0  0  0  0
   -0.7300  -17.5483    0.0000 C   0  0  0  0  0  0
    0.4835  -16.6667    0.0000 O   0  0  0  0  0  0
   -0.5732  -19.0401    0.0000 O   0  0  0  0  0  0
  1  2  1  0  0  0
  2  3  1  0  0  0
  3  4  1  0  0  0
  4  5  1  0  0  0
  4 48  1  0  0  0
  5  6  1  0  0  0
  6  7  2  0  0  0
  6  8  1  0  0  0
  8  9  1  0  0  0
  8 12  1  1  0  0
  9 10  1  0  0  0
 10 11  1  0  0  0
 10 35  1  6  0  0
 11 12  1  0  0  0
 12 13  1  0  0  0
 13 14  2  0  0  0
 13 15  1  0  0  0
 15 16  1  0  0  0
 15 32  1  6  0  0
 16 17  1  0  0  0
 17 18  2  0  0  0
 17 19  1  0  0  0
 19 20  1  0  0  0
 19 29  1  6  0  0
 20 21  1  0  0  0
 21 22  2  0  0  0
 21 23  1  0  0  0
 23 24  2  0  0  0
 23 28  1  0  0  0
 24 25  1  0  0  0
 25 26  2  0  0  0
 26 27  1  0  0  0
 27 28  2  0  0  0
 29 30  1  0  0  0
 29 31  1  0  0  0
 32 33  1  0  0  0
 32 34  1  0  0  0
 35 36  1  0  0  0
 36 37  2  0  0  0
 36 38  1  0  0  0
 38 39  1  0  0  0
 38 47  1  0  0  0
 39 40  1  0  0  0
 40 41  1  0  0  0
 41 42  2  0  0  0
 41 46  1  0  0  0
 42 43  1  0  0  0
 43 44  2  0  0  0
 44 45  1  0  0  0
 45 46  2  0  0  0
 46 47  1  0  0  0
 48 49  2  0  0  0
 48 50  1  0  0  0
 50 51  2  0  0  0
 50 52  1  0  0  0
 52 53  1  0  0  0
 53 54  1  0  0  0
 54 55  2  0  0  0
 54 56  1  0  0  0
M  END
> <s_m_entry_id>
6560

> <s_m_entry_name>
NS3-4A.101

> <CHEMBLID>
CHEMBL285260

> <s_m_Source_Path>
/home/liwei/Desktop/Machine/HCV/Active

> <s_m_Source_File>
NS3-4A.sdf

> <i_m_Source_File_Index>
101

$$$$
CHEMBL285478
                    3D
 Structure written by MMmdl.
 48 51  0  0  1  0            999 V2000
   -6.2113  -15.1079    0.0000 C   0  0  0  0  0  0
   -6.3681  -13.6161    0.0000 C   0  0  0  0  0  0
   -5.1546  -12.7344    0.0000 C   0  0  2  0  0  0
   -5.3113  -11.2427    0.0000 N   0  0  0  0  0  0
   -4.0978  -10.3610    0.0000 C   0  0  0  0  0  0
   -2.7275  -10.9711    0.0000 O   0  0  0  0  0  0
   -4.2546   -8.8692    0.0000 C   0  0  2  0  0  0
   -3.1399   -7.8655    0.0000 C   0  0  0  0  0  0
   -3.7500   -6.4952    0.0000 C   0  0  3  0  0  0
   -5.2418   -6.6520    0.0000 C   0  0  0  0  0  0
   -5.5537   -8.1192    0.0000 N   0  0  0  0  0  0
   -6.9240   -8.7293    0.0000 C   0  0  0  0  0  0
   -7.0808  -10.2211    0.0000 O   0  0  0  0  0  0
   -8.1375   -7.8476    0.0000 C   0  0  2  0  0  0
   -7.9807   -6.3558    0.0000 N   0  0  0  0  0  0
   -9.1942   -5.4742    0.0000 C   0  0  0  0  0  0
  -10.5645   -6.0843    0.0000 O   0  0  0  0  0  0
   -9.0374   -3.9824    0.0000 C   0  0  2  0  0  0
   -7.6671   -3.3723    0.0000 N   0  0  0  0  0  0
   -7.5103   -1.8805    0.0000 C   0  0  0  0  0  0
   -8.7238   -0.9988    0.0000 O   0  0  0  0  0  0
   -6.1400   -1.2704    0.0000 C   0  0  0  0  0  0
   -4.9265   -2.1521    0.0000 C   0  0  0  0  0  0
   -3.5562   -1.5420    0.0000 N   0  0  0  0  0  0
   -3.3994   -0.0502    0.0000 C   0  0  0  0  0  0
   -4.6129    0.8315    0.0000 C   0  0  0  0  0  0
   -5.9832    0.2214    0.0000 N   0  0  0  0  0  0
  -10.2510   -3.1007    0.0000 C   0  0  0  0  0  0
  -10.0942   -1.6089    0.0000 C   0  0  0  0  0  0
  -11.6213   -3.7108    0.0000 C   0  0  0  0  0  0
   -9.5078   -8.4577    0.0000 C   0  0  0  0  0  0
  -10.7213   -7.5761    0.0000 C   0  0  0  0  0  0
   -9.6646   -9.9495    0.0000 C   0  0  0  0  0  0
   -3.0000   -5.1962    0.0000 O   0  0  0  0  0  0
   -1.5000   -5.1962    0.0000 C   0  0  0  0  0  0
   -0.7500   -6.4952    0.0000 O   0  0  0  0  0  0
   -0.7500   -3.8971    0.0000 C   0  0  3  0  0  0
    0.7500   -3.8971    0.0000 C   0  0  0  0  0  0
    1.5000   -2.5981    0.0000 C   0  0  0  0  0  0
    0.7500   -1.2990    0.0000 C   0  0  0  0  0  0
    1.5000    0.0000    0.0000 C   0  0  0  0  0  0
    0.7500    1.2990    0.0000 C   0  0  0  0  0  0
   -0.7500    1.2990    0.0000 C   0  0  0  0  0  0
   -1.5000    0.0000    0.0000 C   0  0  0  0  0  0
   -0.7500   -1.2990    0.0000 C   0  0  0  0  0  0
   -1.5000   -2.5981    0.0000 C   0  0  0  0  0  0
   -3.7842  -13.3446    0.0000 C   0  0  0  0  0  0
   -3.6274  -14.8363    0.0000 O   0  0  0  0  0  0
  1  2  1  0  0  0
  2  3  1  0  0  0
  3  4  1  0  0  0
  3 47  1  1  0  0
  4  5  1  0  0  0
  5  6  2  0  0  0
  5  7  1  0  0  0
  7  8  1  0  0  0
  7 11  1  1  0  0
  8  9  1  0  0  0
  9 10  1  0  0  0
  9 34  1  0  0  0
 10 11  1  0  0  0
 11 12  1  0  0  0
 12 13  2  0  0  0
 12 14  1  0  0  0
 14 15  1  0  0  0
 14 31  1  6  0  0
 15 16  1  0  0  0
 16 17  2  0  0  0
 16 18  1  0  0  0
 18 19  1  0  0  0
 18 28  1  6  0  0
 19 20  1  0  0  0
 20 21  2  0  0  0
 20 22  1  0  0  0
 22 23  2  0  0  0
 22 27  1  0  0  0
 23 24  1  0  0  0
 24 25  2  0  0  0
 25 26  1  0  0  0
 26 27  2  0  0  0
 28 29  1  0  0  0
 28 30  1  0  0  0
 31 32  1  0  0  0
 31 33  1  0  0  0
 34 35  1  0  0  0
 35 36  2  0  0  0
 35 37  1  0  0  0
 37 38  1  0  0  0
 37 46  1  0  0  0
 38 39  1  0  0  0
 39 40  1  0  0  0
 40 41  2  0  0  0
 40 45  1  0  0  0
 41 42  1  0  0  0
 42 43  2  0  0  0
 43 44  1  0  0  0
 44 45  2  0  0  0
 45 46  1  0  0  0
 47 48  2  0  0  0
M  END
> <s_m_entry_id>
6561

> <s_m_entry_name>
NS3-4A.102

> <CHEMBLID>
CHEMBL285478

> <s_m_Source_Path>
/home/liwei/Desktop/Machine/HCV/Active

> <s_m_Source_File>
NS3-4A.sdf

> <i_m_Source_File_Index>
102

$$$$
CHEMBL285686
                    3D
 Structure written by MMmdl.
 57 61  0  0  1  0            999 V2000
  -13.3052   -7.3045    0.0000 C   0  0  0  0  0  0
  -12.0917   -8.1862    0.0000 C   0  0  0  0  0  0
  -10.7213   -7.5761    0.0000 C   0  0  0  0  0  0
   -9.5078   -8.4577    0.0000 C   0  0  3  0  0  0
   -8.1375   -7.8476    0.0000 N   0  0  0  0  0  0
   -6.9240   -8.7293    0.0000 C   0  0  0  0  0  0
   -7.0808  -10.2211    0.0000 O   0  0  0  0  0  0
   -5.5537   -8.1192    0.0000 C   0  0  2  0  0  0
   -5.2418   -6.6520    0.0000 C   0  0  0  0  0  0
   -3.7500   -6.4952    0.0000 C   0  0  2  0  0  0
   -3.1399   -7.8655    0.0000 C   0  0  0  0  0  0
   -4.2546   -8.8692    0.0000 N   0  0  0  0  0  0
   -4.0978  -10.3610    0.0000 C   0  0  0  0  0  0
   -5.3113  -11.2427    0.0000 O   0  0  0  0  0  0
   -2.7275  -10.9711    0.0000 C   0  0  2  0  0  0
   -1.5140  -10.0894    0.0000 N   0  0  0  0  0  0
   -0.1437  -10.6995    0.0000 C   0  0  0  0  0  0
    0.0131  -12.1913    0.0000 O   0  0  0  0  0  0
    1.0699   -9.8178    0.0000 C   0  0  2  0  0  0
    0.9131   -8.3261    0.0000 N   0  0  0  0  0  0
    2.1266   -7.4444    0.0000 C   0  0  0  0  0  0
    3.4969   -8.0545    0.0000 O   0  0  0  0  0  0
    1.9698   -5.9526    0.0000 C   0  0  0  0  0  0
    3.1833   -5.0709    0.0000 C   0  0  0  0  0  0
    3.0265   -3.5791    0.0000 N   0  0  0  0  0  0
    1.6562   -2.9690    0.0000 C   0  0  0  0  0  0
    0.4427   -3.8507    0.0000 C   0  0  0  0  0  0
    0.5995   -5.3425    0.0000 N   0  0  0  0  0  0
    2.4402  -10.4279    0.0000 C   0  0  0  0  0  0
    3.6537   -9.5463    0.0000 C   0  0  0  0  0  0
    2.5970  -11.9197    0.0000 C   0  0  0  0  0  0
   -2.5707  -12.4629    0.0000 C   0  0  0  0  0  0
   -1.2004  -13.0730    0.0000 C   0  0  0  0  0  0
   -3.7842  -13.3446    0.0000 C   0  0  0  0  0  0
   -3.0000   -5.1962    0.0000 O   0  0  0  0  0  0
   -3.7500   -3.8971    0.0000 C   0  0  0  0  0  0
   -5.2500   -3.8971    0.0000 O   0  0  0  0  0  0
   -3.0000   -2.5981    0.0000 N   0  0  0  0  0  0
   -3.7500   -1.2990    0.0000 C   0  0  0  0  0  0
   -3.0000    0.0000    0.0000 C   0  0  0  0  0  0
   -1.5000    0.0000    0.0000 C   0  0  0  0  0  0
   -0.7500    1.2990    0.0000 C   0  0  0  0  0  0
    0.7500    1.2990    0.0000 C   0  0  0  0  0  0
    1.5000   -0.0000    0.0000 C   0  0  0  0  0  0
    0.7500   -1.2990    0.0000 C   0  0  0  0  0  0
   -0.7500   -1.2990    0.0000 C   0  0  0  0  0  0
   -1.5000   -2.5981    0.0000 C   0  0  0  0  0  0
   -9.6646   -9.9495    0.0000 C   0  0  0  0  0  0
   -8.4511  -10.8312    0.0000 O   0  0  0  0  0  0
  -11.0349  -10.5596    0.0000 C   0  0  0  0  0  0
  -12.2484   -9.6779    0.0000 O   0  0  0  0  0  0
  -11.1917  -12.0514    0.0000 C   0  0  0  0  0  0
  -12.5620  -12.6615    0.0000 C   0  0  0  0  0  0
  -12.7188  -14.1533    0.0000 C   0  0  0  0  0  0
  -11.5053  -15.0350    0.0000 C   0  0  0  0  0  0
  -10.1350  -14.4249    0.0000 C   0  0  0  0  0  0
   -9.9782  -12.9331    0.0000 C   0  0  0  0  0  0
  1  2  1  0  0  0
  2  3  1  0  0  0
  3  4  1  0  0  0
  4  5  1  0  0  0
  4 48  1  0  0  0
  5  6  1  0  0  0
  6  7  2  0  0  0
  6  8  1  0  0  0
  8  9  1  0  0  0
  8 12  1  1  0  0
  9 10  1  0  0  0
 10 11  1  0  0  0
 10 35  1  6  0  0
 11 12  1  0  0  0
 12 13  1  0  0  0
 13 14  2  0  0  0
 13 15  1  0  0  0
 15 16  1  0  0  0
 15 32  1  6  0  0
 16 17  1  0  0  0
 17 18  2  0  0  0
 17 19  1  0  0  0
 19 20  1  0  0  0
 19 29  1  6  0  0
 20 21  1  0  0  0
 21 22  2  0  0  0
 21 23  1  0  0  0
 23 24  2  0  0  0
 23 28  1  0  0  0
 24 25  1  0  0  0
 25 26  2  0  0  0
 26 27  1  0  0  0
 27 28  2  0  0  0
 29 30  1  0  0  0
 29 31  1  0  0  0
 32 33  1  0  0  0
 32 34  1  0  0  0
 35 36  1  0  0  0
 36 37  2  0  0  0
 36 38  1  0  0  0
 38 39  1  0  0  0
 38 47  1  0  0  0
 39 40  1  0  0  0
 40 41  1  0  0  0
 41 42  2  0  0  0
 41 46  1  0  0  0
 42 43  1  0  0  0
 43 44  2  0  0  0
 44 45  1  0  0  0
 45 46  2  0  0  0
 46 47  1  0  0  0
 48 49  2  0  0  0
 48 50  1  0  0  0
 50 51  2  0  0  0
 50 52  1  0  0  0
 52 53  2  0  0  0
 52 57  1  0  0  0
 53 54  1  0  0  0
 54 55  2  0  0  0
 55 56  1  0  0  0
 56 57  2  0  0  0
M  END
> <s_m_entry_id>
6562

> <s_m_entry_name>
NS3-4A.103

> <CHEMBLID>
CHEMBL285686

> <s_m_Source_Path>
/home/liwei/Desktop/Machine/HCV/Active

> <s_m_Source_File>
NS3-4A.sdf

> <i_m_Source_File_Index>
103

$$$$
CHEMBL286124
                    3D
 Structure written by MMmdl.
 55 59  0  0  1  0            999 V2000
  -13.3052   -7.3045    0.0000 C   0  0  0  0  0  0
  -12.0917   -8.1862    0.0000 C   0  0  0  0  0  0
  -10.7213   -7.5761    0.0000 C   0  0  0  0  0  0
   -9.5078   -8.4577    0.0000 C   0  0  3  0  0  0
   -8.1375   -7.8476    0.0000 N   0  0  0  0  0  0
   -6.9240   -8.7293    0.0000 C   0  0  0  0  0  0
   -7.0808  -10.2211    0.0000 O   0  0  0  0  0  0
   -5.5537   -8.1192    0.0000 C   0  0  2  0  0  0
   -5.2418   -6.6520    0.0000 C   0  0  0  0  0  0
   -3.7500   -6.4952    0.0000 C   0  0  2  0  0  0
   -3.1399   -7.8655    0.0000 C   0  0  0  0  0  0
   -4.2546   -8.8692    0.0000 N   0  0  0  0  0  0
   -4.0978  -10.3610    0.0000 C   0  0  0  0  0  0
   -5.3113  -11.2427    0.0000 O   0  0  0  0  0  0
   -2.7275  -10.9711    0.0000 C   0  0  2  0  0  0
   -1.5140  -10.0894    0.0000 N   0  0  0  0  0  0
   -0.1437  -10.6995    0.0000 C   0  0  0  0  0  0
    0.0131  -12.1913    0.0000 O   0  0  0  0  0  0
    1.0699   -9.8178    0.0000 C   0  0  2  0  0  0
    0.9131   -8.3261    0.0000 N   0  0  0  0  0  0
    2.1266   -7.4444    0.0000 C   0  0  0  0  0  0
    3.4969   -8.0545    0.0000 O   0  0  0  0  0  0
    1.9698   -5.9526    0.0000 C   0  0  0  0  0  0
    3.1833   -5.0709    0.0000 C   0  0  0  0  0  0
    3.0265   -3.5791    0.0000 N   0  0  0  0  0  0
    1.6562   -2.9690    0.0000 C   0  0  0  0  0  0
    0.4427   -3.8507    0.0000 C   0  0  0  0  0  0
    0.5995   -5.3425    0.0000 N   0  0  0  0  0  0
    2.4402  -10.4279    0.0000 C   0  0  0  0  0  0
    3.6537   -9.5463    0.0000 C   0  0  0  0  0  0
    2.5970  -11.9197    0.0000 C   0  0  0  0  0  0
   -2.5707  -12.4629    0.0000 C   0  0  0  0  0  0
   -1.2004  -13.0730    0.0000 C   0  0  0  0  0  0
   -3.7842  -13.3446    0.0000 C   0  0  0  0  0  0
   -3.0000   -5.1962    0.0000 O   0  0  0  0  0  0
   -3.7500   -3.8971    0.0000 C   0  0  0  0  0  0
   -5.2500   -3.8971    0.0000 O   0  0  0  0  0  0
   -3.0000   -2.5981    0.0000 N   0  0  0  0  0  0
   -3.7500   -1.2990    0.0000 C   0  0  0  0  0  0
   -3.0000    0.0000    0.0000 C   0  0  0  0  0  0
   -1.5000    0.0000    0.0000 C   0  0  0  0  0  0
   -0.7500    1.2990    0.0000 C   0  0  0  0  0  0
    0.7500    1.2990    0.0000 C   0  0  0  0  0  0
    1.5000   -0.0000    0.0000 C   0  0  0  0  0  0
    0.7500   -1.2990    0.0000 C   0  0  0  0  0  0
   -0.7500   -1.2990    0.0000 C   0  0  0  0  0  0
   -1.5000   -2.5981    0.0000 C   0  0  0  0  0  0
   -9.6646   -9.9495    0.0000 C   0  0  0  0  0  0
   -8.4511  -10.8312    0.0000 O   0  0  0  0  0  0
  -11.0349  -10.5596    0.0000 C   0  0  0  0  0  0
  -12.2484   -9.6779    0.0000 O   0  0  0  0  0  0
  -11.1917  -12.0514    0.0000 N   0  0  0  0  0  0
  -12.5620  -12.6615    0.0000 C   0  0  0  0  0  0
  -13.4437  -13.8750    0.0000 C   0  0  0  0  0  0
  -14.0538  -12.5047    0.0000 C   0  0  0  0  0  0
  1  2  1  0  0  0
  2  3  1  0  0  0
  3  4  1  0  0  0
  4  5  1  0  0  0
  4 48  1  0  0  0
  5  6  1  0  0  0
  6  7  2  0  0  0
  6  8  1  0  0  0
  8  9  1  0  0  0
  8 12  1  1  0  0
  9 10  1  0  0  0
 10 11  1  0  0  0
 10 35  1  6  0  0
 11 12  1  0  0  0
 12 13  1  0  0  0
 13 14  2  0  0  0
 13 15  1  0  0  0
 15 16  1  0  0  0
 15 32  1  6  0  0
 16 17  1  0  0  0
 17 18  2  0  0  0
 17 19  1  0  0  0
 19 20  1  0  0  0
 19 29  1  6  0  0
 20 21  1  0  0  0
 21 22  2  0  0  0
 21 23  1  0  0  0
 23 24  2  0  0  0
 23 28  1  0  0  0
 24 25  1  0  0  0
 25 26  2  0  0  0
 26 27  1  0  0  0
 27 28  2  0  0  0
 29 30  1  0  0  0
 29 31  1  0  0  0
 32 33  1  0  0  0
 32 34  1  0  0  0
 35 36  1  0  0  0
 36 37  2  0  0  0
 36 38  1  0  0  0
 38 39  1  0  0  0
 38 47  1  0  0  0
 39 40  1  0  0  0
 40 41  1  0  0  0
 41 42  2  0  0  0
 41 46  1  0  0  0
 42 43  1  0  0  0
 43 44  2  0  0  0
 44 45  1  0  0  0
 45 46  2  0  0  0
 46 47  1  0  0  0
 48 49  2  0  0  0
 48 50  1  0  0  0
 50 51  2  0  0  0
 50 52  1  0  0  0
 52 53  1  0  0  0
 53 54  1  0  0  0
 53 55  1  0  0  0
 54 55  1  0  0  0
M  END
> <s_m_entry_id>
6563

> <s_m_entry_name>
NS3-4A.104

> <CHEMBLID>
CHEMBL286124

> <s_m_Source_Path>
/home/liwei/Desktop/Machine/HCV/Active

> <s_m_Source_File>
NS3-4A.sdf

> <i_m_Source_File_Index>
104

$$$$
CHEMBL306027
                    3D
 Structure written by MMmdl.
 49 49  0  0  1  0            999 V2000
    8.0260   -3.8971    0.0000 C   0  0  0  0  0  0
    7.2760   -2.5981    0.0000 C   0  0  0  0  0  0
    5.7760   -2.5981    0.0000 C   0  0  0  0  0  0
    5.0260   -1.2990    0.0000 C   0  0  2  0  0  0
    3.5260   -1.2990    0.0000 N   0  0  0  0  0  0
    2.7760    0.0000    0.0000 C   0  0  0  0  0  0
    3.5260    1.2990    0.0000 O   0  0  0  0  0  0
    1.2760    0.0000    0.0000 C   0  0  2  0  0  0
    0.3943    1.2135    0.0000 C   0  0  0  0  0  0
   -1.0323    0.7500    0.0000 C   0  0  0  0  0  0
   -1.0323   -0.7500    0.0000 C   0  0  0  0  0  0
    0.3943   -1.2135    0.0000 N   0  0  0  0  0  0
    0.8578   -2.6401    0.0000 C   0  0  0  0  0  0
    2.3250   -2.9520    0.0000 O   0  0  0  0  0  0
   -0.1459   -3.7548    0.0000 C   0  0  1  0  0  0
   -1.6131   -3.4430    0.0000 N   0  0  0  0  0  0
   -2.6168   -4.5577    0.0000 C   0  0  0  0  0  0
   -2.1533   -5.9843    0.0000 O   0  0  0  0  0  0
   -4.0840   -4.2458    0.0000 C   0  0  1  0  0  0
   -4.5475   -2.8192    0.0000 N   0  0  0  0  0  0
   -6.0148   -2.5074    0.0000 C   0  0  0  0  0  0
   -7.0185   -3.6221    0.0000 O   0  0  0  0  0  0
   -6.4783   -1.0808    0.0000 C   0  0  1  0  0  0
   -7.9455   -0.7689    0.0000 C   0  0  0  0  0  0
   -8.9492   -1.8836    0.0000 C   0  0  0  0  0  0
   -8.4857   -3.3102    0.0000 O   0  0  0  0  0  0
  -10.4164   -1.5718    0.0000 O   0  0  0  0  0  0
   -5.4746    0.0339    0.0000 N   0  0  0  0  0  0
   -5.9381    1.4605    0.0000 C   0  0  0  0  0  0
   -7.4053    1.7724    0.0000 O   0  0  0  0  0  0
   -4.9344    2.5752    0.0000 C   0  0  2  0  0  0
   -3.4672    2.2634    0.0000 C   0  0  0  0  0  0
   -2.4635    3.3781    0.0000 C   0  0  0  0  0  0
   -2.9270    4.8047    0.0000 O   0  0  0  0  0  0
   -0.9963    3.0662    0.0000 O   0  0  0  0  0  0
   -5.3979    4.0018    0.0000 N   0  0  0  0  0  0
   -6.8652    4.3137    0.0000 C   0  0  0  0  0  0
   -7.3287    5.7403    0.0000 O   0  0  0  0  0  0
   -7.8689    3.1990    0.0000 C   0  0  0  0  0  0
   -5.0877   -5.3605    0.0000 C   0  0  1  0  0  0
   -6.5549   -5.0487    0.0000 C   0  0  0  0  0  0
   -4.6242   -6.7871    0.0000 C   0  0  0  0  0  0
   -5.6279   -7.9018    0.0000 C   0  0  0  0  0  0
    0.3177   -5.1814    0.0000 C   0  0  0  0  0  0
   -0.6860   -6.2961    0.0000 C   0  0  0  0  0  0
    1.7849   -5.4933    0.0000 C   0  0  0  0  0  0
    5.7760    0.0000    0.0000 C   0  0  0  0  0  0
    5.0260    1.2990    0.0000 O   0  0  0  0  0  0
    7.2760    0.0000    0.0000 O   0  0  0  0  0  0
  1  2  1  0  0  0
  2  3  1  0  0  0
  3  4  1  0  0  0
  4  5  1  0  0  0
  4 47  1  1  0  0
  5  6  1  0  0  0
  6  7  2  0  0  0
  6  8  1  0  0  0
  8  9  1  0  0  0
  8 12  1  1  0  0
  9 10  1  0  0  0
 10 11  1  0  0  0
 11 12  1  0  0  0
 12 13  1  0  0  0
 13 14  2  0  0  0
 13 15  1  0  0  0
 15 16  1  0  0  0
 15 44  1  6  0  0
 16 17  1  0  0  0
 17 18  2  0  0  0
 17 19  1  0  0  0
 19 20  1  0  0  0
 19 40  1  6  0  0
 20 21  1  0  0  0
 21 22  2  0  0  0
 21 23  1  0  0  0
 23 24  1  0  0  0
 23 28  1  1  0  0
 24 25  1  0  0  0
 25 26  2  0  0  0
 25 27  1  0  0  0
 28 29  1  0  0  0
 29 30  2  0  0  0
 29 31  1  0  0  0
 31 32  1  0  0  0
 31 36  1  1  0  0
 32 33  1  0  0  0
 33 34  2  0  0  0
 33 35  1  0  0  0
 36 37  1  0  0  0
 37 38  2  0  0  0
 37 39  1  0  0  0
 40 41  1  0  0  0
 40 42  1  6  0  0
 42 43  1  0  0  0
 44 45  1  0  0  0
 44 46  1  0  0  0
 47 48  2  0  0  0
 47 49  1  0  0  0
M  END
> <s_m_entry_id>
6565

> <s_m_entry_name>
NS3-4A.106

> <CHEMBLID>
CHEMBL306027

> <s_m_Source_Path>
/home/liwei/Desktop/Machine/HCV/Active

> <s_m_Source_File>
NS3-4A.sdf

> <i_m_Source_File_Index>
106

$$$$
CHEMBL317899
                    3D
 Structure written by MMmdl.
 35 38  0  0  1  0            999 V2000
   -2.6401   -3.1891    0.0000 C   0  0  0  0  0  0
   -1.2135   -2.7256    0.0000 N   0  0  0  0  0  0
   -0.0000   -3.6073    0.0000 C   0  0  0  0  0  0
    1.2135   -2.7256    0.0000 N   0  0  0  0  0  0
    0.7500   -1.2990    0.0000 C   0  0  0  0  0  0
    1.5000    0.0000    0.0000 C   0  0  0  0  0  0
    0.7500    1.2990    0.0000 C   0  0  0  0  0  0
   -0.7500    1.2990    0.0000 C   0  0  0  0  0  0
   -1.5000    0.0000    0.0000 C   0  0  0  0  0  0
   -0.7500   -1.2990    0.0000 C   0  0  0  0  0  0
   -1.5000    2.5981    0.0000 C   0  0  0  0  0  0
   -3.0000    2.5981    0.0000 O   0  0  0  0  0  0
   -0.7500    3.8971    0.0000 N   0  0  0  0  0  0
   -1.5000    5.1962    0.0000 C   0  0  3  0  0  0
   -0.7500    6.4952    0.0000 C   0  0  0  0  0  0
   -1.5000    7.7942    0.0000 P   0  0  0  0  0  0
   -2.2500    9.0933    0.0000 O   0  0  0  0  0  0
   -0.2010    8.5442    0.0000 O   0  0  0  0  0  0
   -2.7990    7.0442    0.0000 O   0  0  0  0  0  0
   -3.0000    5.1962    0.0000 C   0  0  0  0  0  0
   -3.7500    6.4952    0.0000 O   0  0  0  0  0  0
   -3.7500    3.8971    0.0000 O   0  0  0  0  0  0
   -0.0000   -5.1073    0.0000 C   0  0  3  0  0  0
    1.2990   -5.8573    0.0000 F   0  0  0  0  0  0
   -1.2990   -5.8573    0.0000 C   0  0  0  0  0  0
   -1.4558   -7.3491    0.0000 N   0  0  0  0  0  0
   -2.9231   -7.6610    0.0000 C   0  0  0  0  0  0
   -3.6731   -8.9600    0.0000 C   0  0  0  0  0  0
   -2.9231  -10.2590    0.0000 F   0  0  0  0  0  0
   -5.1731   -8.9600    0.0000 C   0  0  0  0  0  0
   -5.9231   -7.6610    0.0000 C   0  0  0  0  0  0
   -7.4231   -7.6610    0.0000 F   0  0  0  0  0  0
   -5.1731   -6.3619    0.0000 C   0  0  0  0  0  0
   -3.6731   -6.3619    0.0000 C   0  0  0  0  0  0
   -2.6694   -5.2472    0.0000 N   0  0  0  0  0  0
  1  2  1  0  0  0
  2  3  1  0  0  0
  2 10  1  0  0  0
  3  4  2  0  0  0
  3 23  1  0  0  0
  4  5  1  0  0  0
  5  6  2  0  0  0
  5 10  1  0  0  0
  6  7  1  0  0  0
  7  8  2  0  0  0
  8  9  1  0  0  0
  8 11  1  0  0  0
  9 10  2  0  0  0
 11 12  2  0  0  0
 11 13  1  0  0  0
 13 14  1  0  0  0
 14 15  1  0  0  0
 14 20  1  0  0  0
 15 16  1  0  0  0
 16 17  2  0  0  0
 16 18  1  0  0  0
 16 19  1  0  0  0
 20 21  2  0  0  0
 20 22  1  0  0  0
 23 24  1  0  0  0
 23 25  1  0  0  0
 25 26  2  0  0  0
 25 35  1  0  0  0
 26 27  1  0  0  0
 27 28  2  0  0  0
 27 34  1  0  0  0
 28 29  1  0  0  0
 28 30  1  0  0  0
 30 31  2  0  0  0
 31 32  1  0  0  0
 31 33  1  0  0  0
 33 34  2  0  0  0
 34 35  1  0  0  0
M  END
> <s_m_entry_id>
6566

> <s_m_entry_name>
NS3-4A.107

> <CHEMBLID>
CHEMBL317899

> <s_m_Source_Path>
/home/liwei/Desktop/Machine/HCV/Active

> <s_m_Source_File>
NS3-4A.sdf

> <i_m_Source_File_Index>
107

$$$$
CHEMBL320324
                    3D
 Structure written by MMmdl.
 35 35  0  0  1  0            999 V2000
    9.5260   -3.8971    0.0000 C   0  0  0  0  0  0
    8.0260   -3.8971    0.0000 C   0  0  0  0  0  0
    7.2760   -5.1962    0.0000 C   0  0  0  0  0  0
    7.2760   -2.5981    0.0000 C   0  0  0  0  0  0
    5.7760   -2.5981    0.0000 C   0  0  2  0  0  0
    5.0260   -1.2990    0.0000 N   0  0  0  0  0  0
    3.5260   -1.2990    0.0000 C   0  0  0  0  0  0
    2.7760   -2.5981    0.0000 O   0  0  0  0  0  0
    2.7760    0.0000    0.0000 C   0  0  1  0  0  0
    3.5260    1.2990    0.0000 N   0  0  0  0  0  0
    5.0260    1.2990    0.0000 C   0  0  0  0  0  0
    5.7760   -0.0000    0.0000 O   0  0  0  0  0  0
    5.7760    2.5981    0.0000 O   0  0  0  0  0  0
    7.2760    2.5981    0.0000 C   0  0  0  0  0  0
    7.2760    4.0981    0.0000 C   0  0  0  0  0  0
    7.2760    1.0981    0.0000 C   0  0  0  0  0  0
    8.7760    2.5981    0.0000 C   0  0  0  0  0  0
    1.2760    0.0000    0.0000 C   0  0  0  0  0  0
    0.3943    1.2135    0.0000 C   0  0  0  0  0  0
   -1.0323    0.7500    0.0000 C   0  0  0  0  0  0
   -1.0323   -0.7500    0.0000 C   0  0  0  0  0  0
    0.3943   -1.2135    0.0000 C   0  0  0  0  0  0
    5.0260   -3.8971    0.0000 C   0  0  0  0  0  0
    3.5260   -3.8971    0.0000 O   0  0  0  0  0  0
    5.7760   -5.1962    0.0000 N   0  0  0  0  0  0
    5.0260   -6.4952    0.0000 C   0  0  1  0  0  0
    5.7760   -7.7942    0.0000 C   0  0  0  0  0  0
    7.2760   -7.7942    0.0000 C   0  0  0  0  0  0
    8.0260   -9.0933    0.0000 F   0  0  0  0  0  0
    8.0260   -6.4952    0.0000 F   0  0  0  0  0  0
    3.5260   -6.4952    0.0000 C   0  0  0  0  0  0
    2.7760   -5.1962    0.0000 O   0  0  0  0  0  0
    2.7760   -7.7942    0.0000 C   0  0  0  0  0  0
    3.5260   -9.0933    0.0000 O   0  0  0  0  0  0
    1.2760   -7.7942    0.0000 O   0  0  0  0  0  0
  1  2  1  0  0  0
  2  3  1  0  0  0
  2  4  1  0  0  0
  4  5  1  0  0  0
  5  6  1  0  0  0
  5 23  1  1  0  0
  6  7  1  0  0  0
  7  8  2  0  0  0
  7  9  1  0  0  0
  9 10  1  0  0  0
  9 18  1  6  0  0
 10 11  1  0  0  0
 11 12  2  0  0  0
 11 13  1  0  0  0
 13 14  1  0  0  0
 14 15  1  0  0  0
 14 16  1  0  0  0
 14 17  1  0  0  0
 18 19  1  0  0  0
 18 22  1  0  0  0
 19 20  1  0  0  0
 20 21  1  0  0  0
 21 22  1  0  0  0
 23 24  2  0  0  0
 23 25  1  0  0  0
 25 26  1  0  0  0
 26 27  1  0  0  0
 26 31  1  6  0  0
 27 28  1  0  0  0
 28 29  1  0  0  0
 28 30  1  0  0  0
 31 32  2  0  0  0
 31 33  1  0  0  0
 33 34  2  0  0  0
 33 35  1  0  0  0
M  END
> <s_m_entry_id>
6567

> <s_m_entry_name>
NS3-4A.108

> <CHEMBLID>
CHEMBL320324

> <s_m_Source_Path>
/home/liwei/Desktop/Machine/HCV/Active

> <s_m_Source_File>
NS3-4A.sdf

> <i_m_Source_File_Index>
108

$$$$
CHEMBL321912
                    3D
 Structure written by MMmdl.
 34 37  0  0  1  0            999 V2000
   -2.6401   -3.1891    0.0000 C   0  0  0  0  0  0
   -1.2135   -2.7256    0.0000 N   0  0  0  0  0  0
   -0.0000   -3.6073    0.0000 C   0  0  0  0  0  0
   -0.0000   -5.1073    0.0000 C   0  0  0  0  0  0
   -1.2990   -5.8573    0.0000 C   0  0  0  0  0  0
   -1.4558   -7.3491    0.0000 N   0  0  0  0  0  0
   -2.9231   -7.6610    0.0000 C   0  0  0  0  0  0
   -3.6731   -8.9600    0.0000 C   0  0  0  0  0  0
   -5.1731   -8.9600    0.0000 C   0  0  0  0  0  0
   -5.9231  -10.2590    0.0000 F   0  0  0  0  0  0
   -5.9231   -7.6610    0.0000 C   0  0  0  0  0  0
   -7.4231   -7.6610    0.0000 F   0  0  0  0  0  0
   -5.1731   -6.3619    0.0000 C   0  0  0  0  0  0
   -3.6731   -6.3619    0.0000 C   0  0  0  0  0  0
   -2.6694   -5.2472    0.0000 N   0  0  0  0  0  0
    1.2135   -2.7256    0.0000 N   0  0  0  0  0  0
    0.7500   -1.2990    0.0000 C   0  0  0  0  0  0
    1.5000    0.0000    0.0000 C   0  0  0  0  0  0
    0.7500    1.2990    0.0000 C   0  0  0  0  0  0
   -0.7500    1.2990    0.0000 C   0  0  0  0  0  0
   -1.5000    0.0000    0.0000 C   0  0  0  0  0  0
   -0.7500   -1.2990    0.0000 C   0  0  0  0  0  0
   -1.5000    2.5981    0.0000 C   0  0  0  0  0  0
   -3.0000    2.5981    0.0000 O   0  0  0  0  0  0
   -0.7500    3.8971    0.0000 N   0  0  0  0  0  0
   -1.5000    5.1962    0.0000 C   0  0  3  0  0  0
   -0.7500    6.4952    0.0000 C   0  0  0  0  0  0
   -1.5000    7.7942    0.0000 P   0  0  0  0  0  0
   -2.2500    9.0933    0.0000 O   0  0  0  0  0  0
   -0.2010    8.5442    0.0000 O   0  0  0  0  0  0
   -2.7990    7.0442    0.0000 O   0  0  0  0  0  0
   -3.0000    5.1962    0.0000 C   0  0  0  0  0  0
   -3.7500    6.4952    0.0000 O   0  0  0  0  0  0
   -3.7500    3.8971    0.0000 O   0  0  0  0  0  0
  1  2  1  0  0  0
  2  3  1  0  0  0
  2 22  1  0  0  0
  3  4  1  0  0  0
  3 16  2  0  0  0
  4  5  1  0  0  0
  5  6  2  0  0  0
  5 15  1  0  0  0
  6  7  1  0  0  0
  7  8  2  0  0  0
  7 14  1  0  0  0
  8  9  1  0  0  0
  9 10  1  0  0  0
  9 11  2  0  0  0
 11 12  1  0  0  0
 11 13  1  0  0  0
 13 14  2  0  0  0
 14 15  1  0  0  0
 16 17  1  0  0  0
 17 18  2  0  0  0
 17 22  1  0  0  0
 18 19  1  0  0  0
 19 20  2  0  0  0
 20 21  1  0  0  0
 20 23  1  0  0  0
 21 22  2  0  0  0
 23 24  2  0  0  0
 23 25  1  0  0  0
 25 26  1  0  0  0
 26 27  1  0  0  0
 26 32  1  0  0  0
 27 28  1  0  0  0
 28 29  2  0  0  0
 28 30  1  0  0  0
 28 31  1  0  0  0
 32 33  2  0  0  0
 32 34  1  0  0  0
M  END
> <s_m_entry_id>
6568

> <s_m_entry_name>
NS3-4A.109

> <CHEMBLID>
CHEMBL321912

> <s_m_Source_Path>
/home/liwei/Desktop/Machine/HCV/Active

> <s_m_Source_File>
NS3-4A.sdf

> <i_m_Source_File_Index>
109

$$$$
CHEMBL322095
                    3D
 Structure written by MMmdl.
 33 36  0  0  1  0            999 V2000
   -2.6401   -3.1891    0.0000 C   0  0  0  0  0  0
   -1.2135   -2.7256    0.0000 N   0  0  0  0  0  0
   -0.0000   -3.6073    0.0000 C   0  0  0  0  0  0
   -0.0000   -5.1073    0.0000 C   0  0  0  0  0  0
   -1.2990   -5.8573    0.0000 C   0  0  0  0  0  0
   -2.6694   -5.2472    0.0000 N   0  0  0  0  0  0
   -3.6731   -6.3619    0.0000 C   0  0  0  0  0  0
   -5.1731   -6.3619    0.0000 C   0  0  0  0  0  0
   -5.9231   -7.6610    0.0000 C   0  0  0  0  0  0
   -7.4231   -7.6610    0.0000 O   0  0  0  0  0  0
   -5.1731   -8.9600    0.0000 C   0  0  0  0  0  0
   -3.6731   -8.9600    0.0000 C   0  0  0  0  0  0
   -2.9231   -7.6610    0.0000 C   0  0  0  0  0  0
   -1.4558   -7.3491    0.0000 N   0  0  0  0  0  0
    1.2135   -2.7256    0.0000 N   0  0  0  0  0  0
    0.7500   -1.2990    0.0000 C   0  0  0  0  0  0
    1.5000    0.0000    0.0000 C   0  0  0  0  0  0
    0.7500    1.2990    0.0000 C   0  0  0  0  0  0
   -0.7500    1.2990    0.0000 C   0  0  0  0  0  0
   -1.5000    0.0000    0.0000 C   0  0  0  0  0  0
   -0.7500   -1.2990    0.0000 C   0  0  0  0  0  0
   -1.5000    2.5981    0.0000 C   0  0  0  0  0  0
   -3.0000    2.5981    0.0000 O   0  0  0  0  0  0
   -0.7500    3.8971    0.0000 N   0  0  0  0  0  0
   -1.5000    5.1962    0.0000 C   0  0  3  0  0  0
   -0.7500    6.4952    0.0000 C   0  0  0  0  0  0
   -1.5000    7.7942    0.0000 P   0  0  0  0  0  0
   -2.2500    9.0933    0.0000 O   0  0  0  0  0  0
   -0.2010    8.5442    0.0000 O   0  0  0  0  0  0
   -2.7990    7.0442    0.0000 O   0  0  0  0  0  0
   -3.0000    5.1962    0.0000 C   0  0  0  0  0  0
   -3.7500    6.4952    0.0000 O   0  0  0  0  0  0
   -3.7500    3.8971    0.0000 O   0  0  0  0  0  0
  1  2  1  0  0  0
  2  3  1  0  0  0
  2 21  1  0  0  0
  3  4  1  0  0  0
  3 15  2  0  0  0
  4  5  1  0  0  0
  5  6  2  0  0  0
  5 14  1  0  0  0
  6  7  1  0  0  0
  7  8  2  0  0  0
  7 13  1  0  0  0
  8  9  1  0  0  0
  9 10  1  0  0  0
  9 11  2  0  0  0
 11 12  1  0  0  0
 12 13  2  0  0  0
 13 14  1  0  0  0
 15 16  1  0  0  0
 16 17  2  0  0  0
 16 21  1  0  0  0
 17 18  1  0  0  0
 18 19  2  0  0  0
 19 20  1  0  0  0
 19 22  1  0  0  0
 20 21  2  0  0  0
 22 23  2  0  0  0
 22 24  1  0  0  0
 24 25  1  0  0  0
 25 26  1  0  0  0
 25 31  1  0  0  0
 26 27  1  0  0  0
 27 28  2  0  0  0
 27 29  1  0  0  0
 27 30  1  0  0  0
 31 32  2  0  0  0
 31 33  1  0  0  0
M  END
> <s_m_entry_id>
6569

> <s_m_entry_name>
NS3-4A.110

> <CHEMBLID>
CHEMBL322095

> <s_m_Source_Path>
/home/liwei/Desktop/Machine/HCV/Active

> <s_m_Source_File>
NS3-4A.sdf

> <i_m_Source_File_Index>
110

$$$$
CHEMBL323079
                    3D
 Structure written by MMmdl.
 35 38  0  0  1  0            999 V2000
   -5.1814   -2.6490    0.0000 C   0  0  0  0  0  0
   -3.7548   -2.1855    0.0000 C   0  0  0  0  0  0
   -3.4430   -0.7182    0.0000 C   0  0  0  0  0  0
   -2.6401   -3.1891    0.0000 C   0  0  0  0  0  0
   -1.2135   -2.7256    0.0000 N   0  0  0  0  0  0
   -0.0000   -3.6073    0.0000 C   0  0  0  0  0  0
   -0.0000   -5.1073    0.0000 C   0  0  0  0  0  0
   -1.2990   -5.8573    0.0000 C   0  0  0  0  0  0
   -2.6694   -5.2472    0.0000 N   0  0  0  0  0  0
   -3.6731   -6.3619    0.0000 C   0  0  0  0  0  0
   -5.1731   -6.3619    0.0000 C   0  0  0  0  0  0
   -5.9231   -7.6610    0.0000 C   0  0  0  0  0  0
   -5.1731   -8.9600    0.0000 C   0  0  0  0  0  0
   -3.6731   -8.9600    0.0000 C   0  0  0  0  0  0
   -2.9231   -7.6610    0.0000 C   0  0  0  0  0  0
   -1.4558   -7.3491    0.0000 N   0  0  0  0  0  0
    1.2135   -2.7256    0.0000 N   0  0  0  0  0  0
    0.7500   -1.2990    0.0000 C   0  0  0  0  0  0
    1.5000    0.0000    0.0000 C   0  0  0  0  0  0
    0.7500    1.2990    0.0000 C   0  0  0  0  0  0
   -0.7500    1.2990    0.0000 C   0  0  0  0  0  0
   -1.5000    0.0000    0.0000 C   0  0  0  0  0  0
   -0.7500   -1.2990    0.0000 C   0  0  0  0  0  0
   -1.5000    2.5981    0.0000 C   0  0  0  0  0  0
   -3.0000    2.5981    0.0000 O   0  0  0  0  0  0
   -0.7500    3.8971    0.0000 N   0  0  0  0  0  0
   -1.5000    5.1962    0.0000 C   0  0  3  0  0  0
   -0.7500    6.4952    0.0000 C   0  0  0  0  0  0
   -1.5000    7.7942    0.0000 P   0  0  0  0  0  0
   -2.2500    9.0933    0.0000 O   0  0  0  0  0  0
   -0.2010    8.5442    0.0000 O   0  0  0  0  0  0
   -2.7990    7.0442    0.0000 O   0  0  0  0  0  0
   -3.0000    5.1962    0.0000 C   0  0  0  0  0  0
   -3.7500    6.4952    0.0000 O   0  0  0  0  0  0
   -3.7500    3.8971    0.0000 O   0  0  0  0  0  0
  1  2  1  0  0  0
  2  3  1  0  0  0
  2  4  1  0  0  0
  4  5  1  0  0  0
  5  6  1  0  0  0
  5 23  1  0  0  0
  6  7  1  0  0  0
  6 17  2  0  0  0
  7  8  1  0  0  0
  8  9  2  0  0  0
  8 16  1  0  0  0
  9 10  1  0  0  0
 10 11  2  0  0  0
 10 15  1  0  0  0
 11 12  1  0  0  0
 12 13  2  0  0  0
 13 14  1  0  0  0
 14 15  2  0  0  0
 15 16  1  0  0  0
 17 18  1  0  0  0
 18 19  2  0  0  0
 18 23  1  0  0  0
 19 20  1  0  0  0
 20 21  2  0  0  0
 21 22  1  0  0  0
 21 24  1  0  0  0
 22 23  2  0  0  0
 24 25  2  0  0  0
 24 26  1  0  0  0
 26 27  1  0  0  0
 27 28  1  0  0  0
 27 33  1  0  0  0
 28 29  1  0  0  0
 29 30  2  0  0  0
 29 31  1  0  0  0
 29 32  1  0  0  0
 33 34  2  0  0  0
 33 35  1  0  0  0
M  END
> <s_m_entry_id>
6570

> <s_m_entry_name>
NS3-4A.111

> <CHEMBLID>
CHEMBL323079

> <s_m_Source_Path>
/home/liwei/Desktop/Machine/HCV/Active

> <s_m_Source_File>
NS3-4A.sdf

> <i_m_Source_File_Index>
111

$$$$
CHEMBL323196
                    3D
 Structure written by MMmdl.
 32 35  0  0  1  0            999 V2000
   -2.6401   -3.1891    0.0000 C   0  0  0  0  0  0
   -1.2135   -2.7256    0.0000 N   0  0  0  0  0  0
   -0.0000   -3.6073    0.0000 C   0  0  0  0  0  0
   -0.0000   -5.1073    0.0000 C   0  0  0  0  0  0
   -1.2990   -5.8573    0.0000 C   0  0  0  0  0  0
   -2.6694   -5.2472    0.0000 N   0  0  0  0  0  0
   -3.6731   -6.3619    0.0000 C   0  0  0  0  0  0
   -5.1731   -6.3619    0.0000 C   0  0  0  0  0  0
   -5.9231   -7.6610    0.0000 C   0  0  0  0  0  0
   -5.1731   -8.9600    0.0000 C   0  0  0  0  0  0
   -3.6731   -8.9600    0.0000 C   0  0  0  0  0  0
   -2.9231   -7.6610    0.0000 C   0  0  0  0  0  0
   -1.4558   -7.3491    0.0000 N   0  0  0  0  0  0
    1.2135   -2.7256    0.0000 N   0  0  0  0  0  0
    0.7500   -1.2990    0.0000 C   0  0  0  0  0  0
    1.5000    0.0000    0.0000 C   0  0  0  0  0  0
    0.7500    1.2990    0.0000 C   0  0  0  0  0  0
   -0.7500    1.2990    0.0000 C   0  0  0  0  0  0
   -1.5000    0.0000    0.0000 C   0  0  0  0  0  0
   -0.7500   -1.2990    0.0000 C   0  0  0  0  0  0
   -1.5000    2.5981    0.0000 C   0  0  0  0  0  0
   -3.0000    2.5981    0.0000 O   0  0  0  0  0  0
   -0.7500    3.8971    0.0000 N   0  0  0  0  0  0
   -1.5000    5.1962    0.0000 C   0  0  3  0  0  0
   -0.7500    6.4952    0.0000 C   0  0  0  0  0  0
   -1.5000    7.7942    0.0000 P   0  0  0  0  0  0
   -2.2500    9.0933    0.0000 O   0  0  0  0  0  0
   -0.2010    8.5442    0.0000 O   0  0  0  0  0  0
   -2.7990    7.0442    0.0000 O   0  0  0  0  0  0
   -3.0000    5.1962    0.0000 C   0  0  0  0  0  0
   -3.7500    6.4952    0.0000 O   0  0  0  0  0  0
   -3.7500    3.8971    0.0000 O   0  0  0  0  0  0
  1  2  1  0  0  0
  2  3  1  0  0  0
  2 20  1  0  0  0
  3  4  1  0  0  0
  3 14  2  0  0  0
  4  5  1  0  0  0
  5  6  2  0  0  0
  5 13  1  0  0  0
  6  7  1  0  0  0
  7  8  2  0  0  0
  7 12  1  0  0  0
  8  9  1  0  0  0
  9 10  2  0  0  0
 10 11  1  0  0  0
 11 12  2  0  0  0
 12 13  1  0  0  0
 14 15  1  0  0  0
 15 16  2  0  0  0
 15 20  1  0  0  0
 16 17  1  0  0  0
 17 18  2  0  0  0
 18 19  1  0  0  0
 18 21  1  0  0  0
 19 20  2  0  0  0
 21 22  2  0  0  0
 21 23  1  0  0  0
 23 24  1  0  0  0
 24 25  1  0  0  0
 24 30  1  0  0  0
 25 26  1  0  0  0
 26 27  2  0  0  0
 26 28  1  0  0  0
 26 29  1  0  0  0
 30 31  2  0  0  0
 30 32  1  0  0  0
M  END
> <s_m_entry_id>
6571

> <s_m_entry_name>
NS3-4A.112

> <CHEMBLID>
CHEMBL323196

> <s_m_Source_Path>
/home/liwei/Desktop/Machine/HCV/Active

> <s_m_Source_File>
NS3-4A.sdf

> <i_m_Source_File_Index>
112

$$$$
CHEMBL323214
                    3D
 Structure written by MMmdl.
 33 36  0  0  1  0            999 V2000
   -2.6401   -3.1891    0.0000 C   0  0  0  0  0  0
   -1.2135   -2.7256    0.0000 N   0  0  0  0  0  0
   -0.0000   -3.6073    0.0000 C   0  0  0  0  0  0
    1.2135   -2.7256    0.0000 N   0  0  0  0  0  0
    0.7500   -1.2990    0.0000 C   0  0  0  0  0  0
    1.5000    0.0000    0.0000 C   0  0  0  0  0  0
    0.7500    1.2990    0.0000 C   0  0  0  0  0  0
   -0.7500    1.2990    0.0000 C   0  0  0  0  0  0
   -1.5000    0.0000    0.0000 C   0  0  0  0  0  0
   -0.7500   -1.2990    0.0000 C   0  0  0  0  0  0
   -1.5000    2.5981    0.0000 C   0  0  0  0  0  0
   -3.0000    2.5981    0.0000 O   0  0  0  0  0  0
   -0.7500    3.8971    0.0000 N   0  0  0  0  0  0
   -1.5000    5.1962    0.0000 C   0  0  3  0  0  0
   -0.7500    6.4952    0.0000 C   0  0  0  0  0  0
   -1.5000    7.7942    0.0000 P   0  0  0  0  0  0
   -2.2500    9.0933    0.0000 O   0  0  0  0  0  0
   -0.2010    8.5442    0.0000 O   0  0  0  0  0  0
   -2.7990    7.0442    0.0000 O   0  0  0  0  0  0
   -3.0000    5.1962    0.0000 C   0  0  0  0  0  0
   -3.7500    6.4952    0.0000 O   0  0  0  0  0  0
   -3.7500    3.8971    0.0000 O   0  0  0  0  0  0
   -0.0000   -5.1073    0.0000 C   0  0  3  0  0  0
    1.2990   -5.8573    0.0000 F   0  0  0  0  0  0
   -1.2990   -5.8573    0.0000 C   0  0  0  0  0  0
   -2.6694   -5.2472    0.0000 N   0  0  0  0  0  0
   -3.6731   -6.3619    0.0000 C   0  0  0  0  0  0
   -5.1731   -6.3619    0.0000 C   0  0  0  0  0  0
   -5.9231   -7.6610    0.0000 C   0  0  0  0  0  0
   -5.1731   -8.9600    0.0000 C   0  0  0  0  0  0
   -3.6731   -8.9600    0.0000 C   0  0  0  0  0  0
   -2.9231   -7.6610    0.0000 C   0  0  0  0  0  0
   -1.4558   -7.3491    0.0000 N   0  0  0  0  0  0
  1  2  1  0  0  0
  2  3  1  0  0  0
  2 10  1  0  0  0
  3  4  2  0  0  0
  3 23  1  0  0  0
  4  5  1  0  0  0
  5  6  2  0  0  0
  5 10  1  0  0  0
  6  7  1  0  0  0
  7  8  2  0  0  0
  8  9  1  0  0  0
  8 11  1  0  0  0
  9 10  2  0  0  0
 11 12  2  0  0  0
 11 13  1  0  0  0
 13 14  1  0  0  0
 14 15  1  0  0  0
 14 20  1  0  0  0
 15 16  1  0  0  0
 16 17  2  0  0  0
 16 18  1  0  0  0
 16 19  1  0  0  0
 20 21  2  0  0  0
 20 22  1  0  0  0
 23 24  1  0  0  0
 23 25  1  0  0  0
 25 26  2  0  0  0
 25 33  1  0  0  0
 26 27  1  0  0  0
 27 28  2  0  0  0
 27 32  1  0  0  0
 28 29  1  0  0  0
 29 30  2  0  0  0
 30 31  1  0  0  0
 31 32  2  0  0  0
 32 33  1  0  0  0
M  END
> <s_m_entry_id>
6572

> <s_m_entry_name>
NS3-4A.113

> <CHEMBLID>
CHEMBL323214

> <s_m_Source_Path>
/home/liwei/Desktop/Machine/HCV/Active

> <s_m_Source_File>
NS3-4A.sdf

> <i_m_Source_File_Index>
113

$$$$
CHEMBL323567
                    3D
 Structure written by MMmdl.
 34 37  0  0  1  0            999 V2000
   -3.7548   -2.1855    0.0000 C   0  0  0  0  0  0
   -2.6401   -3.1891    0.0000 C   0  0  0  0  0  0
   -2.9520   -4.6564    0.0000 C   0  0  0  0  0  0
   -1.2135   -2.7256    0.0000 N   0  0  0  0  0  0
   -0.0000   -3.6073    0.0000 C   0  0  0  0  0  0
   -0.0000   -5.1073    0.0000 C   0  0  0  0  0  0
    1.2990   -5.8573    0.0000 C   0  0  0  0  0  0
    2.6694   -5.2472    0.0000 N   0  0  0  0  0  0
    3.6731   -6.3619    0.0000 C   0  0  0  0  0  0
    5.1731   -6.3619    0.0000 C   0  0  0  0  0  0
    5.9231   -7.6610    0.0000 C   0  0  0  0  0  0
    5.1731   -8.9600    0.0000 C   0  0  0  0  0  0
    3.6731   -8.9600    0.0000 C   0  0  0  0  0  0
    2.9231   -7.6610    0.0000 C   0  0  0  0  0  0
    1.4558   -7.3491    0.0000 N   0  0  0  0  0  0
    1.2135   -2.7256    0.0000 N   0  0  0  0  0  0
    0.7500   -1.2990    0.0000 C   0  0  0  0  0  0
    1.5000    0.0000    0.0000 C   0  0  0  0  0  0
    0.7500    1.2990    0.0000 C   0  0  0  0  0  0
   -0.7500    1.2990    0.0000 C   0  0  0  0  0  0
   -1.5000    0.0000    0.0000 C   0  0  0  0  0  0
   -0.7500   -1.2990    0.0000 C   0  0  0  0  0  0
   -1.5000    2.5981    0.0000 C   0  0  0  0  0  0
   -3.0000    2.5981    0.0000 O   0  0  0  0  0  0
   -0.7500    3.8971    0.0000 N   0  0  0  0  0  0
   -1.5000    5.1962    0.0000 C   0  0  3  0  0  0
   -0.7500    6.4952    0.0000 C   0  0  0  0  0  0
   -1.5000    7.7942    0.0000 P   0  0  0  0  0  0
   -2.2500    9.0933    0.0000 O   0  0  0  0  0  0
   -0.2010    8.5442    0.0000 O   0  0  0  0  0  0
   -2.7990    7.0442    0.0000 O   0  0  0  0  0  0
   -3.0000    5.1962    0.0000 C   0  0  0  0  0  0
   -3.7500    6.4952    0.0000 O   0  0  0  0  0  0
   -3.7500    3.8971    0.0000 O   0  0  0  0  0  0
  1  2  1  0  0  0
  2  3  1  0  0  0
  2  4  1  0  0  0
  4  5  1  0  0  0
  4 22  1  0  0  0
  5  6  1  0  0  0
  5 16  2  0  0  0
  6  7  1  0  0  0
  7  8  2  0  0  0
  7 15  1  0  0  0
  8  9  1  0  0  0
  9 10  2  0  0  0
  9 14  1  0  0  0
 10 11  1  0  0  0
 11 12  2  0  0  0
 12 13  1  0  0  0
 13 14  2  0  0  0
 14 15  1  0  0  0
 16 17  1  0  0  0
 17 18  2  0  0  0
 17 22  1  0  0  0
 18 19  1  0  0  0
 19 20  2  0  0  0
 20 21  1  0  0  0
 20 23  1  0  0  0
 21 22  2  0  0  0
 23 24  2  0  0  0
 23 25  1  0  0  0
 25 26  1  0  0  0
 26 27  1  0  0  0
 26 32  1  0  0  0
 27 28  1  0  0  0
 28 29  2  0  0  0
 28 30  1  0  0  0
 28 31  1  0  0  0
 32 33  2  0  0  0
 32 34  1  0  0  0
M  END
> <s_m_entry_id>
6573

> <s_m_entry_name>
NS3-4A.114

> <CHEMBLID>
CHEMBL323567

> <s_m_Source_Path>
/home/liwei/Desktop/Machine/HCV/Active

> <s_m_Source_File>
NS3-4A.sdf

> <i_m_Source_File_Index>
114

$$$$
CHEMBL323758
                    3D
 Structure written by MMmdl.
 34 37  0  0  1  0            999 V2000
   -2.6401   -3.1891    0.0000 C   0  0  0  0  0  0
   -1.2135   -2.7256    0.0000 N   0  0  0  0  0  0
   -0.0000   -3.6073    0.0000 C   0  0  0  0  0  0
   -0.0000   -5.1073    0.0000 C   0  0  0  0  0  0
   -1.2990   -5.8573    0.0000 C   0  0  0  0  0  0
   -1.4558   -7.3491    0.0000 N   0  0  0  0  0  0
   -2.9231   -7.6610    0.0000 C   0  0  0  0  0  0
   -3.6731   -8.9600    0.0000 C   0  0  0  0  0  0
   -2.9231  -10.2590    0.0000 F   0  0  0  0  0  0
   -5.1731   -8.9600    0.0000 C   0  0  0  0  0  0
   -5.9231  -10.2590    0.0000 F   0  0  0  0  0  0
   -5.9231   -7.6610    0.0000 C   0  0  0  0  0  0
   -5.1731   -6.3619    0.0000 C   0  0  0  0  0  0
   -3.6731   -6.3619    0.0000 C   0  0  0  0  0  0
   -2.6694   -5.2472    0.0000 N   0  0  0  0  0  0
    1.2135   -2.7256    0.0000 N   0  0  0  0  0  0
    0.7500   -1.2990    0.0000 C   0  0  0  0  0  0
    1.5000    0.0000    0.0000 C   0  0  0  0  0  0
    0.7500    1.2990    0.0000 C   0  0  0  0  0  0
   -0.7500    1.2990    0.0000 C   0  0  0  0  0  0
   -1.5000    0.0000    0.0000 C   0  0  0  0  0  0
   -0.7500   -1.2990    0.0000 C   0  0  0  0  0  0
   -1.5000    2.5981    0.0000 C   0  0  0  0  0  0
   -3.0000    2.5981    0.0000 O   0  0  0  0  0  0
   -0.7500    3.8971    0.0000 N   0  0  0  0  0  0
   -1.5000    5.1962    0.0000 C   0  0  3  0  0  0
   -0.7500    6.4952    0.0000 C   0  0  0  0  0  0
   -1.5000    7.7942    0.0000 P   0  0  0  0  0  0
   -2.2500    9.0933    0.0000 O   0  0  0  0  0  0
   -0.2010    8.5442    0.0000 O   0  0  0  0  0  0
   -2.7990    7.0442    0.0000 O   0  0  0  0  0  0
   -3.0000    5.1962    0.0000 C   0  0  0  0  0  0
   -3.7500    6.4952    0.0000 O   0  0  0  0  0  0
   -3.7500    3.8971    0.0000 O   0  0  0  0  0  0
  1  2  1  0  0  0
  2  3  1  0  0  0
  2 22  1  0  0  0
  3  4  1  0  0  0
  3 16  2  0  0  0
  4  5  1  0  0  0
  5  6  2  0  0  0
  5 15  1  0  0  0
  6  7  1  0  0  0
  7  8  2  0  0  0
  7 14  1  0  0  0
  8  9  1  0  0  0
  8 10  1  0  0  0
 10 11  1  0  0  0
 10 12  2  0  0  0
 12 13  1  0  0  0
 13 14  2  0  0  0
 14 15  1  0  0  0
 16 17  1  0  0  0
 17 18  2  0  0  0
 17 22  1  0  0  0
 18 19  1  0  0  0
 19 20  2  0  0  0
 20 21  1  0  0  0
 20 23  1  0  0  0
 21 22  2  0  0  0
 23 24  2  0  0  0
 23 25  1  0  0  0
 25 26  1  0  0  0
 26 27  1  0  0  0
 26 32  1  0  0  0
 27 28  1  0  0  0
 28 29  2  0  0  0
 28 30  1  0  0  0
 28 31  1  0  0  0
 32 33  2  0  0  0
 32 34  1  0  0  0
M  END
> <s_m_entry_id>
6574

> <s_m_entry_name>
NS3-4A.115

> <CHEMBLID>
CHEMBL323758

> <s_m_Source_Path>
/home/liwei/Desktop/Machine/HCV/Active

> <s_m_Source_File>
NS3-4A.sdf

> <i_m_Source_File_Index>
115

$$$$
CHEMBL325129
                    3D
 Structure written by MMmdl.
 35 38  0  0  1  0            999 V2000
   -2.6401   -3.1891    0.0000 C   0  0  0  0  0  0
   -1.2135   -2.7256    0.0000 N   0  0  0  0  0  0
   -0.0000   -3.6073    0.0000 C   0  0  0  0  0  0
   -0.0000   -5.1073    0.0000 C   0  0  0  0  0  0
   -1.2990   -5.8573    0.0000 C   0  0  0  0  0  0
   -1.4558   -7.3491    0.0000 N   0  0  0  0  0  0
   -2.9231   -7.6610    0.0000 C   0  0  0  0  0  0
   -3.6731   -8.9600    0.0000 C   0  0  0  0  0  0
   -2.9231  -10.2590    0.0000 F   0  0  0  0  0  0
   -5.1731   -8.9600    0.0000 C   0  0  0  0  0  0
   -5.9231  -10.2590    0.0000 F   0  0  0  0  0  0
   -5.9231   -7.6610    0.0000 C   0  0  0  0  0  0
   -5.1731   -6.3619    0.0000 C   0  0  0  0  0  0
   -5.9231   -5.0629    0.0000 F   0  0  0  0  0  0
   -3.6731   -6.3619    0.0000 C   0  0  0  0  0  0
   -2.6694   -5.2472    0.0000 N   0  0  0  0  0  0
    1.2135   -2.7256    0.0000 N   0  0  0  0  0  0
    0.7500   -1.2990    0.0000 C   0  0  0  0  0  0
    1.5000    0.0000    0.0000 C   0  0  0  0  0  0
    0.7500    1.2990    0.0000 C   0  0  0  0  0  0
   -0.7500    1.2990    0.0000 C   0  0  0  0  0  0
   -1.5000    0.0000    0.0000 C   0  0  0  0  0  0
   -0.7500   -1.2990    0.0000 C   0  0  0  0  0  0
   -1.5000    2.5981    0.0000 C   0  0  0  0  0  0
   -3.0000    2.5981    0.0000 O   0  0  0  0  0  0
   -0.7500    3.8971    0.0000 N   0  0  0  0  0  0
   -1.5000    5.1962    0.0000 C   0  0  3  0  0  0
   -0.7500    6.4952    0.0000 C   0  0  0  0  0  0
   -1.5000    7.7942    0.0000 P   0  0  0  0  0  0
   -2.2500    9.0933    0.0000 O   0  0  0  0  0  0
   -0.2010    8.5442    0.0000 O   0  0  0  0  0  0
   -2.7990    7.0442    0.0000 O   0  0  0  0  0  0
   -3.0000    5.1962    0.0000 C   0  0  0  0  0  0
   -3.7500    6.4952    0.0000 O   0  0  0  0  0  0
   -3.7500    3.8971    0.0000 O   0  0  0  0  0  0
  1  2  1  0  0  0
  2  3  1  0  0  0
  2 23  1  0  0  0
  3  4  1  0  0  0
  3 17  2  0  0  0
  4  5  1  0  0  0
  5  6  2  0  0  0
  5 16  1  0  0  0
  6  7  1  0  0  0
  7  8  2  0  0  0
  7 15  1  0  0  0
  8  9  1  0  0  0
  8 10  1  0  0  0
 10 11  1  0  0  0
 10 12  2  0  0  0
 12 13  1  0  0  0
 13 14  1  0  0  0
 13 15  2  0  0  0
 15 16  1  0  0  0
 17 18  1  0  0  0
 18 19  2  0  0  0
 18 23  1  0  0  0
 19 20  1  0  0  0
 20 21  2  0  0  0
 21 22  1  0  0  0
 21 24  1  0  0  0
 22 23  2  0  0  0
 24 25  2  0  0  0
 24 26  1  0  0  0
 26 27  1  0  0  0
 27 28  1  0  0  0
 27 33  1  0  0  0
 28 29  1  0  0  0
 29 30  2  0  0  0
 29 31  1  0  0  0
 29 32  1  0  0  0
 33 34  2  0  0  0
 33 35  1  0  0  0
M  END
> <s_m_entry_id>
6575

> <s_m_entry_name>
NS3-4A.116

> <CHEMBLID>
CHEMBL325129

> <s_m_Source_Path>
/home/liwei/Desktop/Machine/HCV/Active

> <s_m_Source_File>
NS3-4A.sdf

> <i_m_Source_File_Index>
116

$$$$
CHEMBL325776
                    3D
 Structure written by MMmdl.
 34 37  0  0  1  0            999 V2000
    3.7500   -1.2990    0.0000 C   0  0  0  0  0  0
    3.0000    0.0000    0.0000 O   0  0  0  0  0  0
    1.5000    0.0000    0.0000 C   0  0  0  0  0  0
    0.7500   -1.2990    0.0000 C   0  0  0  0  0  0
   -0.7500   -1.2990    0.0000 C   0  0  0  0  0  0
   -1.5000    0.0000    0.0000 C   0  0  0  0  0  0
   -2.9672    0.3119    0.0000 N   0  0  0  0  0  0
   -3.1240    1.8037    0.0000 C   0  0  0  0  0  0
   -4.4231    2.5537    0.0000 C   0  0  0  0  0  0
   -4.4231    4.0537    0.0000 C   0  0  0  0  0  0
   -3.2095    4.9353    0.0000 N   0  0  0  0  0  0
   -3.6731    6.3619    0.0000 C   0  0  0  0  0  0
   -2.9231    7.6610    0.0000 C   0  0  0  0  0  0
   -3.6731    8.9600    0.0000 C   0  0  0  0  0  0
   -5.1731    8.9600    0.0000 C   0  0  0  0  0  0
   -5.9231    7.6610    0.0000 C   0  0  0  0  0  0
   -5.1731    6.3619    0.0000 C   0  0  0  0  0  0
   -5.6366    4.9353    0.0000 N   0  0  0  0  0  0
   -7.0632    4.4718    0.0000 C   0  0  0  0  0  0
   -5.9231   10.2590    0.0000 C   0  0  0  0  0  0
   -7.4231   10.2590    0.0000 O   0  0  0  0  0  0
   -5.1731   11.5581    0.0000 N   0  0  0  0  0  0
   -5.9231   12.8571    0.0000 C   0  0  3  0  0  0
   -5.1731   14.1561    0.0000 C   0  0  0  0  0  0
   -5.9231   15.4552    0.0000 P   0  0  0  0  0  0
   -6.6731   16.7542    0.0000 O   0  0  0  0  0  0
   -4.6240   16.2052    0.0000 O   0  0  0  0  0  0
   -7.2221   14.7052    0.0000 O   0  0  0  0  0  0
   -7.4231   12.8571    0.0000 C   0  0  0  0  0  0
   -8.1731   14.1561    0.0000 O   0  0  0  0  0  0
   -8.1731   11.5581    0.0000 O   0  0  0  0  0  0
   -1.7537    2.4138    0.0000 N   0  0  0  0  0  0
   -0.7500    1.2990    0.0000 C   0  0  0  0  0  0
    0.7500    1.2990    0.0000 C   0  0  0  0  0  0
  1  2  1  0  0  0
  2  3  1  0  0  0
  3  4  2  0  0  0
  3 34  1  0  0  0
  4  5  1  0  0  0
  5  6  2  0  0  0
  6  7  1  0  0  0
  6 33  1  0  0  0
  7  8  1  0  0  0
  8  9  1  0  0  0
  8 32  2  0  0  0
  9 10  1  0  0  0
 10 11  2  0  0  0
 10 18  1  0  0  0
 11 12  1  0  0  0
 12 13  2  0  0  0
 12 17  1  0  0  0
 13 14  1  0  0  0
 14 15  2  0  0  0
 15 16  1  0  0  0
 15 20  1  0  0  0
 16 17  2  0  0  0
 17 18  1  0  0  0
 18 19  1  0  0  0
 20 21  2  0  0  0
 20 22  1  0  0  0
 22 23  1  0  0  0
 23 24  1  0  0  0
 23 29  1  0  0  0
 24 25  1  0  0  0
 25 26  2  0  0  0
 25 27  1  0  0  0
 25 28  1  0  0  0
 29 30  2  0  0  0
 29 31  1  0  0  0
 32 33  1  0  0  0
 33 34  2  0  0  0
M  END
> <s_m_entry_id>
6576

> <s_m_entry_name>
NS3-4A.117

> <CHEMBLID>
CHEMBL325776

> <s_m_Source_Path>
/home/liwei/Desktop/Machine/HCV/Active

> <s_m_Source_File>
NS3-4A.sdf

> <i_m_Source_File_Index>
117

$$$$
CHEMBL326490
                    3D
 Structure written by MMmdl.
 43 43  0  0  1  0            999 V2000
    3.0000    7.7942    0.0000 C   0  0  0  0  0  0
    3.7500    6.4952    0.0000 C   0  0  0  0  0  0
    3.0000    5.1962    0.0000 C   0  0  0  0  0  0
    5.2500    6.4952    0.0000 C   0  0  0  0  0  0
    6.0000    5.1962    0.0000 O   0  0  0  0  0  0
    7.5000    5.1962    0.0000 C   0  0  0  0  0  0
    8.2500    6.4952    0.0000 O   0  0  0  0  0  0
    8.2500    3.8971    0.0000 N   0  0  0  0  0  0
    9.7500    3.8971    0.0000 C   0  0  3  0  0  0
   10.5000    5.1962    0.0000 C   0  0  0  0  0  0
    9.7500    6.4952    0.0000 C   0  0  0  0  0  0
   10.5000    7.7942    0.0000 C   0  0  0  0  0  0
   12.0000    7.7942    0.0000 O   0  0  0  0  0  0
    9.7500    9.0933    0.0000 O   0  0  0  0  0  0
   10.5000    2.5981    0.0000 C   0  0  0  0  0  0
   12.0000    2.5981    0.0000 O   0  0  0  0  0  0
    9.7500    1.2990    0.0000 N   0  0  0  0  0  0
   10.5000    0.0000    0.0000 C   0  0  1  0  0  0
   12.0000    0.0000    0.0000 C   0  0  0  0  0  0
   12.7500   -1.2990    0.0000 C   0  0  0  0  0  0
   14.2500   -1.2990    0.0000 C   0  0  0  0  0  0
   12.0000   -2.5981    0.0000 C   0  0  0  0  0  0
    9.7500   -1.2990    0.0000 C   0  0  0  0  0  0
   10.5000   -2.5981    0.0000 O   0  0  0  0  0  0
    8.2500   -1.2990    0.0000 N   0  0  0  0  0  0
    7.5000   -2.5981    0.0000 C   0  0  3  0  0  0
    8.2500   -3.8971    0.0000 C   0  0  0  0  0  0
    9.7500   -3.8971    0.0000 S   0  0  0  0  0  0
    6.0000   -2.5981    0.0000 C   0  0  0  0  0  0
    5.2500   -3.8971    0.0000 O   0  0  0  0  0  0
    5.2500   -1.2990    0.0000 N   0  0  0  0  0  0
    3.7500   -1.2990    0.0000 C   0  0  0  0  0  0
    3.0000    0.0000    0.0000 C   0  0  0  0  0  0
    1.5000    0.0000    0.0000 C   0  0  0  0  0  0
    0.7500   -1.2990    0.0000 C   0  0  0  0  0  0
   -0.7500   -1.2990    0.0000 C   0  0  0  0  0  0
   -1.5000    0.0000    0.0000 C   0  0  0  0  0  0
   -0.7500    1.2990    0.0000 C   0  0  0  0  0  0
    0.7500    1.2990    0.0000 C   0  0  0  0  0  0
    1.5000    2.5981    0.0000 Cl  0  0  0  0  0  0
   -3.0000    0.0000    0.0000 C   0  0  0  0  0  0
   -3.7500   -1.2990    0.0000 O   0  0  0  0  0  0
   -3.7500    1.2990    0.0000 O   0  0  0  0  0  0
  1  2  1  0  0  0
  2  3  1  0  0  0
  2  4  1  0  0  0
  4  5  1  0  0  0
  5  6  1  0  0  0
  6  7  2  0  0  0
  6  8  1  0  0  0
  8  9  1  0  0  0
  9 10  1  0  0  0
  9 15  1  0  0  0
 10 11  1  0  0  0
 11 12  1  0  0  0
 12 13  2  0  0  0
 12 14  1  0  0  0
 15 16  2  0  0  0
 15 17  1  0  0  0
 17 18  1  0  0  0
 18 19  1  0  0  0
 18 23  1  6  0  0
 19 20  1  0  0  0
 20 21  1  0  0  0
 20 22  1  0  0  0
 23 24  2  0  0  0
 23 25  1  0  0  0
 25 26  1  0  0  0
 26 27  1  0  0  0
 26 29  1  0  0  0
 27 28  1  0  0  0
 29 30  2  0  0  0
 29 31  1  0  0  0
 31 32  1  0  0  0
 32 33  1  0  0  0
 33 34  1  0  0  0
 34 35  2  0  0  0
 34 39  1  0  0  0
 35 36  1  0  0  0
 36 37  2  0  0  0
 37 38  1  0  0  0
 37 41  1  0  0  0
 38 39  2  0  0  0
 39 40  1  0  0  0
 41 42  2  0  0  0
 41 43  1  0  0  0
M  END
> <s_m_entry_id>
6577

> <s_m_entry_name>
NS3-4A.118

> <CHEMBLID>
CHEMBL326490

> <s_m_Source_Path>
/home/liwei/Desktop/Machine/HCV/Active

> <s_m_Source_File>
NS3-4A.sdf

> <i_m_Source_File_Index>
118

$$$$
CHEMBL331243
                    3D
 Structure written by MMmdl.
 63 63  0  0  1  0            999 V2000
    9.7500    9.0933    0.0000 C   0  0  0  0  0  0
   10.5000    7.7942    0.0000 C   0  0  0  0  0  0
    9.7500    6.4952    0.0000 C   0  0  0  0  0  0
   10.5000    5.1962    0.0000 C   0  0  0  0  0  0
    9.7500    3.8971    0.0000 C   0  0  1  0  0  0
   10.5000    2.5981    0.0000 N   0  0  0  0  0  0
    9.7500    1.2990    0.0000 C   0  0  0  0  0  0
    8.2500    1.2990    0.0000 O   0  0  0  0  0  0
   10.5000    0.0000    0.0000 C   0  0  2  0  0  0
   12.0000    0.0000    0.0000 C   0  0  0  0  0  0
   12.7500    1.2990    0.0000 C   0  0  0  0  0  0
   14.2500    1.2990    0.0000 C   0  0  0  0  0  0
   12.0000    2.5981    0.0000 C   0  0  0  0  0  0
    9.7500   -1.2990    0.0000 N   0  0  0  0  0  0
    8.2500   -1.2990    0.0000 C   0  0  0  0  0  0
    7.5000    0.0000    0.0000 O   0  0  0  0  0  0
    7.5000   -2.5981    0.0000 C   0  0  1  0  0  0
    6.0000   -2.5981    0.0000 N   0  0  0  0  0  0
    5.2500   -1.2990    0.0000 C   0  0  0  0  0  0
    6.0000    0.0000    0.0000 O   0  0  0  0  0  0
    3.7500   -1.2990    0.0000 C   0  0  2  0  0  0
    3.0000    0.0000    0.0000 C   0  0  0  0  0  0
    1.5000    0.0000    0.0000 C   0  0  0  0  0  0
    0.7500   -1.2990    0.0000 C   0  0  0  0  0  0
   -0.7500   -1.2990    0.0000 C   0  0  0  0  0  0
   -1.5000    0.0000    0.0000 C   0  0  0  0  0  0
   -0.7500    1.2990    0.0000 C   0  0  0  0  0  0
    0.7500    1.2990    0.0000 C   0  0  0  0  0  0
    1.5000    2.5981    0.0000 C   0  0  0  0  0  0
    3.0000   -2.5981    0.0000 N   0  0  0  0  0  0
    3.7500   -3.8971    0.0000 C   0  0  0  0  0  0
    5.2500   -3.8971    0.0000 O   0  0  0  0  0  0
    3.0000   -5.1962    0.0000 C   0  0  2  0  0  0
    3.7500   -6.4952    0.0000 C   0  0  0  0  0  0
    3.0000   -7.7942    0.0000 C   0  0  0  0  0  0
    3.7500   -9.0933    0.0000 C   0  0  0  0  0  0
    5.2500   -9.0933    0.0000 O   0  0  0  0  0  0
    3.0000  -10.3923    0.0000 O   0  0  0  0  0  0
    1.5000   -5.1962    0.0000 N   0  0  0  0  0  0
    0.7500   -6.4952    0.0000 C   0  0  0  0  0  0
    1.5000   -7.7942    0.0000 O   0  0  0  0  0  0
   -0.7500   -6.4952    0.0000 C   0  0  2  0  0  0
   -1.5000   -7.7942    0.0000 C   0  0  0  0  0  0
   -0.7500   -9.0933    0.0000 C   0  0  0  0  0  0
    0.7500   -9.0933    0.0000 O   0  0  0  0  0  0
   -1.5000  -10.3923    0.0000 O   0  0  0  0  0  0
   -1.5000   -5.1962    0.0000 N   0  0  0  0  0  0
   -3.0000   -5.1962    0.0000 C   0  0  0  0  0  0
   -3.7500   -6.4952    0.0000 O   0  0  0  0  0  0
   -3.7500   -3.8971    0.0000 C   0  0  0  0  0  0
   -5.2500   -3.8971    0.0000 C   0  0  0  0  0  0
   -6.0000   -2.5981    0.0000 C   0  0  0  0  0  0
   -5.2500   -1.2990    0.0000 O   0  0  0  0  0  0
   -7.5000   -2.5981    0.0000 O   0  0  0  0  0  0
    8.2500   -3.8971    0.0000 C   0  0  0  0  0  0
    9.5490   -3.1471    0.0000 C   0  0  0  0  0  0
    6.9510   -4.6471    0.0000 C   0  0  0  0  0  0
    9.0000   -5.1962    0.0000 C   0  0  0  0  0  0
    8.2500    3.8971    0.0000 C   0  0  0  0  0  0
    7.5000    2.5981    0.0000 O   0  0  0  0  0  0
    7.5000    5.1962    0.0000 C   0  0  0  0  0  0
    8.2500    6.4952    0.0000 O   0  0  0  0  0  0
    6.0000    5.1962    0.0000 N   0  0  0  0  0  0
  1  2  1  0  0  0
  2  3  1  0  0  0
  3  4  1  0  0  0
  4  5  1  0  0  0
  5  6  1  0  0  0
  5 59  1  1  0  0
  6  7  1  0  0  0
  7  8  2  0  0  0
  7  9  1  0  0  0
  9 10  1  0  0  0
  9 14  1  1  0  0
 10 11  1  0  0  0
 11 12  1  0  0  0
 11 13  1  0  0  0
 14 15  1  0  0  0
 15 16  2  0  0  0
 15 17  1  0  0  0
 17 18  1  0  0  0
 17 55  1  6  0  0
 18 19  1  0  0  0
 19 20  2  0  0  0
 19 21  1  0  0  0
 21 22  1  0  0  0
 21 30  1  1  0  0
 22 23  1  0  0  0
 23 24  2  0  0  0
 23 28  1  0  0  0
 24 25  1  0  0  0
 25 26  2  0  0  0
 26 27  1  0  0  0
 27 28  2  0  0  0
 28 29  1  0  0  0
 30 31  1  0  0  0
 31 32  2  0  0  0
 31 33  1  0  0  0
 33 34  1  0  0  0
 33 39  1  1  0  0
 34 35  1  0  0  0
 35 36  1  0  0  0
 36 37  2  0  0  0
 36 38  1  0  0  0
 39 40  1  0  0  0
 40 41  2  0  0  0
 40 42  1  0  0  0
 42 43  1  0  0  0
 42 47  1  1  0  0
 43 44  1  0  0  0
 44 45  2  0  0  0
 44 46  1  0  0  0
 47 48  1  0  0  0
 48 49  2  0  0  0
 48 50  1  0  0  0
 50 51  1  0  0  0
 51 52  1  0  0  0
 52 53  2  0  0  0
 52 54  1  0  0  0
 55 56  1  0  0  0
 55 57  1  0  0  0
 55 58  1  0  0  0
 59 60  2  0  0  0
 59 61  1  0  0  0
 61 62  2  0  0  0
 61 63  1  0  0  0
M  END
> <s_m_entry_id>
6578

> <s_m_entry_name>
NS3-4A.119

> <CHEMBLID>
CHEMBL331243

> <s_m_Source_Path>
/home/liwei/Desktop/Machine/HCV/Active

> <s_m_Source_File>
NS3-4A.sdf

> <i_m_Source_File_Index>
119

$$$$
CHEMBL332056
                    3D
 Structure written by MMmdl.
 42 42  0  0  1  0            999 V2000
    3.0000    7.7942    0.0000 C   0  0  0  0  0  0
    3.7500    6.4952    0.0000 C   0  0  0  0  0  0
    3.0000    5.1962    0.0000 C   0  0  0  0  0  0
    5.2500    6.4952    0.0000 C   0  0  0  0  0  0
    6.0000    5.1962    0.0000 O   0  0  0  0  0  0
    7.5000    5.1962    0.0000 C   0  0  0  0  0  0
    8.2500    6.4952    0.0000 O   0  0  0  0  0  0
    8.2500    3.8971    0.0000 N   0  0  0  0  0  0
    9.7500    3.8971    0.0000 C   0  0  3  0  0  0
   10.5000    5.1962    0.0000 C   0  0  0  0  0  0
    9.7500    6.4952    0.0000 C   0  0  0  0  0  0
   10.5000    7.7942    0.0000 C   0  0  0  0  0  0
   12.0000    7.7942    0.0000 O   0  0  0  0  0  0
    9.7500    9.0933    0.0000 O   0  0  0  0  0  0
   10.5000    2.5981    0.0000 C   0  0  0  0  0  0
   12.0000    2.5981    0.0000 O   0  0  0  0  0  0
    9.7500    1.2990    0.0000 N   0  0  0  0  0  0
   10.5000    0.0000    0.0000 C   0  0  1  0  0  0
   12.0000    0.0000    0.0000 C   0  0  0  0  0  0
   12.7500   -1.2990    0.0000 C   0  0  0  0  0  0
   14.2500   -1.2990    0.0000 C   0  0  0  0  0  0
   12.0000   -2.5981    0.0000 C   0  0  0  0  0  0
    9.7500   -1.2990    0.0000 C   0  0  0  0  0  0
   10.5000   -2.5981    0.0000 O   0  0  0  0  0  0
    8.2500   -1.2990    0.0000 N   0  0  0  0  0  0
    7.5000   -2.5981    0.0000 C   0  0  3  0  0  0
    8.2500   -3.8971    0.0000 C   0  0  0  0  0  0
    9.7500   -3.8971    0.0000 S   0  0  0  0  0  0
    6.0000   -2.5981    0.0000 C   0  0  0  0  0  0
    5.2500   -3.8971    0.0000 O   0  0  0  0  0  0
    5.2500   -1.2990    0.0000 N   0  0  0  0  0  0
    3.7500   -1.2990    0.0000 C   0  0  0  0  0  0
    3.0000    0.0000    0.0000 C   0  0  0  0  0  0
    1.5000    0.0000    0.0000 C   0  0  0  0  0  0
    0.7500   -1.2990    0.0000 C   0  0  0  0  0  0
   -0.7500   -1.2990    0.0000 C   0  0  0  0  0  0
   -1.5000    0.0000    0.0000 C   0  0  0  0  0  0
   -0.7500    1.2990    0.0000 C   0  0  0  0  0  0
    0.7500    1.2990    0.0000 C   0  0  0  0  0  0
   -3.0000    0.0000    0.0000 C   0  0  0  0  0  0
   -3.7500   -1.2990    0.0000 O   0  0  0  0  0  0
   -3.7500    1.2990    0.0000 O   0  0  0  0  0  0
  1  2  1  0  0  0
  2  3  1  0  0  0
  2  4  1  0  0  0
  4  5  1  0  0  0
  5  6  1  0  0  0
  6  7  2  0  0  0
  6  8  1  0  0  0
  8  9  1  0  0  0
  9 10  1  0  0  0
  9 15  1  0  0  0
 10 11  1  0  0  0
 11 12  1  0  0  0
 12 13  2  0  0  0
 12 14  1  0  0  0
 15 16  2  0  0  0
 15 17  1  0  0  0
 17 18  1  0  0  0
 18 19  1  0  0  0
 18 23  1  6  0  0
 19 20  1  0  0  0
 20 21  1  0  0  0
 20 22  1  0  0  0
 23 24  2  0  0  0
 23 25  1  0  0  0
 25 26  1  0  0  0
 26 27  1  0  0  0
 26 29  1  0  0  0
 27 28  1  0  0  0
 29 30  2  0  0  0
 29 31  1  0  0  0
 31 32  1  0  0  0
 32 33  1  0  0  0
 33 34  1  0  0  0
 34 35  2  0  0  0
 34 39  1  0  0  0
 35 36  1  0  0  0
 36 37  2  0  0  0
 37 38  1  0  0  0
 37 40  1  0  0  0
 38 39  2  0  0  0
 40 41  2  0  0  0
 40 42  1  0  0  0
M  END
> <s_m_entry_id>
6579

> <s_m_entry_name>
NS3-4A.120

> <CHEMBLID>
CHEMBL332056

> <s_m_Source_Path>
/home/liwei/Desktop/Machine/HCV/Active

> <s_m_Source_File>
NS3-4A.sdf

> <i_m_Source_File_Index>
120

$$$$
CHEMBL332245
                    3D
 Structure written by MMmdl.
 31 31  0  0  1  0            999 V2000
    3.7500   -1.2990    0.0000 C   0  0  0  0  0  0
    3.0000    0.0000    0.0000 O   0  0  0  0  0  0
    1.5000    0.0000    0.0000 C   0  0  0  0  0  0
    0.7500   -1.2990    0.0000 C   0  0  0  0  0  0
   -0.7500   -1.2990    0.0000 C   0  0  0  0  0  0
   -1.5000    0.0000    0.0000 C   0  0  0  0  0  0
   -0.7500    1.2990    0.0000 C   0  0  0  0  0  0
    0.7500    1.2990    0.0000 C   0  0  0  0  0  0
   -3.0000    0.0000    0.0000 C   0  0  1  0  0  0
   -3.7500   -1.2990    0.0000 O   0  0  0  0  0  0
   -3.7500    1.2990    0.0000 C   0  0  0  0  0  0
   -3.0000    2.5981    0.0000 O   0  0  0  0  0  0
   -5.2500    1.2990    0.0000 N   0  0  0  0  0  0
   -6.0000    2.5981    0.0000 C   0  0  1  0  0  0
   -7.5000    2.5981    0.0000 C   0  0  0  0  0  0
   -8.2500    3.8971    0.0000 C   0  0  0  0  0  0
   -9.7500    3.8971    0.0000 C   0  0  0  0  0  0
   -7.5000    5.1962    0.0000 C   0  0  0  0  0  0
   -5.2500    3.8971    0.0000 C   0  0  0  0  0  0
   -3.7500    3.8971    0.0000 O   0  0  0  0  0  0
   -6.0000    5.1962    0.0000 N   0  0  0  0  0  0
   -5.2500    6.4952    0.0000 C   0  0  1  0  0  0
   -6.0000    7.7942    0.0000 C   0  0  0  0  0  0
   -7.5000    7.7942    0.0000 C   0  0  0  0  0  0
   -8.2500    9.0933    0.0000 F   0  0  0  0  0  0
   -8.2500    6.4952    0.0000 F   0  0  0  0  0  0
   -3.7500    6.4952    0.0000 C   0  0  0  0  0  0
   -3.0000    5.1962    0.0000 O   0  0  0  0  0  0
   -3.0000    7.7942    0.0000 C   0  0  0  0  0  0
   -3.7500    9.0933    0.0000 O   0  0  0  0  0  0
   -1.5000    7.7942    0.0000 O   0  0  0  0  0  0
  1  2  1  0  0  0
  2  3  1  0  0  0
  3  4  2  0  0  0
  3  8  1  0  0  0
  4  5  1  0  0  0
  5  6  2  0  0  0
  6  7  1  0  0  0
  6  9  1  0  0  0
  7  8  2  0  0  0
  9 10  1  0  0  0
  9 11  1  1  0  0
 11 12  2  0  0  0
 11 13  1  0  0  0
 13 14  1  0  0  0
 14 15  1  0  0  0
 14 19  1  6  0  0
 15 16  1  0  0  0
 16 17  1  0  0  0
 16 18  1  0  0  0
 19 20  2  0  0  0
 19 21  1  0  0  0
 21 22  1  0  0  0
 22 23  1  0  0  0
 22 27  1  6  0  0
 23 24  1  0  0  0
 24 25  1  0  0  0
 24 26  1  0  0  0
 27 28  2  0  0  0
 27 29  1  0  0  0
 29 30  2  0  0  0
 29 31  1  0  0  0
M  END
> <s_m_entry_id>
6580

> <s_m_entry_name>
NS3-4A.121

> <CHEMBLID>
CHEMBL332245

> <s_m_Source_Path>
/home/liwei/Desktop/Machine/HCV/Active

> <s_m_Source_File>
NS3-4A.sdf

> <i_m_Source_File_Index>
121

$$$$
CHEMBL334570
                    3D
 Structure written by MMmdl.
 46 49  0  0  1  0            999 V2000
  -11.6895   -7.3710    0.0000 C   0  0  0  0  0  0
  -10.4760   -6.4893    0.0000 C   0  0  0  0  0  0
   -9.1056   -7.0994    0.0000 C   0  0  2  0  0  0
   -7.8921   -6.2177    0.0000 N   0  0  0  0  0  0
   -6.5218   -6.8278    0.0000 C   0  0  0  0  0  0
   -6.3650   -8.3196    0.0000 O   0  0  0  0  0  0
   -5.3083   -5.9462    0.0000 C   0  0  2  0  0  0
   -3.8817   -6.4097    0.0000 C   0  0  0  0  0  0
   -3.0000   -5.1962    0.0000 C   0  0  2  0  0  0
   -3.8817   -3.9826    0.0000 C   0  0  0  0  0  0
   -5.3083   -4.4462    0.0000 N   0  0  0  0  0  0
   -6.5218   -3.5645    0.0000 C   0  0  0  0  0  0
   -7.8921   -4.1746    0.0000 O   0  0  0  0  0  0
   -6.3650   -2.0727    0.0000 C   0  0  2  0  0  0
   -4.9947   -1.4626    0.0000 N   0  0  0  0  0  0
   -4.8379    0.0292    0.0000 C   0  0  0  0  0  0
   -6.0514    0.9109    0.0000 O   0  0  0  0  0  0
   -3.4676    0.6393    0.0000 C   0  0  2  0  0  0
   -2.2540   -0.2424    0.0000 N   0  0  0  0  0  0
   -2.4108   -1.7342    0.0000 C   0  0  0  0  0  0
   -3.7812   -2.3443    0.0000 O   0  0  0  0  0  0
   -1.1973   -2.6158    0.0000 C   0  0  0  0  0  0
   -1.3541   -4.1076    0.0000 C   0  0  0  0  0  0
   -0.1406   -4.9893    0.0000 N   0  0  0  0  0  0
    1.2297   -4.3792    0.0000 C   0  0  0  0  0  0
    1.3865   -2.8874    0.0000 C   0  0  0  0  0  0
    0.1730   -2.0057    0.0000 N   0  0  0  0  0  0
   -3.3108    2.1311    0.0000 C   0  0  0  0  0  0
   -1.9405    2.7412    0.0000 C   0  0  0  0  0  0
   -4.5243    3.0128    0.0000 C   0  0  0  0  0  0
   -7.5785   -1.1910    0.0000 C   0  0  0  0  0  0
   -7.4217    0.3008    0.0000 C   0  0  0  0  0  0
   -8.9488   -1.8011    0.0000 C   0  0  0  0  0  0
   -1.5000   -5.1962    0.0000 O   0  0  0  0  0  0
   -0.7500   -6.4952    0.0000 C   0  0  0  0  0  0
    0.7500   -6.4952    0.0000 C   0  0  0  0  0  0
    1.5000   -7.7942    0.0000 C   0  0  0  0  0  0
    0.7500   -9.0933    0.0000 C   0  0  0  0  0  0
    1.5000  -10.3923    0.0000 C   0  0  0  0  0  0
    0.7500  -11.6913    0.0000 C   0  0  0  0  0  0
   -0.7500  -11.6913    0.0000 C   0  0  0  0  0  0
   -1.5000  -10.3923    0.0000 C   0  0  0  0  0  0
   -0.7500   -9.0933    0.0000 C   0  0  0  0  0  0
   -1.5000   -7.7942    0.0000 C   0  0  0  0  0  0
   -8.9488   -8.5912    0.0000 C   0  0  0  0  0  0
  -10.1624   -9.4729    0.0000 O   0  0  0  0  0  0
  1  2  1  0  0  0
  2  3  1  0  0  0
  3  4  1  0  0  0
  3 45  1  1  0  0
  4  5  1  0  0  0
  5  6  2  0  0  0
  5  7  1  0  0  0
  7  8  1  0  0  0
  7 11  1  1  0  0
  8  9  1  0  0  0
  9 10  1  0  0  0
  9 34  1  6  0  0
 10 11  1  0  0  0
 11 12  1  0  0  0
 12 13  2  0  0  0
 12 14  1  0  0  0
 14 15  1  0  0  0
 14 31  1  6  0  0
 15 16  1  0  0  0
 16 17  2  0  0  0
 16 18  1  0  0  0
 18 19  1  0  0  0
 18 28  1  6  0  0
 19 20  1  0  0  0
 20 21  2  0  0  0
 20 22  1  0  0  0
 22 23  2  0  0  0
 22 27  1  0  0  0
 23 24  1  0  0  0
 24 25  2  0  0  0
 25 26  1  0  0  0
 26 27  2  0  0  0
 28 29  1  0  0  0
 28 30  1  0  0  0
 31 32  1  0  0  0
 31 33  1  0  0  0
 34 35  1  0  0  0
 35 36  2  0  0  0
 35 44  1  0  0  0
 36 37  1  0  0  0
 37 38  2  0  0  0
 38 39  1  0  0  0
 38 43  1  0  0  0
 39 40  2  0  0  0
 40 41  1  0  0  0
 41 42  2  0  0  0
 42 43  1  0  0  0
 43 44  2  0  0  0
 45 46  2  0  0  0
M  END
> <s_m_entry_id>
6581

> <s_m_entry_name>
NS3-4A.122

> <CHEMBLID>
CHEMBL334570

> <s_m_Source_Path>
/home/liwei/Desktop/Machine/HCV/Active

> <s_m_Source_File>
NS3-4A.sdf

> <i_m_Source_File_Index>
122

$$$$
CHEMBL334814
                    3D
 Structure written by MMmdl.
 47 50  0  0  1  0            999 V2000
  -13.9395   -6.0719    0.0000 C   0  0  0  0  0  0
  -12.7260   -5.1903    0.0000 C   0  0  0  0  0  0
  -11.3556   -5.8004    0.0000 C   0  0  2  0  0  0
  -10.1421   -4.9187    0.0000 N   0  0  0  0  0  0
   -8.7718   -5.5288    0.0000 C   0  0  0  0  0  0
   -8.6150   -7.0206    0.0000 O   0  0  0  0  0  0
   -7.5583   -4.6471    0.0000 C   0  0  2  0  0  0
   -6.1317   -5.1106    0.0000 C   0  0  0  0  0  0
   -5.2500   -3.8971    0.0000 C   0  0  2  0  0  0
   -6.1317   -2.6836    0.0000 C   0  0  0  0  0  0
   -7.5583   -3.1471    0.0000 N   0  0  0  0  0  0
   -8.7718   -2.2654    0.0000 C   0  0  0  0  0  0
  -10.1421   -2.8755    0.0000 O   0  0  0  0  0  0
   -8.6150   -0.7737    0.0000 C   0  0  2  0  0  0
   -9.8285    0.1080    0.0000 N   0  0  0  0  0  0
   -9.6717    1.5998    0.0000 C   0  0  0  0  0  0
   -8.3014    2.2099    0.0000 O   0  0  0  0  0  0
  -10.8853    2.4815    0.0000 C   0  0  2  0  0  0
  -12.2556    1.8714    0.0000 N   0  0  0  0  0  0
  -13.4691    2.7531    0.0000 C   0  0  0  0  0  0
  -13.3123    4.2448    0.0000 O   0  0  0  0  0  0
  -14.8394    2.1430    0.0000 C   0  0  0  0  0  0
  -14.9962    0.6512    0.0000 C   0  0  0  0  0  0
  -16.3665    0.0411    0.0000 N   0  0  0  0  0  0
  -17.5801    0.9227    0.0000 C   0  0  0  0  0  0
  -17.4233    2.4145    0.0000 C   0  0  0  0  0  0
  -16.0529    3.0246    0.0000 N   0  0  0  0  0  0
  -10.7285    3.9733    0.0000 C   0  0  0  0  0  0
  -11.9420    4.8549    0.0000 C   0  0  0  0  0  0
   -9.3581    4.5834    0.0000 C   0  0  0  0  0  0
   -7.2447   -0.1635    0.0000 C   0  0  0  0  0  0
   -7.0879    1.3282    0.0000 C   0  0  0  0  0  0
   -6.0312   -1.0452    0.0000 C   0  0  0  0  0  0
   -3.7500   -3.8971    0.0000 O   0  0  0  0  0  0
   -3.0000   -5.1962    0.0000 C   0  0  0  0  0  0
   -1.5000   -5.1962    0.0000 C   0  0  0  0  0  0
   -0.7500   -6.4952    0.0000 C   0  0  0  0  0  0
    0.7500   -6.4952    0.0000 C   0  0  0  0  0  0
    1.5000   -5.1962    0.0000 C   0  0  0  0  0  0
    0.7500   -3.8971    0.0000 C   0  0  0  0  0  0
    1.5000   -2.5981    0.0000 C   0  0  0  0  0  0
    0.7500   -1.2990    0.0000 C   0  0  0  0  0  0
   -0.7500   -1.2990    0.0000 C   0  0  0  0  0  0
   -1.5000   -2.5981    0.0000 C   0  0  0  0  0  0
   -0.7500   -3.8971    0.0000 C   0  0  0  0  0  0
  -11.1988   -7.2921    0.0000 C   0  0  0  0  0  0
  -12.4124   -8.1738    0.0000 O   0  0  0  0  0  0
  1  2  1  0  0  0
  2  3  1  0  0  0
  3  4  1  0  0  0
  3 46  1  1  0  0
  4  5  1  0  0  0
  5  6  2  0  0  0
  5  7  1  0  0  0
  7  8  1  0  0  0
  7 11  1  1  0  0
  8  9  1  0  0  0
  9 10  1  0  0  0
  9 34  1  6  0  0
 10 11  1  0  0  0
 11 12  1  0  0  0
 12 13  2  0  0  0
 12 14  1  0  0  0
 14 15  1  0  0  0
 14 31  1  6  0  0
 15 16  1  0  0  0
 16 17  2  0  0  0
 16 18  1  0  0  0
 18 19  1  0  0  0
 18 28  1  6  0  0
 19 20  1  0  0  0
 20 21  2  0  0  0
 20 22  1  0  0  0
 22 23  2  0  0  0
 22 27  1  0  0  0
 23 24  1  0  0  0
 24 25  2  0  0  0
 25 26  1  0  0  0
 26 27  2  0  0  0
 28 29  1  0  0  0
 28 30  1  0  0  0
 31 32  1  0  0  0
 31 33  1  0  0  0
 34 35  1  0  0  0
 35 36  1  0  0  0
 36 37  2  0  0  0
 36 45  1  0  0  0
 37 38  1  0  0  0
 38 39  2  0  0  0
 39 40  1  0  0  0
 40 41  2  0  0  0
 40 45  1  0  0  0
 41 42  1  0  0  0
 42 43  2  0  0  0
 43 44  1  0  0  0
 44 45  2  0  0  0
 46 47  2  0  0  0
M  END
> <s_m_entry_id>
6582

> <s_m_entry_name>
NS3-4A.123

> <CHEMBLID>
CHEMBL334814

> <s_m_Source_Path>
/home/liwei/Desktop/Machine/HCV/Active

> <s_m_Source_File>
NS3-4A.sdf

> <i_m_Source_File_Index>
123

$$$$
CHEMBL335709
                    3D
 Structure written by MMmdl.
 49 51  0  0  1  0            999 V2000
    8.9985  -12.9189    0.0000 C   0  0  0  0  0  0
    9.4620  -11.4923    0.0000 C   0  0  0  0  0  0
    8.4583  -10.3776    0.0000 C   0  0  2  0  0  0
    8.9218   -8.9510    0.0000 N   0  0  0  0  0  0
    7.9182   -7.8363    0.0000 C   0  0  0  0  0  0
    6.4509   -8.1481    0.0000 O   0  0  0  0  0  0
    8.3817   -6.4097    0.0000 C   0  0  2  0  0  0
    9.8083   -5.9462    0.0000 C   0  0  0  0  0  0
    9.8083   -4.4462    0.0000 C   0  0  2  0  0  0
    8.3817   -3.9826    0.0000 C   0  0  0  0  0  0
    7.5000   -5.1962    0.0000 N   0  0  0  0  0  0
    6.0000   -5.1962    0.0000 C   0  0  0  0  0  0
    5.2500   -6.4952    0.0000 O   0  0  0  0  0  0
    5.2500   -3.8971    0.0000 C   0  0  2  0  0  0
    3.7500   -3.8971    0.0000 N   0  0  0  0  0  0
    3.0000   -5.1962    0.0000 C   0  0  0  0  0  0
    3.7500   -6.4952    0.0000 O   0  0  0  0  0  0
    1.5000   -5.1962    0.0000 C   0  0  2  0  0  0
    0.7500   -6.4952    0.0000 N   0  0  0  0  0  0
    1.5000   -7.7942    0.0000 C   0  0  0  0  0  0
    3.0000   -7.7942    0.0000 O   0  0  0  0  0  0
    0.7500   -9.0933    0.0000 C   0  0  0  0  0  0
    1.5000  -10.3923    0.0000 C   0  0  0  0  0  0
    0.7500  -11.6913    0.0000 N   0  0  0  0  0  0
   -0.7500  -11.6913    0.0000 C   0  0  0  0  0  0
   -1.5000  -10.3923    0.0000 C   0  0  0  0  0  0
   -0.7500   -9.0933    0.0000 N   0  0  0  0  0  0
    0.7500   -3.8971    0.0000 C   0  0  0  0  0  0
    1.5000   -2.5981    0.0000 C   0  0  0  0  0  0
   -0.7500   -3.8971    0.0000 C   0  0  0  0  0  0
    6.0000   -2.5981    0.0000 C   0  0  0  0  0  0
    7.5000   -2.5981    0.0000 C   0  0  0  0  0  0
    5.2500   -1.2990    0.0000 C   0  0  0  0  0  0
   11.0218   -3.5645    0.0000 O   0  0  0  0  0  0
   12.3921   -4.1746    0.0000 C   0  0  0  0  0  0
   12.5489   -5.6664    0.0000 O   0  0  0  0  0  0
   13.6056   -3.2929    0.0000 N   0  0  0  0  0  0
   14.9760   -3.9030    0.0000 C   0  0  0  0  0  0
   15.1327   -5.3948    0.0000 C   0  0  0  0  0  0
   16.5031   -6.0049    0.0000 C   0  0  0  0  0  0
   17.7166   -5.1232    0.0000 C   0  0  0  0  0  0
   17.5598   -3.6314    0.0000 C   0  0  0  0  0  0
   16.1895   -3.0213    0.0000 C   0  0  0  0  0  0
   16.0327   -1.5295    0.0000 C   0  0  0  0  0  0
   14.6624   -0.9194    0.0000 O   0  0  0  0  0  0
   17.2462   -0.6479    0.0000 O   0  0  0  0  0  0
   17.0894    0.8439    0.0000 C   0  0  0  0  0  0
    6.9911  -10.6894    0.0000 C   0  0  0  0  0  0
    6.5276  -12.1160    0.0000 O   0  0  0  0  0  0
  1  2  1  0  0  0
  2  3  1  0  0  0
  3  4  1  0  0  0
  3 48  1  1  0  0
  4  5  1  0  0  0
  5  6  2  0  0  0
  5  7  1  0  0  0
  7  8  1  0  0  0
  7 11  1  1  0  0
  8  9  1  0  0  0
  9 10  1  0  0  0
  9 34  1  6  0  0
 10 11  1  0  0  0
 11 12  1  0  0  0
 12 13  2  0  0  0
 12 14  1  0  0  0
 14 15  1  0  0  0
 14 31  1  6  0  0
 15 16  1  0  0  0
 16 17  2  0  0  0
 16 18  1  0  0  0
 18 19  1  0  0  0
 18 28  1  6  0  0
 19 20  1  0  0  0
 20 21  2  0  0  0
 20 22  1  0  0  0
 22 23  2  0  0  0
 22 27  1  0  0  0
 23 24  1  0  0  0
 24 25  2  0  0  0
 25 26  1  0  0  0
 26 27  2  0  0  0
 28 29  1  0  0  0
 28 30  1  0  0  0
 31 32  1  0  0  0
 31 33  1  0  0  0
 34 35  1  0  0  0
 35 36  2  0  0  0
 35 37  1  0  0  0
 37 38  1  0  0  0
 38 39  2  0  0  0
 38 43  1  0  0  0
 39 40  1  0  0  0
 40 41  2  0  0  0
 41 42  1  0  0  0
 42 43  2  0  0  0
 43 44  1  0  0  0
 44 45  2  0  0  0
 44 46  1  0  0  0
 46 47  1  0  0  0
 48 49  2  0  0  0
M  END
> <s_m_entry_id>
6583

> <s_m_entry_name>
NS3-4A.124

> <CHEMBLID>
CHEMBL335709

> <s_m_Source_Path>
/home/liwei/Desktop/Machine/HCV/Active

> <s_m_Source_File>
NS3-4A.sdf

> <i_m_Source_File_Index>
124

$$$$
CHEMBL335769
                    3D
 Structure written by MMmdl.
 47 50  0  0  1  0            999 V2000
   -6.2113  -15.1079    0.0000 C   0  0  0  0  0  0
   -6.3681  -13.6161    0.0000 C   0  0  0  0  0  0
   -5.1546  -12.7344    0.0000 C   0  0  2  0  0  0
   -5.3113  -11.2427    0.0000 N   0  0  0  0  0  0
   -4.0978  -10.3610    0.0000 C   0  0  0  0  0  0
   -2.7275  -10.9711    0.0000 O   0  0  0  0  0  0
   -4.2546   -8.8692    0.0000 C   0  0  2  0  0  0
   -3.1399   -7.8655    0.0000 C   0  0  0  0  0  0
   -3.7500   -6.4952    0.0000 C   0  0  2  0  0  0
   -5.2418   -6.6520    0.0000 C   0  0  0  0  0  0
   -5.5537   -8.1192    0.0000 N   0  0  0  0  0  0
   -6.9240   -8.7293    0.0000 C   0  0  0  0  0  0
   -7.0808  -10.2211    0.0000 O   0  0  0  0  0  0
   -8.1375   -7.8476    0.0000 C   0  0  2  0  0  0
   -7.9807   -6.3558    0.0000 N   0  0  0  0  0  0
   -9.1942   -5.4742    0.0000 C   0  0  0  0  0  0
  -10.5645   -6.0843    0.0000 O   0  0  0  0  0  0
   -9.0374   -3.9824    0.0000 C   0  0  2  0  0  0
   -7.6671   -3.3723    0.0000 N   0  0  0  0  0  0
   -7.5103   -1.8805    0.0000 C   0  0  0  0  0  0
   -8.7238   -0.9988    0.0000 O   0  0  0  0  0  0
   -6.1400   -1.2704    0.0000 C   0  0  0  0  0  0
   -4.9265   -2.1521    0.0000 C   0  0  0  0  0  0
   -3.5562   -1.5420    0.0000 N   0  0  0  0  0  0
   -3.3994   -0.0502    0.0000 C   0  0  0  0  0  0
   -4.6129    0.8315    0.0000 C   0  0  0  0  0  0
   -5.9832    0.2214    0.0000 N   0  0  0  0  0  0
  -10.2510   -3.1007    0.0000 C   0  0  0  0  0  0
  -10.0942   -1.6089    0.0000 C   0  0  0  0  0  0
  -11.6213   -3.7108    0.0000 C   0  0  0  0  0  0
   -9.5078   -8.4577    0.0000 C   0  0  0  0  0  0
  -10.7213   -7.5761    0.0000 C   0  0  0  0  0  0
   -9.6646   -9.9495    0.0000 C   0  0  0  0  0  0
   -3.0000   -5.1962    0.0000 O   0  0  0  0  0  0
   -1.5000   -5.1962    0.0000 C   0  0  0  0  0  0
   -0.7500   -3.8971    0.0000 C   0  0  0  0  0  0
    0.7500   -3.8971    0.0000 C   0  0  0  0  0  0
    1.5000   -2.5981    0.0000 C   0  0  0  0  0  0
    0.7500   -1.2990    0.0000 C   0  0  0  0  0  0
    1.5000    0.0000    0.0000 C   0  0  0  0  0  0
    0.7500    1.2990    0.0000 C   0  0  0  0  0  0
   -0.7500    1.2990    0.0000 C   0  0  0  0  0  0
   -1.5000    0.0000    0.0000 C   0  0  0  0  0  0
   -0.7500   -1.2990    0.0000 C   0  0  0  0  0  0
   -1.5000   -2.5981    0.0000 C   0  0  0  0  0  0
   -3.7842  -13.3446    0.0000 C   0  0  0  0  0  0
   -3.6274  -14.8363    0.0000 O   0  0  0  0  0  0
  1  2  1  0  0  0
  2  3  1  0  0  0
  3  4  1  0  0  0
  3 46  1  1  0  0
  4  5  1  0  0  0
  5  6  2  0  0  0
  5  7  1  0  0  0
  7  8  1  0  0  0
  7 11  1  1  0  0
  8  9  1  0  0  0
  9 10  1  0  0  0
  9 34  1  6  0  0
 10 11  1  0  0  0
 11 12  1  0  0  0
 12 13  2  0  0  0
 12 14  1  0  0  0
 14 15  1  0  0  0
 14 31  1  6  0  0
 15 16  1  0  0  0
 16 17  2  0  0  0
 16 18  1  0  0  0
 18 19  1  0  0  0
 18 28  1  6  0  0
 19 20  1  0  0  0
 20 21  2  0  0  0
 20 22  1  0  0  0
 22 23  2  0  0  0
 22 27  1  0  0  0
 23 24  1  0  0  0
 24 25  2  0  0  0
 25 26  1  0  0  0
 26 27  2  0  0  0
 28 29  1  0  0  0
 28 30  1  0  0  0
 31 32  1  0  0  0
 31 33  1  0  0  0
 34 35  1  0  0  0
 35 36  1  0  0  0
 36 37  2  0  0  0
 36 45  1  0  0  0
 37 38  1  0  0  0
 38 39  2  0  0  0
 39 40  1  0  0  0
 39 44  1  0  0  0
 40 41  2  0  0  0
 41 42  1  0  0  0
 42 43  2  0  0  0
 43 44  1  0  0  0
 44 45  2  0  0  0
 46 47  2  0  0  0
M  END
> <s_m_entry_id>
6584

> <s_m_entry_name>
NS3-4A.125

> <CHEMBLID>
CHEMBL335769

> <s_m_Source_Path>
/home/liwei/Desktop/Machine/HCV/Active

> <s_m_Source_File>
NS3-4A.sdf

> <i_m_Source_File_Index>
125

$$$$
CHEMBL338447
                    3D
 Structure written by MMmdl.
 43 45  0  0  1  0            999 V2000
    8.9985    2.5266    0.0000 C   0  0  0  0  0  0
    9.4620    1.1000    0.0000 C   0  0  0  0  0  0
    8.4583   -0.0147    0.0000 C   0  0  2  0  0  0
    8.9218   -1.4413    0.0000 N   0  0  0  0  0  0
    7.9182   -2.5560    0.0000 C   0  0  0  0  0  0
    6.4509   -2.2442    0.0000 O   0  0  0  0  0  0
    8.3817   -3.9826    0.0000 C   0  0  2  0  0  0
    9.8083   -4.4462    0.0000 C   0  0  0  0  0  0
    9.8083   -5.9462    0.0000 C   0  0  2  0  0  0
    8.3817   -6.4097    0.0000 C   0  0  0  0  0  0
    7.5000   -5.1962    0.0000 N   0  0  0  0  0  0
    6.0000   -5.1962    0.0000 C   0  0  0  0  0  0
    5.2500   -3.8971    0.0000 O   0  0  0  0  0  0
    5.2500   -6.4952    0.0000 C   0  0  1  0  0  0
    3.7500   -6.4952    0.0000 N   0  0  0  0  0  0
    3.0000   -5.1962    0.0000 C   0  0  0  0  0  0
    3.7500   -3.8971    0.0000 O   0  0  0  0  0  0
    1.5000   -5.1962    0.0000 C   0  0  1  0  0  0
    0.7500   -3.8971    0.0000 N   0  0  0  0  0  0
    1.5000   -2.5981    0.0000 C   0  0  0  0  0  0
    3.0000   -2.5981    0.0000 O   0  0  0  0  0  0
    0.7500   -1.2990    0.0000 C   0  0  0  0  0  0
    1.5000   -0.0000    0.0000 C   0  0  0  0  0  0
    0.7500    1.2990    0.0000 N   0  0  0  0  0  0
   -0.7500    1.2990    0.0000 C   0  0  0  0  0  0
   -1.5000    0.0000    0.0000 C   0  0  0  0  0  0
   -0.7500   -1.2990    0.0000 N   0  0  0  0  0  0
    0.7500   -6.4952    0.0000 C   0  0  0  0  0  0
    1.5000   -7.7942    0.0000 C   0  0  0  0  0  0
   -0.7500   -6.4952    0.0000 C   0  0  0  0  0  0
    6.0000   -7.7942    0.0000 C   0  0  0  0  0  0
    7.5000   -7.7942    0.0000 C   0  0  0  0  0  0
    5.2500   -9.0933    0.0000 C   0  0  0  0  0  0
   11.0218   -6.8278    0.0000 O   0  0  0  0  0  0
   12.3921   -6.2177    0.0000 C   0  0  0  0  0  0
   13.6056   -7.0994    0.0000 C   0  0  0  0  0  0
   14.9760   -6.4893    0.0000 C   0  0  0  0  0  0
   16.1895   -7.3710    0.0000 C   0  0  0  0  0  0
   16.0327   -8.8628    0.0000 C   0  0  0  0  0  0
   14.6624   -9.4729    0.0000 C   0  0  0  0  0  0
   13.4488   -8.5912    0.0000 C   0  0  0  0  0  0
    6.9911    0.2971    0.0000 C   0  0  0  0  0  0
    6.5276    1.7237    0.0000 O   0  0  0  0  0  0
  1  2  1  0  0  0
  2  3  1  0  0  0
  3  4  1  0  0  0
  3 42  1  1  0  0
  4  5  1  0  0  0
  5  6  2  0  0  0
  5  7  1  0  0  0
  7  8  1  0  0  0
  7 11  1  1  0  0
  8  9  1  0  0  0
  9 10  1  0  0  0
  9 34  1  6  0  0
 10 11  1  0  0  0
 11 12  1  0  0  0
 12 13  2  0  0  0
 12 14  1  0  0  0
 14 15  1  0  0  0
 14 31  1  6  0  0
 15 16  1  0  0  0
 16 17  2  0  0  0
 16 18  1  0  0  0
 18 19  1  0  0  0
 18 28  1  6  0  0
 19 20  1  0  0  0
 20 21  2  0  0  0
 20 22  1  0  0  0
 22 23  2  0  0  0
 22 27  1  0  0  0
 23 24  1  0  0  0
 24 25  2  0  0  0
 25 26  1  0  0  0
 26 27  2  0  0  0
 28 29  1  0  0  0
 28 30  1  0  0  0
 31 32  1  0  0  0
 31 33  1  0  0  0
 34 35  1  0  0  0
 35 36  1  0  0  0
 36 37  2  0  0  0
 36 41  1  0  0  0
 37 38  1  0  0  0
 38 39  2  0  0  0
 39 40  1  0  0  0
 40 41  2  0  0  0
 42 43  2  0  0  0
M  END
> <s_m_entry_id>
6585

> <s_m_entry_name>
NS3-4A.126

> <CHEMBLID>
CHEMBL338447

> <s_m_Source_Path>
/home/liwei/Desktop/Machine/HCV/Active

> <s_m_Source_File>
NS3-4A.sdf

> <i_m_Source_File_Index>
126

$$$$
CHEMBL339012
                    3D
 Structure written by MMmdl.
 46 48  0  0  1  0            999 V2000
    1.5000   -2.5981    0.0000 C   0  0  0  0  0  0
    0.7500   -3.8971    0.0000 C   0  0  0  0  0  0
   -0.7500   -3.8971    0.0000 C   0  0  0  0  0  0
    1.5000   -5.1962    0.0000 C   0  0  2  0  0  0
    0.7500   -6.4952    0.0000 N   0  0  0  0  0  0
    1.5000   -7.7942    0.0000 C   0  0  0  0  0  0
    3.0000   -7.7942    0.0000 O   0  0  0  0  0  0
    0.7500   -9.0933    0.0000 C   0  0  0  0  0  0
    1.5000  -10.3923    0.0000 C   0  0  0  0  0  0
    0.7500  -11.6913    0.0000 N   0  0  0  0  0  0
   -0.7500  -11.6913    0.0000 C   0  0  0  0  0  0
   -1.5000  -10.3923    0.0000 C   0  0  0  0  0  0
   -0.7500   -9.0933    0.0000 N   0  0  0  0  0  0
    3.0000   -5.1962    0.0000 C   0  0  0  0  0  0
    3.7500   -6.4952    0.0000 O   0  0  0  0  0  0
    3.7500   -3.8971    0.0000 N   0  0  0  0  0  0
    5.2500   -3.8971    0.0000 C   0  0  1  0  0  0
    6.0000   -2.5981    0.0000 C   0  0  0  0  0  0
    7.5000   -2.5981    0.0000 C   0  0  0  0  0  0
    5.2500   -1.2990    0.0000 C   0  0  0  0  0  0
    6.0000   -5.1962    0.0000 C   0  0  0  0  0  0
    5.2500   -6.4952    0.0000 O   0  0  0  0  0  0
    7.5000   -5.1962    0.0000 N   0  0  0  0  0  0
    8.3817   -3.9826    0.0000 C   0  0  0  0  0  0
    9.8083   -4.4462    0.0000 C   0  0  1  0  0  0
    9.8083   -5.9462    0.0000 C   0  0  0  0  0  0
    8.3817   -6.4097    0.0000 C   0  0  1  0  0  0
    7.9182   -7.8363    0.0000 C   0  0  0  0  0  0
    6.4509   -8.1481    0.0000 O   0  0  0  0  0  0
    8.9218   -8.9510    0.0000 N   0  0  0  0  0  0
    8.4583  -10.3776    0.0000 C   0  0  3  0  0  0
    9.4620  -11.4923    0.0000 C   0  0  0  0  0  0
    8.9985  -12.9189    0.0000 C   0  0  0  0  0  0
    8.5350  -14.3455    0.0000 F   0  0  0  0  0  0
   10.4251  -13.3824    0.0000 F   0  0  0  0  0  0
    7.5719  -12.4553    0.0000 F   0  0  0  0  0  0
    6.9911  -10.6894    0.0000 C   0  0  0  0  0  0
    6.5276  -12.1160    0.0000 O   0  0  0  0  0  0
   11.0218   -3.5645    0.0000 O   0  0  0  0  0  0
   12.3921   -4.1746    0.0000 C   0  0  0  0  0  0
   13.6056   -3.2929    0.0000 C   0  0  0  0  0  0
   14.9760   -3.9030    0.0000 C   0  0  0  0  0  0
   16.1895   -3.0213    0.0000 C   0  0  0  0  0  0
   16.0327   -1.5295    0.0000 C   0  0  0  0  0  0
   14.6624   -0.9194    0.0000 C   0  0  0  0  0  0
   13.4488   -1.8011    0.0000 C   0  0  0  0  0  0
  1  2  1  0  0  0
  2  3  1  0  0  0
  2  4  1  0  0  0
  4  5  1  0  0  0
  4 14  1  1  0  0
  5  6  1  0  0  0
  6  7  2  0  0  0
  6  8  1  0  0  0
  8  9  2  0  0  0
  8 13  1  0  0  0
  9 10  1  0  0  0
 10 11  2  0  0  0
 11 12  1  0  0  0
 12 13  2  0  0  0
 14 15  2  0  0  0
 14 16  1  0  0  0
 16 17  1  0  0  0
 17 18  1  0  0  0
 17 21  1  6  0  0
 18 19  1  0  0  0
 18 20  1  0  0  0
 21 22  2  0  0  0
 21 23  1  0  0  0
 23 24  1  0  0  0
 23 27  1  0  0  0
 24 25  1  0  0  0
 25 26  1  0  0  0
 25 39  1  1  0  0
 26 27  1  0  0  0
 27 28  1  6  0  0
 28 29  2  0  0  0
 28 30  1  0  0  0
 30 31  1  0  0  0
 31 32  1  0  0  0
 31 37  1  0  0  0
 32 33  1  0  0  0
 33 34  1  0  0  0
 33 35  1  0  0  0
 33 36  1  0  0  0
 37 38  2  0  0  0
 39 40  1  0  0  0
 40 41  1  0  0  0
 41 42  2  0  0  0
 41 46  1  0  0  0
 42 43  1  0  0  0
 43 44  2  0  0  0
 44 45  1  0  0  0
 45 46  2  0  0  0
M  END
> <s_m_entry_id>
6586

> <s_m_entry_name>
NS3-4A.127

> <CHEMBLID>
CHEMBL339012

> <s_m_Source_Path>
/home/liwei/Desktop/Machine/HCV/Active

> <s_m_Source_File>
NS3-4A.sdf

> <i_m_Source_File_Index>
127

$$$$
CHEMBL339075
                    3D
 Structure written by MMmdl.
 46 49  0  0  1  0            999 V2000
   -6.2113  -12.5098    0.0000 C   0  0  0  0  0  0
   -6.3681  -11.0180    0.0000 C   0  0  0  0  0  0
   -5.1546  -10.1364    0.0000 C   0  0  2  0  0  0
   -5.3113   -8.6446    0.0000 N   0  0  0  0  0  0
   -4.0978   -7.7629    0.0000 C   0  0  0  0  0  0
   -2.7275   -8.3730    0.0000 O   0  0  0  0  0  0
   -4.2546   -6.2711    0.0000 C   0  0  2  0  0  0
   -3.1399   -5.2674    0.0000 C   0  0  0  0  0  0
   -3.7500   -3.8971    0.0000 C   0  0  2  0  0  0
   -5.2418   -4.0539    0.0000 C   0  0  0  0  0  0
   -5.5537   -5.5211    0.0000 N   0  0  0  0  0  0
   -6.9240   -6.1312    0.0000 C   0  0  0  0  0  0
   -7.0808   -7.6230    0.0000 O   0  0  0  0  0  0
   -8.1375   -5.2496    0.0000 C   0  0  2  0  0  0
   -7.9807   -3.7578    0.0000 N   0  0  0  0  0  0
   -9.1942   -2.8761    0.0000 C   0  0  0  0  0  0
  -10.5645   -3.4862    0.0000 O   0  0  0  0  0  0
   -9.0374   -1.3843    0.0000 C   0  0  2  0  0  0
   -7.6671   -0.7742    0.0000 N   0  0  0  0  0  0
   -7.5103    0.7176    0.0000 C   0  0  0  0  0  0
   -8.7238    1.5993    0.0000 O   0  0  0  0  0  0
   -6.1400    1.3277    0.0000 C   0  0  0  0  0  0
   -4.9265    0.4460    0.0000 C   0  0  0  0  0  0
   -3.5562    1.0561    0.0000 N   0  0  0  0  0  0
   -3.3994    2.5479    0.0000 C   0  0  0  0  0  0
   -4.6129    3.4296    0.0000 C   0  0  0  0  0  0
   -5.9832    2.8195    0.0000 N   0  0  0  0  0  0
  -10.2510   -0.5026    0.0000 C   0  0  0  0  0  0
  -10.0942    0.9891    0.0000 C   0  0  0  0  0  0
  -11.6213   -1.1127    0.0000 C   0  0  0  0  0  0
   -9.5078   -5.8597    0.0000 C   0  0  0  0  0  0
  -10.7213   -4.9780    0.0000 C   0  0  0  0  0  0
   -9.6646   -7.3514    0.0000 C   0  0  0  0  0  0
   -3.0000   -2.5981    0.0000 O   0  0  0  0  0  0
   -1.5000   -2.5981    0.0000 C   0  0  0  0  0  0
   -0.7500   -3.8971    0.0000 C   0  0  0  0  0  0
    0.7500   -3.8971    0.0000 C   0  0  0  0  0  0
    1.5000   -2.5981    0.0000 C   0  0  0  0  0  0
    0.7500   -1.2990    0.0000 C   0  0  0  0  0  0
    1.5000    0.0000    0.0000 C   0  0  0  0  0  0
    0.7500    1.2990    0.0000 C   0  0  0  0  0  0
   -0.7500    1.2990    0.0000 C   0  0  0  0  0  0
   -1.5000    0.0000    0.0000 C   0  0  0  0  0  0
   -0.7500   -1.2990    0.0000 C   0  0  0  0  0  0
   -3.7842  -10.7465    0.0000 C   0  0  0  0  0  0
   -3.6274  -12.2383    0.0000 O   0  0  0  0  0  0
  1  2  1  0  0  0
  2  3  1  0  0  0
  3  4  1  0  0  0
  3 45  1  1  0  0
  4  5  1  0  0  0
  5  6  2  0  0  0
  5  7  1  0  0  0
  7  8  1  0  0  0
  7 11  1  1  0  0
  8  9  1  0  0  0
  9 10  1  0  0  0
  9 34  1  6  0  0
 10 11  1  0  0  0
 11 12  1  0  0  0
 12 13  2  0  0  0
 12 14  1  0  0  0
 14 15  1  0  0  0
 14 31  1  6  0  0
 15 16  1  0  0  0
 16 17  2  0  0  0
 16 18  1  0  0  0
 18 19  1  0  0  0
 18 28  1  6  0  0
 19 20  1  0  0  0
 20 21  2  0  0  0
 20 22  1  0  0  0
 22 23  2  0  0  0
 22 27  1  0  0  0
 23 24  1  0  0  0
 24 25  2  0  0  0
 25 26  1  0  0  0
 26 27  2  0  0  0
 28 29  1  0  0  0
 28 30  1  0  0  0
 31 32  1  0  0  0
 31 33  1  0  0  0
 34 35  1  0  0  0
 35 36  2  0  0  0
 35 44  1  0  0  0
 36 37  1  0  0  0
 37 38  2  0  0  0
 38 39  1  0  0  0
 39 40  2  0  0  0
 39 44  1  0  0  0
 40 41  1  0  0  0
 41 42  2  0  0  0
 42 43  1  0  0  0
 43 44  2  0  0  0
 45 46  2  0  0  0
M  END
> <s_m_entry_id>
6587

> <s_m_entry_name>
NS3-4A.128

> <CHEMBLID>
CHEMBL339075

> <s_m_Source_Path>
/home/liwei/Desktop/Machine/HCV/Active

> <s_m_Source_File>
NS3-4A.sdf

> <i_m_Source_File_Index>
128

$$$$
CHEMBL339495
                    3D
 Structure written by MMmdl.
 44 46  0  0  1  0            999 V2000
    8.9985  -12.9189    0.0000 C   0  0  0  0  0  0
    9.4620  -11.4923    0.0000 C   0  0  0  0  0  0
    8.4583  -10.3776    0.0000 C   0  0  2  0  0  0
    8.9218   -8.9510    0.0000 N   0  0  0  0  0  0
    7.9182   -7.8363    0.0000 C   0  0  0  0  0  0
    6.4509   -8.1481    0.0000 O   0  0  0  0  0  0
    8.3817   -6.4097    0.0000 C   0  0  2  0  0  0
    9.8083   -5.9462    0.0000 C   0  0  0  0  0  0
    9.8083   -4.4462    0.0000 C   0  0  2  0  0  0
    8.3817   -3.9826    0.0000 C   0  0  0  0  0  0
    7.5000   -5.1962    0.0000 N   0  0  0  0  0  0
    6.0000   -5.1962    0.0000 C   0  0  0  0  0  0
    5.2500   -6.4952    0.0000 O   0  0  0  0  0  0
    5.2500   -3.8971    0.0000 C   0  0  2  0  0  0
    3.7500   -3.8971    0.0000 N   0  0  0  0  0  0
    3.0000   -5.1962    0.0000 C   0  0  0  0  0  0
    3.7500   -6.4952    0.0000 O   0  0  0  0  0  0
    1.5000   -5.1962    0.0000 C   0  0  2  0  0  0
    0.7500   -6.4952    0.0000 N   0  0  0  0  0  0
    1.5000   -7.7942    0.0000 C   0  0  0  0  0  0
    3.0000   -7.7942    0.0000 O   0  0  0  0  0  0
    0.7500   -9.0933    0.0000 C   0  0  0  0  0  0
    1.5000  -10.3923    0.0000 C   0  0  0  0  0  0
    0.7500  -11.6913    0.0000 N   0  0  0  0  0  0
   -0.7500  -11.6913    0.0000 C   0  0  0  0  0  0
   -1.5000  -10.3923    0.0000 C   0  0  0  0  0  0
   -0.7500   -9.0933    0.0000 N   0  0  0  0  0  0
    0.7500   -3.8971    0.0000 C   0  0  0  0  0  0
    1.5000   -2.5981    0.0000 C   0  0  0  0  0  0
   -0.7500   -3.8971    0.0000 C   0  0  0  0  0  0
    6.0000   -2.5981    0.0000 C   0  0  0  0  0  0
    7.5000   -2.5981    0.0000 C   0  0  0  0  0  0
    5.2500   -1.2990    0.0000 C   0  0  0  0  0  0
   11.0218   -3.5645    0.0000 O   0  0  0  0  0  0
   12.3921   -4.1746    0.0000 C   0  0  0  0  0  0
   12.5489   -5.6664    0.0000 O   0  0  0  0  0  0
   13.6056   -3.2929    0.0000 C   0  0  0  0  0  0
   14.9760   -3.9030    0.0000 C   0  0  0  0  0  0
   16.1895   -3.0213    0.0000 C   0  0  0  0  0  0
   16.0327   -1.5295    0.0000 C   0  0  0  0  0  0
   14.6624   -0.9194    0.0000 C   0  0  0  0  0  0
   13.4488   -1.8011    0.0000 C   0  0  0  0  0  0
    6.9911  -10.6894    0.0000 C   0  0  0  0  0  0
    6.5276  -12.1160    0.0000 O   0  0  0  0  0  0
  1  2  1  0  0  0
  2  3  1  0  0  0
  3  4  1  0  0  0
  3 43  1  1  0  0
  4  5  1  0  0  0
  5  6  2  0  0  0
  5  7  1  0  0  0
  7  8  1  0  0  0
  7 11  1  1  0  0
  8  9  1  0  0  0
  9 10  1  0  0  0
  9 34  1  6  0  0
 10 11  1  0  0  0
 11 12  1  0  0  0
 12 13  2  0  0  0
 12 14  1  0  0  0
 14 15  1  0  0  0
 14 31  1  6  0  0
 15 16  1  0  0  0
 16 17  2  0  0  0
 16 18  1  0  0  0
 18 19  1  0  0  0
 18 28  1  6  0  0
 19 20  1  0  0  0
 20 21  2  0  0  0
 20 22  1  0  0  0
 22 23  2  0  0  0
 22 27  1  0  0  0
 23 24  1  0  0  0
 24 25  2  0  0  0
 25 26  1  0  0  0
 26 27  2  0  0  0
 28 29  1  0  0  0
 28 30  1  0  0  0
 31 32  1  0  0  0
 31 33  1  0  0  0
 34 35  1  0  0  0
 35 36  2  0  0  0
 35 37  1  0  0  0
 37 38  2  0  0  0
 37 42  1  0  0  0
 38 39  1  0  0  0
 39 40  2  0  0  0
 40 41  1  0  0  0
 41 42  2  0  0  0
 43 44  2  0  0  0
M  END
> <s_m_entry_id>
6588

> <s_m_entry_name>
NS3-4A.129

> <CHEMBLID>
CHEMBL339495

> <s_m_Source_Path>
/home/liwei/Desktop/Machine/HCV/Active

> <s_m_Source_File>
NS3-4A.sdf

> <i_m_Source_File_Index>
129

$$$$
CHEMBL340774
                    3D
 Structure written by MMmdl.
 49 51  0  0  1  0            999 V2000
    8.9985  -12.9189    0.0000 C   0  0  0  0  0  0
    9.4620  -11.4923    0.0000 C   0  0  0  0  0  0
    8.4583  -10.3776    0.0000 C   0  0  2  0  0  0
    8.9218   -8.9510    0.0000 N   0  0  0  0  0  0
    7.9182   -7.8363    0.0000 C   0  0  0  0  0  0
    6.4509   -8.1481    0.0000 O   0  0  0  0  0  0
    8.3817   -6.4097    0.0000 C   0  0  2  0  0  0
    9.8083   -5.9462    0.0000 C   0  0  0  0  0  0
    9.8083   -4.4462    0.0000 C   0  0  2  0  0  0
    8.3817   -3.9826    0.0000 C   0  0  0  0  0  0
    7.5000   -5.1962    0.0000 N   0  0  0  0  0  0
    6.0000   -5.1962    0.0000 C   0  0  0  0  0  0
    5.2500   -6.4952    0.0000 O   0  0  0  0  0  0
    5.2500   -3.8971    0.0000 C   0  0  2  0  0  0
    3.7500   -3.8971    0.0000 N   0  0  0  0  0  0
    3.0000   -5.1962    0.0000 C   0  0  0  0  0  0
    3.7500   -6.4952    0.0000 O   0  0  0  0  0  0
    1.5000   -5.1962    0.0000 C   0  0  2  0  0  0
    0.7500   -6.4952    0.0000 N   0  0  0  0  0  0
    1.5000   -7.7942    0.0000 C   0  0  0  0  0  0
    3.0000   -7.7942    0.0000 O   0  0  0  0  0  0
    0.7500   -9.0933    0.0000 C   0  0  0  0  0  0
    1.5000  -10.3923    0.0000 C   0  0  0  0  0  0
    0.7500  -11.6913    0.0000 N   0  0  0  0  0  0
   -0.7500  -11.6913    0.0000 C   0  0  0  0  0  0
   -1.5000  -10.3923    0.0000 C   0  0  0  0  0  0
   -0.7500   -9.0933    0.0000 N   0  0  0  0  0  0
    0.7500   -3.8971    0.0000 C   0  0  0  0  0  0
    1.5000   -2.5981    0.0000 C   0  0  0  0  0  0
   -0.7500   -3.8971    0.0000 C   0  0  0  0  0  0
    6.0000   -2.5981    0.0000 C   0  0  0  0  0  0
    7.5000   -2.5981    0.0000 C   0  0  0  0  0  0
    5.2500   -1.2990    0.0000 C   0  0  0  0  0  0
   11.0218   -3.5645    0.0000 O   0  0  0  0  0  0
   12.3921   -4.1746    0.0000 C   0  0  0  0  0  0
   12.5489   -5.6664    0.0000 O   0  0  0  0  0  0
   13.6056   -3.2929    0.0000 N   0  0  0  0  0  0
   14.9760   -3.9030    0.0000 C   0  0  0  0  0  0
   15.1327   -5.3948    0.0000 C   0  0  0  0  0  0
   16.5031   -6.0049    0.0000 C   0  0  0  0  0  0
   16.6599   -7.4967    0.0000 O   0  0  0  0  0  0
   15.4463   -8.3784    0.0000 C   0  0  0  0  0  0
   17.7166   -5.1232    0.0000 C   0  0  0  0  0  0
   17.5598   -3.6314    0.0000 C   0  0  0  0  0  0
   16.1895   -3.0213    0.0000 C   0  0  0  0  0  0
   16.0327   -1.5295    0.0000 O   0  0  0  0  0  0
   17.2462   -0.6479    0.0000 C   0  0  0  0  0  0
    6.9911  -10.6894    0.0000 C   0  0  0  0  0  0
    6.5276  -12.1160    0.0000 O   0  0  0  0  0  0
  1  2  1  0  0  0
  2  3  1  0  0  0
  3  4  1  0  0  0
  3 48  1  1  0  0
  4  5  1  0  0  0
  5  6  2  0  0  0
  5  7  1  0  0  0
  7  8  1  0  0  0
  7 11  1  1  0  0
  8  9  1  0  0  0
  9 10  1  0  0  0
  9 34  1  6  0  0
 10 11  1  0  0  0
 11 12  1  0  0  0
 12 13  2  0  0  0
 12 14  1  0  0  0
 14 15  1  0  0  0
 14 31  1  6  0  0
 15 16  1  0  0  0
 16 17  2  0  0  0
 16 18  1  0  0  0
 18 19  1  0  0  0
 18 28  1  6  0  0
 19 20  1  0  0  0
 20 21  2  0  0  0
 20 22  1  0  0  0
 22 23  2  0  0  0
 22 27  1  0  0  0
 23 24  1  0  0  0
 24 25  2  0  0  0
 25 26  1  0  0  0
 26 27  2  0  0  0
 28 29  1  0  0  0
 28 30  1  0  0  0
 31 32  1  0  0  0
 31 33  1  0  0  0
 34 35  1  0  0  0
 35 36  2  0  0  0
 35 37  1  0  0  0
 37 38  1  0  0  0
 38 39  2  0  0  0
 38 45  1  0  0  0
 39 40  1  0  0  0
 40 41  1  0  0  0
 40 43  2  0  0  0
 41 42  1  0  0  0
 43 44  1  0  0  0
 44 45  2  0  0  0
 45 46  1  0  0  0
 46 47  1  0  0  0
 48 49  2  0  0  0
M  END
> <s_m_entry_id>
6589

> <s_m_entry_name>
NS3-4A.130

> <CHEMBLID>
CHEMBL340774

> <s_m_Source_Path>
/home/liwei/Desktop/Machine/HCV/Active

> <s_m_Source_File>
NS3-4A.sdf

> <i_m_Source_File_Index>
130

$$$$
CHEMBL340890
                    3D
 Structure written by MMmdl.
 48 51  0  0  1  0            999 V2000
   -6.2113  -15.1079    0.0000 C   0  0  0  0  0  0
   -6.3681  -13.6161    0.0000 C   0  0  0  0  0  0
   -5.1546  -12.7344    0.0000 C   0  0  2  0  0  0
   -5.3113  -11.2427    0.0000 N   0  0  0  0  0  0
   -4.0978  -10.3610    0.0000 C   0  0  0  0  0  0
   -2.7275  -10.9711    0.0000 O   0  0  0  0  0  0
   -4.2546   -8.8692    0.0000 C   0  0  2  0  0  0
   -3.1399   -7.8655    0.0000 C   0  0  0  0  0  0
   -3.7500   -6.4952    0.0000 C   0  0  2  0  0  0
   -5.2418   -6.6520    0.0000 C   0  0  0  0  0  0
   -5.5537   -8.1192    0.0000 N   0  0  0  0  0  0
   -6.9240   -8.7293    0.0000 C   0  0  0  0  0  0
   -7.0808  -10.2211    0.0000 O   0  0  0  0  0  0
   -8.1375   -7.8476    0.0000 C   0  0  2  0  0  0
   -7.9807   -6.3558    0.0000 N   0  0  0  0  0  0
   -9.1942   -5.4742    0.0000 C   0  0  0  0  0  0
  -10.5645   -6.0843    0.0000 O   0  0  0  0  0  0
   -9.0374   -3.9824    0.0000 C   0  0  2  0  0  0
   -7.6671   -3.3723    0.0000 N   0  0  0  0  0  0
   -7.5103   -1.8805    0.0000 C   0  0  0  0  0  0
   -8.7238   -0.9988    0.0000 O   0  0  0  0  0  0
   -6.1400   -1.2704    0.0000 C   0  0  0  0  0  0
   -4.9265   -2.1521    0.0000 C   0  0  0  0  0  0
   -3.5562   -1.5420    0.0000 N   0  0  0  0  0  0
   -3.3994   -0.0502    0.0000 C   0  0  0  0  0  0
   -4.6129    0.8315    0.0000 C   0  0  0  0  0  0
   -5.9832    0.2214    0.0000 N   0  0  0  0  0  0
  -10.2510   -3.1007    0.0000 C   0  0  0  0  0  0
  -10.0942   -1.6089    0.0000 C   0  0  0  0  0  0
  -11.6213   -3.7108    0.0000 C   0  0  0  0  0  0
   -9.5078   -8.4577    0.0000 C   0  0  0  0  0  0
  -10.7213   -7.5761    0.0000 C   0  0  0  0  0  0
   -9.6646   -9.9495    0.0000 C   0  0  0  0  0  0
   -3.0000   -5.1962    0.0000 O   0  0  0  0  0  0
   -1.5000   -5.1962    0.0000 C   0  0  0  0  0  0
   -0.7500   -6.4952    0.0000 O   0  0  0  0  0  0
   -0.7500   -3.8971    0.0000 C   0  0  0  0  0  0
    0.7500   -3.8971    0.0000 C   0  0  0  0  0  0
    1.5000   -2.5981    0.0000 C   0  0  0  0  0  0
    0.7500   -1.2990    0.0000 C   0  0  0  0  0  0
    1.5000    0.0000    0.0000 C   0  0  0  0  0  0
    0.7500    1.2990    0.0000 C   0  0  0  0  0  0
   -0.7500    1.2990    0.0000 C   0  0  0  0  0  0
   -1.5000    0.0000    0.0000 C   0  0  0  0  0  0
   -0.7500   -1.2990    0.0000 C   0  0  0  0  0  0
   -1.5000   -2.5981    0.0000 C   0  0  0  0  0  0
   -3.7842  -13.3446    0.0000 C   0  0  0  0  0  0
   -3.6274  -14.8363    0.0000 O   0  0  0  0  0  0
  1  2  1  0  0  0
  2  3  1  0  0  0
  3  4  1  0  0  0
  3 47  1  1  0  0
  4  5  1  0  0  0
  5  6  2  0  0  0
  5  7  1  0  0  0
  7  8  1  0  0  0
  7 11  1  1  0  0
  8  9  1  0  0  0
  9 10  1  0  0  0
  9 34  1  6  0  0
 10 11  1  0  0  0
 11 12  1  0  0  0
 12 13  2  0  0  0
 12 14  1  0  0  0
 14 15  1  0  0  0
 14 31  1  6  0  0
 15 16  1  0  0  0
 16 17  2  0  0  0
 16 18  1  0  0  0
 18 19  1  0  0  0
 18 28  1  6  0  0
 19 20  1  0  0  0
 20 21  2  0  0  0
 20 22  1  0  0  0
 22 23  2  0  0  0
 22 27  1  0  0  0
 23 24  1  0  0  0
 24 25  2  0  0  0
 25 26  1  0  0  0
 26 27  2  0  0  0
 28 29  1  0  0  0
 28 30  1  0  0  0
 31 32  1  0  0  0
 31 33  1  0  0  0
 34 35  1  0  0  0
 35 36  2  0  0  0
 35 37  1  0  0  0
 37 38  2  0  0  0
 37 46  1  0  0  0
 38 39  1  0  0  0
 39 40  2  0  0  0
 40 41  1  0  0  0
 40 45  1  0  0  0
 41 42  2  0  0  0
 42 43  1  0  0  0
 43 44  2  0  0  0
 44 45  1  0  0  0
 45 46  2  0  0  0
 47 48  2  0  0  0
M  END
> <s_m_entry_id>
6590

> <s_m_entry_name>
NS3-4A.131

> <CHEMBLID>
CHEMBL340890

> <s_m_Source_Path>
/home/liwei/Desktop/Machine/HCV/Active

> <s_m_Source_File>
NS3-4A.sdf

> <i_m_Source_File_Index>
131

$$$$
CHEMBL348944
                    3D
 Structure written by MMmdl.
 40 40  0  0  1  0            999 V2000
    9.9250   -5.2000    0.0000 C   0  0  0  0  0  0
    5.6167   -5.2000    0.0000 C   0  0  0  0  0  0
    9.2042   -4.7875    0.0000 C   0  0  1  0  0  0
    7.7667   -4.7875    0.0000 C   0  0  0  0  0  0
    8.4875   -5.2000    0.0000 N   0  0  0  0  0  0
    6.3375   -4.7875    0.0000 N   0  0  0  0  0  0
    4.1792   -6.0167    0.0000 C   0  0  0  0  0  0
    9.9292   -6.0250    0.0000 C   0  0  0  0  0  0
    9.2042   -3.9542    0.0000 C   0  0  0  0  0  0
    4.9000   -4.7875    0.0000 C   0  0  1  0  0  0
    7.0542   -5.2000    0.0000 C   0  0  1  0  0  0
    4.1792   -5.2000    0.0000 N   0  0  0  0  0  0
    2.0167   -8.8917    0.0000 C   0  0  0  0  0  0
    2.7292   -8.4792    0.0000 C   0  0  0  0  0  0
   10.6417   -4.7792    0.0000 O   0  0  0  0  0  0
    5.6167   -6.0250    0.0000 O   0  0  0  0  0  0
    7.7667   -3.9542    0.0000 O   0  0  0  0  0  0
    9.9250   -3.5375    0.0000 C   0  0  0  0  0  0
    3.4625   -6.4292    0.0000 O   0  0  0  0  0  0
   10.6417   -6.4292    0.0000 O   0  0  0  0  0  0
    1.3042   -8.4792    0.0000 O   0  0  0  0  0  0
    4.8875   -6.4375    0.0000 O   0  0  0  0  0  0
    7.0542   -6.0250    0.0000 C   0  0  0  0  0  0
    2.7375   -7.6542    0.0000 C   0  0  0  0  0  0
    3.4500   -8.9000    0.0000 C   0  0  0  0  0  0
    4.9000   -3.9542    0.0000 C   0  0  3  0  0  0
    9.2125   -6.4375    0.0000 O   0  0  0  0  0  0
    2.0042   -9.7167    0.0000 O   0  0  0  0  0  0
    4.1667   -7.6667    0.0000 C   0  0  0  0  0  0
   10.6417   -3.9542    0.0000 F   0  0  0  0  0  0
    9.9250   -2.7125    0.0000 F   0  0  0  0  0  0
    4.8792   -7.2625    0.0000 C   0  0  0  0  0  0
    3.4542   -7.2500    0.0000 C   0  0  0  0  0  0
    4.1625   -8.4917    0.0000 C   0  0  0  0  0  0
    7.7667   -6.4417    0.0000 C   0  0  0  0  0  0
    5.6167   -3.5375    0.0000 C   0  0  0  0  0  0
    4.1792   -3.5375    0.0000 C   0  0  0  0  0  0
    8.4875   -6.0250    0.0000 C   0  0  0  0  0  0
    7.7667   -7.2750    0.0000 C   0  0  0  0  0  0
    5.6167   -2.7125    0.0000 C   0  0  0  0  0  0
  1  3  1  0  0  0
  1  8  1  0  0  0
  1 15  2  0  0  0
  2  6  1  0  0  0
  2 10  1  0  0  0
  2 16  2  0  0  0
  3  5  1  0  0  0
  3  9  1  6  0  0
  4  5  1  0  0  0
  4 11  1  0  0  0
  4 17  2  0  0  0
  6 11  1  0  0  0
  7 12  1  0  0  0
  7 19  2  0  0  0
  7 22  1  0  0  0
  8 20  2  0  0  0
  8 27  1  0  0  0
  9 18  1  0  0  0
 10 12  1  0  0  0
 10 26  1  6  0  0
 11 23  1  6  0  0
 13 14  1  0  0  0
 13 21  2  0  0  0
 13 28  1  0  0  0
 14 25  1  0  0  0
 14 24  2  0  0  0
 18 30  1  0  0  0
 18 31  1  0  0  0
 22 32  1  0  0  0
 23 35  1  0  0  0
 24 33  1  0  0  0
 25 34  2  0  0  0
 26 36  1  0  0  0
 26 37  1  0  0  0
 29 32  1  0  0  0
 29 33  2  0  0  0
 29 34  1  0  0  0
 35 38  1  0  0  0
 35 39  1  0  0  0
 36 40  1  0  0  0
M  END
> <s_m_entry_id>
6591

> <s_m_entry_name>
NS3-4A.132

> <CHEMBLID>
CHEMBL348944

> <s_m_Source_Path>
/home/liwei/Desktop/Machine/HCV/Active

> <s_m_Source_File>
NS3-4A.sdf

> <i_m_Source_File_Index>
132

> <MOLREGNO>
268790

> <MAX_PHASE>
0

> <MOLWEIGHT>
571.57

> <ALOGP>
3.11

> <PSA>
188.19

> <HBA>
9

> <HBD>
5

> <RO5>
1

> <RTB>
17

> <RO3>
N

> <ACD_MOST_APKA>
2.05

> <ACD_LOGP>
3.1

> <ACD_LOGD>
-1.64

> <AROMATIC_RINGS>
1

> <HEAVY_ATOMS>
40

> <QED_WEIGHTED>
0.18

> <HBA_LIPINSKI>
12

> <HBD_LIPINSKI>
5

> <NUM_LIPINSKI_RO5_VIOLATIONS>
1

> <MW_MONOISOTOPIC>
571.2341

> <MOLECULAR_SPECIES>
ACID

> <FULL_MOLFORMULA>
C26H35F2N3O9

$$$$
CHEMBL349186
                    3D
 Structure written by MMmdl.
 68 70  0  0  1  0            999 V2000
    1.5000    5.1962    0.0000 C   0  0  0  0  0  0
    3.0000    5.1962    0.0000 C   0  0  0  0  0  0
    3.7500    6.4952    0.0000 O   0  0  0  0  0  0
    3.7500    3.8971    0.0000 N   0  0  0  0  0  0
    5.2500    3.8971    0.0000 C   0  0  1  0  0  0
    6.0000    5.1962    0.0000 C   0  0  0  0  0  0
    7.5000    5.1962    0.0000 C   0  0  0  0  0  0
    8.2500    3.8971    0.0000 O   0  0  0  0  0  0
    8.2500    6.4952    0.0000 O   0  0  0  0  0  0
    6.0000    2.5981    0.0000 C   0  0  0  0  0  0
    7.5000    2.5981    0.0000 O   0  0  0  0  0  0
    5.2500    1.2990    0.0000 N   0  0  0  0  0  0
    6.0000   -0.0000    0.0000 C   0  0  1  0  0  0
    7.5000   -0.0000    0.0000 C   0  0  0  0  0  0
    8.2500    1.2990    0.0000 C   0  0  0  0  0  0
    9.7500    1.2990    0.0000 C   0  0  0  0  0  0
   10.5000   -0.0000    0.0000 O   0  0  0  0  0  0
   10.5000    2.5981    0.0000 O   0  0  0  0  0  0
    5.2500   -1.2990    0.0000 C   0  0  0  0  0  0
    6.0000   -2.5981    0.0000 O   0  0  0  0  0  0
    3.7500   -1.2990    0.0000 N   0  0  0  0  0  0
    3.0000   -2.5981    0.0000 C   0  0  1  0  0  0
    1.5000   -2.5981    0.0000 C   0  0  0  0  0  0
    0.7500   -1.2990    0.0000 C   0  0  0  0  0  0
    1.5000    0.0000    0.0000 C   0  0  0  0  0  0
    0.7500    1.2990    0.0000 C   0  0  0  0  0  0
   -0.7500    1.2990    0.0000 C   0  0  0  0  0  0
   -1.5000    0.0000    0.0000 C   0  0  0  0  0  0
   -0.7500   -1.2990    0.0000 C   0  0  0  0  0  0
    0.7500   -3.8971    0.0000 C   0  0  0  0  0  0
   -0.7500   -3.8971    0.0000 C   0  0  0  0  0  0
   -1.5000   -5.1962    0.0000 C   0  0  0  0  0  0
   -0.7500   -6.4952    0.0000 C   0  0  0  0  0  0
    0.7500   -6.4952    0.0000 C   0  0  0  0  0  0
    1.5000   -5.1962    0.0000 C   0  0  0  0  0  0
    3.7500   -3.8971    0.0000 C   0  0  0  0  0  0
    3.0000   -5.1962    0.0000 O   0  0  0  0  0  0
    5.2500   -3.8971    0.0000 N   0  0  0  0  0  0
    6.0000   -5.1962    0.0000 C   0  0  1  0  0  0
    7.5000   -5.1962    0.0000 C   0  0  0  0  0  0
    8.2500   -6.4952    0.0000 C   0  0  0  0  0  0
    9.7500   -6.4952    0.0000 C   0  0  0  0  0  0
   10.5000   -5.1962    0.0000 O   0  0  0  0  0  0
   10.5000   -7.7942    0.0000 O   0  0  0  0  0  0
    5.2500   -6.4952    0.0000 C   0  0  0  0  0  0
    3.7500   -6.4952    0.0000 O   0  0  0  0  0  0
    6.0000   -7.7942    0.0000 N   0  0  0  0  0  0
    5.2500   -9.0933    0.0000 C   0  0  1  0  0  0
    6.0000  -10.3923    0.0000 C   0  0  0  0  0  0
    5.2500  -11.6913    0.0000 C   0  0  0  0  0  0
    3.7500  -11.6913    0.0000 C   0  0  0  0  0  0
    3.0000  -12.9904    0.0000 C   0  0  0  0  0  0
    3.7500  -14.2894    0.0000 C   0  0  0  0  0  0
    5.2500  -14.2894    0.0000 C   0  0  0  0  0  0
    6.0000  -12.9904    0.0000 C   0  0  0  0  0  0
    3.7500   -9.0933    0.0000 C   0  0  0  0  0  0
    3.0000   -7.7942    0.0000 O   0  0  0  0  0  0
    3.0000  -10.3923    0.0000 N   0  0  0  0  0  0
    1.5000  -10.3923    0.0000 C   0  0  1  0  0  0
    0.7500  -11.6913    0.0000 C   0  0  0  0  0  0
   -0.7500  -11.6913    0.0000 C   0  0  0  0  0  0
   -1.5000  -12.9904    0.0000 F   0  0  0  0  0  0
   -1.3423  -10.9054    0.0000 F   0  0  0  0  0  0
    0.7500   -9.0933    0.0000 C   0  0  0  0  0  0
    1.5000   -7.7942    0.0000 O   0  0  0  0  0  0
   -0.7500   -9.0933    0.0000 C   0  0  0  0  0  0
   -1.3423   -9.8792    0.0000 O   0  0  0  0  0  0
   -1.5000   -7.7942    0.0000 O   0  0  0  0  0  0
  1  2  1  0  0  0
  2  3  2  0  0  0
  2  4  1  0  0  0
  4  5  1  0  0  0
  5  6  1  0  0  0
  5 10  1  6  0  0
  6  7  1  0  0  0
  7  8  2  0  0  0
  7  9  1  0  0  0
 10 11  2  0  0  0
 10 12  1  0  0  0
 12 13  1  0  0  0
 13 14  1  0  0  0
 13 19  1  6  0  0
 14 15  1  0  0  0
 15 16  1  0  0  0
 16 17  2  0  0  0
 16 18  1  0  0  0
 19 20  2  0  0  0
 19 21  1  0  0  0
 21 22  1  0  0  0
 22 23  1  0  0  0
 22 36  1  6  0  0
 23 24  1  0  0  0
 23 30  1  0  0  0
 24 25  2  0  0  0
 24 29  1  0  0  0
 25 26  1  0  0  0
 26 27  2  0  0  0
 27 28  1  0  0  0
 28 29  2  0  0  0
 30 31  2  0  0  0
 30 35  1  0  0  0
 31 32  1  0  0  0
 32 33  2  0  0  0
 33 34  1  0  0  0
 34 35  2  0  0  0
 36 37  2  0  0  0
 36 38  1  0  0  0
 38 39  1  0  0  0
 39 40  1  0  0  0
 39 45  1  6  0  0
 40 41  1  0  0  0
 41 42  1  0  0  0
 42 43  2  0  0  0
 42 44  1  0  0  0
 45 46  2  0  0  0
 45 47  1  0  0  0
 47 48  1  0  0  0
 48 49  1  0  0  0
 48 56  1  6  0  0
 49 50  1  0  0  0
 50 51  1  0  0  0
 50 55  1  0  0  0
 51 52  1  0  0  0
 52 53  1  0  0  0
 53 54  1  0  0  0
 54 55  1  0  0  0
 56 57  2  0  0  0
 56 58  1  0  0  0
 58 59  1  0  0  0
 59 60  1  0  0  0
 59 64  1  6  0  0
 60 61  1  0  0  0
 61 62  1  0  0  0
 61 63  1  0  0  0
 64 65  2  0  0  0
 64 66  1  0  0  0
 66 67  2  0  0  0
 66 68  1  0  0  0
M  END
> <s_m_entry_id>
6592

> <s_m_entry_name>
NS3-4A.133

> <CHEMBLID>
CHEMBL349186

> <s_m_Source_Path>
/home/liwei/Desktop/Machine/HCV/Active

> <s_m_Source_File>
NS3-4A.sdf

> <i_m_Source_File_Index>
133

$$$$
CHEMBL350080
                    3D
 Structure written by MMmdl.
 66 68  0  0  1  0            999 V2000
    1.5000    5.1962    0.0000 C   0  0  0  0  0  0
    3.0000    5.1962    0.0000 C   0  0  0  0  0  0
    3.7500    6.4952    0.0000 O   0  0  0  0  0  0
    3.7500    3.8971    0.0000 N   0  0  0  0  0  0
    5.2500    3.8971    0.0000 C   0  0  1  0  0  0
    6.0000    5.1962    0.0000 C   0  0  0  0  0  0
    7.5000    5.1962    0.0000 C   0  0  0  0  0  0
    8.2500    3.8971    0.0000 O   0  0  0  0  0  0
    8.2500    6.4952    0.0000 O   0  0  0  0  0  0
    6.0000    2.5981    0.0000 C   0  0  0  0  0  0
    7.5000    2.5981    0.0000 O   0  0  0  0  0  0
    5.2500    1.2990    0.0000 N   0  0  0  0  0  0
    6.0000   -0.0000    0.0000 C   0  0  1  0  0  0
    7.5000   -0.0000    0.0000 C   0  0  0  0  0  0
    8.2500    1.2990    0.0000 C   0  0  0  0  0  0
    9.7500    1.2990    0.0000 C   0  0  0  0  0  0
   10.5000   -0.0000    0.0000 O   0  0  0  0  0  0
   10.5000    2.5981    0.0000 O   0  0  0  0  0  0
    5.2500   -1.2990    0.0000 C   0  0  0  0  0  0
    6.0000   -2.5981    0.0000 O   0  0  0  0  0  0
    3.7500   -1.2990    0.0000 N   0  0  0  0  0  0
    3.0000   -2.5981    0.0000 C   0  0  1  0  0  0
    1.5000   -2.5981    0.0000 C   0  0  0  0  0  0
    0.7500   -1.2990    0.0000 C   0  0  0  0  0  0
    1.5000    0.0000    0.0000 C   0  0  0  0  0  0
    0.7500    1.2990    0.0000 C   0  0  0  0  0  0
   -0.7500    1.2990    0.0000 C   0  0  0  0  0  0
   -1.5000    0.0000    0.0000 C   0  0  0  0  0  0
   -0.7500   -1.2990    0.0000 C   0  0  0  0  0  0
    0.7500   -3.8971    0.0000 C   0  0  0  0  0  0
   -0.7500   -3.8971    0.0000 C   0  0  0  0  0  0
   -1.5000   -5.1962    0.0000 C   0  0  0  0  0  0
   -0.7500   -6.4952    0.0000 C   0  0  0  0  0  0
    0.7500   -6.4952    0.0000 C   0  0  0  0  0  0
    1.5000   -5.1962    0.0000 C   0  0  0  0  0  0
    3.7500   -3.8971    0.0000 C   0  0  0  0  0  0
    3.0000   -5.1962    0.0000 O   0  0  0  0  0  0
    5.2500   -3.8971    0.0000 N   0  0  0  0  0  0
    6.0000   -5.1962    0.0000 C   0  0  1  0  0  0
    7.5000   -5.1962    0.0000 C   0  0  0  0  0  0
    8.2500   -6.4952    0.0000 C   0  0  0  0  0  0
    9.7500   -6.4952    0.0000 C   0  0  0  0  0  0
   10.5000   -5.1962    0.0000 O   0  0  0  0  0  0
   10.5000   -7.7942    0.0000 O   0  0  0  0  0  0
    5.2500   -6.4952    0.0000 C   0  0  0  0  0  0
    3.7500   -6.4952    0.0000 O   0  0  0  0  0  0
    6.0000   -7.7942    0.0000 N   0  0  0  0  0  0
    5.2500   -9.0933    0.0000 C   0  0  1  0  0  0
    6.0000  -10.3923    0.0000 C   0  0  0  0  0  0
    5.2500  -11.6913    0.0000 C   0  0  0  0  0  0
    3.7500  -11.6913    0.0000 C   0  0  0  0  0  0
    3.0000  -12.9904    0.0000 C   0  0  0  0  0  0
    3.7500  -14.2894    0.0000 C   0  0  0  0  0  0
    5.2500  -14.2894    0.0000 C   0  0  0  0  0  0
    6.0000  -12.9904    0.0000 C   0  0  0  0  0  0
    3.7500   -9.0933    0.0000 C   0  0  0  0  0  0
    3.0000   -7.7942    0.0000 O   0  0  0  0  0  0
    3.0000  -10.3923    0.0000 N   0  0  0  0  0  0
    1.5000  -10.3923    0.0000 C   0  0  2  0  0  0
    0.7500  -11.6913    0.0000 C   0  0  0  0  0  0
   -0.7500  -11.6913    0.0000 C   0  0  0  0  0  0
   -1.5000  -12.9904    0.0000 F   0  0  0  0  0  0
   -1.5000  -10.3923    0.0000 F   0  0  0  0  0  0
    0.7500   -9.0933    0.0000 C   0  0  0  0  0  0
    1.5000   -7.7942    0.0000 O   0  0  0  0  0  0
   -0.7500   -9.0933    0.0000 O   0  0  0  0  0  0
  1  2  1  0  0  0
  2  3  2  0  0  0
  2  4  1  0  0  0
  4  5  1  0  0  0
  5  6  1  0  0  0
  5 10  1  6  0  0
  6  7  1  0  0  0
  7  8  2  0  0  0
  7  9  1  0  0  0
 10 11  2  0  0  0
 10 12  1  0  0  0
 12 13  1  0  0  0
 13 14  1  0  0  0
 13 19  1  6  0  0
 14 15  1  0  0  0
 15 16  1  0  0  0
 16 17  2  0  0  0
 16 18  1  0  0  0
 19 20  2  0  0  0
 19 21  1  0  0  0
 21 22  1  0  0  0
 22 23  1  0  0  0
 22 36  1  6  0  0
 23 24  1  0  0  0
 23 30  1  0  0  0
 24 25  2  0  0  0
 24 29  1  0  0  0
 25 26  1  0  0  0
 26 27  2  0  0  0
 27 28  1  0  0  0
 28 29  2  0  0  0
 30 31  2  0  0  0
 30 35  1  0  0  0
 31 32  1  0  0  0
 32 33  2  0  0  0
 33 34  1  0  0  0
 34 35  2  0  0  0
 36 37  2  0  0  0
 36 38  1  0  0  0
 38 39  1  0  0  0
 39 40  1  0  0  0
 39 45  1  6  0  0
 40 41  1  0  0  0
 41 42  1  0  0  0
 42 43  2  0  0  0
 42 44  1  0  0  0
 45 46  2  0  0  0
 45 47  1  0  0  0
 47 48  1  0  0  0
 48 49  1  0  0  0
 48 56  1  6  0  0
 49 50  1  0  0  0
 50 51  1  0  0  0
 50 55  1  0  0  0
 51 52  1  0  0  0
 52 53  1  0  0  0
 53 54  1  0  0  0
 54 55  1  0  0  0
 56 57  2  0  0  0
 56 58  1  0  0  0
 58 59  1  0  0  0
 59 60  1  0  0  0
 59 64  1  6  0  0
 60 61  1  0  0  0
 61 62  1  0  0  0
 61 63  1  0  0  0
 64 65  2  0  0  0
 64 66  1  0  0  0
M  END
> <s_m_entry_id>
6593

> <s_m_entry_name>
NS3-4A.134

> <CHEMBLID>
CHEMBL350080

> <s_m_Source_Path>
/home/liwei/Desktop/Machine/HCV/Active

> <s_m_Source_File>
NS3-4A.sdf

> <i_m_Source_File_Index>
134

$$$$
CHEMBL350593
                    3D
 Structure written by MMmdl.
 36 36  0  0  1  0            999 V2000
   10.3417   -7.5917    0.0000 C   0  0  0  0  0  0
    6.0375   -7.5917    0.0000 C   0  0  0  0  0  0
    8.1917   -7.1792    0.0000 C   0  0  0  0  0  0
    6.7542   -7.1792    0.0000 N   0  0  0  0  0  0
    9.6292   -7.1792    0.0000 C   0  0  1  0  0  0
    8.9042   -7.5917    0.0000 N   0  0  0  0  0  0
    7.4750   -7.5917    0.0000 C   0  0  1  0  0  0
    4.6000   -8.4167    0.0000 C   0  0  0  0  0  0
   10.3500   -8.4167    0.0000 C   0  0  0  0  0  0
    5.3167   -7.1792    0.0000 C   0  0  1  0  0  0
    9.6292   -6.3417    0.0000 C   0  0  0  0  0  0
    4.5917   -7.5917    0.0000 N   0  0  0  0  0  0
   11.0625   -7.1750    0.0000 O   0  0  0  0  0  0
    6.0375   -8.4167    0.0000 O   0  0  0  0  0  0
    8.1917   -6.3417    0.0000 O   0  0  0  0  0  0
   10.3417   -5.9292    0.0000 C   0  0  0  0  0  0
    5.3167   -8.8167    0.0000 O   0  0  0  0  0  0
   11.0625   -8.8250    0.0000 O   0  0  0  0  0  0
    3.8792   -8.8292    0.0000 O   0  0  0  0  0  0
    7.4750   -8.4167    0.0000 C   0  0  0  0  0  0
    5.3167   -6.3542    0.0000 C   0  0  3  0  0  0
    9.6292   -8.8292    0.0000 O   0  0  0  0  0  0
   10.3417   -5.1042    0.0000 F   0  0  0  0  0  0
   11.0667   -6.3417    0.0000 F   0  0  0  0  0  0
    3.8917   -9.6542    0.0000 C   0  0  0  0  0  0
    3.1792  -10.0792    0.0000 C   0  0  0  0  0  0
    4.6042   -5.9417    0.0000 C   0  0  0  0  0  0
    6.7542   -8.8292    0.0000 C   0  0  0  0  0  0
    8.1875   -8.8250    0.0000 C   0  0  0  0  0  0
    6.0292   -5.9417    0.0000 C   0  0  0  0  0  0
    3.1792  -10.9042    0.0000 C   0  0  0  0  0  0
    2.4625   -9.6667    0.0000 C   0  0  0  0  0  0
    4.6000   -5.1167    0.0000 C   0  0  0  0  0  0
    2.4667  -11.3250    0.0000 C   0  0  0  0  0  0
    1.7417  -10.0875    0.0000 C   0  0  0  0  0  0
    1.7417  -10.9167    0.0000 C   0  0  0  0  0  0
  1  5  1  0  0  0
  1  9  1  0  0  0
  1 13  2  0  0  0
  2  4  1  0  0  0
  2 10  1  0  0  0
  2 14  2  0  0  0
  3  6  1  0  0  0
  3  7  1  0  0  0
  3 15  2  0  0  0
  4  7  1  0  0  0
  5  6  1  0  0  0
  5 11  1  6  0  0
  7 20  1  6  0  0
  8 12  1  0  0  0
  8 17  2  0  0  0
  8 19  1  0  0  0
  9 18  2  0  0  0
  9 22  1  0  0  0
 10 12  1  0  0  0
 10 21  1  6  0  0
 11 16  1  0  0  0
 16 23  1  0  0  0
 16 24  1  0  0  0
 19 25  1  0  0  0
 20 28  1  0  0  0
 20 29  1  0  0  0
 21 27  1  0  0  0
 21 30  1  0  0  0
 25 26  1  0  0  0
 26 31  2  0  0  0
 26 32  1  0  0  0
 27 33  1  0  0  0
 31 34  1  0  0  0
 32 35  2  0  0  0
 34 36  2  0  0  0
 35 36  1  0  0  0
M  END
> <s_m_entry_id>
6594

> <s_m_entry_name>
NS3-4A.135

> <CHEMBLID>
CHEMBL350593

> <s_m_Source_Path>
/home/liwei/Desktop/Machine/HCV/Active

> <s_m_Source_File>
NS3-4A.sdf

> <i_m_Source_File_Index>
135

> <MOLREGNO>
269642

> <MAX_PHASE>
0

> <MOLWEIGHT>
513.53

> <ALOGP>
3.09

> <PSA>
150.89

> <HBA>
7

> <HBD>
4

> <RO5>
1

> <RTB>
15

> <RO3>
N

> <ACD_MOST_APKA>
2.05

> <ACD_LOGP>
3.32

> <ACD_LOGD>
-0.42

> <AROMATIC_RINGS>
1

> <HEAVY_ATOMS>
36

> <QED_WEIGHTED>
0.26

> <HBA_LIPINSKI>
10

> <HBD_LIPINSKI>
4

> <NUM_LIPINSKI_RO5_VIOLATIONS>
0

> <MW_MONOISOTOPIC>
513.2287

> <MOLECULAR_SPECIES>
ACID

> <FULL_MOLFORMULA>
C24H33F2N3O7

$$$$
CHEMBL351439
                    3D
 Structure written by MMmdl.
 40 41  0  0  1  0            999 V2000
   15.5917   -0.7792    0.0000 C   0  0  0  0  0  0
   11.3167   -0.7917    0.0000 C   0  0  0  0  0  0
   14.8792   -0.3792    0.0000 C   0  0  1  0  0  0
   13.4542   -0.3792    0.0000 C   0  0  0  0  0  0
   14.1667   -0.7917    0.0000 N   0  0  0  0  0  0
   12.0292   -0.3792    0.0000 N   0  0  0  0  0  0
    9.1792   -0.3917    0.0000 C   0  0  0  0  0  0
   16.3042   -0.3667    0.0000 C   0  0  0  0  0  0
   14.8792    0.4458    0.0000 C   0  0  0  0  0  0
   10.6042   -0.3917    0.0000 C   0  0  1  0  0  0
   12.7417   -0.7917    0.0000 C   0  0  1  0  0  0
    9.8917   -0.8042    0.0000 N   0  0  0  0  0  0
   15.5917   -1.6042    0.0000 O   0  0  0  0  0  0
   11.3167   -1.6167    0.0000 O   0  0  0  0  0  0
   13.4542    0.4458    0.0000 O   0  0  0  0  0  0
   15.4542    1.0333    0.0000 C   0  0  0  0  0  0
    9.1792    0.4333    0.0000 O   0  0  0  0  0  0
   12.7417   -1.6167    0.0000 C   0  0  0  0  0  0
   16.3042    0.4583    0.0000 O   0  0  0  0  0  0
    8.4667   -0.8042    0.0000 O   0  0  0  0  0  0
   10.6042    0.4333    0.0000 C   0  0  2  0  0  0
   17.0167   -0.7792    0.0000 O   0  0  0  0  0  0
   16.2792    1.0333    0.0000 F   0  0  0  0  0  0
   15.2417    1.8333    0.0000 F   0  0  0  0  0  0
    7.7542   -0.3917    0.0000 C   0  0  0  0  0  0
    7.0417   -0.8042    0.0000 C   0  0  0  0  0  0
   13.1542   -2.3292    0.0000 C   0  0  0  0  0  0
    9.8917    0.8583    0.0000 C   0  0  0  0  0  0
   11.3292    0.8333    0.0000 C   0  0  0  0  0  0
    6.3292   -0.3917    0.0000 C   0  0  0  0  0  0
    7.0417   -1.6167    0.0000 C   0  0  0  0  0  0
   12.7417   -3.0292    0.0000 C   0  0  0  0  0  0
   13.9667   -2.3292    0.0000 C   0  0  0  0  0  0
    9.9167    1.6833    0.0000 C   0  0  0  0  0  0
    6.3417   -2.0292    0.0000 C   0  0  0  0  0  0
    5.6167   -0.8042    0.0000 C   0  0  0  0  0  0
   13.1417   -3.7292    0.0000 C   0  0  0  0  0  0
   14.3667   -3.0417    0.0000 C   0  0  0  0  0  0
   13.9542   -3.7417    0.0000 C   0  0  0  0  0  0
    5.6292   -1.6292    0.0000 C   0  0  0  0  0  0
  1  3  1  0  0  0
  1  8  1  0  0  0
  1 13  2  0  0  0
  2  6  1  0  0  0
  2 10  1  0  0  0
  2 14  2  0  0  0
  3  5  1  0  0  0
  3  9  1  6  0  0
  4  5  1  0  0  0
  4 11  1  0  0  0
  4 15  2  0  0  0
  6 11  1  0  0  0
  7 12  1  0  0  0
  7 17  2  0  0  0
  7 20  1  0  0  0
  8 19  2  0  0  0
  8 22  1  0  0  0
  9 16  1  0  0  0
 10 12  1  0  0  0
 10 21  1  6  0  0
 11 18  1  6  0  0
 16 23  1  0  0  0
 16 24  1  0  0  0
 18 27  1  0  0  0
 20 25  1  0  0  0
 21 28  1  0  0  0
 21 29  1  1  0  0
 25 26  1  0  0  0
 26 30  2  0  0  0
 26 31  1  0  0  0
 27 32  1  0  0  0
 27 33  1  0  0  0
 28 34  1  0  0  0
 30 36  1  0  0  0
 31 35  2  0  0  0
 32 37  1  0  0  0
 33 38  1  0  0  0
 35 40  1  0  0  0
 36 40  2  0  0  0
 37 39  1  0  0  0
 38 39  1  0  0  0
M  END
> <s_m_entry_id>
6595

> <s_m_entry_name>
NS3-4A.136

> <CHEMBLID>
CHEMBL351439

> <s_m_Source_Path>
/home/liwei/Desktop/Machine/HCV/Active

> <s_m_Source_File>
NS3-4A.sdf

> <i_m_Source_File_Index>
136

> <MOLREGNO>
269116

> <MAX_PHASE>
0

> <MOLWEIGHT>
567.62

> <ALOGP>
4.48

> <PSA>
150.89

> <HBA>
7

> <HBD>
4

> <RO5>
1

> <RTB>
16

> <RO3>
N

> <ACD_MOST_APKA>
2.05

> <ACD_LOGP>
4.94

> <ACD_LOGD>
1.2

> <AROMATIC_RINGS>
1

> <HEAVY_ATOMS>
40

> <QED_WEIGHTED>
0.22

> <HBA_LIPINSKI>
10

> <HBD_LIPINSKI>
4

> <NUM_LIPINSKI_RO5_VIOLATIONS>
0

> <MW_MONOISOTOPIC>
567.2756

> <MOLECULAR_SPECIES>
ACID

> <FULL_MOLFORMULA>
C28H39F2N3O7

$$$$
CHEMBL352277
                    3D
 Structure written by MMmdl.
 33 32  0  0  1  0            999 V2000
    9.9042   -5.8667    0.0000 C   0  0  0  0  0  0
    5.5917   -5.8667    0.0000 C   0  0  0  0  0  0
    9.1875   -5.4542    0.0000 C   0  0  1  0  0  0
    7.7500   -5.4542    0.0000 C   0  0  0  0  0  0
    4.1542   -6.6917    0.0000 C   0  0  0  0  0  0
    8.4667   -5.8667    0.0000 N   0  0  0  0  0  0
    6.3167   -5.4542    0.0000 N   0  0  0  0  0  0
    9.9042   -6.6917    0.0000 C   0  0  0  0  0  0
    4.8792   -5.4542    0.0000 C   0  0  1  0  0  0
    9.1875   -4.6167    0.0000 C   0  0  0  0  0  0
    7.0292   -5.8667    0.0000 C   0  0  1  0  0  0
    4.1542   -5.8667    0.0000 N   0  0  0  0  0  0
    3.4500   -7.1042    0.0000 O   0  0  0  0  0  0
   10.6167   -5.4500    0.0000 O   0  0  0  0  0  0
    5.5917   -6.6917    0.0000 O   0  0  0  0  0  0
    4.8750   -7.0917    0.0000 O   0  0  0  0  0  0
    7.7500   -4.6167    0.0000 O   0  0  0  0  0  0
    9.9042   -4.2042    0.0000 C   0  0  0  0  0  0
   10.6167   -7.1000    0.0000 O   0  0  0  0  0  0
    7.0292   -6.6917    0.0000 C   0  0  0  0  0  0
    3.4542   -7.9292    0.0000 C   0  0  0  0  0  0
    4.8792   -4.6292    0.0000 C   0  0  0  0  0  0
    9.1917   -7.1042    0.0000 O   0  0  0  0  0  0
    9.9042   -3.3792    0.0000 F   0  0  0  0  0  0
   10.6250   -4.6167    0.0000 F   0  0  0  0  0  0
    6.6167   -7.4042    0.0000 C   0  0  0  0  0  0
    4.1750   -8.3375    0.0000 C   0  0  0  0  0  0
    2.7417   -8.3500    0.0000 C   0  0  0  0  0  0
    3.4542   -8.7542    0.0000 C   0  0  0  0  0  0
    4.1625   -4.2167    0.0000 C   0  0  0  0  0  0
    5.5917   -4.2167    0.0000 C   0  0  0  0  0  0
    7.0250   -8.1167    0.0000 C   0  0  0  0  0  0
    5.7917   -7.3917    0.0000 C   0  0  0  0  0  0
  1  3  1  0  0  0
  1  8  1  0  0  0
  1 14  2  0  0  0
  2  7  1  0  0  0
  2  9  1  0  0  0
  2 15  2  0  0  0
  3  6  1  0  0  0
  3 10  1  6  0  0
  4  6  1  0  0  0
  4 11  1  0  0  0
  4 17  2  0  0  0
  5 12  1  0  0  0
  5 13  1  0  0  0
  5 16  2  0  0  0
  7 11  1  0  0  0
  8 19  2  0  0  0
  8 23  1  0  0  0
  9 12  1  0  0  0
  9 22  1  6  0  0
 10 18  1  0  0  0
 11 20  1  6  0  0
 13 21  1  0  0  0
 18 24  1  0  0  0
 18 25  1  0  0  0
 20 26  1  0  0  0
 21 27  1  0  0  0
 21 28  1  0  0  0
 21 29  1  0  0  0
 22 30  1  0  0  0
 22 31  1  0  0  0
 26 32  1  0  0  0
 26 33  1  0  0  0
M  END
> <s_m_entry_id>
6596

> <s_m_entry_name>
NS3-4A.137

> <CHEMBLID>
CHEMBL352277

> <s_m_Source_Path>
/home/liwei/Desktop/Machine/HCV/Active

> <s_m_Source_File>
NS3-4A.sdf

> <i_m_Source_File_Index>
137

> <MOLREGNO>
269063

> <MAX_PHASE>
0

> <MOLWEIGHT>
479.52

> <ALOGP>
2.37

> <PSA>
150.89

> <HBA>
7

> <HBD>
4

> <RO5>
0

> <RTB>
14

> <RO3>
N

> <ACD_MOST_APKA>
2.05

> <ACD_LOGP>
2.64

> <ACD_LOGD>
-1.11

> <AROMATIC_RINGS>
0

> <HEAVY_ATOMS>
33

> <QED_WEIGHTED>
0.28

> <HBA_LIPINSKI>
10

> <HBD_LIPINSKI>
4

> <NUM_LIPINSKI_RO5_VIOLATIONS>
0

> <MW_MONOISOTOPIC>
479.2443

> <MOLECULAR_SPECIES>
ACID

> <FULL_MOLFORMULA>
C21H35F2N3O7

$$$$
CHEMBL352900
                    3D
 Structure written by MMmdl.
 31 30  0  0  1  0            999 V2000
    9.9042   -5.8667    0.0000 C   0  0  0  0  0  0
    9.1875   -5.4542    0.0000 C   0  0  1  0  0  0
    7.7500   -5.4542    0.0000 C   0  0  0  0  0  0
    4.1542   -6.6917    0.0000 C   0  0  0  0  0  0
    5.5917   -5.8667    0.0000 C   0  0  0  0  0  0
    8.4667   -5.8667    0.0000 N   0  0  0  0  0  0
    6.3167   -5.4542    0.0000 N   0  0  0  0  0  0
    9.9042   -6.6917    0.0000 C   0  0  0  0  0  0
    9.1875   -4.6167    0.0000 C   0  0  0  0  0  0
    7.0292   -5.8667    0.0000 C   0  0  1  0  0  0
    4.1542   -5.8667    0.0000 N   0  0  0  0  0  0
    4.8792   -5.4542    0.0000 C   0  0  1  0  0  0
    3.4500   -7.1042    0.0000 O   0  0  0  0  0  0
   10.6167   -5.4500    0.0000 O   0  0  0  0  0  0
    4.8750   -7.0917    0.0000 O   0  0  0  0  0  0
    7.7500   -4.6167    0.0000 O   0  0  0  0  0  0
    5.5917   -6.6917    0.0000 O   0  0  0  0  0  0
    9.9042   -4.2042    0.0000 C   0  0  0  0  0  0
   10.6167   -7.1000    0.0000 O   0  0  0  0  0  0
    7.0292   -6.6917    0.0000 C   0  0  0  0  0  0
    3.4542   -7.9292    0.0000 C   0  0  0  0  0  0
    9.1917   -7.1042    0.0000 O   0  0  0  0  0  0
    9.9042   -3.3792    0.0000 F   0  0  0  0  0  0
   10.6250   -4.6167    0.0000 F   0  0  0  0  0  0
    6.6167   -7.4042    0.0000 C   0  0  0  0  0  0
    4.8792   -4.6292    0.0000 C   0  0  0  0  0  0
    4.1750   -8.3375    0.0000 C   0  0  0  0  0  0
    2.7417   -8.3500    0.0000 C   0  0  0  0  0  0
    3.4542   -8.7542    0.0000 C   0  0  0  0  0  0
    5.7917   -7.3917    0.0000 C   0  0  0  0  0  0
    7.0250   -8.1167    0.0000 C   0  0  0  0  0  0
  1  2  1  0  0  0
  1  8  1  0  0  0
  1 14  2  0  0  0
  2  6  1  0  0  0
  2  9  1  6  0  0
  3  6  1  0  0  0
  3 10  1  0  0  0
  3 16  2  0  0  0
  4 11  1  0  0  0
  4 13  1  0  0  0
  4 15  2  0  0  0
  5  7  1  0  0  0
  5 12  1  0  0  0
  5 17  2  0  0  0
  7 10  1  0  0  0
  8 19  2  0  0  0
  8 22  1  0  0  0
  9 18  1  0  0  0
 10 20  1  6  0  0
 11 12  1  0  0  0
 12 26  1  6  0  0
 13 21  1  0  0  0
 18 23  1  0  0  0
 18 24  1  0  0  0
 20 25  1  0  0  0
 21 27  1  0  0  0
 21 28  1  0  0  0
 21 29  1  0  0  0
 25 30  1  0  0  0
 25 31  1  0  0  0
M  END
> <s_m_entry_id>
6597

> <s_m_entry_name>
NS3-4A.138

> <CHEMBLID>
CHEMBL352900

> <s_m_Source_Path>
/home/liwei/Desktop/Machine/HCV/Active

> <s_m_Source_File>
NS3-4A.sdf

> <i_m_Source_File_Index>
138

> <MOLREGNO>
269022

> <MAX_PHASE>
0

> <MOLWEIGHT>
451.46

> <ALOGP>
1.53

> <PSA>
150.89

> <HBA>
7

> <HBD>
4

> <RO5>
0

> <RTB>
13

> <RO3>
N

> <ACD_MOST_APKA>
2.05

> <ACD_LOGP>
1.77

> <ACD_LOGD>
-1.97

> <AROMATIC_RINGS>
0

> <HEAVY_ATOMS>
31

> <QED_WEIGHTED>
0.31

> <HBA_LIPINSKI>
10

> <HBD_LIPINSKI>
4

> <NUM_LIPINSKI_RO5_VIOLATIONS>
0

> <MW_MONOISOTOPIC>
451.213

> <MOLECULAR_SPECIES>
ACID

> <FULL_MOLFORMULA>
C19H31F2N3O7

$$$$
CHEMBL353315
                    3D
 Structure written by MMmdl.
 53 55  0  0  1  0            999 V2000
   10.0022    3.6413    0.0000 C   0  0  0  0  0  0
    8.9985    2.5266    0.0000 C   0  0  0  0  0  0
    9.4620    1.1000    0.0000 C   0  0  0  0  0  0
    8.4583   -0.0147    0.0000 C   0  0  2  0  0  0
    8.9218   -1.4413    0.0000 N   0  0  0  0  0  0
    7.9182   -2.5560    0.0000 C   0  0  0  0  0  0
    6.4509   -2.2442    0.0000 O   0  0  0  0  0  0
    8.3817   -3.9826    0.0000 C   0  0  2  0  0  0
    9.8083   -4.4462    0.0000 C   0  0  1  0  0  0
   11.0218   -3.5645    0.0000 C   0  0  0  0  0  0
   12.3921   -4.1746    0.0000 C   0  0  0  0  0  0
   13.6056   -3.2929    0.0000 C   0  0  0  0  0  0
    9.8083   -5.9462    0.0000 C   0  0  0  0  0  0
    8.3817   -6.4097    0.0000 C   0  0  0  0  0  0
    7.5000   -5.1962    0.0000 N   0  0  0  0  0  0
    6.0000   -5.1962    0.0000 C   0  0  0  0  0  0
    5.2500   -3.8971    0.0000 O   0  0  0  0  0  0
    5.2500   -6.4952    0.0000 C   0  0  2  0  0  0
    3.7500   -6.4952    0.0000 N   0  0  0  0  0  0
    3.0000   -5.1962    0.0000 C   0  0  0  0  0  0
    3.7500   -3.8971    0.0000 O   0  0  0  0  0  0
    1.5000   -5.1962    0.0000 C   0  0  2  0  0  0
    0.7500   -3.8971    0.0000 N   0  0  0  0  0  0
    1.5000   -2.5981    0.0000 C   0  0  0  0  0  0
    3.0000   -2.5981    0.0000 O   0  0  0  0  0  0
    0.7500   -1.2990    0.0000 C   0  0  0  0  0  0
    1.5000    0.0000    0.0000 C   0  0  0  0  0  0
    0.7500    1.2990    0.0000 N   0  0  0  0  0  0
   -0.7500    1.2990    0.0000 C   0  0  0  0  0  0
   -1.5000    0.0000    0.0000 C   0  0  0  0  0  0
   -0.7500   -1.2990    0.0000 N   0  0  0  0  0  0
    0.7500   -6.4952    0.0000 C   0  0  0  0  0  0
    1.5000   -7.7942    0.0000 C   0  0  0  0  0  0
   -0.7500   -6.4952    0.0000 C   0  0  0  0  0  0
    6.0000   -7.7942    0.0000 C   0  0  0  0  0  0
    7.5000   -7.7942    0.0000 C   0  0  0  0  0  0
    5.2500   -9.0933    0.0000 C   0  0  0  0  0  0
    6.9911    0.2971    0.0000 C   0  0  0  0  0  0
    5.9874   -0.8176    0.0000 O   0  0  0  0  0  0
    6.5276    1.7237    0.0000 C   0  0  0  0  0  0
    7.5313    2.8384    0.0000 O   0  0  0  0  0  0
    5.0604    2.0356    0.0000 N   0  0  0  0  0  0
    4.5968    3.4622    0.0000 C   0  0  1  0  0  0
    3.1296    3.7740    0.0000 C   0  0  0  0  0  0
    2.6661    5.2006    0.0000 C   0  0  0  0  0  0
    3.6698    6.3153    0.0000 C   0  0  0  0  0  0
    3.2063    7.7419    0.0000 C   0  0  0  0  0  0
    1.7390    8.0538    0.0000 C   0  0  0  0  0  0
    0.7353    6.9391    0.0000 C   0  0  0  0  0  0
    1.1989    5.5125    0.0000 C   0  0  0  0  0  0
    5.6005    4.5769    0.0000 C   0  0  0  0  0  0
    7.0677    4.2650    0.0000 O   0  0  0  0  0  0
    5.1370    6.0035    0.0000 O   0  0  0  0  0  0
  1  2  1  0  0  0
  2  3  1  0  0  0
  3  4  1  0  0  0
  4  5  1  0  0  0
  4 38  1  1  0  0
  5  6  1  0  0  0
  6  7  2  0  0  0
  6  8  1  0  0  0
  8  9  1  0  0  0
  8 15  1  1  0  0
  9 10  1  0  0  0
  9 13  1  6  0  0
 10 11  1  0  0  0
 11 12  1  0  0  0
 13 14  1  0  0  0
 14 15  1  0  0  0
 15 16  1  0  0  0
 16 17  2  0  0  0
 16 18  1  0  0  0
 18 19  1  0  0  0
 18 35  1  6  0  0
 19 20  1  0  0  0
 20 21  2  0  0  0
 20 22  1  0  0  0
 22 23  1  0  0  0
 22 32  1  6  0  0
 23 24  1  0  0  0
 24 25  2  0  0  0
 24 26  1  0  0  0
 26 27  2  0  0  0
 26 31  1  0  0  0
 27 28  1  0  0  0
 28 29  2  0  0  0
 29 30  1  0  0  0
 30 31  2  0  0  0
 32 33  1  0  0  0
 32 34  1  0  0  0
 35 36  1  0  0  0
 35 37  1  0  0  0
 38 39  2  0  0  0
 38 40  1  0  0  0
 40 41  2  0  0  0
 40 42  1  0  0  0
 42 43  1  0  0  0
 43 44  1  0  0  0
 43 51  1  6  0  0
 44 45  1  0  0  0
 45 46  2  0  0  0
 45 50  1  0  0  0
 46 47  1  0  0  0
 47 48  2  0  0  0
 48 49  1  0  0  0
 49 50  2  0  0  0
 51 52  2  0  0  0
 51 53  1  0  0  0
M  END
> <s_m_entry_id>
6598

> <s_m_entry_name>
NS3-4A.139

> <CHEMBLID>
CHEMBL353315

> <s_m_Source_Path>
/home/liwei/Desktop/Machine/HCV/Active

> <s_m_Source_File>
NS3-4A.sdf

> <i_m_Source_File_Index>
139

$$$$
CHEMBL353559
                    3D
 Structure written by MMmdl.
 54 56  0  0  1  0            999 V2000
   10.0022    3.6413    0.0000 C   0  0  0  0  0  0
    8.9985    2.5266    0.0000 C   0  0  0  0  0  0
    9.4620    1.1000    0.0000 C   0  0  0  0  0  0
    8.4583   -0.0147    0.0000 C   0  0  2  0  0  0
    8.9218   -1.4413    0.0000 N   0  0  0  0  0  0
    7.9182   -2.5560    0.0000 C   0  0  0  0  0  0
    6.4509   -2.2442    0.0000 O   0  0  0  0  0  0
    8.3817   -3.9826    0.0000 C   0  0  2  0  0  0
    9.8083   -4.4462    0.0000 C   0  0  2  0  0  0
    9.8083   -5.9462    0.0000 C   0  0  0  0  0  0
    8.3817   -6.4097    0.0000 C   0  0  0  0  0  0
    7.5000   -5.1962    0.0000 N   0  0  0  0  0  0
    6.0000   -5.1962    0.0000 C   0  0  0  0  0  0
    5.2500   -3.8971    0.0000 O   0  0  0  0  0  0
    5.2500   -6.4952    0.0000 C   0  0  2  0  0  0
    3.7500   -6.4952    0.0000 N   0  0  0  0  0  0
    3.0000   -5.1962    0.0000 C   0  0  0  0  0  0
    3.7500   -3.8971    0.0000 O   0  0  0  0  0  0
    1.5000   -5.1962    0.0000 C   0  0  2  0  0  0
    0.7500   -3.8971    0.0000 N   0  0  0  0  0  0
    1.5000   -2.5981    0.0000 C   0  0  0  0  0  0
    3.0000   -2.5981    0.0000 O   0  0  0  0  0  0
    0.7500   -1.2990    0.0000 C   0  0  0  0  0  0
    1.5000    0.0000    0.0000 C   0  0  0  0  0  0
    0.7500    1.2990    0.0000 N   0  0  0  0  0  0
   -0.7500    1.2990    0.0000 C   0  0  0  0  0  0
   -1.5000    0.0000    0.0000 C   0  0  0  0  0  0
   -0.7500   -1.2990    0.0000 N   0  0  0  0  0  0
    0.7500   -6.4952    0.0000 C   0  0  0  0  0  0
    1.5000   -7.7942    0.0000 C   0  0  0  0  0  0
   -0.7500   -6.4952    0.0000 C   0  0  0  0  0  0
    6.0000   -7.7942    0.0000 C   0  0  0  0  0  0
    7.5000   -7.7942    0.0000 C   0  0  0  0  0  0
    5.2500   -9.0933    0.0000 C   0  0  0  0  0  0
   11.0218   -3.5645    0.0000 C   0  0  3  0  0  0
   12.3921   -4.1746    0.0000 C   0  0  0  0  0  0
   10.8650   -2.0727    0.0000 C   0  0  0  0  0  0
   12.0785   -1.1910    0.0000 C   0  0  0  0  0  0
    6.9911    0.2971    0.0000 C   0  0  0  0  0  0
    5.9874   -0.8176    0.0000 O   0  0  0  0  0  0
    6.5276    1.7237    0.0000 C   0  0  0  0  0  0
    7.5313    2.8384    0.0000 O   0  0  0  0  0  0
    5.0604    2.0356    0.0000 N   0  0  0  0  0  0
    4.5968    3.4622    0.0000 C   0  0  1  0  0  0
    3.1296    3.7740    0.0000 C   0  0  0  0  0  0
    2.6661    5.2006    0.0000 C   0  0  0  0  0  0
    3.6698    6.3153    0.0000 C   0  0  0  0  0  0
    3.2063    7.7419    0.0000 C   0  0  0  0  0  0
    1.7390    8.0538    0.0000 C   0  0  0  0  0  0
    0.7353    6.9391    0.0000 C   0  0  0  0  0  0
    1.1989    5.5125    0.0000 C   0  0  0  0  0  0
    5.6005    4.5769    0.0000 C   0  0  0  0  0  0
    7.0677    4.2650    0.0000 O   0  0  0  0  0  0
    5.1370    6.0035    0.0000 O   0  0  0  0  0  0
  1  2  1  0  0  0
  2  3  1  0  0  0
  3  4  1  0  0  0
  4  5  1  0  0  0
  4 39  1  1  0  0
  5  6  1  0  0  0
  6  7  2  0  0  0
  6  8  1  0  0  0
  8  9  1  0  0  0
  8 12  1  1  0  0
  9 10  1  0  0  0
  9 35  1  6  0  0
 10 11  1  0  0  0
 11 12  1  0  0  0
 12 13  1  0  0  0
 13 14  2  0  0  0
 13 15  1  0  0  0
 15 16  1  0  0  0
 15 32  1  6  0  0
 16 17  1  0  0  0
 17 18  2  0  0  0
 17 19  1  0  0  0
 19 20  1  0  0  0
 19 29  1  6  0  0
 20 21  1  0  0  0
 21 22  2  0  0  0
 21 23  1  0  0  0
 23 24  2  0  0  0
 23 28  1  0  0  0
 24 25  1  0  0  0
 25 26  2  0  0  0
 26 27  1  0  0  0
 27 28  2  0  0  0
 29 30  1  0  0  0
 29 31  1  0  0  0
 32 33  1  0  0  0
 32 34  1  0  0  0
 35 36  1  0  0  0
 35 37  1  0  0  0
 37 38  1  0  0  0
 39 40  2  0  0  0
 39 41  1  0  0  0
 41 42  2  0  0  0
 41 43  1  0  0  0
 43 44  1  0  0  0
 44 45  1  0  0  0
 44 52  1  6  0  0
 45 46  1  0  0  0
 46 47  2  0  0  0
 46 51  1  0  0  0
 47 48  1  0  0  0
 48 49  2  0  0  0
 49 50  1  0  0  0
 50 51  2  0  0  0
 52 53  2  0  0  0
 52 54  1  0  0  0
M  END
> <s_m_entry_id>
6599

> <s_m_entry_name>
NS3-4A.140

> <CHEMBLID>
CHEMBL353559

> <s_m_Source_Path>
/home/liwei/Desktop/Machine/HCV/Active

> <s_m_Source_File>
NS3-4A.sdf

> <i_m_Source_File_Index>
140

$$$$
CHEMBL362404
                    3D
 Structure written by MMmdl.
 55 58  0  0  1  0            999 V2000
   14.0846  -15.2566    0.0000 C   0  0  0  0  0  0
   13.0809  -14.1419    0.0000 C   0  0  0  0  0  0
   13.5444  -12.7153    0.0000 C   0  0  0  0  0  0
   11.6137  -14.4538    0.0000 C   0  0  0  0  0  0
   10.6100  -13.3391    0.0000 O   0  0  0  0  0  0
    9.1428  -13.6509    0.0000 C   0  0  0  0  0  0
    8.6792  -15.0775    0.0000 O   0  0  0  0  0  0
    8.1391  -12.5362    0.0000 N   0  0  0  0  0  0
    6.6718  -12.8481    0.0000 C   0  0  1  0  0  0
    6.2083  -14.2747    0.0000 C   0  0  0  0  0  0
    7.2120  -15.3894    0.0000 C   0  0  0  0  0  0
    4.7411  -14.5865    0.0000 C   0  0  0  0  0  0
    5.6682  -11.7334    0.0000 C   0  0  0  0  0  0
    4.2009  -12.0452    0.0000 O   0  0  0  0  0  0
    6.1317  -10.3068    0.0000 N   0  0  0  0  0  0
    7.5583   -9.8433    0.0000 C   0  0  0  0  0  0
    7.5583   -8.3433    0.0000 C   0  0  1  0  0  0
    6.1317   -7.8797    0.0000 C   0  0  0  0  0  0
    5.2500   -9.0933    0.0000 C   0  0  1  0  0  0
    3.7500   -9.0933    0.0000 C   0  0  0  0  0  0
    3.0000  -10.3923    0.0000 O   0  0  0  0  0  0
    3.0000   -7.7942    0.0000 N   0  0  0  0  0  0
    1.5000   -7.7942    0.0000 C   0  0  1  0  0  0
    0.7500   -9.0933    0.0000 C   0  0  0  0  0  0
   -0.7500   -9.0933    0.0000 C   0  0  0  0  0  0
   -1.5000  -10.3923    0.0000 F   0  0  0  0  0  0
   -1.5000   -7.7942    0.0000 F   0  0  0  0  0  0
    0.7500   -6.4952    0.0000 C   0  0  0  0  0  0
   -0.7500   -6.4952    0.0000 O   0  0  0  0  0  0
    1.5000   -5.1962    0.0000 N   0  0  0  0  0  0
    0.7500   -3.8971    0.0000 C   0  0  0  0  0  0
    1.5000   -2.5981    0.0000 C   0  0  0  0  0  0
    0.7500   -1.2990    0.0000 C   0  0  0  0  0  0
    1.5000    0.0000    0.0000 C   0  0  0  0  0  0
    0.7500    1.2990    0.0000 C   0  0  0  0  0  0
   -0.7500    1.2990    0.0000 C   0  0  0  0  0  0
   -1.5000    0.0000    0.0000 C   0  0  0  0  0  0
   -3.0000    0.0000    0.0000 O   0  0  0  0  0  0
   -3.7500    1.2990    0.0000 C   0  0  3  0  0  0
   -3.0000    2.5981    0.0000 C   0  0  0  0  0  0
   -1.5000    2.5981    0.0000 O   0  0  0  0  0  0
   -3.7500    3.8971    0.0000 O   0  0  0  0  0  0
   -5.2500    1.2990    0.0000 C   0  0  0  0  0  0
   -6.0000    2.5981    0.0000 C   0  0  0  0  0  0
   -7.5000    2.5981    0.0000 C   0  0  0  0  0  0
   -8.2500    1.2990    0.0000 C   0  0  0  0  0  0
   -7.5000    0.0000    0.0000 C   0  0  0  0  0  0
   -6.0000    0.0000    0.0000 C   0  0  0  0  0  0
   -0.7500   -1.2990    0.0000 C   0  0  0  0  0  0
    8.7718   -7.4616    0.0000 C   0  0  0  0  0  0
   10.1421   -8.0717    0.0000 C   0  0  0  0  0  0
   11.3556   -7.1900    0.0000 C   0  0  0  0  0  0
   11.1988   -5.6982    0.0000 C   0  0  0  0  0  0
    9.8285   -5.0881    0.0000 C   0  0  0  0  0  0
    8.6150   -5.9698    0.0000 C   0  0  0  0  0  0
  1  2  1  0  0  0
  2  3  1  0  0  0
  2  4  1  0  0  0
  4  5  1  0  0  0
  5  6  1  0  0  0
  6  7  2  0  0  0
  6  8  1  0  0  0
  8  9  1  0  0  0
  9 10  1  0  0  0
  9 13  1  6  0  0
 10 11  1  0  0  0
 10 12  1  0  0  0
 13 14  2  0  0  0
 13 15  1  0  0  0
 15 16  1  0  0  0
 15 19  1  0  0  0
 16 17  1  0  0  0
 17 18  1  0  0  0
 17 50  1  6  0  0
 18 19  1  0  0  0
 19 20  1  6  0  0
 20 21  2  0  0  0
 20 22  1  0  0  0
 22 23  1  0  0  0
 23 24  1  0  0  0
 23 28  1  6  0  0
 24 25  1  0  0  0
 25 26  1  0  0  0
 25 27  1  0  0  0
 28 29  2  0  0  0
 28 30  1  0  0  0
 30 31  1  0  0  0
 31 32  1  0  0  0
 32 33  1  0  0  0
 33 34  2  0  0  0
 33 49  1  0  0  0
 34 35  1  0  0  0
 35 36  2  0  0  0
 36 37  1  0  0  0
 37 38  1  0  0  0
 37 49  2  0  0  0
 38 39  1  0  0  0
 39 40  1  0  0  0
 39 43  1  0  0  0
 40 41  2  0  0  0
 40 42  1  0  0  0
 43 44  2  0  0  0
 43 48  1  0  0  0
 44 45  1  0  0  0
 45 46  2  0  0  0
 46 47  1  0  0  0
 47 48  2  0  0  0
 50 51  2  0  0  0
 50 55  1  0  0  0
 51 52  1  0  0  0
 52 53  2  0  0  0
 53 54  1  0  0  0
 54 55  2  0  0  0
M  END
> <s_m_entry_id>
6600

> <s_m_entry_name>
NS3-4A.141

> <CHEMBLID>
CHEMBL362404

> <s_m_Source_Path>
/home/liwei/Desktop/Machine/HCV/Active

> <s_m_Source_File>
NS3-4A.sdf

> <i_m_Source_File_Index>
141

$$$$
CHEMBL362405
                    3D
 Structure written by MMmdl.
 51 53  0  0  1  0            999 V2000
    6.0000   18.1865    0.0000 C   0  0  0  0  0  0
    5.2500   16.8875    0.0000 C   0  0  0  0  0  0
    3.7500   16.8875    0.0000 C   0  0  3  0  0  0
    3.0000   15.5885    0.0000 N   0  0  0  0  0  0
    1.5000   15.5885    0.0000 C   0  0  0  0  0  0
    0.7500   16.8875    0.0000 C   0  0  0  0  0  0
   -0.7500   16.8875    0.0000 C   0  0  0  0  0  0
   -1.5000   15.5885    0.0000 C   0  0  0  0  0  0
   -0.7500   14.2894    0.0000 C   0  0  0  0  0  0
   -1.5000   12.9904    0.0000 C   0  0  0  0  0  0
   -0.7500   11.6913    0.0000 C   0  0  0  0  0  0
   -1.5000   10.3923    0.0000 N   0  0  0  0  0  0
   -0.7500    9.0933    0.0000 C   0  0  0  0  0  0
    0.7500    9.0933    0.0000 O   0  0  0  0  0  0
   -1.5000    7.7942    0.0000 C   0  0  2  0  0  0
   -0.7500    6.4952    0.0000 C   0  0  0  0  0  0
   -1.5000    5.1962    0.0000 C   0  0  0  0  0  0
   -0.7500    3.8971    0.0000 F   0  0  0  0  0  0
   -3.0000    5.1962    0.0000 F   0  0  0  0  0  0
   -3.0000    7.7942    0.0000 N   0  0  0  0  0  0
   -3.7500    9.0933    0.0000 C   0  0  0  0  0  0
   -3.0000   10.3923    0.0000 O   0  0  0  0  0  0
   -5.2500    9.0933    0.0000 C   0  0  2  0  0  0
   -6.1317    7.8797    0.0000 C   0  0  0  0  0  0
   -7.5583    8.3433    0.0000 C   0  0  2  0  0  0
   -7.5583    9.8433    0.0000 C   0  0  0  0  0  0
   -6.1317   10.3068    0.0000 N   0  0  0  0  0  0
   -5.6682   11.7334    0.0000 C   0  0  0  0  0  0
   -4.2009   12.0452    0.0000 O   0  0  0  0  0  0
   -6.6718   12.8481    0.0000 C   0  0  1  0  0  0
   -8.1391   12.5362    0.0000 N   0  0  0  0  0  0
   -9.1428   13.6509    0.0000 C   0  0  0  0  0  0
   -8.6792   15.0775    0.0000 O   0  0  0  0  0  0
  -10.6100   13.3391    0.0000 O   0  0  0  0  0  0
  -11.6137   14.4538    0.0000 C   0  0  0  0  0  0
  -13.0809   14.1419    0.0000 C   0  0  0  0  0  0
  -14.0846   15.2566    0.0000 C   0  0  0  0  0  0
  -13.5444   12.7153    0.0000 C   0  0  0  0  0  0
   -6.2083   14.2747    0.0000 C   0  0  0  0  0  0
   -7.2120   15.3894    0.0000 C   0  0  0  0  0  0
   -4.7411   14.5865    0.0000 C   0  0  0  0  0  0
   -8.7718    7.4616    0.0000 C   0  0  0  0  0  0
  -10.1421    8.0717    0.0000 C   0  0  0  0  0  0
  -11.3556    7.1900    0.0000 C   0  0  0  0  0  0
  -11.1988    5.6982    0.0000 C   0  0  0  0  0  0
   -9.8285    5.0881    0.0000 C   0  0  0  0  0  0
   -8.6150    5.9698    0.0000 C   0  0  0  0  0  0
    0.7500   14.2894    0.0000 C   0  0  0  0  0  0
    3.0000   18.1865    0.0000 C   0  0  0  0  0  0
    1.5000   18.1865    0.0000 O   0  0  0  0  0  0
    3.7500   19.4856    0.0000 O   0  0  0  0  0  0
  1  2  1  0  0  0
  2  3  1  0  0  0
  3  4  1  0  0  0
  3 49  1  0  0  0
  4  5  1  0  0  0
  5  6  2  0  0  0
  5 48  1  0  0  0
  6  7  1  0  0  0
  7  8  2  0  0  0
  8  9  1  0  0  0
  9 10  1  0  0  0
  9 48  2  0  0  0
 10 11  1  0  0  0
 11 12  1  0  0  0
 12 13  1  0  0  0
 13 14  2  0  0  0
 13 15  1  0  0  0
 15 16  1  0  0  0
 15 20  1  1  0  0
 16 17  1  0  0  0
 17 18  1  0  0  0
 17 19  1  0  0  0
 20 21  1  0  0  0
 21 22  2  0  0  0
 21 23  1  0  0  0
 23 24  1  0  0  0
 23 27  1  1  0  0
 24 25  1  0  0  0
 25 26  1  0  0  0
 25 42  1  1  0  0
 26 27  1  0  0  0
 27 28  1  0  0  0
 28 29  2  0  0  0
 28 30  1  0  0  0
 30 31  1  0  0  0
 30 39  1  6  0  0
 31 32  1  0  0  0
 32 33  2  0  0  0
 32 34  1  0  0  0
 34 35  1  0  0  0
 35 36  1  0  0  0
 36 37  1  0  0  0
 36 38  1  0  0  0
 39 40  1  0  0  0
 39 41  1  0  0  0
 42 43  1  0  0  0
 42 47  1  0  0  0
 43 44  1  0  0  0
 44 45  1  0  0  0
 45 46  1  0  0  0
 46 47  1  0  0  0
 49 50  2  0  0  0
 49 51  1  0  0  0
M  END
> <s_m_entry_id>
6601

> <s_m_entry_name>
NS3-4A.142

> <CHEMBLID>
CHEMBL362405

> <s_m_Source_Path>
/home/liwei/Desktop/Machine/HCV/Active

> <s_m_Source_File>
NS3-4A.sdf

> <i_m_Source_File_Index>
142

$$$$
CHEMBL362406
                    3D
 Structure written by MMmdl.
 51 53  0  0  1  0            999 V2000
   14.0846  -15.2566    0.0000 C   0  0  0  0  0  0
   13.0809  -14.1419    0.0000 C   0  0  0  0  0  0
   13.5444  -12.7153    0.0000 C   0  0  0  0  0  0
   11.6137  -14.4538    0.0000 C   0  0  0  0  0  0
   10.6100  -13.3391    0.0000 O   0  0  0  0  0  0
    9.1428  -13.6509    0.0000 C   0  0  0  0  0  0
    8.6792  -15.0775    0.0000 O   0  0  0  0  0  0
    8.1391  -12.5362    0.0000 N   0  0  0  0  0  0
    6.6718  -12.8481    0.0000 C   0  0  1  0  0  0
    6.2083  -14.2747    0.0000 C   0  0  0  0  0  0
    7.2120  -15.3894    0.0000 C   0  0  0  0  0  0
    4.7411  -14.5865    0.0000 C   0  0  0  0  0  0
    5.6682  -11.7334    0.0000 C   0  0  0  0  0  0
    4.2009  -12.0452    0.0000 O   0  0  0  0  0  0
    6.1317  -10.3068    0.0000 N   0  0  0  0  0  0
    7.5583   -9.8433    0.0000 C   0  0  0  0  0  0
    7.5583   -8.3433    0.0000 C   0  0  1  0  0  0
    6.1317   -7.8797    0.0000 C   0  0  0  0  0  0
    5.2500   -9.0933    0.0000 C   0  0  1  0  0  0
    3.7500   -9.0933    0.0000 C   0  0  0  0  0  0
    3.0000  -10.3923    0.0000 O   0  0  0  0  0  0
    3.0000   -7.7942    0.0000 N   0  0  0  0  0  0
    1.5000   -7.7942    0.0000 C   0  0  1  0  0  0
    0.7500   -9.0933    0.0000 C   0  0  0  0  0  0
   -0.7500   -9.0933    0.0000 C   0  0  0  0  0  0
   -1.5000  -10.3923    0.0000 F   0  0  0  0  0  0
   -1.5000   -7.7942    0.0000 F   0  0  0  0  0  0
    0.7500   -6.4952    0.0000 C   0  0  0  0  0  0
   -0.7500   -6.4952    0.0000 O   0  0  0  0  0  0
    1.5000   -5.1962    0.0000 N   0  0  0  0  0  0
    0.7500   -3.8971    0.0000 C   0  0  0  0  0  0
    1.5000   -2.5981    0.0000 C   0  0  0  0  0  0
    0.7500   -1.2990    0.0000 C   0  0  0  0  0  0
    1.5000    0.0000    0.0000 C   0  0  0  0  0  0
    3.0000    0.0000    0.0000 F   0  0  0  0  0  0
    0.7500    1.2990    0.0000 C   0  0  0  0  0  0
   -0.7500    1.2990    0.0000 C   0  0  0  0  0  0
   -1.5000    0.0000    0.0000 C   0  0  0  0  0  0
   -3.0000    0.0000    0.0000 O   0  0  0  0  0  0
   -3.7500    1.2990    0.0000 C   0  0  0  0  0  0
   -5.2500    1.2990    0.0000 C   0  0  0  0  0  0
   -6.0000   -0.0000    0.0000 O   0  0  0  0  0  0
   -6.0000    2.5981    0.0000 O   0  0  0  0  0  0
   -0.7500   -1.2990    0.0000 C   0  0  0  0  0  0
   -1.5000   -2.5981    0.0000 F   0  0  0  0  0  0
    8.7718   -7.4616    0.0000 C   0  0  0  0  0  0
   10.1421   -8.0717    0.0000 C   0  0  0  0  0  0
   11.3556   -7.1900    0.0000 C   0  0  0  0  0  0
   11.1988   -5.6982    0.0000 C   0  0  0  0  0  0
    9.8285   -5.0881    0.0000 C   0  0  0  0  0  0
    8.6150   -5.9698    0.0000 C   0  0  0  0  0  0
  1  2  1  0  0  0
  2  3  1  0  0  0
  2  4  1  0  0  0
  4  5  1  0  0  0
  5  6  1  0  0  0
  6  7  2  0  0  0
  6  8  1  0  0  0
  8  9  1  0  0  0
  9 10  1  0  0  0
  9 13  1  6  0  0
 10 11  1  0  0  0
 10 12  1  0  0  0
 13 14  2  0  0  0
 13 15  1  0  0  0
 15 16  1  0  0  0
 15 19  1  0  0  0
 16 17  1  0  0  0
 17 18  1  0  0  0
 17 46  1  6  0  0
 18 19  1  0  0  0
 19 20  1  6  0  0
 20 21  2  0  0  0
 20 22  1  0  0  0
 22 23  1  0  0  0
 23 24  1  0  0  0
 23 28  1  6  0  0
 24 25  1  0  0  0
 25 26  1  0  0  0
 25 27  1  0  0  0
 28 29  2  0  0  0
 28 30  1  0  0  0
 30 31  1  0  0  0
 31 32  1  0  0  0
 32 33  1  0  0  0
 33 34  2  0  0  0
 33 44  1  0  0  0
 34 35  1  0  0  0
 34 36  1  0  0  0
 36 37  2  0  0  0
 37 38  1  0  0  0
 38 39  1  0  0  0
 38 44  2  0  0  0
 39 40  1  0  0  0
 40 41  1  0  0  0
 41 42  2  0  0  0
 41 43  1  0  0  0
 44 45  1  0  0  0
 46 47  1  0  0  0
 46 51  1  0  0  0
 47 48  1  0  0  0
 48 49  1  0  0  0
 49 50  1  0  0  0
 50 51  1  0  0  0
M  END
> <s_m_entry_id>
6602

> <s_m_entry_name>
NS3-4A.143

> <CHEMBLID>
CHEMBL362406

> <s_m_Source_Path>
/home/liwei/Desktop/Machine/HCV/Active

> <s_m_Source_File>
NS3-4A.sdf

> <i_m_Source_File_Index>
143

$$$$
CHEMBL364325
                    3D
 Structure written by MMmdl.
 50 52  0  0  1  0            999 V2000
   14.0846  -15.2566    0.0000 C   0  0  0  0  0  0
   13.0809  -14.1419    0.0000 C   0  0  0  0  0  0
   13.5444  -12.7153    0.0000 C   0  0  0  0  0  0
   11.6137  -14.4538    0.0000 C   0  0  0  0  0  0
   10.6100  -13.3391    0.0000 O   0  0  0  0  0  0
    9.1428  -13.6509    0.0000 C   0  0  0  0  0  0
    8.6792  -15.0775    0.0000 O   0  0  0  0  0  0
    8.1391  -12.5362    0.0000 N   0  0  0  0  0  0
    6.6718  -12.8481    0.0000 C   0  0  1  0  0  0
    6.2083  -14.2747    0.0000 C   0  0  0  0  0  0
    7.2120  -15.3894    0.0000 C   0  0  0  0  0  0
    4.7411  -14.5865    0.0000 C   0  0  0  0  0  0
    5.6682  -11.7334    0.0000 C   0  0  0  0  0  0
    4.2009  -12.0452    0.0000 O   0  0  0  0  0  0
    6.1317  -10.3068    0.0000 N   0  0  0  0  0  0
    7.5583   -9.8433    0.0000 C   0  0  0  0  0  0
    7.5583   -8.3433    0.0000 C   0  0  1  0  0  0
    6.1317   -7.8797    0.0000 C   0  0  0  0  0  0
    5.2500   -9.0933    0.0000 C   0  0  1  0  0  0
    3.7500   -9.0933    0.0000 C   0  0  0  0  0  0
    3.0000  -10.3923    0.0000 O   0  0  0  0  0  0
    3.0000   -7.7942    0.0000 N   0  0  0  0  0  0
    1.5000   -7.7942    0.0000 C   0  0  1  0  0  0
    0.7500   -9.0933    0.0000 C   0  0  0  0  0  0
   -0.7500   -9.0933    0.0000 C   0  0  0  0  0  0
   -1.5000  -10.3923    0.0000 F   0  0  0  0  0  0
   -1.5000   -7.7942    0.0000 F   0  0  0  0  0  0
    0.7500   -6.4952    0.0000 C   0  0  0  0  0  0
   -0.7500   -6.4952    0.0000 O   0  0  0  0  0  0
    1.5000   -5.1962    0.0000 N   0  0  0  0  0  0
    0.7500   -3.8971    0.0000 C   0  0  0  0  0  0
    1.5000   -2.5981    0.0000 C   0  0  0  0  0  0
    0.7500   -1.2990    0.0000 C   0  0  0  0  0  0
    1.5000    0.0000    0.0000 C   0  0  0  0  0  0
    0.7500    1.2990    0.0000 C   0  0  0  0  0  0
   -0.7500    1.2990    0.0000 C   0  0  0  0  0  0
   -1.5000    0.0000    0.0000 C   0  0  0  0  0  0
   -3.0000    0.0000    0.0000 C   0  0  0  0  0  0
   -3.7500    1.2990    0.0000 C   0  0  0  0  0  0
   -5.2500    1.2990    0.0000 C   0  0  0  0  0  0
   -6.0000    0.0000    0.0000 O   0  0  0  0  0  0
   -6.0000    2.5981    0.0000 O   0  0  0  0  0  0
   -0.7500   -1.2990    0.0000 C   0  0  0  0  0  0
   -1.5000   -2.5981    0.0000 F   0  0  0  0  0  0
    8.7718   -7.4616    0.0000 C   0  0  0  0  0  0
   10.1421   -8.0717    0.0000 C   0  0  0  0  0  0
   11.3556   -7.1900    0.0000 C   0  0  0  0  0  0
   11.1988   -5.6982    0.0000 C   0  0  0  0  0  0
    9.8285   -5.0881    0.0000 C   0  0  0  0  0  0
    8.6150   -5.9698    0.0000 C   0  0  0  0  0  0
  1  2  1  0  0  0
  2  3  1  0  0  0
  2  4  1  0  0  0
  4  5  1  0  0  0
  5  6  1  0  0  0
  6  7  2  0  0  0
  6  8  1  0  0  0
  8  9  1  0  0  0
  9 10  1  0  0  0
  9 13  1  6  0  0
 10 11  1  0  0  0
 10 12  1  0  0  0
 13 14  2  0  0  0
 13 15  1  0  0  0
 15 16  1  0  0  0
 15 19  1  0  0  0
 16 17  1  0  0  0
 17 18  1  0  0  0
 17 45  1  6  0  0
 18 19  1  0  0  0
 19 20  1  6  0  0
 20 21  2  0  0  0
 20 22  1  0  0  0
 22 23  1  0  0  0
 23 24  1  0  0  0
 23 28  1  6  0  0
 24 25  1  0  0  0
 25 26  1  0  0  0
 25 27  1  0  0  0
 28 29  2  0  0  0
 28 30  1  0  0  0
 30 31  1  0  0  0
 31 32  1  0  0  0
 32 33  1  0  0  0
 33 34  2  0  0  0
 33 43  1  0  0  0
 34 35  1  0  0  0
 35 36  2  0  0  0
 36 37  1  0  0  0
 37 38  1  0  0  0
 37 43  2  0  0  0
 38 39  2  0  0  0
 39 40  1  0  0  0
 40 41  2  0  0  0
 40 42  1  0  0  0
 43 44  1  0  0  0
 45 46  2  0  0  0
 45 50  1  0  0  0
 46 47  1  0  0  0
 47 48  2  0  0  0
 48 49  1  0  0  0
 49 50  2  0  0  0
M  END
> <s_m_entry_id>
6603

> <s_m_entry_name>
NS3-4A.144

> <CHEMBLID>
CHEMBL364325

> <s_m_Source_Path>
/home/liwei/Desktop/Machine/HCV/Active

> <s_m_Source_File>
NS3-4A.sdf

> <i_m_Source_File_Index>
144

$$$$
CHEMBL364800
                    3D
 Structure written by MMmdl.
 52 54  0  0  1  0            999 V2000
   14.0846  -15.2566    0.0000 C   0  0  0  0  0  0
   13.0809  -14.1419    0.0000 C   0  0  0  0  0  0
   13.5444  -12.7153    0.0000 C   0  0  0  0  0  0
   11.6137  -14.4538    0.0000 C   0  0  0  0  0  0
   10.6100  -13.3391    0.0000 O   0  0  0  0  0  0
    9.1428  -13.6509    0.0000 C   0  0  0  0  0  0
    8.6792  -15.0775    0.0000 O   0  0  0  0  0  0
    8.1391  -12.5362    0.0000 N   0  0  0  0  0  0
    6.6718  -12.8481    0.0000 C   0  0  1  0  0  0
    6.2083  -14.2747    0.0000 C   0  0  0  0  0  0
    7.2120  -15.3894    0.0000 C   0  0  0  0  0  0
    4.7411  -14.5865    0.0000 C   0  0  0  0  0  0
    5.6682  -11.7334    0.0000 C   0  0  0  0  0  0
    4.2009  -12.0452    0.0000 O   0  0  0  0  0  0
    6.1317  -10.3068    0.0000 N   0  0  0  0  0  0
    7.5583   -9.8433    0.0000 C   0  0  0  0  0  0
    7.5583   -8.3433    0.0000 C   0  0  1  0  0  0
    6.1317   -7.8797    0.0000 C   0  0  0  0  0  0
    5.2500   -9.0933    0.0000 C   0  0  1  0  0  0
    3.7500   -9.0933    0.0000 C   0  0  0  0  0  0
    3.0000  -10.3923    0.0000 O   0  0  0  0  0  0
    3.0000   -7.7942    0.0000 N   0  0  0  0  0  0
    1.5000   -7.7942    0.0000 C   0  0  1  0  0  0
    0.7500   -9.0933    0.0000 C   0  0  0  0  0  0
   -0.7500   -9.0933    0.0000 C   0  0  0  0  0  0
   -1.5000  -10.3923    0.0000 F   0  0  0  0  0  0
   -1.5000   -7.7942    0.0000 F   0  0  0  0  0  0
    0.7500   -6.4952    0.0000 C   0  0  0  0  0  0
   -0.7500   -6.4952    0.0000 O   0  0  0  0  0  0
    1.5000   -5.1962    0.0000 N   0  0  0  0  0  0
    0.7500   -3.8971    0.0000 C   0  0  0  0  0  0
    1.5000   -2.5981    0.0000 C   0  0  0  0  0  0
    0.7500   -1.2990    0.0000 C   0  0  0  0  0  0
    1.5000    0.0000    0.0000 C   0  0  0  0  0  0
    3.0000    0.0000    0.0000 F   0  0  0  0  0  0
    0.7500    1.2990    0.0000 C   0  0  0  0  0  0
   -0.7500    1.2990    0.0000 C   0  0  0  0  0  0
   -1.5000    0.0000    0.0000 C   0  0  0  0  0  0
   -3.0000    0.0000    0.0000 O   0  0  0  0  0  0
   -3.7500    1.2990    0.0000 C   0  0  3  0  0  0
   -5.2500    1.2990    0.0000 C   0  0  0  0  0  0
   -3.0000    2.5981    0.0000 C   0  0  0  0  0  0
   -1.5000    2.5981    0.0000 O   0  0  0  0  0  0
   -3.7500    3.8971    0.0000 O   0  0  0  0  0  0
   -0.7500   -1.2990    0.0000 C   0  0  0  0  0  0
   -1.5000   -2.5981    0.0000 F   0  0  0  0  0  0
    8.7718   -7.4616    0.0000 C   0  0  0  0  0  0
   10.1421   -8.0717    0.0000 C   0  0  0  0  0  0
   11.3556   -7.1900    0.0000 C   0  0  0  0  0  0
   11.1988   -5.6982    0.0000 C   0  0  0  0  0  0
    9.8285   -5.0881    0.0000 C   0  0  0  0  0  0
    8.6150   -5.9698    0.0000 C   0  0  0  0  0  0
  1  2  1  0  0  0
  2  3  1  0  0  0
  2  4  1  0  0  0
  4  5  1  0  0  0
  5  6  1  0  0  0
  6  7  2  0  0  0
  6  8  1  0  0  0
  8  9  1  0  0  0
  9 10  1  0  0  0
  9 13  1  6  0  0
 10 11  1  0  0  0
 10 12  1  0  0  0
 13 14  2  0  0  0
 13 15  1  0  0  0
 15 16  1  0  0  0
 15 19  1  0  0  0
 16 17  1  0  0  0
 17 18  1  0  0  0
 17 47  1  6  0  0
 18 19  1  0  0  0
 19 20  1  6  0  0
 20 21  2  0  0  0
 20 22  1  0  0  0
 22 23  1  0  0  0
 23 24  1  0  0  0
 23 28  1  6  0  0
 24 25  1  0  0  0
 25 26  1  0  0  0
 25 27  1  0  0  0
 28 29  2  0  0  0
 28 30  1  0  0  0
 30 31  1  0  0  0
 31 32  1  0  0  0
 32 33  1  0  0  0
 33 34  2  0  0  0
 33 45  1  0  0  0
 34 35  1  0  0  0
 34 36  1  0  0  0
 36 37  2  0  0  0
 37 38  1  0  0  0
 38 39  1  0  0  0
 38 45  2  0  0  0
 39 40  1  0  0  0
 40 41  1  0  0  0
 40 42  1  0  0  0
 42 43  2  0  0  0
 42 44  1  0  0  0
 45 46  1  0  0  0
 47 48  1  0  0  0
 47 52  1  0  0  0
 48 49  1  0  0  0
 49 50  1  0  0  0
 50 51  1  0  0  0
 51 52  1  0  0  0
M  END
> <s_m_entry_id>
6604

> <s_m_entry_name>
NS3-4A.145

> <CHEMBLID>
CHEMBL364800

> <s_m_Source_Path>
/home/liwei/Desktop/Machine/HCV/Active

> <s_m_Source_File>
NS3-4A.sdf

> <i_m_Source_File_Index>
145

$$$$
CHEMBL365220
                    3D
 Structure written by MMmdl.
 44 44  0  0  1  0            999 V2000
    3.0000    7.7942    0.0000 C   0  0  0  0  0  0
    3.7500    6.4952    0.0000 C   0  0  0  0  0  0
    3.0000    5.1962    0.0000 C   0  0  0  0  0  0
    5.2500    6.4952    0.0000 C   0  0  0  0  0  0
    6.0000    5.1962    0.0000 O   0  0  0  0  0  0
    7.5000    5.1962    0.0000 C   0  0  0  0  0  0
    8.2500    6.4952    0.0000 O   0  0  0  0  0  0
    8.2500    3.8971    0.0000 N   0  0  0  0  0  0
    9.7500    3.8971    0.0000 C   0  0  1  0  0  0
   10.5000    5.1962    0.0000 C   0  0  0  0  0  0
    9.7500    6.4952    0.0000 C   0  0  0  0  0  0
   12.0000    5.1962    0.0000 C   0  0  0  0  0  0
   10.5000    2.5981    0.0000 C   0  0  0  0  0  0
   12.0000    2.5981    0.0000 O   0  0  0  0  0  0
    9.7500    1.2990    0.0000 N   0  0  0  0  0  0
   10.5000    0.0000    0.0000 C   0  0  1  0  0  0
   12.0000    0.0000    0.0000 C   0  0  0  0  0  0
   12.7500   -1.2990    0.0000 C   0  0  0  0  0  0
   14.2500   -1.2990    0.0000 C   0  0  0  0  0  0
   12.0000   -2.5981    0.0000 C   0  0  0  0  0  0
    9.7500   -1.2990    0.0000 C   0  0  0  0  0  0
   10.5000   -2.5981    0.0000 O   0  0  0  0  0  0
    8.2500   -1.2990    0.0000 N   0  0  0  0  0  0
    7.5000   -2.5981    0.0000 C   0  0  1  0  0  0
    8.2500   -3.8971    0.0000 C   0  0  0  0  0  0
    7.5000   -5.1962    0.0000 C   0  0  0  0  0  0
    8.2500   -6.4952    0.0000 F   0  0  0  0  0  0
    6.0000   -5.1962    0.0000 F   0  0  0  0  0  0
    6.0000   -2.5981    0.0000 C   0  0  0  0  0  0
    5.2500   -3.8971    0.0000 O   0  0  0  0  0  0
    5.2500   -1.2990    0.0000 N   0  0  0  0  0  0
    3.7500   -1.2990    0.0000 C   0  0  0  0  0  0
    3.0000    0.0000    0.0000 C   0  0  0  0  0  0
    1.5000    0.0000    0.0000 C   0  0  0  0  0  0
    0.7500   -1.2990    0.0000 C   0  0  0  0  0  0
    1.5000   -2.5981    0.0000 F   0  0  0  0  0  0
   -0.7500   -1.2990    0.0000 C   0  0  0  0  0  0
   -1.5000    0.0000    0.0000 C   0  0  0  0  0  0
   -0.7500    1.2990    0.0000 C   0  0  0  0  0  0
    0.7500    1.2990    0.0000 C   0  0  0  0  0  0
    1.5000    2.5981    0.0000 F   0  0  0  0  0  0
   -3.0000    0.0000    0.0000 C   0  0  0  0  0  0
   -3.7500   -1.2990    0.0000 O   0  0  0  0  0  0
   -3.7500    1.2990    0.0000 O   0  0  0  0  0  0
  1  2  1  0  0  0
  2  3  1  0  0  0
  2  4  1  0  0  0
  4  5  1  0  0  0
  5  6  1  0  0  0
  6  7  2  0  0  0
  6  8  1  0  0  0
  8  9  1  0  0  0
  9 10  1  0  0  0
  9 13  1  6  0  0
 10 11  1  0  0  0
 10 12  1  0  0  0
 13 14  2  0  0  0
 13 15  1  0  0  0
 15 16  1  0  0  0
 16 17  1  0  0  0
 16 21  1  6  0  0
 17 18  1  0  0  0
 18 19  1  0  0  0
 18 20  1  0  0  0
 21 22  2  0  0  0
 21 23  1  0  0  0
 23 24  1  0  0  0
 24 25  1  0  0  0
 24 29  1  6  0  0
 25 26  1  0  0  0
 26 27  1  0  0  0
 26 28  1  0  0  0
 29 30  2  0  0  0
 29 31  1  0  0  0
 31 32  1  0  0  0
 32 33  1  0  0  0
 33 34  1  0  0  0
 34 35  2  0  0  0
 34 40  1  0  0  0
 35 36  1  0  0  0
 35 37  1  0  0  0
 37 38  2  0  0  0
 38 39  1  0  0  0
 38 42  1  0  0  0
 39 40  2  0  0  0
 40 41  1  0  0  0
 42 43  2  0  0  0
 42 44  1  0  0  0
M  END
> <s_m_entry_id>
6605

> <s_m_entry_name>
NS3-4A.146

> <CHEMBLID>
CHEMBL365220

> <s_m_Source_Path>
/home/liwei/Desktop/Machine/HCV/Active

> <s_m_Source_File>
NS3-4A.sdf

> <i_m_Source_File_Index>
146

$$$$
CHEMBL366124
                    3D
 Structure written by MMmdl.
 65 69  0  0  1  0            999 V2000
   -7.5000    5.1962    0.0000 C   0  0  0  0  0  0
   -6.0000    5.1962    0.0000 O   0  0  0  0  0  0
   -5.2500    3.8971    0.0000 C   0  0  0  0  0  0
   -6.0000    2.5981    0.0000 C   0  0  0  0  0  0
   -5.2500    1.2990    0.0000 C   0  0  0  0  0  0
   -3.7500    1.2990    0.0000 C   0  0  0  0  0  0
   -3.0000    0.0000    0.0000 C   0  0  0  0  0  0
   -3.7500   -1.2990    0.0000 O   0  0  0  0  0  0
   -5.2500   -1.2990    0.0000 C   0  0  2  0  0  0
   -6.1317   -2.5126    0.0000 C   0  0  0  0  0  0
   -7.5583   -2.0490    0.0000 C   0  0  2  0  0  0
   -7.5583   -0.5490    0.0000 N   0  0  0  0  0  0
   -6.1317   -0.0855    0.0000 C   0  0  0  0  0  0
   -8.7718    0.3326    0.0000 C   0  0  0  0  0  0
  -10.1421   -0.2775    0.0000 O   0  0  0  0  0  0
   -8.6150    1.8244    0.0000 C   0  0  1  0  0  0
   -9.8285    2.7061    0.0000 N   0  0  0  0  0  0
   -9.6717    4.1979    0.0000 C   0  0  0  0  0  0
  -10.8853    5.0796    0.0000 O   0  0  0  0  0  0
   -8.3014    4.8080    0.0000 O   0  0  0  0  0  0
   -8.1446    6.2998    0.0000 C   0  0  0  0  0  0
   -6.7743    6.9099    0.0000 C   0  0  0  0  0  0
   -6.6175    8.4017    0.0000 C   0  0  0  0  0  0
   -5.5608    6.0282    0.0000 C   0  0  0  0  0  0
   -7.2447    2.4345    0.0000 C   0  0  0  0  0  0
   -7.0879    3.9263    0.0000 C   0  0  0  0  0  0
   -6.0312    1.5528    0.0000 C   0  0  0  0  0  0
   -8.7718   -2.9307    0.0000 C   0  0  0  0  0  0
   -8.6150   -4.4225    0.0000 O   0  0  0  0  0  0
  -10.1421   -2.3206    0.0000 N   0  0  0  0  0  0
  -11.3556   -3.2023    0.0000 C   0  0  1  0  0  0
  -12.7260   -2.5922    0.0000 C   0  0  0  0  0  0
  -13.9395   -3.4739    0.0000 C   0  0  0  0  0  0
  -15.3098   -2.8638    0.0000 F   0  0  0  0  0  0
  -13.7827   -4.9656    0.0000 F   0  0  0  0  0  0
  -11.1988   -4.6941    0.0000 C   0  0  0  0  0  0
   -9.8285   -5.3042    0.0000 O   0  0  0  0  0  0
  -12.4124   -5.5757    0.0000 N   0  0  0  0  0  0
  -12.2556   -7.0675    0.0000 C   0  0  0  0  0  0
  -13.4691   -7.9492    0.0000 C   0  0  0  0  0  0
  -13.3123   -9.4410    0.0000 C   0  0  0  0  0  0
  -14.5258  -10.3227    0.0000 C   0  0  0  0  0  0
  -15.8961   -9.7126    0.0000 F   0  0  0  0  0  0
  -14.3690  -11.8145    0.0000 C   0  0  0  0  0  0
  -12.9987  -12.4246    0.0000 C   0  0  0  0  0  0
  -11.7852  -11.5429    0.0000 C   0  0  0  0  0  0
  -11.9420  -10.0511    0.0000 C   0  0  0  0  0  0
  -10.7285   -9.1694    0.0000 F   0  0  0  0  0  0
  -12.8419  -13.9163    0.0000 C   0  0  0  0  0  0
  -11.4716  -14.5264    0.0000 O   0  0  0  0  0  0
  -14.0555  -14.7980    0.0000 O   0  0  0  0  0  0
   -1.5000    0.0000    0.0000 C   0  0  0  0  0  0
   -0.7500    1.2990    0.0000 C   0  0  0  0  0  0
   -1.5000    2.5981    0.0000 N   0  0  0  0  0  0
   -3.0000    2.5981    0.0000 C   0  0  0  0  0  0
   -3.7500    3.8971    0.0000 C   0  0  0  0  0  0
    0.7500    1.2990    0.0000 C   0  0  0  0  0  0
    1.6317    0.0855    0.0000 C   0  0  0  0  0  0
    3.0583    0.5490    0.0000 S   0  0  0  0  0  0
    3.0583    2.0490    0.0000 C   0  0  0  0  0  0
    4.2718    2.9307    0.0000 N   0  0  0  0  0  0
    4.1150    4.4225    0.0000 C   0  0  0  0  0  0
    5.3285    5.3042    0.0000 C   0  0  0  0  0  0
    2.7447    5.0326    0.0000 C   0  0  0  0  0  0
    1.6317    2.5126    0.0000 N   0  0  0  0  0  0
  1  2  1  0  0  0
  2  3  1  0  0  0
  3  4  2  0  0  0
  3 56  1  0  0  0
  4  5  1  0  0  0
  5  6  2  0  0  0
  6  7  1  0  0  0
  6 55  1  0  0  0
  7  8  1  0  0  0
  7 52  2  0  0  0
  8  9  1  0  0  0
  9 10  1  0  0  0
  9 13  1  6  0  0
 10 11  1  0  0  0
 11 12  1  0  0  0
 11 28  1  1  0  0
 12 13  1  0  0  0
 12 14  1  0  0  0
 14 15  2  0  0  0
 14 16  1  0  0  0
 16 17  1  0  0  0
 16 25  1  6  0  0
 17 18  1  0  0  0
 18 19  2  0  0  0
 18 20  1  0  0  0
 20 21  1  0  0  0
 21 22  1  0  0  0
 22 23  1  0  0  0
 22 24  1  0  0  0
 25 26  1  0  0  0
 25 27  1  0  0  0
 28 29  2  0  0  0
 28 30  1  0  0  0
 30 31  1  0  0  0
 31 32  1  0  0  0
 31 36  1  6  0  0
 32 33  1  0  0  0
 33 34  1  0  0  0
 33 35  1  0  0  0
 36 37  2  0  0  0
 36 38  1  0  0  0
 38 39  1  0  0  0
 39 40  1  0  0  0
 40 41  1  0  0  0
 41 42  2  0  0  0
 41 47  1  0  0  0
 42 43  1  0  0  0
 42 44  1  0  0  0
 44 45  2  0  0  0
 45 46  1  0  0  0
 45 49  1  0  0  0
 46 47  2  0  0  0
 47 48  1  0  0  0
 49 50  2  0  0  0
 49 51  1  0  0  0
 52 53  1  0  0  0
 53 54  2  0  0  0
 53 57  1  0  0  0
 54 55  1  0  0  0
 55 56  2  0  0  0
 57 58  2  0  0  0
 57 65  1  0  0  0
 58 59  1  0  0  0
 59 60  1  0  0  0
 60 61  1  0  0  0
 60 65  2  0  0  0
 61 62  1  0  0  0
 62 63  1  0  0  0
 62 64  1  0  0  0
M  END
> <s_m_entry_id>
6606

> <s_m_entry_name>
NS3-4A.147

> <CHEMBLID>
CHEMBL366124

> <s_m_Source_Path>
/home/liwei/Desktop/Machine/HCV/Active

> <s_m_Source_File>
NS3-4A.sdf

> <i_m_Source_File_Index>
147

$$$$
CHEMBL366279
                    3D
 Structure written by MMmdl.
 51 54  0  0  1  0            999 V2000
   14.0846  -15.2566    0.0000 C   0  0  0  0  0  0
   13.0809  -14.1419    0.0000 C   0  0  0  0  0  0
   13.5444  -12.7153    0.0000 C   0  0  0  0  0  0
   11.6137  -14.4538    0.0000 C   0  0  0  0  0  0
   10.6100  -13.3391    0.0000 O   0  0  0  0  0  0
    9.1428  -13.6509    0.0000 C   0  0  0  0  0  0
    8.6792  -15.0775    0.0000 O   0  0  0  0  0  0
    8.1391  -12.5362    0.0000 N   0  0  0  0  0  0
    6.6718  -12.8481    0.0000 C   0  0  1  0  0  0
    6.2083  -14.2747    0.0000 C   0  0  0  0  0  0
    7.2120  -15.3894    0.0000 C   0  0  0  0  0  0
    4.7411  -14.5865    0.0000 C   0  0  0  0  0  0
    5.6682  -11.7334    0.0000 C   0  0  0  0  0  0
    4.2009  -12.0452    0.0000 O   0  0  0  0  0  0
    6.1317  -10.3068    0.0000 N   0  0  0  0  0  0
    7.5583   -9.8433    0.0000 C   0  0  0  0  0  0
    7.5583   -8.3433    0.0000 C   0  0  1  0  0  0
    6.1317   -7.8797    0.0000 C   0  0  0  0  0  0
    5.2500   -9.0933    0.0000 C   0  0  1  0  0  0
    3.7500   -9.0933    0.0000 C   0  0  0  0  0  0
    3.0000  -10.3923    0.0000 O   0  0  0  0  0  0
    3.0000   -7.7942    0.0000 N   0  0  0  0  0  0
    1.5000   -7.7942    0.0000 C   0  0  1  0  0  0
    0.7500   -9.0933    0.0000 C   0  0  0  0  0  0
   -0.7500   -9.0933    0.0000 C   0  0  0  0  0  0
   -1.5000  -10.3923    0.0000 F   0  0  0  0  0  0
   -1.5000   -7.7942    0.0000 F   0  0  0  0  0  0
    0.7500   -6.4952    0.0000 C   0  0  0  0  0  0
   -0.7500   -6.4952    0.0000 O   0  0  0  0  0  0
    1.5000   -5.1962    0.0000 N   0  0  0  0  0  0
    0.7500   -3.8971    0.0000 C   0  0  0  0  0  0
    1.5000   -2.5981    0.0000 C   0  0  0  0  0  0
    0.7500   -1.2990    0.0000 C   0  0  0  0  0  0
    1.5000    0.0000    0.0000 C   0  0  0  0  0  0
    3.0000    0.0000    0.0000 F   0  0  0  0  0  0
    0.7500    1.2990    0.0000 C   0  0  0  0  0  0
   -0.7500    1.2990    0.0000 C   0  0  0  0  0  0
   -1.5000    0.0000    0.0000 C   0  0  0  0  0  0
   -0.7500   -1.2990    0.0000 C   0  0  0  0  0  0
   -1.5000   -2.5981    0.0000 F   0  0  0  0  0  0
   -1.5000    2.5981    0.0000 C   0  0  0  0  0  0
   -2.9918    2.7549    0.0000 N   0  0  0  0  0  0
   -3.3037    4.2221    0.0000 N   0  0  0  0  0  0
   -2.0046    4.9721    0.0000 N   0  0  0  0  0  0
   -0.8899    3.9684    0.0000 N   0  0  0  0  0  0
    8.7718   -7.4616    0.0000 C   0  0  0  0  0  0
   10.1421   -8.0717    0.0000 C   0  0  0  0  0  0
   11.3556   -7.1900    0.0000 C   0  0  0  0  0  0
   11.1988   -5.6982    0.0000 C   0  0  0  0  0  0
    9.8285   -5.0881    0.0000 C   0  0  0  0  0  0
    8.6150   -5.9698    0.0000 C   0  0  0  0  0  0
  1  2  1  0  0  0
  2  3  1  0  0  0
  2  4  1  0  0  0
  4  5  1  0  0  0
  5  6  1  0  0  0
  6  7  2  0  0  0
  6  8  1  0  0  0
  8  9  1  0  0  0
  9 10  1  0  0  0
  9 13  1  6  0  0
 10 11  1  0  0  0
 10 12  1  0  0  0
 13 14  2  0  0  0
 13 15  1  0  0  0
 15 16  1  0  0  0
 15 19  1  0  0  0
 16 17  1  0  0  0
 17 18  1  0  0  0
 17 46  1  6  0  0
 18 19  1  0  0  0
 19 20  1  6  0  0
 20 21  2  0  0  0
 20 22  1  0  0  0
 22 23  1  0  0  0
 23 24  1  0  0  0
 23 28  1  6  0  0
 24 25  1  0  0  0
 25 26  1  0  0  0
 25 27  1  0  0  0
 28 29  2  0  0  0
 28 30  1  0  0  0
 30 31  1  0  0  0
 31 32  1  0  0  0
 32 33  1  0  0  0
 33 34  2  0  0  0
 33 39  1  0  0  0
 34 35  1  0  0  0
 34 36  1  0  0  0
 36 37  2  0  0  0
 37 38  1  0  0  0
 37 41  1  0  0  0
 38 39  2  0  0  0
 39 40  1  0  0  0
 41 42  1  0  0  0
 41 45  2  0  0  0
 42 43  2  0  0  0
 43 44  1  0  0  0
 44 45  1  0  0  0
 46 47  1  0  0  0
 46 51  1  0  0  0
 47 48  1  0  0  0
 48 49  1  0  0  0
 49 50  1  0  0  0
 50 51  1  0  0  0
M  END
> <s_m_entry_id>
6607

> <s_m_entry_name>
NS3-4A.148

> <CHEMBLID>
CHEMBL366279

> <s_m_Source_Path>
/home/liwei/Desktop/Machine/HCV/Active

> <s_m_Source_File>
NS3-4A.sdf

> <i_m_Source_File_Index>
148

$$$$
CHEMBL366421
                    3D
 Structure written by MMmdl.
 49 52  0  0  1  0            999 V2000
   10.0022    3.6413    0.0000 C   0  0  0  0  0  0
    8.9985    2.5266    0.0000 C   0  0  0  0  0  0
    9.4620    1.1000    0.0000 C   0  0  0  0  0  0
    8.4583   -0.0147    0.0000 C   0  0  2  0  0  0
    8.9218   -1.4413    0.0000 N   0  0  0  0  0  0
    7.9182   -2.5560    0.0000 C   0  0  0  0  0  0
    6.4509   -2.2442    0.0000 O   0  0  0  0  0  0
    8.3817   -3.9826    0.0000 C   0  0  2  0  0  0
    9.8083   -4.4462    0.0000 C   0  0  2  0  0  0
    9.8083   -5.9462    0.0000 C   0  0  0  0  0  0
    8.3817   -6.4097    0.0000 C   0  0  0  0  0  0
    7.5000   -5.1962    0.0000 N   0  0  0  0  0  0
    6.0000   -5.1962    0.0000 C   0  0  0  0  0  0
    5.2500   -3.8971    0.0000 O   0  0  0  0  0  0
    5.2500   -6.4952    0.0000 C   0  0  2  0  0  0
    3.7500   -6.4952    0.0000 N   0  0  0  0  0  0
    3.0000   -5.1962    0.0000 C   0  0  0  0  0  0
    3.7500   -3.8971    0.0000 O   0  0  0  0  0  0
    1.5000   -5.1962    0.0000 C   0  0  2  0  0  0
    0.7500   -3.8971    0.0000 N   0  0  0  0  0  0
    1.5000   -2.5981    0.0000 C   0  0  3  0  0  0
    3.0000   -2.5981    0.0000 O   0  0  0  0  0  0
    0.7500   -1.2990    0.0000 C   0  0  0  0  0  0
    1.5000    0.0000    0.0000 C   0  0  0  0  0  0
    0.7500    1.2990    0.0000 N   0  0  0  0  0  0
   -0.7500    1.2990    0.0000 C   0  0  0  0  0  0
   -1.5000    0.0000    0.0000 C   0  0  0  0  0  0
   -0.7500   -1.2990    0.0000 N   0  0  0  0  0  0
    0.7500   -6.4952    0.0000 C   0  0  0  0  0  0
   -0.7500   -6.4952    0.0000 C   0  0  0  0  0  0
   -1.5000   -7.7942    0.0000 C   0  0  0  0  0  0
   -0.7500   -9.0933    0.0000 C   0  0  0  0  0  0
    0.7500   -9.0933    0.0000 C   0  0  0  0  0  0
    1.5000   -7.7942    0.0000 C   0  0  0  0  0  0
    6.0000   -7.7942    0.0000 C   0  0  0  0  0  0
    7.2990   -7.0442    0.0000 C   0  0  0  0  0  0
    4.7010   -8.5442    0.0000 C   0  0  0  0  0  0
    6.7500   -9.0933    0.0000 C   0  0  0  0  0  0
   11.0218   -3.5645    0.0000 C   0  0  0  0  0  0
   12.3921   -4.1746    0.0000 C   0  0  0  0  0  0
   10.8650   -2.0727    0.0000 C   0  0  0  0  0  0
    6.9911    0.2971    0.0000 C   0  0  0  0  0  0
    5.9874   -0.8176    0.0000 O   0  0  0  0  0  0
    6.5276    1.7237    0.0000 C   0  0  0  0  0  0
    7.5313    2.8384    0.0000 O   0  0  0  0  0  0
    5.0604    2.0356    0.0000 N   0  0  0  0  0  0
    4.5968    3.4622    0.0000 C   0  0  0  0  0  0
    3.4821    4.4659    0.0000 C   0  0  0  0  0  0
    4.9087    4.9294    0.0000 C   0  0  0  0  0  0
  1  2  1  0  0  0
  2  3  1  0  0  0
  3  4  1  0  0  0
  4  5  1  0  0  0
  4 42  1  1  0  0
  5  6  1  0  0  0
  6  7  2  0  0  0
  6  8  1  0  0  0
  8  9  1  0  0  0
  8 12  1  1  0  0
  9 10  1  0  0  0
  9 39  1  6  0  0
 10 11  1  0  0  0
 11 12  1  0  0  0
 12 13  1  0  0  0
 13 14  2  0  0  0
 13 15  1  0  0  0
 15 16  1  0  0  0
 15 35  1  6  0  0
 16 17  1  0  0  0
 17 18  2  0  0  0
 17 19  1  0  0  0
 19 20  1  0  0  0
 19 29  1  6  0  0
 20 21  1  0  0  0
 21 22  1  0  0  0
 21 23  1  0  0  0
 23 24  2  0  0  0
 23 28  1  0  0  0
 24 25  1  0  0  0
 25 26  2  0  0  0
 26 27  1  0  0  0
 27 28  2  0  0  0
 29 30  1  0  0  0
 29 34  1  0  0  0
 30 31  1  0  0  0
 31 32  1  0  0  0
 32 33  1  0  0  0
 33 34  1  0  0  0
 35 36  1  0  0  0
 35 37  1  0  0  0
 35 38  1  0  0  0
 39 40  1  0  0  0
 39 41  1  0  0  0
 42 43  2  0  0  0
 42 44  1  0  0  0
 44 45  2  0  0  0
 44 46  1  0  0  0
 46 47  1  0  0  0
 47 48  1  0  0  0
 47 49  1  0  0  0
 48 49  1  0  0  0
M  END
> <s_m_entry_id>
6608

> <s_m_entry_name>
NS3-4A.149

> <CHEMBLID>
CHEMBL366421

> <s_m_Source_Path>
/home/liwei/Desktop/Machine/HCV/Active

> <s_m_Source_File>
NS3-4A.sdf

> <i_m_Source_File_Index>
149

$$$$
CHEMBL366646
                    3D
 Structure written by MMmdl.
 52 56  0  0  1  0            999 V2000
   10.0022    3.6413    0.0000 C   0  0  0  0  0  0
    8.9985    2.5266    0.0000 C   0  0  0  0  0  0
    9.4620    1.1000    0.0000 C   0  0  0  0  0  0
    8.4583   -0.0147    0.0000 C   0  0  2  0  0  0
    8.9218   -1.4413    0.0000 N   0  0  0  0  0  0
    7.9182   -2.5560    0.0000 C   0  0  0  0  0  0
    6.4509   -2.2442    0.0000 O   0  0  0  0  0  0
    8.3817   -3.9826    0.0000 C   0  0  2  0  0  0
    9.8083   -4.4462    0.0000 C   0  0  2  0  0  0
    9.8083   -5.9462    0.0000 C   0  0  0  0  0  0
    8.3817   -6.4097    0.0000 C   0  0  0  0  0  0
    7.5000   -5.1962    0.0000 N   0  0  0  0  0  0
    6.0000   -5.1962    0.0000 C   0  0  0  0  0  0
    5.2500   -3.8971    0.0000 O   0  0  0  0  0  0
    5.2500   -6.4952    0.0000 C   0  0  2  0  0  0
    3.7500   -6.4952    0.0000 N   0  0  0  0  0  0
    3.0000   -5.1962    0.0000 C   0  0  0  0  0  0
    3.7500   -3.8971    0.0000 O   0  0  0  0  0  0
    1.5000   -5.1962    0.0000 C   0  0  2  0  0  0
    0.7500   -3.8971    0.0000 N   0  0  0  0  0  0
    1.5000   -2.5981    0.0000 C   0  0  3  0  0  0
    3.0000   -2.5981    0.0000 O   0  0  0  0  0  0
    0.7500   -1.2990    0.0000 C   0  0  0  0  0  0
    1.5000    0.0000    0.0000 C   0  0  0  0  0  0
    0.7500    1.2990    0.0000 N   0  0  0  0  0  0
   -0.7500    1.2990    0.0000 C   0  0  0  0  0  0
   -1.5000    0.0000    0.0000 C   0  0  0  0  0  0
   -0.7500   -1.2990    0.0000 N   0  0  0  0  0  0
    0.7500   -6.4952    0.0000 C   0  0  0  0  0  0
   -0.7500   -6.4952    0.0000 C   0  0  0  0  0  0
   -1.5000   -7.7942    0.0000 C   0  0  0  0  0  0
   -0.7500   -9.0933    0.0000 C   0  0  0  0  0  0
    0.7500   -9.0933    0.0000 C   0  0  0  0  0  0
    1.5000   -7.7942    0.0000 C   0  0  0  0  0  0
    6.0000   -7.7942    0.0000 C   0  0  0  0  0  0
    7.2990   -7.0442    0.0000 C   0  0  0  0  0  0
    4.7010   -8.5442    0.0000 C   0  0  0  0  0  0
    6.7500   -9.0933    0.0000 C   0  0  0  0  0  0
   11.0218   -3.5645    0.0000 C   0  0  0  0  0  0
   12.3921   -4.1746    0.0000 C   0  0  0  0  0  0
   13.6056   -3.2929    0.0000 C   0  0  0  0  0  0
   13.4488   -1.8011    0.0000 C   0  0  0  0  0  0
   12.0785   -1.1910    0.0000 C   0  0  0  0  0  0
   10.8650   -2.0727    0.0000 C   0  0  0  0  0  0
    6.9911    0.2971    0.0000 C   0  0  0  0  0  0
    5.9874   -0.8176    0.0000 O   0  0  0  0  0  0
    6.5276    1.7237    0.0000 C   0  0  0  0  0  0
    7.5313    2.8384    0.0000 O   0  0  0  0  0  0
    5.0604    2.0356    0.0000 N   0  0  0  0  0  0
    4.5968    3.4622    0.0000 C   0  0  0  0  0  0
    3.4821    4.4659    0.0000 C   0  0  0  0  0  0
    4.9087    4.9294    0.0000 C   0  0  0  0  0  0
  1  2  1  0  0  0
  2  3  1  0  0  0
  3  4  1  0  0  0
  4  5  1  0  0  0
  4 45  1  1  0  0
  5  6  1  0  0  0
  6  7  2  0  0  0
  6  8  1  0  0  0
  8  9  1  0  0  0
  8 12  1  1  0  0
  9 10  1  0  0  0
  9 39  1  6  0  0
 10 11  1  0  0  0
 11 12  1  0  0  0
 12 13  1  0  0  0
 13 14  2  0  0  0
 13 15  1  0  0  0
 15 16  1  0  0  0
 15 35  1  6  0  0
 16 17  1  0  0  0
 17 18  2  0  0  0
 17 19  1  0  0  0
 19 20  1  0  0  0
 19 29  1  6  0  0
 20 21  1  0  0  0
 21 22  1  0  0  0
 21 23  1  0  0  0
 23 24  2  0  0  0
 23 28  1  0  0  0
 24 25  1  0  0  0
 25 26  2  0  0  0
 26 27  1  0  0  0
 27 28  2  0  0  0
 29 30  1  0  0  0
 29 34  1  0  0  0
 30 31  1  0  0  0
 31 32  1  0  0  0
 32 33  1  0  0  0
 33 34  1  0  0  0
 35 36  1  0  0  0
 35 37  1  0  0  0
 35 38  1  0  0  0
 39 40  1  0  0  0
 39 44  1  0  0  0
 40 41  1  0  0  0
 41 42  1  0  0  0
 42 43  1  0  0  0
 43 44  1  0  0  0
 45 46  2  0  0  0
 45 47  1  0  0  0
 47 48  2  0  0  0
 47 49  1  0  0  0
 49 50  1  0  0  0
 50 51  1  0  0  0
 50 52  1  0  0  0
 51 52  1  0  0  0
M  END
> <s_m_entry_id>
6609

> <s_m_entry_name>
NS3-4A.150

> <CHEMBLID>
CHEMBL366646

> <s_m_Source_Path>
/home/liwei/Desktop/Machine/HCV/Active

> <s_m_Source_File>
NS3-4A.sdf

> <i_m_Source_File_Index>
150

$$$$
CHEMBL366858
                    3D
 Structure written by MMmdl.
 54 56  0  0  1  0            999 V2000
   10.0022    3.6413    0.0000 C   0  0  0  0  0  0
    8.9985    2.5266    0.0000 C   0  0  0  0  0  0
    9.4620    1.1000    0.0000 C   0  0  0  0  0  0
    8.4583   -0.0147    0.0000 C   0  0  2  0  0  0
    8.9218   -1.4413    0.0000 N   0  0  0  0  0  0
    7.9182   -2.5560    0.0000 C   0  0  0  0  0  0
    6.4509   -2.2442    0.0000 O   0  0  0  0  0  0
    8.3817   -3.9826    0.0000 C   0  0  2  0  0  0
    9.8083   -4.4462    0.0000 C   0  0  2  0  0  0
    9.8083   -5.9462    0.0000 C   0  0  0  0  0  0
    8.3817   -6.4097    0.0000 C   0  0  0  0  0  0
    7.5000   -5.1962    0.0000 N   0  0  0  0  0  0
    6.0000   -5.1962    0.0000 C   0  0  0  0  0  0
    5.2500   -3.8971    0.0000 O   0  0  0  0  0  0
    5.2500   -6.4952    0.0000 C   0  0  2  0  0  0
    3.7500   -6.4952    0.0000 N   0  0  0  0  0  0
    3.0000   -5.1962    0.0000 C   0  0  0  0  0  0
    3.7500   -3.8971    0.0000 O   0  0  0  0  0  0
    1.5000   -5.1962    0.0000 C   0  0  2  0  0  0
    0.7500   -3.8971    0.0000 N   0  0  0  0  0  0
    1.5000   -2.5981    0.0000 C   0  0  0  0  0  0
    3.0000   -2.5981    0.0000 O   0  0  0  0  0  0
    0.7500   -1.2990    0.0000 C   0  0  0  0  0  0
    1.5000    0.0000    0.0000 C   0  0  0  0  0  0
    0.7500    1.2990    0.0000 N   0  0  0  0  0  0
   -0.7500    1.2990    0.0000 C   0  0  0  0  0  0
   -1.5000    0.0000    0.0000 C   0  0  0  0  0  0
   -0.7500   -1.2990    0.0000 N   0  0  0  0  0  0
    0.7500   -6.4952    0.0000 C   0  0  0  0  0  0
    1.5000   -7.7942    0.0000 C   0  0  0  0  0  0
   -0.7500   -6.4952    0.0000 C   0  0  0  0  0  0
    6.0000   -7.7942    0.0000 C   0  0  0  0  0  0
    7.5000   -7.7942    0.0000 C   0  0  0  0  0  0
    5.2500   -9.0933    0.0000 C   0  0  0  0  0  0
   11.0218   -3.5645    0.0000 C   0  0  0  0  0  0
   10.8650   -2.0727    0.0000 O   0  0  0  0  0  0
   12.3921   -4.1746    0.0000 O   0  0  0  0  0  0
   13.6056   -3.2929    0.0000 C   0  0  0  0  0  0
    6.9911    0.2971    0.0000 C   0  0  0  0  0  0
    5.9874   -0.8176    0.0000 O   0  0  0  0  0  0
    6.5276    1.7237    0.0000 C   0  0  0  0  0  0
    7.5313    2.8384    0.0000 O   0  0  0  0  0  0
    5.0604    2.0356    0.0000 N   0  0  0  0  0  0
    4.5968    3.4622    0.0000 C   0  0  1  0  0  0
    3.1296    3.7740    0.0000 C   0  0  0  0  0  0
    2.6661    5.2006    0.0000 C   0  0  0  0  0  0
    3.6698    6.3153    0.0000 C   0  0  0  0  0  0
    3.2063    7.7419    0.0000 C   0  0  0  0  0  0
    1.7390    8.0538    0.0000 C   0  0  0  0  0  0
    0.7353    6.9391    0.0000 C   0  0  0  0  0  0
    1.1989    5.5125    0.0000 C   0  0  0  0  0  0
    5.6005    4.5769    0.0000 C   0  0  0  0  0  0
    7.0677    4.2650    0.0000 O   0  0  0  0  0  0
    5.1370    6.0035    0.0000 O   0  0  0  0  0  0
  1  2  1  0  0  0
  2  3  1  0  0  0
  3  4  1  0  0  0
  4  5  1  0  0  0
  4 39  1  1  0  0
  5  6  1  0  0  0
  6  7  2  0  0  0
  6  8  1  0  0  0
  8  9  1  0  0  0
  8 12  1  1  0  0
  9 10  1  0  0  0
  9 35  1  1  0  0
 10 11  1  0  0  0
 11 12  1  0  0  0
 12 13  1  0  0  0
 13 14  2  0  0  0
 13 15  1  0  0  0
 15 16  1  0  0  0
 15 32  1  6  0  0
 16 17  1  0  0  0
 17 18  2  0  0  0
 17 19  1  0  0  0
 19 20  1  0  0  0
 19 29  1  6  0  0
 20 21  1  0  0  0
 21 22  2  0  0  0
 21 23  1  0  0  0
 23 24  2  0  0  0
 23 28  1  0  0  0
 24 25  1  0  0  0
 25 26  2  0  0  0
 26 27  1  0  0  0
 27 28  2  0  0  0
 29 30  1  0  0  0
 29 31  1  0  0  0
 32 33  1  0  0  0
 32 34  1  0  0  0
 35 36  2  0  0  0
 35 37  1  0  0  0
 37 38  1  0  0  0
 39 40  2  0  0  0
 39 41  1  0  0  0
 41 42  2  0  0  0
 41 43  1  0  0  0
 43 44  1  0  0  0
 44 45  1  0  0  0
 44 52  1  6  0  0
 45 46  1  0  0  0
 46 47  2  0  0  0
 46 51  1  0  0  0
 47 48  1  0  0  0
 48 49  2  0  0  0
 49 50  1  0  0  0
 50 51  2  0  0  0
 52 53  2  0  0  0
 52 54  1  0  0  0
M  END
> <s_m_entry_id>
6610

> <s_m_entry_name>
NS3-4A.151

> <CHEMBLID>
CHEMBL366858

> <s_m_Source_Path>
/home/liwei/Desktop/Machine/HCV/Active

> <s_m_Source_File>
NS3-4A.sdf

> <i_m_Source_File_Index>
151

$$$$
CHEMBL368378
                    3D
 Structure written by MMmdl.
 63 67  0  0  1  0            999 V2000
  -13.3052   -7.3045    0.0000 C   0  0  0  0  0  0
  -12.0917   -8.1862    0.0000 C   0  0  0  0  0  0
  -10.7213   -7.5761    0.0000 C   0  0  0  0  0  0
   -9.5078   -8.4577    0.0000 C   0  0  2  0  0  0
   -8.1375   -7.8476    0.0000 N   0  0  0  0  0  0
   -6.9240   -8.7293    0.0000 C   0  0  0  0  0  0
   -7.0808  -10.2211    0.0000 O   0  0  0  0  0  0
   -5.5537   -8.1192    0.0000 C   0  0  2  0  0  0
   -5.2418   -6.6520    0.0000 C   0  0  0  0  0  0
   -3.7500   -6.4952    0.0000 C   0  0  2  0  0  0
   -3.1399   -7.8655    0.0000 C   0  0  0  0  0  0
   -4.2546   -8.8692    0.0000 N   0  0  0  0  0  0
   -4.0978  -10.3610    0.0000 C   0  0  0  0  0  0
   -5.3113  -11.2427    0.0000 O   0  0  0  0  0  0
   -2.7275  -10.9711    0.0000 C   0  0  2  0  0  0
   -1.5140  -10.0894    0.0000 N   0  0  0  0  0  0
   -0.1437  -10.6995    0.0000 C   0  0  0  0  0  0
    0.0131  -12.1913    0.0000 O   0  0  0  0  0  0
    1.0699   -9.8178    0.0000 C   0  0  2  0  0  0
    0.9131   -8.3261    0.0000 N   0  0  0  0  0  0
    2.1266   -7.4444    0.0000 C   0  0  0  0  0  0
    3.4969   -8.0545    0.0000 O   0  0  0  0  0  0
    1.9698   -5.9526    0.0000 C   0  0  0  0  0  0
    3.1833   -5.0709    0.0000 C   0  0  0  0  0  0
    3.0265   -3.5791    0.0000 N   0  0  0  0  0  0
    1.6562   -2.9690    0.0000 C   0  0  0  0  0  0
    0.4427   -3.8507    0.0000 C   0  0  0  0  0  0
    0.5995   -5.3425    0.0000 N   0  0  0  0  0  0
    2.4402  -10.4279    0.0000 C   0  0  0  0  0  0
    3.6537   -9.5463    0.0000 C   0  0  0  0  0  0
    2.5970  -11.9197    0.0000 C   0  0  0  0  0  0
   -2.5707  -12.4629    0.0000 C   0  0  0  0  0  0
   -1.2004  -13.0730    0.0000 C   0  0  0  0  0  0
   -3.7842  -13.3446    0.0000 C   0  0  0  0  0  0
   -3.0000   -5.1962    0.0000 O   0  0  0  0  0  0
   -3.7500   -3.8971    0.0000 C   0  0  0  0  0  0
   -5.2500   -3.8971    0.0000 O   0  0  0  0  0  0
   -3.0000   -2.5981    0.0000 N   0  0  0  0  0  0
   -3.7500   -1.2990    0.0000 C   0  0  0  0  0  0
   -3.0000    0.0000    0.0000 C   0  0  0  0  0  0
   -1.5000    0.0000    0.0000 C   0  0  0  0  0  0
   -0.7500    1.2990    0.0000 C   0  0  0  0  0  0
    0.7500    1.2990    0.0000 C   0  0  0  0  0  0
    1.5000   -0.0000    0.0000 C   0  0  0  0  0  0
    0.7500   -1.2990    0.0000 C   0  0  0  0  0  0
   -0.7500   -1.2990    0.0000 C   0  0  0  0  0  0
   -1.5000   -2.5981    0.0000 C   0  0  0  0  0  0
   -9.6646   -9.9495    0.0000 C   0  0  0  0  0  0
   -8.4511  -10.8312    0.0000 O   0  0  0  0  0  0
  -11.0349  -10.5596    0.0000 C   0  0  0  0  0  0
  -12.2484   -9.6779    0.0000 O   0  0  0  0  0  0
  -11.1917  -12.0514    0.0000 N   0  0  0  0  0  0
  -12.5620  -12.6615    0.0000 C   0  0  1  0  0  0
  -12.7188  -14.1533    0.0000 C   0  0  0  0  0  0
  -14.0891  -14.7634    0.0000 C   0  0  0  0  0  0
  -15.3027  -13.8817    0.0000 C   0  0  0  0  0  0
  -16.6730  -14.4918    0.0000 C   0  0  0  0  0  0
  -16.8298  -15.9836    0.0000 C   0  0  0  0  0  0
  -15.6163  -16.8653    0.0000 C   0  0  0  0  0  0
  -14.2459  -16.2552    0.0000 C   0  0  0  0  0  0
  -13.7756  -11.7798    0.0000 C   0  0  0  0  0  0
  -13.6188  -10.2881    0.0000 O   0  0  0  0  0  0
  -15.1459  -12.3899    0.0000 O   0  0  0  0  0  0
  1  2  1  0  0  0
  2  3  1  0  0  0
  3  4  1  0  0  0
  4  5  1  0  0  0
  4 48  1  1  0  0
  5  6  1  0  0  0
  6  7  2  0  0  0
  6  8  1  0  0  0
  8  9  1  0  0  0
  8 12  1  1  0  0
  9 10  1  0  0  0
 10 11  1  0  0  0
 10 35  1  6  0  0
 11 12  1  0  0  0
 12 13  1  0  0  0
 13 14  2  0  0  0
 13 15  1  0  0  0
 15 16  1  0  0  0
 15 32  1  6  0  0
 16 17  1  0  0  0
 17 18  2  0  0  0
 17 19  1  0  0  0
 19 20  1  0  0  0
 19 29  1  6  0  0
 20 21  1  0  0  0
 21 22  2  0  0  0
 21 23  1  0  0  0
 23 24  2  0  0  0
 23 28  1  0  0  0
 24 25  1  0  0  0
 25 26  2  0  0  0
 26 27  1  0  0  0
 27 28  2  0  0  0
 29 30  1  0  0  0
 29 31  1  0  0  0
 32 33  1  0  0  0
 32 34  1  0  0  0
 35 36  1  0  0  0
 36 37  2  0  0  0
 36 38  1  0  0  0
 38 39  1  0  0  0
 38 47  1  0  0  0
 39 40  1  0  0  0
 40 41  1  0  0  0
 41 42  2  0  0  0
 41 46  1  0  0  0
 42 43  1  0  0  0
 43 44  2  0  0  0
 44 45  1  0  0  0
 45 46  2  0  0  0
 46 47  1  0  0  0
 48 49  2  0  0  0
 48 50  1  0  0  0
 50 51  2  0  0  0
 50 52  1  0  0  0
 52 53  1  0  0  0
 53 54  1  0  0  0
 53 61  1  6  0  0
 54 55  1  0  0  0
 55 56  2  0  0  0
 55 60  1  0  0  0
 56 57  1  0  0  0
 57 58  2  0  0  0
 58 59  1  0  0  0
 59 60  2  0  0  0
 61 62  2  0  0  0
 61 63  1  0  0  0
M  END
> <s_m_entry_id>
6611

> <s_m_entry_name>
NS3-4A.152

> <CHEMBLID>
CHEMBL368378

> <s_m_Source_Path>
/home/liwei/Desktop/Machine/HCV/Active

> <s_m_Source_File>
NS3-4A.sdf

> <i_m_Source_File_Index>
152

$$$$
CHEMBL368846
                    3D
 Structure written by MMmdl.
 50 53  0  0  1  0            999 V2000
   10.0022    3.6413    0.0000 C   0  0  0  0  0  0
    8.9985    2.5266    0.0000 C   0  0  0  0  0  0
    9.4620    1.1000    0.0000 C   0  0  0  0  0  0
    8.4583   -0.0147    0.0000 C   0  0  2  0  0  0
    8.9218   -1.4413    0.0000 N   0  0  0  0  0  0
    7.9182   -2.5560    0.0000 C   0  0  0  0  0  0
    6.4509   -2.2442    0.0000 O   0  0  0  0  0  0
    8.3817   -3.9826    0.0000 C   0  0  2  0  0  0
    9.8083   -4.4462    0.0000 C   0  0  2  0  0  0
    9.8083   -5.9462    0.0000 C   0  0  0  0  0  0
    8.3817   -6.4097    0.0000 C   0  0  0  0  0  0
    7.5000   -5.1962    0.0000 N   0  0  0  0  0  0
    6.0000   -5.1962    0.0000 C   0  0  0  0  0  0
    5.2500   -3.8971    0.0000 O   0  0  0  0  0  0
    5.2500   -6.4952    0.0000 C   0  0  2  0  0  0
    3.7500   -6.4952    0.0000 N   0  0  0  0  0  0
    3.0000   -5.1962    0.0000 C   0  0  0  0  0  0
    3.7500   -3.8971    0.0000 O   0  0  0  0  0  0
    1.5000   -5.1962    0.0000 C   0  0  2  0  0  0
    0.7500   -3.8971    0.0000 N   0  0  0  0  0  0
    1.5000   -2.5981    0.0000 C   0  0  3  0  0  0
    3.0000   -2.5981    0.0000 O   0  0  0  0  0  0
    0.7500   -1.2990    0.0000 C   0  0  0  0  0  0
    1.5000    0.0000    0.0000 C   0  0  0  0  0  0
    0.7500    1.2990    0.0000 N   0  0  0  0  0  0
   -0.7500    1.2990    0.0000 C   0  0  0  0  0  0
   -1.5000    0.0000    0.0000 C   0  0  0  0  0  0
   -0.7500   -1.2990    0.0000 N   0  0  0  0  0  0
    0.7500   -6.4952    0.0000 C   0  0  0  0  0  0
   -0.7500   -6.4952    0.0000 C   0  0  0  0  0  0
   -1.5000   -7.7942    0.0000 C   0  0  0  0  0  0
   -0.7500   -9.0933    0.0000 C   0  0  0  0  0  0
    0.7500   -9.0933    0.0000 C   0  0  0  0  0  0
    1.5000   -7.7942    0.0000 C   0  0  0  0  0  0
    6.0000   -7.7942    0.0000 C   0  0  0  0  0  0
    7.2990   -7.0442    0.0000 C   0  0  0  0  0  0
    4.7010   -8.5442    0.0000 C   0  0  0  0  0  0
    6.7500   -9.0933    0.0000 C   0  0  0  0  0  0
   11.0218   -3.5645    0.0000 C   0  0  0  0  0  0
   11.9035   -4.7780    0.0000 C   0  0  0  0  0  0
   10.1401   -2.3509    0.0000 C   0  0  0  0  0  0
   12.2353   -2.6828    0.0000 C   0  0  0  0  0  0
    6.9911    0.2971    0.0000 C   0  0  0  0  0  0
    5.9874   -0.8176    0.0000 O   0  0  0  0  0  0
    6.5276    1.7237    0.0000 C   0  0  0  0  0  0
    7.5313    2.8384    0.0000 O   0  0  0  0  0  0
    5.0604    2.0356    0.0000 N   0  0  0  0  0  0
    4.5968    3.4622    0.0000 C   0  0  0  0  0  0
    3.4821    4.4659    0.0000 C   0  0  0  0  0  0
    4.9087    4.9294    0.0000 C   0  0  0  0  0  0
  1  2  1  0  0  0
  2  3  1  0  0  0
  3  4  1  0  0  0
  4  5  1  0  0  0
  4 43  1  1  0  0
  5  6  1  0  0  0
  6  7  2  0  0  0
  6  8  1  0  0  0
  8  9  1  0  0  0
  8 12  1  1  0  0
  9 10  1  0  0  0
  9 39  1  6  0  0
 10 11  1  0  0  0
 11 12  1  0  0  0
 12 13  1  0  0  0
 13 14  2  0  0  0
 13 15  1  0  0  0
 15 16  1  0  0  0
 15 35  1  6  0  0
 16 17  1  0  0  0
 17 18  2  0  0  0
 17 19  1  0  0  0
 19 20  1  0  0  0
 19 29  1  6  0  0
 20 21  1  0  0  0
 21 22  1  0  0  0
 21 23  1  0  0  0
 23 24  2  0  0  0
 23 28  1  0  0  0
 24 25  1  0  0  0
 25 26  2  0  0  0
 26 27  1  0  0  0
 27 28  2  0  0  0
 29 30  1  0  0  0
 29 34  1  0  0  0
 30 31  1  0  0  0
 31 32  1  0  0  0
 32 33  1  0  0  0
 33 34  1  0  0  0
 35 36  1  0  0  0
 35 37  1  0  0  0
 35 38  1  0  0  0
 39 40  1  0  0  0
 39 41  1  0  0  0
 39 42  1  0  0  0
 43 44  2  0  0  0
 43 45  1  0  0  0
 45 46  2  0  0  0
 45 47  1  0  0  0
 47 48  1  0  0  0
 48 49  1  0  0  0
 48 50  1  0  0  0
 49 50  1  0  0  0
M  END
> <s_m_entry_id>
6612

> <s_m_entry_name>
NS3-4A.153

> <CHEMBLID>
CHEMBL368846

> <s_m_Source_Path>
/home/liwei/Desktop/Machine/HCV/Active

> <s_m_Source_File>
NS3-4A.sdf

> <i_m_Source_File_Index>
153

$$$$
CHEMBL368849
                    3D
 Structure written by MMmdl.
 50 53  0  0  1  0            999 V2000
   10.0022    3.6413    0.0000 C   0  0  0  0  0  0
    8.9985    2.5266    0.0000 C   0  0  0  0  0  0
    9.4620    1.1000    0.0000 C   0  0  0  0  0  0
    8.4583   -0.0147    0.0000 C   0  0  2  0  0  0
    8.9218   -1.4413    0.0000 N   0  0  0  0  0  0
    7.9182   -2.5560    0.0000 C   0  0  0  0  0  0
    6.4509   -2.2442    0.0000 O   0  0  0  0  0  0
    8.3817   -3.9826    0.0000 C   0  0  2  0  0  0
    9.8083   -4.4462    0.0000 C   0  0  2  0  0  0
    9.8083   -5.9462    0.0000 C   0  0  0  0  0  0
    8.3817   -6.4097    0.0000 C   0  0  0  0  0  0
    7.5000   -5.1962    0.0000 N   0  0  0  0  0  0
    6.0000   -5.1962    0.0000 C   0  0  0  0  0  0
    5.2500   -3.8971    0.0000 O   0  0  0  0  0  0
    5.2500   -6.4952    0.0000 C   0  0  2  0  0  0
    3.7500   -6.4952    0.0000 N   0  0  0  0  0  0
    3.0000   -5.1962    0.0000 C   0  0  0  0  0  0
    3.7500   -3.8971    0.0000 O   0  0  0  0  0  0
    1.5000   -5.1962    0.0000 C   0  0  2  0  0  0
    0.7500   -3.8971    0.0000 N   0  0  0  0  0  0
    1.5000   -2.5981    0.0000 C   0  0  3  0  0  0
    3.0000   -2.5981    0.0000 O   0  0  0  0  0  0
    0.7500   -1.2990    0.0000 C   0  0  0  0  0  0
    1.5000    0.0000    0.0000 C   0  0  0  0  0  0
    0.7500    1.2990    0.0000 N   0  0  0  0  0  0
   -0.7500    1.2990    0.0000 C   0  0  0  0  0  0
   -1.5000    0.0000    0.0000 C   0  0  0  0  0  0
   -0.7500   -1.2990    0.0000 N   0  0  0  0  0  0
    0.7500   -6.4952    0.0000 C   0  0  0  0  0  0
   -0.7500   -6.4952    0.0000 C   0  0  0  0  0  0
   -1.5000   -7.7942    0.0000 C   0  0  0  0  0  0
   -0.7500   -9.0933    0.0000 C   0  0  0  0  0  0
    0.7500   -9.0933    0.0000 C   0  0  0  0  0  0
    1.5000   -7.7942    0.0000 C   0  0  0  0  0  0
    6.0000   -7.7942    0.0000 C   0  0  0  0  0  0
    7.2990   -7.0442    0.0000 C   0  0  0  0  0  0
    4.7010   -8.5442    0.0000 C   0  0  0  0  0  0
    6.7500   -9.0933    0.0000 C   0  0  0  0  0  0
   11.0218   -3.5645    0.0000 C   0  0  3  0  0  0
   12.3921   -4.1746    0.0000 C   0  0  0  0  0  0
   10.8650   -2.0727    0.0000 C   0  0  0  0  0  0
   12.0785   -1.1910    0.0000 C   0  0  0  0  0  0
    6.9911    0.2971    0.0000 C   0  0  0  0  0  0
    5.9874   -0.8176    0.0000 O   0  0  0  0  0  0
    6.5276    1.7237    0.0000 C   0  0  0  0  0  0
    7.5313    2.8384    0.0000 O   0  0  0  0  0  0
    5.0604    2.0356    0.0000 N   0  0  0  0  0  0
    4.5968    3.4622    0.0000 C   0  0  0  0  0  0
    3.4821    4.4659    0.0000 C   0  0  0  0  0  0
    4.9087    4.9294    0.0000 C   0  0  0  0  0  0
  1  2  1  0  0  0
  2  3  1  0  0  0
  3  4  1  0  0  0
  4  5  1  0  0  0
  4 43  1  1  0  0
  5  6  1  0  0  0
  6  7  2  0  0  0
  6  8  1  0  0  0
  8  9  1  0  0  0
  8 12  1  1  0  0
  9 10  1  0  0  0
  9 39  1  6  0  0
 10 11  1  0  0  0
 11 12  1  0  0  0
 12 13  1  0  0  0
 13 14  2  0  0  0
 13 15  1  0  0  0
 15 16  1  0  0  0
 15 35  1  6  0  0
 16 17  1  0  0  0
 17 18  2  0  0  0
 17 19  1  0  0  0
 19 20  1  0  0  0
 19 29  1  6  0  0
 20 21  1  0  0  0
 21 22  1  0  0  0
 21 23  1  0  0  0
 23 24  2  0  0  0
 23 28  1  0  0  0
 24 25  1  0  0  0
 25 26  2  0  0  0
 26 27  1  0  0  0
 27 28  2  0  0  0
 29 30  1  0  0  0
 29 34  1  0  0  0
 30 31  1  0  0  0
 31 32  1  0  0  0
 32 33  1  0  0  0
 33 34  1  0  0  0
 35 36  1  0  0  0
 35 37  1  0  0  0
 35 38  1  0  0  0
 39 40  1  0  0  0
 39 41  1  0  0  0
 41 42  1  0  0  0
 43 44  2  0  0  0
 43 45  1  0  0  0
 45 46  2  0  0  0
 45 47  1  0  0  0
 47 48  1  0  0  0
 48 49  1  0  0  0
 48 50  1  0  0  0
 49 50  1  0  0  0
M  END
> <s_m_entry_id>
6613

> <s_m_entry_name>
NS3-4A.154

> <CHEMBLID>
CHEMBL368849

> <s_m_Source_Path>
/home/liwei/Desktop/Machine/HCV/Active

> <s_m_Source_File>
NS3-4A.sdf

> <i_m_Source_File_Index>
154

$$$$
CHEMBL369413
                    3D
 Structure written by MMmdl.
 51 54  0  0  1  0            999 V2000
   10.0022    3.6413    0.0000 C   0  0  0  0  0  0
    8.9985    2.5266    0.0000 C   0  0  0  0  0  0
    9.4620    1.1000    0.0000 C   0  0  0  0  0  0
    8.4583   -0.0147    0.0000 C   0  0  2  0  0  0
    8.9218   -1.4413    0.0000 N   0  0  0  0  0  0
    7.9182   -2.5560    0.0000 C   0  0  0  0  0  0
    6.4509   -2.2442    0.0000 O   0  0  0  0  0  0
    8.3817   -3.9826    0.0000 C   0  0  2  0  0  0
    9.8083   -4.4462    0.0000 C   0  0  2  0  0  0
    9.8083   -5.9462    0.0000 C   0  0  0  0  0  0
    8.3817   -6.4097    0.0000 C   0  0  0  0  0  0
    7.5000   -5.1962    0.0000 N   0  0  0  0  0  0
    6.0000   -5.1962    0.0000 C   0  0  0  0  0  0
    5.2500   -3.8971    0.0000 O   0  0  0  0  0  0
    5.2500   -6.4952    0.0000 C   0  0  2  0  0  0
    3.7500   -6.4952    0.0000 N   0  0  0  0  0  0
    3.0000   -5.1962    0.0000 C   0  0  0  0  0  0
    3.7500   -3.8971    0.0000 O   0  0  0  0  0  0
    1.5000   -5.1962    0.0000 C   0  0  2  0  0  0
    0.7500   -3.8971    0.0000 N   0  0  0  0  0  0
    1.5000   -2.5981    0.0000 C   0  0  3  0  0  0
    3.0000   -2.5981    0.0000 O   0  0  0  0  0  0
    0.7500   -1.2990    0.0000 C   0  0  0  0  0  0
    1.5000    0.0000    0.0000 C   0  0  0  0  0  0
    0.7500    1.2990    0.0000 N   0  0  0  0  0  0
   -0.7500    1.2990    0.0000 C   0  0  0  0  0  0
   -1.5000    0.0000    0.0000 C   0  0  0  0  0  0
   -0.7500   -1.2990    0.0000 N   0  0  0  0  0  0
    0.7500   -6.4952    0.0000 C   0  0  0  0  0  0
   -0.7500   -6.4952    0.0000 C   0  0  0  0  0  0
   -1.5000   -7.7942    0.0000 C   0  0  0  0  0  0
   -0.7500   -9.0933    0.0000 C   0  0  0  0  0  0
    0.7500   -9.0933    0.0000 C   0  0  0  0  0  0
    1.5000   -7.7942    0.0000 C   0  0  0  0  0  0
    6.0000   -7.7942    0.0000 C   0  0  0  0  0  0
    7.2990   -7.0442    0.0000 C   0  0  0  0  0  0
    4.7010   -8.5442    0.0000 C   0  0  0  0  0  0
    6.7500   -9.0933    0.0000 C   0  0  0  0  0  0
   11.0218   -3.5645    0.0000 C   0  0  0  0  0  0
   12.3921   -4.1746    0.0000 C   0  0  0  0  0  0
   13.6056   -3.2929    0.0000 C   0  0  0  0  0  0
   10.8650   -2.0727    0.0000 C   0  0  0  0  0  0
   12.0785   -1.1910    0.0000 C   0  0  0  0  0  0
    6.9911    0.2971    0.0000 C   0  0  0  0  0  0
    5.9874   -0.8176    0.0000 O   0  0  0  0  0  0
    6.5276    1.7237    0.0000 C   0  0  0  0  0  0
    7.5313    2.8384    0.0000 O   0  0  0  0  0  0
    5.0604    2.0356    0.0000 N   0  0  0  0  0  0
    4.5968    3.4622    0.0000 C   0  0  0  0  0  0
    3.4821    4.4659    0.0000 C   0  0  0  0  0  0
    4.9087    4.9294    0.0000 C   0  0  0  0  0  0
  1  2  1  0  0  0
  2  3  1  0  0  0
  3  4  1  0  0  0
  4  5  1  0  0  0
  4 44  1  1  0  0
  5  6  1  0  0  0
  6  7  2  0  0  0
  6  8  1  0  0  0
  8  9  1  0  0  0
  8 12  1  1  0  0
  9 10  1  0  0  0
  9 39  1  6  0  0
 10 11  1  0  0  0
 11 12  1  0  0  0
 12 13  1  0  0  0
 13 14  2  0  0  0
 13 15  1  0  0  0
 15 16  1  0  0  0
 15 35  1  6  0  0
 16 17  1  0  0  0
 17 18  2  0  0  0
 17 19  1  0  0  0
 19 20  1  0  0  0
 19 29  1  6  0  0
 20 21  1  0  0  0
 21 22  1  0  0  0
 21 23  1  0  0  0
 23 24  2  0  0  0
 23 28  1  0  0  0
 24 25  1  0  0  0
 25 26  2  0  0  0
 26 27  1  0  0  0
 27 28  2  0  0  0
 29 30  1  0  0  0
 29 34  1  0  0  0
 30 31  1  0  0  0
 31 32  1  0  0  0
 32 33  1  0  0  0
 33 34  1  0  0  0
 35 36  1  0  0  0
 35 37  1  0  0  0
 35 38  1  0  0  0
 39 40  1  0  0  0
 39 42  1  0  0  0
 40 41  1  0  0  0
 42 43  1  0  0  0
 44 45  2  0  0  0
 44 46  1  0  0  0
 46 47  2  0  0  0
 46 48  1  0  0  0
 48 49  1  0  0  0
 49 50  1  0  0  0
 49 51  1  0  0  0
 50 51  1  0  0  0
M  END
> <s_m_entry_id>
6614

> <s_m_entry_name>
NS3-4A.155

> <CHEMBLID>
CHEMBL369413

> <s_m_Source_Path>
/home/liwei/Desktop/Machine/HCV/Active

> <s_m_Source_File>
NS3-4A.sdf

> <i_m_Source_File_Index>
155

$$$$
CHEMBL375710
                    3D
 Structure written by MMmdl.
 37 39  0  0  1  0            999 V2000
   -3.6922   -7.2452    0.0000 C   0  0  0  0  0  0
   -4.9913   -6.4952    0.0000 C   0  0  0  0  0  0
   -6.2903   -5.7452    0.0000 C   0  0  0  0  0  0
   -5.7413   -7.7942    0.0000 C   0  0  0  0  0  0
   -4.2413   -5.1962    0.0000 N   0  0  0  0  0  0
   -4.9913   -3.8971    0.0000 C   0  0  0  0  0  0
   -6.4913   -3.8971    0.0000 O   0  0  0  0  0  0
   -4.2413   -2.5981    0.0000 N   0  0  0  0  0  0
   -4.9913   -1.2990    0.0000 C   0  0  3  0  0  0
   -4.2413    0.0000    0.0000 C   0  0  0  0  0  0
   -4.9913    1.2990    0.0000 O   0  0  0  0  0  0
   -2.7413    0.0000    0.0000 N   0  0  0  0  0  0
   -1.8596   -1.2135    0.0000 C   0  0  0  0  0  0
   -0.4330   -0.7500    0.0000 C   0  0  1  0  0  0
   -0.4330    0.7500    0.0000 C   0  0  1  0  0  0
   -1.8596    1.2135    0.0000 C   0  0  3  0  0  0
   -2.3231    2.6401    0.0000 C   0  0  0  0  0  0
   -3.7903    2.9520    0.0000 O   0  0  0  0  0  0
   -1.3194    3.7548    0.0000 N   0  0  0  0  0  0
   -1.7830    5.1814    0.0000 C   0  0  1  0  0  0
   -0.7793    6.2961    0.0000 C   0  0  0  0  0  0
    0.6880    5.9843    0.0000 C   0  0  0  0  0  0
    1.9460    6.8012    0.0000 C   0  0  0  0  0  0
    2.7629    5.5432    0.0000 C   0  0  0  0  0  0
    1.5049    4.7263    0.0000 C   0  0  0  0  0  0
   -3.2502    5.4933    0.0000 C   0  0  0  0  0  0
   -4.2539    4.3786    0.0000 O   0  0  0  0  0  0
   -3.7137    6.9199    0.0000 C   0  0  0  0  0  0
   -2.7100    8.0346    0.0000 O   0  0  0  0  0  0
   -5.1809    7.2317    0.0000 N   0  0  0  0  0  0
    0.8660    0.0000    0.0000 C   0  0  0  0  0  0
    1.8302    1.1491    0.0000 C   0  0  0  0  0  0
    1.8302   -1.1491    0.0000 C   0  0  0  0  0  0
   -6.4913   -1.2990    0.0000 C   0  0  0  0  0  0
   -6.4913   -2.7990    0.0000 C   0  0  0  0  0  0
   -6.4913    0.2010    0.0000 C   0  0  0  0  0  0
   -7.9913   -1.2990    0.0000 C   0  0  0  0  0  0
  1  2  1  0  0  0
  2  3  1  0  0  0
  2  4  1  0  0  0
  2  5  1  0  0  0
  5  6  1  0  0  0
  6  7  2  0  0  0
  6  8  1  0  0  0
  8  9  1  0  0  0
  9 10  1  0  0  0
  9 34  1  0  0  0
 10 11  2  0  0  0
 10 12  1  0  0  0
 12 13  1  0  0  0
 12 16  1  0  0  0
 13 14  1  0  0  0
 14 15  1  0  0  0
 14 31  1  6  0  0
 15 16  1  0  0  0
 15 31  1  1  0  0
 16 17  1  0  0  0
 17 18  2  0  0  0
 17 19  1  0  0  0
 19 20  1  0  0  0
 20 21  1  0  0  0
 20 26  1  6  0  0
 21 22  1  0  0  0
 22 23  1  0  0  0
 22 25  1  0  0  0
 23 24  1  0  0  0
 24 25  1  0  0  0
 26 27  2  0  0  0
 26 28  1  0  0  0
 28 29  2  0  0  0
 28 30  1  0  0  0
 31 32  1  0  0  0
 31 33  1  0  0  0
 34 35  1  0  0  0
 34 36  1  0  0  0
 34 37  1  0  0  0
M  END
> <s_m_entry_id>
6615

> <s_m_entry_name>
NS3-4A.156

> <CHEMBLID>
CHEMBL375710

> <s_m_Source_Path>
/home/liwei/Desktop/Machine/HCV/Active

> <s_m_Source_File>
NS3-4A.sdf

> <i_m_Source_File_Index>
156

$$$$
CHEMBL376573
                    3D
 Structure written by MMmdl.
 37 39  0  0  1  0            999 V2000
   -3.6922   -7.2452    0.0000 C   0  0  0  0  0  0
   -4.9913   -6.4952    0.0000 C   0  0  0  0  0  0
   -6.2903   -5.7452    0.0000 C   0  0  0  0  0  0
   -5.7413   -7.7942    0.0000 C   0  0  0  0  0  0
   -4.2413   -5.1962    0.0000 N   0  0  0  0  0  0
   -4.9913   -3.8971    0.0000 C   0  0  0  0  0  0
   -6.4913   -3.8971    0.0000 O   0  0  0  0  0  0
   -4.2413   -2.5981    0.0000 N   0  0  0  0  0  0
   -4.9913   -1.2990    0.0000 C   0  0  3  0  0  0
   -4.2413    0.0000    0.0000 C   0  0  0  0  0  0
   -4.9913    1.2990    0.0000 O   0  0  0  0  0  0
   -2.7413    0.0000    0.0000 N   0  0  0  0  0  0
   -1.8596   -1.2135    0.0000 C   0  0  0  0  0  0
   -0.4330   -0.7500    0.0000 C   0  0  1  0  0  0
   -0.4330    0.7500    0.0000 C   0  0  1  0  0  0
   -1.8596    1.2135    0.0000 C   0  0  3  0  0  0
   -2.3231    2.6401    0.0000 C   0  0  0  0  0  0
   -3.7903    2.9520    0.0000 O   0  0  0  0  0  0
   -1.3194    3.7548    0.0000 N   0  0  0  0  0  0
   -1.7830    5.1814    0.0000 C   0  0  3  0  0  0
   -0.7793    6.2961    0.0000 C   0  0  0  0  0  0
   -1.0911    7.7634    0.0000 C   0  0  0  0  0  0
    0.2079    8.5134    0.0000 C   0  0  0  0  0  0
    1.3226    7.5097    0.0000 C   0  0  0  0  0  0
    0.7125    6.1393    0.0000 C   0  0  0  0  0  0
   -3.2502    5.4933    0.0000 C   0  0  0  0  0  0
   -4.2539    4.3786    0.0000 O   0  0  0  0  0  0
   -3.7137    6.9199    0.0000 C   0  0  0  0  0  0
   -2.7100    8.0346    0.0000 O   0  0  0  0  0  0
   -5.1809    7.2317    0.0000 N   0  0  0  0  0  0
    0.8660    0.0000    0.0000 C   0  0  0  0  0  0
    1.8302    1.1491    0.0000 C   0  0  0  0  0  0
    1.8302   -1.1491    0.0000 C   0  0  0  0  0  0
   -6.4913   -1.2990    0.0000 C   0  0  0  0  0  0
   -6.4913   -2.7990    0.0000 C   0  0  0  0  0  0
   -6.4913    0.2010    0.0000 C   0  0  0  0  0  0
   -7.9913   -1.2990    0.0000 C   0  0  0  0  0  0
  1  2  1  0  0  0
  2  3  1  0  0  0
  2  4  1  0  0  0
  2  5  1  0  0  0
  5  6  1  0  0  0
  6  7  2  0  0  0
  6  8  1  0  0  0
  8  9  1  0  0  0
  9 10  1  0  0  0
  9 34  1  0  0  0
 10 11  2  0  0  0
 10 12  1  0  0  0
 12 13  1  0  0  0
 12 16  1  0  0  0
 13 14  1  0  0  0
 14 15  1  0  0  0
 14 31  1  6  0  0
 15 16  1  0  0  0
 15 31  1  1  0  0
 16 17  1  0  0  0
 17 18  2  0  0  0
 17 19  1  0  0  0
 19 20  1  0  0  0
 20 21  1  0  0  0
 20 26  1  0  0  0
 21 22  1  0  0  0
 21 25  1  0  0  0
 22 23  1  0  0  0
 23 24  1  0  0  0
 24 25  1  0  0  0
 26 27  2  0  0  0
 26 28  1  0  0  0
 28 29  2  0  0  0
 28 30  1  0  0  0
 31 32  1  0  0  0
 31 33  1  0  0  0
 34 35  1  0  0  0
 34 36  1  0  0  0
 34 37  1  0  0  0
M  END
> <s_m_entry_id>
6616

> <s_m_entry_name>
NS3-4A.157

> <CHEMBLID>
CHEMBL376573

> <s_m_Source_Path>
/home/liwei/Desktop/Machine/HCV/Active

> <s_m_Source_File>
NS3-4A.sdf

> <i_m_Source_File_Index>
157

$$$$
CHEMBL376576
                    3D
 Structure written by MMmdl.
 36 38  0  0  1  0            999 V2000
   -3.6922   -7.2452    0.0000 C   0  0  0  0  0  0
   -4.9913   -6.4952    0.0000 C   0  0  0  0  0  0
   -6.2903   -5.7452    0.0000 C   0  0  0  0  0  0
   -5.7413   -7.7942    0.0000 C   0  0  0  0  0  0
   -4.2413   -5.1962    0.0000 O   0  0  0  0  0  0
   -4.9913   -3.8971    0.0000 C   0  0  0  0  0  0
   -6.4913   -3.8971    0.0000 O   0  0  0  0  0  0
   -4.2413   -2.5981    0.0000 N   0  0  0  0  0  0
   -4.9913   -1.2990    0.0000 C   0  0  3  0  0  0
   -4.2413    0.0000    0.0000 C   0  0  0  0  0  0
   -4.9913    1.2990    0.0000 O   0  0  0  0  0  0
   -2.7413    0.0000    0.0000 N   0  0  0  0  0  0
   -1.8596   -1.2135    0.0000 C   0  0  0  0  0  0
   -0.4330   -0.7500    0.0000 C   0  0  1  0  0  0
   -0.4330    0.7500    0.0000 C   0  0  1  0  0  0
   -1.8596    1.2135    0.0000 C   0  0  3  0  0  0
   -2.3231    2.6401    0.0000 C   0  0  0  0  0  0
   -3.7903    2.9520    0.0000 O   0  0  0  0  0  0
   -1.3194    3.7548    0.0000 N   0  0  0  0  0  0
   -1.7830    5.1814    0.0000 C   0  0  1  0  0  0
   -0.7793    6.2961    0.0000 C   0  0  0  0  0  0
    0.6880    5.9843    0.0000 C   0  0  0  0  0  0
    1.8027    4.9806    0.0000 C   0  0  0  0  0  0
    2.1145    6.4478    0.0000 C   0  0  0  0  0  0
   -3.2502    5.4933    0.0000 C   0  0  0  0  0  0
   -4.2539    4.3786    0.0000 O   0  0  0  0  0  0
   -3.7137    6.9199    0.0000 C   0  0  0  0  0  0
   -2.7100    8.0346    0.0000 O   0  0  0  0  0  0
   -5.1809    7.2317    0.0000 N   0  0  0  0  0  0
    0.8660    0.0000    0.0000 C   0  0  0  0  0  0
    1.8302    1.1491    0.0000 C   0  0  0  0  0  0
    1.8302   -1.1491    0.0000 C   0  0  0  0  0  0
   -6.4913   -1.2990    0.0000 C   0  0  0  0  0  0
   -6.4913   -2.7990    0.0000 C   0  0  0  0  0  0
   -6.4913    0.2010    0.0000 C   0  0  0  0  0  0
   -7.9913   -1.2990    0.0000 C   0  0  0  0  0  0
  1  2  1  0  0  0
  2  3  1  0  0  0
  2  4  1  0  0  0
  2  5  1  0  0  0
  5  6  1  0  0  0
  6  7  2  0  0  0
  6  8  1  0  0  0
  8  9  1  0  0  0
  9 10  1  0  0  0
  9 33  1  0  0  0
 10 11  2  0  0  0
 10 12  1  0  0  0
 12 13  1  0  0  0
 12 16  1  0  0  0
 13 14  1  0  0  0
 14 15  1  0  0  0
 14 30  1  6  0  0
 15 16  1  0  0  0
 15 30  1  1  0  0
 16 17  1  0  0  0
 17 18  2  0  0  0
 17 19  1  0  0  0
 19 20  1  0  0  0
 20 21  1  0  0  0
 20 25  1  6  0  0
 21 22  1  0  0  0
 22 23  1  0  0  0
 22 24  1  0  0  0
 23 24  1  0  0  0
 25 26  2  0  0  0
 25 27  1  0  0  0
 27 28  2  0  0  0
 27 29  1  0  0  0
 30 31  1  0  0  0
 30 32  1  0  0  0
 33 34  1  0  0  0
 33 35  1  0  0  0
 33 36  1  0  0  0
M  END
> <s_m_entry_id>
6617

> <s_m_entry_name>
NS3-4A.158

> <CHEMBLID>
CHEMBL376576

> <s_m_Source_Path>
/home/liwei/Desktop/Machine/HCV/Active

> <s_m_Source_File>
NS3-4A.sdf

> <i_m_Source_File_Index>
158

$$$$
CHEMBL388372
                    3D
 Structure written by MMmdl.
 41 44  0  0  1  0            999 V2000
   -1.5000    2.5981    0.0000 C   0  0  0  0  0  0
   -0.7500    1.2990    0.0000 C   0  0  0  0  0  0
    0.7500    1.2990    0.0000 C   0  0  0  0  0  0
   -1.5000   -0.0000    0.0000 C   0  0  2  0  0  0
   -3.0000   -0.0000    0.0000 N   0  0  0  0  0  0
   -3.7500    1.2990    0.0000 C   0  0  0  0  0  0
   -3.0000    2.5981    0.0000 O   0  0  0  0  0  0
   -5.2500    1.2990    0.0000 C   0  0  0  0  0  0
   -0.7500   -1.2990    0.0000 C   0  0  0  0  0  0
    0.7500   -1.2990    0.0000 O   0  0  0  0  0  0
   -1.5000   -2.5981    0.0000 N   0  0  0  0  0  0
   -0.7500   -3.8971    0.0000 C   0  0  3  0  0  0
   -1.5000   -5.1962    0.0000 C   0  0  0  0  0  0
   -3.0000   -5.1962    0.0000 C   0  0  0  0  0  0
   -3.7500   -6.4952    0.0000 C   0  0  0  0  0  0
   -3.0000   -7.7942    0.0000 C   0  0  0  0  0  0
   -1.5000   -7.7942    0.0000 C   0  0  0  0  0  0
   -0.7500   -6.4952    0.0000 C   0  0  0  0  0  0
    0.7500   -3.8971    0.0000 C   0  0  0  0  0  0
    1.5000   -2.5981    0.0000 O   0  0  0  0  0  0
    1.5000   -5.1962    0.0000 N   0  0  0  0  0  0
    0.8899   -6.5665    0.0000 C   0  0  0  0  0  0
    2.0046   -7.5702    0.0000 C   0  0  1  0  0  0
    3.3037   -6.8202    0.0000 C   0  0  1  0  0  0
    2.9918   -5.3529    0.0000 C   0  0  3  0  0  0
    3.9955   -4.2382    0.0000 C   0  0  0  0  0  0
    3.5320   -2.8116    0.0000 O   0  0  0  0  0  0
    5.4627   -4.5501    0.0000 N   0  0  0  0  0  0
    6.4664   -3.4354    0.0000 C   0  0  1  0  0  0
    7.9336   -3.7472    0.0000 C   0  0  0  0  0  0
    8.3971   -5.1738    0.0000 C   0  0  0  0  0  0
    8.0853   -6.6411    0.0000 C   0  0  0  0  0  0
    9.5119   -6.1775    0.0000 C   0  0  0  0  0  0
    6.0029   -2.0088    0.0000 C   0  0  0  0  0  0
    4.5356   -1.6969    0.0000 O   0  0  0  0  0  0
    7.0066   -0.8941    0.0000 C   0  0  0  0  0  0
    8.4738   -1.2059    0.0000 O   0  0  0  0  0  0
    6.5430    0.5325    0.0000 N   0  0  0  0  0  0
    3.3037   -8.3202    0.0000 C   0  0  0  0  0  0
    4.7809   -8.5806    0.0000 C   0  0  0  0  0  0
    2.7906   -9.7297    0.0000 C   0  0  0  0  0  0
  1  2  1  0  0  0
  2  3  1  0  0  0
  2  4  1  0  0  0
  4  5  1  0  0  0
  4  9  1  1  0  0
  5  6  1  0  0  0
  6  7  2  0  0  0
  6  8  1  0  0  0
  9 10  2  0  0  0
  9 11  1  0  0  0
 11 12  1  0  0  0
 12 13  1  0  0  0
 12 19  1  0  0  0
 13 14  1  0  0  0
 13 18  1  0  0  0
 14 15  1  0  0  0
 15 16  1  0  0  0
 16 17  1  0  0  0
 17 18  1  0  0  0
 19 20  2  0  0  0
 19 21  1  0  0  0
 21 22  1  0  0  0
 21 25  1  0  0  0
 22 23  1  0  0  0
 23 24  1  0  0  0
 23 39  1  6  0  0
 24 25  1  0  0  0
 24 39  1  1  0  0
 25 26  1  0  0  0
 26 27  2  0  0  0
 26 28  1  0  0  0
 28 29  1  0  0  0
 29 30  1  0  0  0
 29 34  1  6  0  0
 30 31  1  0  0  0
 31 32  1  0  0  0
 31 33  1  0  0  0
 32 33  1  0  0  0
 34 35  2  0  0  0
 34 36  1  0  0  0
 36 37  2  0  0  0
 36 38  1  0  0  0
 39 40  1  0  0  0
 39 41  1  0  0  0
M  END
> <s_m_entry_id>
6618

> <s_m_entry_name>
NS3-4A.159

> <CHEMBLID>
CHEMBL388372

> <s_m_Source_Path>
/home/liwei/Desktop/Machine/HCV/Active

> <s_m_Source_File>
NS3-4A.sdf

> <i_m_Source_File_Index>
159

$$$$
CHEMBL388373
                    3D
 Structure written by MMmdl.
 40 42  0  0  1  0            999 V2000
   -4.2413   -7.7942    0.0000 C   0  0  0  0  0  0
   -4.9913   -6.4952    0.0000 C   0  0  0  0  0  0
   -6.4913   -6.4952    0.0000 C   0  0  0  0  0  0
   -4.2413   -5.1962    0.0000 C   0  0  2  0  0  0
   -2.7413   -5.1962    0.0000 N   0  0  0  0  0  0
   -1.9913   -6.4952    0.0000 C   0  0  0  0  0  0
   -2.7413   -7.7942    0.0000 O   0  0  0  0  0  0
   -0.4913   -6.4952    0.0000 C   0  0  0  0  0  0
   -4.9913   -3.8971    0.0000 C   0  0  0  0  0  0
   -6.4913   -3.8971    0.0000 O   0  0  0  0  0  0
   -4.2413   -2.5981    0.0000 N   0  0  0  0  0  0
   -4.9913   -1.2990    0.0000 C   0  0  3  0  0  0
   -4.2413    0.0000    0.0000 C   0  0  0  0  0  0
   -4.9913    1.2990    0.0000 O   0  0  0  0  0  0
   -2.7413    0.0000    0.0000 N   0  0  0  0  0  0
   -1.8596   -1.2135    0.0000 C   0  0  0  0  0  0
   -0.4330   -0.7500    0.0000 C   0  0  1  0  0  0
   -0.4330    0.7500    0.0000 C   0  0  1  0  0  0
   -1.8596    1.2135    0.0000 C   0  0  3  0  0  0
   -2.3231    2.6401    0.0000 C   0  0  0  0  0  0
   -3.7903    2.9520    0.0000 O   0  0  0  0  0  0
   -1.3194    3.7548    0.0000 N   0  0  0  0  0  0
   -1.7830    5.1814    0.0000 C   0  0  1  0  0  0
   -0.7793    6.2961    0.0000 C   0  0  0  0  0  0
    0.6880    5.9843    0.0000 C   0  0  0  0  0  0
    1.9460    6.8012    0.0000 C   0  0  0  0  0  0
    2.7629    5.5432    0.0000 C   0  0  0  0  0  0
    1.5049    4.7263    0.0000 C   0  0  0  0  0  0
   -3.2502    5.4933    0.0000 C   0  0  0  0  0  0
   -4.2539    4.3786    0.0000 O   0  0  0  0  0  0
   -3.7137    6.9199    0.0000 C   0  0  0  0  0  0
   -2.7100    8.0346    0.0000 O   0  0  0  0  0  0
   -5.1809    7.2317    0.0000 N   0  0  0  0  0  0
    0.8660    0.0000    0.0000 C   0  0  0  0  0  0
    1.8302    1.1491    0.0000 C   0  0  0  0  0  0
    1.8302   -1.1491    0.0000 C   0  0  0  0  0  0
   -6.4913   -1.2990    0.0000 C   0  0  0  0  0  0
   -6.4913   -2.7990    0.0000 C   0  0  0  0  0  0
   -6.4913    0.2010    0.0000 C   0  0  0  0  0  0
   -7.9913   -1.2990    0.0000 C   0  0  0  0  0  0
  1  2  1  0  0  0
  2  3  1  0  0  0
  2  4  1  0  0  0
  4  5  1  0  0  0
  4  9  1  1  0  0
  5  6  1  0  0  0
  6  7  2  0  0  0
  6  8  1  0  0  0
  9 10  2  0  0  0
  9 11  1  0  0  0
 11 12  1  0  0  0
 12 13  1  0  0  0
 12 37  1  0  0  0
 13 14  2  0  0  0
 13 15  1  0  0  0
 15 16  1  0  0  0
 15 19  1  0  0  0
 16 17  1  0  0  0
 17 18  1  0  0  0
 17 34  1  6  0  0
 18 19  1  0  0  0
 18 34  1  1  0  0
 19 20  1  0  0  0
 20 21  2  0  0  0
 20 22  1  0  0  0
 22 23  1  0  0  0
 23 24  1  0  0  0
 23 29  1  6  0  0
 24 25  1  0  0  0
 25 26  1  0  0  0
 25 28  1  0  0  0
 26 27  1  0  0  0
 27 28  1  0  0  0
 29 30  2  0  0  0
 29 31  1  0  0  0
 31 32  2  0  0  0
 31 33  1  0  0  0
 34 35  1  0  0  0
 34 36  1  0  0  0
 37 38  1  0  0  0
 37 39  1  0  0  0
 37 40  1  0  0  0
M  END
> <s_m_entry_id>
6619

> <s_m_entry_name>
NS3-4A.160

> <CHEMBLID>
CHEMBL388373

> <s_m_Source_Path>
/home/liwei/Desktop/Machine/HCV/Active

> <s_m_Source_File>
NS3-4A.sdf

> <i_m_Source_File_Index>
160

$$$$
CHEMBL389386
                    3D
 Structure written by MMmdl.
 37 39  0  0  1  0            999 V2000
   -3.6922   -7.2452    0.0000 C   0  0  0  0  0  0
   -4.9913   -6.4952    0.0000 C   0  0  0  0  0  0
   -6.2903   -5.7452    0.0000 C   0  0  0  0  0  0
   -5.7413   -7.7942    0.0000 C   0  0  0  0  0  0
   -4.2413   -5.1962    0.0000 N   0  0  0  0  0  0
   -4.9913   -3.8971    0.0000 C   0  0  0  0  0  0
   -6.4913   -3.8971    0.0000 O   0  0  0  0  0  0
   -4.2413   -2.5981    0.0000 N   0  0  0  0  0  0
   -4.9913   -1.2990    0.0000 C   0  0  3  0  0  0
   -4.2413    0.0000    0.0000 C   0  0  0  0  0  0
   -4.9913    1.2990    0.0000 O   0  0  0  0  0  0
   -2.7413    0.0000    0.0000 N   0  0  0  0  0  0
   -1.8596   -1.2135    0.0000 C   0  0  0  0  0  0
   -0.4330   -0.7500    0.0000 C   0  0  1  0  0  0
   -0.4330    0.7500    0.0000 C   0  0  1  0  0  0
   -1.8596    1.2135    0.0000 C   0  0  3  0  0  0
   -2.3231    2.6401    0.0000 C   0  0  0  0  0  0
   -3.7903    2.9520    0.0000 O   0  0  0  0  0  0
   -1.3194    3.7548    0.0000 N   0  0  0  0  0  0
   -1.7830    5.1814    0.0000 C   0  0  1  0  0  0
   -0.7793    6.2961    0.0000 C   0  0  0  0  0  0
    0.6880    5.9843    0.0000 C   0  0  0  0  0  0
    1.9460    6.8012    0.0000 C   0  0  0  0  0  0
    2.7629    5.5432    0.0000 C   0  0  0  0  0  0
    1.5049    4.7263    0.0000 C   0  0  0  0  0  0
   -3.2502    5.4933    0.0000 C   0  0  0  0  0  0
   -4.2539    4.3786    0.0000 O   0  0  0  0  0  0
   -3.7137    6.9199    0.0000 C   0  0  0  0  0  0
   -2.7100    8.0346    0.0000 O   0  0  0  0  0  0
   -5.1809    7.2317    0.0000 N   0  0  0  0  0  0
    0.8660    0.0000    0.0000 C   0  0  0  0  0  0
    1.8302    1.1491    0.0000 Cl  0  0  0  0  0  0
    1.8302   -1.1491    0.0000 Cl  0  0  0  0  0  0
   -6.4913   -1.2990    0.0000 C   0  0  0  0  0  0
   -6.4913   -2.7990    0.0000 C   0  0  0  0  0  0
   -6.4913    0.2010    0.0000 C   0  0  0  0  0  0
   -7.9913   -1.2990    0.0000 C   0  0  0  0  0  0
  1  2  1  0  0  0
  2  3  1  0  0  0
  2  4  1  0  0  0
  2  5  1  0  0  0
  5  6  1  0  0  0
  6  7  2  0  0  0
  6  8  1  0  0  0
  8  9  1  0  0  0
  9 10  1  0  0  0
  9 34  1  0  0  0
 10 11  2  0  0  0
 10 12  1  0  0  0
 12 13  1  0  0  0
 12 16  1  0  0  0
 13 14  1  0  0  0
 14 15  1  0  0  0
 14 31  1  1  0  0
 15 16  1  0  0  0
 15 31  1  6  0  0
 16 17  1  0  0  0
 17 18  2  0  0  0
 17 19  1  0  0  0
 19 20  1  0  0  0
 20 21  1  0  0  0
 20 26  1  6  0  0
 21 22  1  0  0  0
 22 23  1  0  0  0
 22 25  1  0  0  0
 23 24  1  0  0  0
 24 25  1  0  0  0
 26 27  2  0  0  0
 26 28  1  0  0  0
 28 29  2  0  0  0
 28 30  1  0  0  0
 31 32  1  0  0  0
 31 33  1  0  0  0
 34 35  1  0  0  0
 34 36  1  0  0  0
 34 37  1  0  0  0
M  END
> <s_m_entry_id>
6620

> <s_m_entry_name>
NS3-4A.161

> <CHEMBLID>
CHEMBL389386

> <s_m_Source_Path>
/home/liwei/Desktop/Machine/HCV/Active

> <s_m_Source_File>
NS3-4A.sdf

> <i_m_Source_File_Index>
161

$$$$
CHEMBL390614
                    3D
 Structure written by MMmdl.
 39 41  0  0  1  0            999 V2000
   -3.6922   -7.2452    0.0000 C   0  0  0  0  0  0
   -4.9913   -6.4952    0.0000 C   0  0  0  0  0  0
   -6.2903   -5.7452    0.0000 C   0  0  0  0  0  0
   -5.7413   -7.7942    0.0000 C   0  0  0  0  0  0
   -4.2413   -5.1962    0.0000 N   0  0  0  0  0  0
   -4.9913   -3.8971    0.0000 C   0  0  0  0  0  0
   -6.4913   -3.8971    0.0000 O   0  0  0  0  0  0
   -4.2413   -2.5981    0.0000 N   0  0  0  0  0  0
   -4.9913   -1.2990    0.0000 C   0  0  3  0  0  0
   -4.2413    0.0000    0.0000 C   0  0  0  0  0  0
   -4.9913    1.2990    0.0000 O   0  0  0  0  0  0
   -2.7413    0.0000    0.0000 N   0  0  0  0  0  0
   -1.8596   -1.2135    0.0000 C   0  0  0  0  0  0
   -0.4330   -0.7500    0.0000 C   0  0  1  0  0  0
   -0.4330    0.7500    0.0000 C   0  0  1  0  0  0
   -1.8596    1.2135    0.0000 C   0  0  3  0  0  0
   -2.3231    2.6401    0.0000 C   0  0  0  0  0  0
   -3.7903    2.9520    0.0000 O   0  0  0  0  0  0
   -1.3194    3.7548    0.0000 N   0  0  0  0  0  0
   -1.7830    5.1814    0.0000 C   0  0  1  0  0  0
   -0.7793    6.2961    0.0000 C   0  0  0  0  0  0
    0.6880    5.9843    0.0000 C   0  0  0  0  0  0
    1.9460    6.8012    0.0000 C   0  0  0  0  0  0
    2.7629    5.5432    0.0000 C   0  0  0  0  0  0
    3.5799    4.2852    0.0000 F   0  0  0  0  0  0
    4.0209    6.3602    0.0000 F   0  0  0  0  0  0
    1.5049    4.7263    0.0000 C   0  0  0  0  0  0
   -3.2502    5.4933    0.0000 C   0  0  0  0  0  0
   -4.2539    4.3786    0.0000 O   0  0  0  0  0  0
   -3.7137    6.9199    0.0000 C   0  0  0  0  0  0
   -2.7100    8.0346    0.0000 O   0  0  0  0  0  0
   -5.1809    7.2317    0.0000 N   0  0  0  0  0  0
    0.8660    0.0000    0.0000 C   0  0  0  0  0  0
    1.8302    1.1491    0.0000 C   0  0  0  0  0  0
    1.8302   -1.1491    0.0000 C   0  0  0  0  0  0
   -6.4913   -1.2990    0.0000 C   0  0  0  0  0  0
   -6.4913   -2.7990    0.0000 C   0  0  0  0  0  0
   -6.4913    0.2010    0.0000 C   0  0  0  0  0  0
   -7.9913   -1.2990    0.0000 C   0  0  0  0  0  0
  1  2  1  0  0  0
  2  3  1  0  0  0
  2  4  1  0  0  0
  2  5  1  0  0  0
  5  6  1  0  0  0
  6  7  2  0  0  0
  6  8  1  0  0  0
  8  9  1  0  0  0
  9 10  1  0  0  0
  9 36  1  0  0  0
 10 11  2  0  0  0
 10 12  1  0  0  0
 12 13  1  0  0  0
 12 16  1  0  0  0
 13 14  1  0  0  0
 14 15  1  0  0  0
 14 33  1  6  0  0
 15 16  1  0  0  0
 15 33  1  1  0  0
 16 17  1  0  0  0
 17 18  2  0  0  0
 17 19  1  0  0  0
 19 20  1  0  0  0
 20 21  1  0  0  0
 20 28  1  6  0  0
 21 22  1  0  0  0
 22 23  1  0  0  0
 22 27  1  0  0  0
 23 24  1  0  0  0
 24 25  1  0  0  0
 24 26  1  0  0  0
 24 27  1  0  0  0
 28 29  2  0  0  0
 28 30  1  0  0  0
 30 31  2  0  0  0
 30 32  1  0  0  0
 33 34  1  0  0  0
 33 35  1  0  0  0
 36 37  1  0  0  0
 36 38  1  0  0  0
 36 39  1  0  0  0
M  END
> <s_m_entry_id>
6621

> <s_m_entry_name>
NS3-4A.162

> <CHEMBLID>
CHEMBL390614

> <s_m_Source_Path>
/home/liwei/Desktop/Machine/HCV/Active

> <s_m_Source_File>
NS3-4A.sdf

> <i_m_Source_File_Index>
162

$$$$
CHEMBL390928
                    3D
 Structure written by MMmdl.
 36 38  0  0  1  0            999 V2000
   -3.6922   -7.2452    0.0000 C   0  0  0  0  0  0
   -4.9913   -6.4952    0.0000 C   0  0  0  0  0  0
   -6.2903   -5.7452    0.0000 C   0  0  0  0  0  0
   -5.7413   -7.7942    0.0000 C   0  0  0  0  0  0
   -4.2413   -5.1962    0.0000 N   0  0  0  0  0  0
   -4.9913   -3.8971    0.0000 C   0  0  0  0  0  0
   -6.4913   -3.8971    0.0000 O   0  0  0  0  0  0
   -4.2413   -2.5981    0.0000 N   0  0  0  0  0  0
   -4.9913   -1.2990    0.0000 C   0  0  3  0  0  0
   -4.2413    0.0000    0.0000 C   0  0  0  0  0  0
   -4.9913    1.2990    0.0000 O   0  0  0  0  0  0
   -2.7413    0.0000    0.0000 N   0  0  0  0  0  0
   -1.8596   -1.2135    0.0000 C   0  0  0  0  0  0
   -0.4330   -0.7500    0.0000 C   0  0  1  0  0  0
   -0.4330    0.7500    0.0000 C   0  0  1  0  0  0
   -1.8596    1.2135    0.0000 C   0  0  3  0  0  0
   -2.3231    2.6401    0.0000 C   0  0  0  0  0  0
   -3.7903    2.9520    0.0000 O   0  0  0  0  0  0
   -1.3194    3.7548    0.0000 N   0  0  0  0  0  0
   -1.7830    5.1814    0.0000 C   0  0  1  0  0  0
   -0.7793    6.2961    0.0000 C   0  0  0  0  0  0
    0.6880    5.9843    0.0000 C   0  0  0  0  0  0
    1.8027    4.9806    0.0000 C   0  0  0  0  0  0
    2.1145    6.4478    0.0000 C   0  0  0  0  0  0
   -3.2502    5.4933    0.0000 C   0  0  0  0  0  0
   -4.2539    4.3786    0.0000 O   0  0  0  0  0  0
   -3.7137    6.9199    0.0000 C   0  0  0  0  0  0
   -2.7100    8.0346    0.0000 O   0  0  0  0  0  0
   -5.1809    7.2317    0.0000 N   0  0  0  0  0  0
    0.8660    0.0000    0.0000 C   0  0  0  0  0  0
    1.8302    1.1491    0.0000 C   0  0  0  0  0  0
    1.8302   -1.1491    0.0000 C   0  0  0  0  0  0
   -6.4913   -1.2990    0.0000 C   0  0  0  0  0  0
   -6.4913   -2.7990    0.0000 C   0  0  0  0  0  0
   -6.4913    0.2010    0.0000 C   0  0  0  0  0  0
   -7.9913   -1.2990    0.0000 C   0  0  0  0  0  0
  1  2  1  0  0  0
  2  3  1  0  0  0
  2  4  1  0  0  0
  2  5  1  0  0  0
  5  6  1  0  0  0
  6  7  2  0  0  0
  6  8  1  0  0  0
  8  9  1  0  0  0
  9 10  1  0  0  0
  9 33  1  0  0  0
 10 11  2  0  0  0
 10 12  1  0  0  0
 12 13  1  0  0  0
 12 16  1  0  0  0
 13 14  1  0  0  0
 14 15  1  0  0  0
 14 30  1  6  0  0
 15 16  1  0  0  0
 15 30  1  1  0  0
 16 17  1  0  0  0
 17 18  2  0  0  0
 17 19  1  0  0  0
 19 20  1  0  0  0
 20 21  1  0  0  0
 20 25  1  6  0  0
 21 22  1  0  0  0
 22 23  1  0  0  0
 22 24  1  0  0  0
 23 24  1  0  0  0
 25 26  2  0  0  0
 25 27  1  0  0  0
 27 28  2  0  0  0
 27 29  1  0  0  0
 30 31  1  0  0  0
 30 32  1  0  0  0
 33 34  1  0  0  0
 33 35  1  0  0  0
 33 36  1  0  0  0
M  END
> <s_m_entry_id>
6622

> <s_m_entry_name>
NS3-4A.163

> <CHEMBLID>
CHEMBL390928

> <s_m_Source_Path>
/home/liwei/Desktop/Machine/HCV/Active

> <s_m_Source_File>
NS3-4A.sdf

> <i_m_Source_File_Index>
163

$$$$
CHEMBL404815
                    3D
 Structure written by MMmdl.
 69 71  0  0  1  0            999 V2000
    6.0000   -0.0000    0.0000 C   0  0  0  0  0  0
    5.2500   -1.2990    0.0000 O   0  0  0  0  0  0
    3.7500   -1.2990    0.0000 C   0  0  0  0  0  0
    3.0000   -0.0000    0.0000 O   0  0  0  0  0  0
    3.0000   -2.5981    0.0000 C   0  0  0  0  0  0
    3.7500   -3.8971    0.0000 O   0  0  0  0  0  0
    1.5000   -2.5981    0.0000 C   0  0  2  0  0  0
    0.7500   -1.2990    0.0000 C   0  0  0  0  0  0
   -0.7500   -1.2990    0.0000 C   0  0  0  0  0  0
   -1.5000    0.0000    0.0000 F   0  0  0  0  0  0
   -1.5000   -2.5981    0.0000 F   0  0  0  0  0  0
    0.7500   -3.8971    0.0000 N   0  0  0  0  0  0
    1.5000   -5.1962    0.0000 C   0  0  0  0  0  0
    3.0000   -5.1962    0.0000 O   0  0  0  0  0  0
    0.7500   -6.4952    0.0000 C   0  0  2  0  0  0
    1.5000   -7.7942    0.0000 C   0  0  0  0  0  0
    0.7500   -9.0933    0.0000 C   0  0  0  0  0  0
    1.5000  -10.3923    0.0000 C   0  0  0  0  0  0
    0.7500  -11.6913    0.0000 C   0  0  0  0  0  0
   -0.7500  -11.6913    0.0000 C   0  0  0  0  0  0
   -1.5000  -10.3923    0.0000 C   0  0  0  0  0  0
   -0.7500   -9.0933    0.0000 C   0  0  0  0  0  0
   -0.7500   -6.4952    0.0000 N   0  0  0  0  0  0
   -1.5000   -5.1962    0.0000 C   0  0  0  0  0  0
   -0.7500   -3.8971    0.0000 O   0  0  0  0  0  0
   -3.0000   -5.1962    0.0000 C   0  0  2  0  0  0
   -3.7500   -6.4952    0.0000 C   0  0  0  0  0  0
   -5.2500   -6.4952    0.0000 C   0  0  0  0  0  0
   -6.0000   -7.7942    0.0000 C   0  0  0  0  0  0
   -5.2500   -9.0933    0.0000 O   0  0  0  0  0  0
   -7.5000   -7.7942    0.0000 O   0  0  0  0  0  0
   -3.7500   -3.8971    0.0000 N   0  0  0  0  0  0
   -5.2500   -3.8971    0.0000 C   0  0  0  0  0  0
   -6.0000   -5.1962    0.0000 O   0  0  0  0  0  0
   -6.0000   -2.5981    0.0000 C   0  0  1  0  0  0
   -5.2500   -1.2990    0.0000 N   0  0  0  0  0  0
   -6.0000    0.0000    0.0000 C   0  0  0  0  0  0
   -6.7735    0.1929    0.0000 O   0  0  0  0  0  0
   -5.2500    1.2990    0.0000 C   0  0  2  0  0  0
   -3.7500    1.2990    0.0000 C   0  0  0  0  0  0
   -3.0000    2.5981    0.0000 C   0  0  0  0  0  0
   -1.5000    2.5981    0.0000 C   0  0  0  0  0  0
   -0.7500    3.8971    0.0000 O   0  0  0  0  0  0
   -0.7500    1.2990    0.0000 O   0  0  0  0  0  0
   -6.0000    2.5981    0.0000 N   0  0  0  0  0  0
   -5.2500    3.8971    0.0000 C   0  0  0  0  0  0
   -3.7500    3.8971    0.0000 O   0  0  0  0  0  0
   -6.0000    5.1962    0.0000 C   0  0  2  0  0  0
   -5.2500    6.4952    0.0000 C   0  0  0  0  0  0
   -6.0000    7.7942    0.0000 C   0  0  0  0  0  0
   -7.5000    7.7942    0.0000 O   0  0  0  0  0  0
   -5.2500    9.0933    0.0000 O   0  0  0  0  0  0
   -7.5000    5.1962    0.0000 N   0  0  0  0  0  0
   -8.2500    3.8971    0.0000 C   0  0  0  0  0  0
   -7.5000    2.5981    0.0000 O   0  0  0  0  0  0
   -9.7500    3.8971    0.0000 C   0  0  0  0  0  0
   -7.5000   -2.5981    0.0000 C   0  0  0  0  0  0
   -8.2500   -1.2990    0.0000 C   0  0  0  0  0  0
   -9.7500   -1.2990    0.0000 C   0  0  0  0  0  0
  -10.5000   -0.0000    0.0000 C   0  0  0  0  0  0
   -9.7500    1.2990    0.0000 C   0  0  0  0  0  0
   -8.2500    1.2990    0.0000 C   0  0  0  0  0  0
   -7.5000    0.0000    0.0000 C   0  0  0  0  0  0
   -8.2500   -3.8971    0.0000 C   0  0  0  0  0  0
   -9.7500   -3.8971    0.0000 C   0  0  0  0  0  0
  -10.5000   -5.1962    0.0000 C   0  0  0  0  0  0
   -9.7500   -6.4952    0.0000 C   0  0  0  0  0  0
   -8.2500   -6.4952    0.0000 C   0  0  0  0  0  0
   -7.5000   -5.1962    0.0000 C   0  0  0  0  0  0
  1  2  1  0  0  0
  2  3  1  0  0  0
  3  4  2  0  0  0
  3  5  1  0  0  0
  5  6  2  0  0  0
  5  7  1  0  0  0
  7  8  1  0  0  0
  7 12  1  1  0  0
  8  9  1  0  0  0
  9 10  1  0  0  0
  9 11  1  0  0  0
 12 13  1  0  0  0
 13 14  2  0  0  0
 13 15  1  0  0  0
 15 16  1  0  0  0
 15 23  1  1  0  0
 16 17  1  0  0  0
 17 18  1  0  0  0
 17 22  1  0  0  0
 18 19  1  0  0  0
 19 20  1  0  0  0
 20 21  1  0  0  0
 21 22  1  0  0  0
 23 24  1  0  0  0
 24 25  2  0  0  0
 24 26  1  0  0  0
 26 27  1  0  0  0
 26 32  1  1  0  0
 27 28  1  0  0  0
 28 29  1  0  0  0
 29 30  2  0  0  0
 29 31  1  0  0  0
 32 33  1  0  0  0
 33 34  2  0  0  0
 33 35  1  0  0  0
 35 36  1  0  0  0
 35 57  1  6  0  0
 36 37  1  0  0  0
 37 38  2  0  0  0
 37 39  1  0  0  0
 39 40  1  0  0  0
 39 45  1  1  0  0
 40 41  1  0  0  0
 41 42  1  0  0  0
 42 43  2  0  0  0
 42 44  1  0  0  0
 45 46  1  0  0  0
 46 47  2  0  0  0
 46 48  1  0  0  0
 48 49  1  0  0  0
 48 53  1  1  0  0
 49 50  1  0  0  0
 50 51  2  0  0  0
 50 52  1  0  0  0
 53 54  1  0  0  0
 54 55  2  0  0  0
 54 56  1  0  0  0
 57 58  1  0  0  0
 57 64  1  0  0  0
 58 59  2  0  0  0
 58 63  1  0  0  0
 59 60  1  0  0  0
 60 61  2  0  0  0
 61 62  1  0  0  0
 62 63  2  0  0  0
 64 65  2  0  0  0
 64 69  1  0  0  0
 65 66  1  0  0  0
 66 67  2  0  0  0
 67 68  1  0  0  0
 68 69  2  0  0  0
M  END
> <s_m_entry_id>
6623

> <s_m_entry_name>
NS3-4A.164

> <CHEMBLID>
CHEMBL404815

> <s_m_Source_Path>
/home/liwei/Desktop/Machine/HCV/Active

> <s_m_Source_File>
NS3-4A.sdf

> <i_m_Source_File_Index>
164

$$$$
CHEMBL405033
                    3D
 Structure written by MMmdl.
 73 74  0  0  1  0            999 V2000
   -3.0000   20.7846    0.0000 C   0  0  0  0  0  0
   -3.7500   19.4856    0.0000 O   0  0  0  0  0  0
   -5.2500   19.4856    0.0000 C   0  0  0  0  0  0
   -6.0000   20.7846    0.0000 C   0  0  0  0  0  0
   -7.5000   20.7846    0.0000 C   0  0  0  0  0  0
   -8.2500   19.4856    0.0000 C   0  0  0  0  0  0
   -7.5000   18.1865    0.0000 C   0  0  0  0  0  0
   -8.2500   16.8875    0.0000 C   0  0  0  0  0  0
   -7.5000   15.5885    0.0000 N   0  0  0  0  0  0
   -8.2500   14.2894    0.0000 C   0  0  0  0  0  0
   -9.7500   14.2894    0.0000 O   0  0  0  0  0  0
   -7.5000   12.9904    0.0000 C   0  0  0  0  0  0
   -6.0000   12.9904    0.0000 O   0  0  0  0  0  0
   -8.2500   11.6913    0.0000 C   0  0  1  0  0  0
   -9.7500   11.6913    0.0000 C   0  0  0  0  0  0
  -10.5000   10.3923    0.0000 C   0  0  0  0  0  0
  -11.2500    9.0933    0.0000 F   0  0  0  0  0  0
  -11.7990   11.1423    0.0000 F   0  0  0  0  0  0
   -9.2010    9.6423    0.0000 F   0  0  0  0  0  0
   -7.5000   10.3923    0.0000 N   0  0  0  0  0  0
   -6.0000   10.3923    0.0000 C   0  0  0  0  0  0
   -5.2500   11.6913    0.0000 O   0  0  0  0  0  0
   -5.2500    9.0933    0.0000 C   0  0  2  0  0  0
   -3.7500    9.0933    0.0000 C   0  0  0  0  0  0
   -3.0000    7.7942    0.0000 C   0  0  0  0  0  0
   -1.5000    7.7942    0.0000 C   0  0  0  0  0  0
   -3.7500    6.4952    0.0000 C   0  0  0  0  0  0
   -6.0000    7.7942    0.0000 N   0  0  0  0  0  0
   -7.5000    7.7942    0.0000 C   0  0  0  0  0  0
   -8.2500    9.0933    0.0000 O   0  0  0  0  0  0
   -8.2500    6.4952    0.0000 C   0  0  1  0  0  0
   -7.5000    5.1962    0.0000 N   0  0  0  0  0  0
   -8.2500    3.8971    0.0000 C   0  0  0  0  0  0
   -9.7500    3.8971    0.0000 O   0  0  0  0  0  0
   -7.5000    2.5981    0.0000 C   0  0  2  0  0  0
   -6.0000    2.5981    0.0000 C   0  0  0  0  0  0
   -5.2500    1.2990    0.0000 C   0  0  0  0  0  0
   -3.7500    1.2990    0.0000 C   0  0  0  0  0  0
   -3.0000    0.0000    0.0000 C   0  0  0  0  0  0
   -3.7500   -1.2990    0.0000 C   0  0  0  0  0  0
   -5.2500   -1.2990    0.0000 C   0  0  0  0  0  0
   -6.0000   -0.0000    0.0000 C   0  0  0  0  0  0
   -7.5000   -0.0000    0.0000 C   0  0  0  0  0  0
   -8.2500    1.2990    0.0000 N   0  0  0  0  0  0
   -9.7500    1.2990    0.0000 C   0  0  0  0  0  0
  -10.5000    2.5981    0.0000 O   0  0  0  0  0  0
  -10.5000   -0.0000    0.0000 C   0  0  2  0  0  0
   -9.7500   -1.2990    0.0000 C   0  0  0  0  0  0
  -10.5000   -2.5981    0.0000 C   0  0  0  0  0  0
   -9.7500   -3.8971    0.0000 C   0  0  0  0  0  0
   -8.2500   -3.8971    0.0000 O   0  0  0  0  0  0
  -10.5000   -5.1962    0.0000 O   0  0  0  0  0  0
  -12.0000   -0.0000    0.0000 N   0  0  0  0  0  0
  -12.7500    1.2990    0.0000 C   0  0  0  0  0  0
  -12.0000    2.5981    0.0000 O   0  0  0  0  0  0
  -14.2500    1.2990    0.0000 C   0  0  2  0  0  0
  -15.0000    2.5981    0.0000 C   0  0  0  0  0  0
  -16.5000    2.5981    0.0000 C   0  0  0  0  0  0
  -17.2500    1.2990    0.0000 O   0  0  0  0  0  0
  -17.2500    3.8971    0.0000 O   0  0  0  0  0  0
  -15.0000   -0.0000    0.0000 N   0  0  0  0  0  0
  -14.2500   -1.2990    0.0000 C   0  0  0  0  0  0
  -12.7500   -1.2990    0.0000 O   0  0  0  0  0  0
  -15.0000   -2.5981    0.0000 C   0  0  0  0  0  0
  -14.2500   -3.8971    0.0000 C   0  0  0  0  0  0
  -15.0000   -5.1962    0.0000 C   0  0  0  0  0  0
  -16.5000   -5.1962    0.0000 O   0  0  0  0  0  0
  -14.2500   -6.4952    0.0000 O   0  0  0  0  0  0
   -9.7500    6.4952    0.0000 C   0  0  0  0  0  0
   -9.7500    4.9952    0.0000 C   0  0  0  0  0  0
   -9.7500    7.9952    0.0000 C   0  0  0  0  0  0
  -11.2500    6.4952    0.0000 C   0  0  0  0  0  0
   -6.0000   18.1865    0.0000 C   0  0  0  0  0  0
  1  2  1  0  0  0
  2  3  1  0  0  0
  3  4  2  0  0  0
  3 73  1  0  0  0
  4  5  1  0  0  0
  5  6  2  0  0  0
  6  7  1  0  0  0
  7  8  1  0  0  0
  7 73  2  0  0  0
  8  9  1  0  0  0
  9 10  1  0  0  0
 10 11  2  0  0  0
 10 12  1  0  0  0
 12 13  2  0  0  0
 12 14  1  0  0  0
 14 15  1  0  0  0
 14 20  1  1  0  0
 15 16  1  0  0  0
 16 17  1  0  0  0
 16 18  1  0  0  0
 16 19  1  0  0  0
 20 21  1  0  0  0
 21 22  2  0  0  0
 21 23  1  0  0  0
 23 24  1  0  0  0
 23 28  1  1  0  0
 24 25  1  0  0  0
 25 26  1  0  0  0
 25 27  1  0  0  0
 28 29  1  0  0  0
 29 30  2  0  0  0
 29 31  1  0  0  0
 31 32  1  0  0  0
 31 69  1  6  0  0
 32 33  1  0  0  0
 33 34  2  0  0  0
 33 35  1  0  0  0
 35 36  1  0  0  0
 35 44  1  1  0  0
 36 37  1  0  0  0
 37 38  2  0  0  0
 37 42  1  0  0  0
 38 39  1  0  0  0
 39 40  2  0  0  0
 40 41  1  0  0  0
 41 42  2  0  0  0
 42 43  1  0  0  0
 44 45  1  0  0  0
 45 46  2  0  0  0
 45 47  1  0  0  0
 47 48  1  0  0  0
 47 53  1  1  0  0
 48 49  1  0  0  0
 49 50  1  0  0  0
 50 51  2  0  0  0
 50 52  1  0  0  0
 53 54  1  0  0  0
 54 55  2  0  0  0
 54 56  1  0  0  0
 56 57  1  0  0  0
 56 61  1  1  0  0
 57 58  1  0  0  0
 58 59  2  0  0  0
 58 60  1  0  0  0
 61 62  1  0  0  0
 62 63  2  0  0  0
 62 64  1  0  0  0
 64 65  1  0  0  0
 65 66  1  0  0  0
 66 67  2  0  0  0
 66 68  1  0  0  0
 69 70  1  0  0  0
 69 71  1  0  0  0
 69 72  1  0  0  0
M  END
> <s_m_entry_id>
6624

> <s_m_entry_name>
NS3-4A.165

> <CHEMBLID>
CHEMBL405033

> <s_m_Source_Path>
/home/liwei/Desktop/Machine/HCV/Active

> <s_m_Source_File>
NS3-4A.sdf

> <i_m_Source_File_Index>
165

$$$$
CHEMBL405205
                    3D
 Structure written by MMmdl.
 53 58  0  0  1  0            999 V2000
   14.3366   -2.9791    0.0000 C   0  0  2  0  0  0
   15.1616   -2.9791    0.0000 C   0  0  0  0  0  0
   14.7491   -2.2647    0.0000 C   0  0  2  0  0  0
   15.4596   -1.8471    0.0000 C   0  0  0  0  0  0
   16.1764   -2.2509    0.0000 O   0  0  0  0  0  0
   15.4531   -1.0205    0.0000 O   0  0  0  0  0  0
   14.0341   -1.8516    0.0000 N   0  0  0  0  0  0
   13.3196   -2.2640    0.0000 C   0  0  0  0  0  0
   12.6061   -1.8510    0.0000 C   0  0  2  0  0  0
   13.3195   -3.0890    0.0000 O   0  0  0  0  0  0
   12.3443   -1.0650    0.0000 C   0  0  0  0  0  0
   11.5193   -1.0714    0.0000 C   0  0  2  0  0  0
   11.2705   -1.8581    0.0000 C   0  0  0  0  0  0
   11.9417   -2.3376    0.0000 N   0  0  0  0  0  0
   11.9467   -3.1626    0.0000 C   0  0  0  0  0  0
   15.0471   -3.3916    0.0000 C   0  0  0  0  0  0
   15.0450   -4.2166    0.0000 C   0  0  0  0  0  0
   12.6635   -3.5709    0.0000 O   0  0  0  0  0  0
   14.3296   -4.6274    0.0000 C   0  0  0  0  0  0
   13.6161   -4.2131    0.0000 C   0  0  0  0  0  0
   12.9006   -4.6239    0.0000 C   0  0  0  0  0  0
   12.1964   -4.2005    0.0000 C   0  0  0  0  0  0
   11.4746   -4.6002    0.0000 C   0  0  0  0  0  0
   11.2346   -3.5794    0.0000 C   0  0  3  0  0  0
   13.9196   -3.6896    0.0000 H   0  0  0  0  0  0
   13.3146   -1.4300    0.0000 H   0  0  0  0  0  0
   10.5187   -3.1625    0.0000 N   0  0  0  0  0  0
    9.8028   -3.5724    0.0000 C   0  0  0  0  0  0
    9.7997   -4.3974    0.0000 O   0  0  0  0  0  0
    9.0899   -3.1572    0.0000 O   0  0  0  0  0  0
    9.0929   -2.3322    0.0000 C   0  0  0  0  0  0
    9.0841   -1.5034    0.0000 C   0  0  0  0  0  0
    9.9179   -2.3294    0.0000 C   0  0  0  0  0  0
    8.2679   -2.3389    0.0000 C   0  0  0  0  0  0
   10.8029   -0.6554    0.0000 O   0  0  0  0  0  0
   10.8050    0.1696    0.0000 C   0  0  0  0  0  0
   11.5237    0.5767    0.0000 C   0  0  0  0  0  0
   11.5261    1.4010    0.0000 C   0  0  0  0  0  0
   10.8122    1.8161    0.0000 N   0  0  0  0  0  0
   10.0955    0.5782    0.0000 C   0  0  0  0  0  0
   10.0944    1.3978    0.0000 C   0  0  0  0  0  0
    9.3851    1.8050    0.0000 C   0  0  0  0  0  0
    8.6765    1.3936    0.0000 C   0  0  0  0  0  0
    8.6814    0.5708    0.0000 C   0  0  0  0  0  0
    9.3912    0.1673    0.0000 C   0  0  0  0  0  0
   12.2419    1.8114    0.0000 C   0  0  0  0  0  0
   12.9518    1.3956    0.0000 C   0  0  0  0  0  0
   13.6671    1.8052    0.0000 C   0  0  0  0  0  0
   13.6700    2.6311    0.0000 C   0  0  0  0  0  0
   12.9517    3.0457    0.0000 C   0  0  0  0  0  0
   12.2395    2.6336    0.0000 C   0  0  0  0  0  0
    7.9603    1.8031    0.0000 O   0  0  0  0  0  0
    7.9567    2.6281    0.0000 C   0  0  0  0  0  0
  1  3  1  0  0  0
  1 16  1  0  0  0
  1  2  1  0  0  0
  1 25  1  6  0  0
  2  3  1  0  0  0
  3  7  1  0  0  0
  3  4  1  1  0  0
  4  5  1  0  0  0
  4  6  2  0  0  0
  7  8  1  0  0  0
  8  9  1  0  0  0
  8 10  2  0  0  0
  9 26  1  0  0  0
  9 14  1  0  0  0
  9 11  1  6  0  0
 11 12  1  0  0  0
 12 13  1  0  0  0
 12 35  1  6  0  0
 13 14  1  0  0  0
 14 15  1  0  0  0
 15 18  2  0  0  0
 15 24  1  0  0  0
 16 17  2  0  0  0
 17 19  1  0  0  0
 19 20  1  0  0  0
 20 21  1  0  0  0
 21 22  1  0  0  0
 22 23  1  0  0  0
 23 24  1  0  0  0
 24 27  1  0  0  0
 27 28  1  0  0  0
 28 29  2  0  0  0
 28 30  1  0  0  0
 30 31  1  0  0  0
 31 32  1  0  0  0
 31 33  1  0  0  0
 31 34  1  0  0  0
 35 36  1  0  0  0
 36 37  2  0  0  0
 36 40  1  0  0  0
 37 38  1  0  0  0
 38 39  2  0  0  0
 38 46  1  0  0  0
 39 41  1  0  0  0
 40 41  1  0  0  0
 40 45  2  0  0  0
 41 42  2  0  0  0
 42 43  1  0  0  0
 43 44  2  0  0  0
 43 52  1  0  0  0
 44 45  1  0  0  0
 46 47  2  0  0  0
 46 51  1  0  0  0
 47 48  1  0  0  0
 48 49  2  0  0  0
 49 50  1  0  0  0
 50 51  2  0  0  0
 52 53  1  0  0  0
M  END
> <s_m_entry_id>
6923

> <s_m_entry_name>
CHEMBL405205.1

> <CHEMBLID>
CHEMBL405205

> <s_m_Source_Path>
/home/liwei/Desktop/Machine/HCV/Active/buchong

> <s_m_Source_File>
CHEMBL405205.sdf

> <i_m_Source_File_Index>
1

> <MOLREGNO>
428007

> <MAX_PHASE>
0

> <MOLWEIGHT>
698.8

> <ALOGP>
5.44

> <PSA>
156.39

> <HBA>
9

> <HBD>
3

> <RO5>
2

> <RTB>
8

> <RO3>
N

> <ACD_MOST_APKA>
3.32

> <ACD_LOGP>
5.45

> <ACD_LOGD>
2.04

> <AROMATIC_RINGS>
3

> <HEAVY_ATOMS>
51

> <QED_WEIGHTED>
0.26

> <HBA_LIPINSKI>
12

> <HBD_LIPINSKI>
3

> <NUM_LIPINSKI_RO5_VIOLATIONS>
2

> <MW_MONOISOTOPIC>
698.3316

> <MOLECULAR_SPECIES>
ACID

> <FULL_MOLFORMULA>
C39H46N4O8

> <ACD_MOST_BPKA>
5.96

$$$$
CHEMBL405304
                    3D
 Structure written by MMmdl.
 73 74  0  0  1  0            999 V2000
   -5.2500   -6.4952    0.0000 C   0  0  0  0  0  0
   -3.7500   -6.4952    0.0000 C   0  0  0  0  0  0
   -3.0000   -7.7942    0.0000 C   0  0  2  0  0  0
   -1.5000   -7.7942    0.0000 N   0  0  0  0  0  0
   -0.7500   -9.0933    0.0000 C   0  0  0  0  0  0
   -1.5000  -10.3923    0.0000 O   0  0  0  0  0  0
    0.7500   -9.0933    0.0000 C   0  0  0  0  0  0
    1.5000   -7.7942    0.0000 O   0  0  0  0  0  0
    1.5000  -10.3923    0.0000 C   0  0  1  0  0  0
    0.7500  -11.6913    0.0000 C   0  0  0  0  0  0
    1.5000  -12.9904    0.0000 C   0  0  0  0  0  0
    2.2500  -14.2894    0.0000 F   0  0  0  0  0  0
    0.2010  -13.7404    0.0000 F   0  0  0  0  0  0
    2.7990  -12.2404    0.0000 F   0  0  0  0  0  0
    3.0000  -10.3923    0.0000 N   0  0  0  0  0  0
    3.7500   -9.0933    0.0000 C   0  0  0  0  0  0
    3.0000   -7.7942    0.0000 O   0  0  0  0  0  0
    5.2500   -9.0933    0.0000 C   0  0  2  0  0  0
    6.0000  -10.3923    0.0000 C   0  0  0  0  0  0
    5.2500  -11.6913    0.0000 C   0  0  0  0  0  0
    6.0000  -12.9904    0.0000 C   0  0  0  0  0  0
    3.7500  -11.6913    0.0000 C   0  0  0  0  0  0
    6.0000   -7.7942    0.0000 N   0  0  0  0  0  0
    5.2500   -6.4952    0.0000 C   0  0  0  0  0  0
    3.7500   -6.4952    0.0000 O   0  0  0  0  0  0
    6.0000   -5.1962    0.0000 C   0  0  1  0  0  0
    5.2500   -3.8971    0.0000 N   0  0  0  0  0  0
    3.7500   -3.8971    0.0000 C   0  0  0  0  0  0
    3.0000   -5.1962    0.0000 O   0  0  0  0  0  0
    3.0000   -2.5981    0.0000 C   0  0  2  0  0  0
    1.5000   -2.5981    0.0000 C   0  0  0  0  0  0
    0.7500   -1.2990    0.0000 C   0  0  0  0  0  0
    1.5000    0.0000    0.0000 C   0  0  0  0  0  0
    0.7500    1.2990    0.0000 C   0  0  0  0  0  0
   -0.7500    1.2990    0.0000 C   0  0  0  0  0  0
   -1.5000    0.0000    0.0000 C   0  0  0  0  0  0
   -0.7500   -1.2990    0.0000 C   0  0  0  0  0  0
   -1.5000   -2.5981    0.0000 C   0  0  0  0  0  0
    3.7500   -1.2990    0.0000 N   0  0  0  0  0  0
    5.2500   -1.2990    0.0000 C   0  0  0  0  0  0
    6.0000   -2.5981    0.0000 O   0  0  0  0  0  0
    6.0000   -0.0000    0.0000 C   0  0  2  0  0  0
    7.5000   -0.0000    0.0000 C   0  0  0  0  0  0
    8.2500    1.2990    0.0000 C   0  0  0  0  0  0
    9.7500    1.2990    0.0000 C   0  0  0  0  0  0
   10.5000   -0.0000    0.0000 O   0  0  0  0  0  0
   10.5000    2.5981    0.0000 O   0  0  0  0  0  0
    5.2500    1.2990    0.0000 N   0  0  0  0  0  0
    6.0000    2.5981    0.0000 C   0  0  0  0  0  0
    7.5000    2.5981    0.0000 O   0  0  0  0  0  0
    5.2500    3.8971    0.0000 C   0  0  2  0  0  0
    6.0000    5.1962    0.0000 C   0  0  0  0  0  0
    7.5000    5.1962    0.0000 C   0  0  0  0  0  0
    8.2500    3.8971    0.0000 O   0  0  0  0  0  0
    8.2500    6.4952    0.0000 O   0  0  0  0  0  0
    3.7500    3.8971    0.0000 N   0  0  0  0  0  0
    3.0000    5.1962    0.0000 C   0  0  0  0  0  0
    3.7500    6.4952    0.0000 O   0  0  0  0  0  0
    1.5000    5.1962    0.0000 C   0  0  0  0  0  0
    0.7500    6.4952    0.0000 C   0  0  0  0  0  0
   -0.7500    6.4952    0.0000 C   0  0  0  0  0  0
   -1.5000    5.1962    0.0000 O   0  0  0  0  0  0
   -1.5000    7.7942    0.0000 O   0  0  0  0  0  0
    7.5000   -5.1962    0.0000 C   0  0  0  0  0  0
    7.5000   -6.6962    0.0000 C   0  0  0  0  0  0
    7.5000   -3.6962    0.0000 C   0  0  0  0  0  0
    9.0000   -5.1962    0.0000 C   0  0  0  0  0  0
   -3.7500   -9.0933    0.0000 C   0  0  0  0  0  0
   -5.2500   -9.0933    0.0000 C   0  0  0  0  0  0
   -6.0000  -10.3923    0.0000 C   0  0  0  0  0  0
   -5.2500  -11.6913    0.0000 C   0  0  0  0  0  0
   -3.7500  -11.6913    0.0000 C   0  0  0  0  0  0
   -3.0000  -10.3923    0.0000 C   0  0  0  0  0  0
  1  2  1  0  0  0
  2  3  1  0  0  0
  3  4  1  0  0  0
  3 68  1  1  0  0
  4  5  1  0  0  0
  5  6  2  0  0  0
  5  7  1  0  0  0
  7  8  2  0  0  0
  7  9  1  0  0  0
  9 10  1  0  0  0
  9 15  1  1  0  0
 10 11  1  0  0  0
 11 12  1  0  0  0
 11 13  1  0  0  0
 11 14  1  0  0  0
 15 16  1  0  0  0
 16 17  2  0  0  0
 16 18  1  0  0  0
 18 19  1  0  0  0
 18 23  1  1  0  0
 19 20  1  0  0  0
 20 21  1  0  0  0
 20 22  1  0  0  0
 23 24  1  0  0  0
 24 25  2  0  0  0
 24 26  1  0  0  0
 26 27  1  0  0  0
 26 64  1  6  0  0
 27 28  1  0  0  0
 28 29  2  0  0  0
 28 30  1  0  0  0
 30 31  1  0  0  0
 30 39  1  1  0  0
 31 32  1  0  0  0
 32 33  2  0  0  0
 32 37  1  0  0  0
 33 34  1  0  0  0
 34 35  2  0  0  0
 35 36  1  0  0  0
 36 37  2  0  0  0
 37 38  1  0  0  0
 39 40  1  0  0  0
 40 41  2  0  0  0
 40 42  1  0  0  0
 42 43  1  0  0  0
 42 48  1  1  0  0
 43 44  1  0  0  0
 44 45  1  0  0  0
 45 46  2  0  0  0
 45 47  1  0  0  0
 48 49  1  0  0  0
 49 50  2  0  0  0
 49 51  1  0  0  0
 51 52  1  0  0  0
 51 56  1  1  0  0
 52 53  1  0  0  0
 53 54  2  0  0  0
 53 55  1  0  0  0
 56 57  1  0  0  0
 57 58  2  0  0  0
 57 59  1  0  0  0
 59 60  1  0  0  0
 60 61  1  0  0  0
 61 62  2  0  0  0
 61 63  1  0  0  0
 64 65  1  0  0  0
 64 66  1  0  0  0
 64 67  1  0  0  0
 68 69  2  0  0  0
 68 73  1  0  0  0
 69 70  1  0  0  0
 70 71  2  0  0  0
 71 72  1  0  0  0
 72 73  2  0  0  0
M  END
> <s_m_entry_id>
6625

> <s_m_entry_name>
NS3-4A.166

> <CHEMBLID>
CHEMBL405304

> <s_m_Source_Path>
/home/liwei/Desktop/Machine/HCV/Active

> <s_m_Source_File>
NS3-4A.sdf

> <i_m_Source_File_Index>
166

$$$$
CHEMBL406457
                    3D
 Structure written by MMmdl.
 75 78  0  0  1  0            999 V2000
    1.5000    5.1962    0.0000 C   0  0  0  0  0  0
    3.0000    5.1962    0.0000 C   0  0  0  0  0  0
    3.7500    6.4952    0.0000 O   0  0  0  0  0  0
    3.7500    3.8971    0.0000 N   0  0  0  0  0  0
    5.2500    3.8971    0.0000 C   0  0  1  0  0  0
    6.0000    5.1962    0.0000 C   0  0  0  0  0  0
    7.5000    5.1962    0.0000 C   0  0  0  0  0  0
    8.2500    3.8971    0.0000 O   0  0  0  0  0  0
    8.2500    6.4952    0.0000 O   0  0  0  0  0  0
    6.0000    2.5981    0.0000 C   0  0  0  0  0  0
    7.5000    2.5981    0.0000 O   0  0  0  0  0  0
    5.2500    1.2990    0.0000 N   0  0  0  0  0  0
    6.0000   -0.0000    0.0000 C   0  0  1  0  0  0
    7.5000   -0.0000    0.0000 C   0  0  0  0  0  0
    8.2500    1.2990    0.0000 C   0  0  0  0  0  0
    9.7500    1.2990    0.0000 C   0  0  0  0  0  0
   10.5000   -0.0000    0.0000 O   0  0  0  0  0  0
   10.5000    2.5981    0.0000 O   0  0  0  0  0  0
    5.2500   -1.2990    0.0000 C   0  0  0  0  0  0
    6.0000   -2.5981    0.0000 O   0  0  0  0  0  0
    3.7500   -1.2990    0.0000 N   0  0  0  0  0  0
    3.0000   -2.5981    0.0000 C   0  0  1  0  0  0
    1.5000   -2.5981    0.0000 C   0  0  0  0  0  0
    0.7500   -1.2990    0.0000 C   0  0  0  0  0  0
    1.5000    0.0000    0.0000 C   0  0  0  0  0  0
    0.7500    1.2990    0.0000 C   0  0  0  0  0  0
   -0.7500    1.2990    0.0000 C   0  0  0  0  0  0
   -1.5000    0.0000    0.0000 C   0  0  0  0  0  0
   -0.7500   -1.2990    0.0000 C   0  0  0  0  0  0
    0.7500   -3.8971    0.0000 C   0  0  0  0  0  0
   -0.7500   -3.8971    0.0000 C   0  0  0  0  0  0
   -1.5000   -5.1962    0.0000 C   0  0  0  0  0  0
   -0.7500   -6.4952    0.0000 C   0  0  0  0  0  0
    0.7500   -6.4952    0.0000 C   0  0  0  0  0  0
    1.5000   -5.1962    0.0000 C   0  0  0  0  0  0
    3.7500   -3.8971    0.0000 C   0  0  0  0  0  0
    3.0000   -5.1962    0.0000 O   0  0  0  0  0  0
    5.2500   -3.8971    0.0000 N   0  0  0  0  0  0
    6.0000   -5.1962    0.0000 C   0  0  1  0  0  0
    7.5000   -5.1962    0.0000 C   0  0  0  0  0  0
    8.2500   -6.4952    0.0000 C   0  0  0  0  0  0
    9.7500   -6.4952    0.0000 C   0  0  0  0  0  0
   10.5000   -5.1962    0.0000 O   0  0  0  0  0  0
   10.5000   -7.7942    0.0000 O   0  0  0  0  0  0
    5.2500   -6.4952    0.0000 C   0  0  0  0  0  0
    3.7500   -6.4952    0.0000 O   0  0  0  0  0  0
    6.0000   -7.7942    0.0000 N   0  0  0  0  0  0
    5.2500   -9.0933    0.0000 C   0  0  1  0  0  0
    6.0000  -10.3923    0.0000 C   0  0  0  0  0  0
    7.5000  -10.3923    0.0000 C   0  0  0  0  0  0
    8.2500   -9.0933    0.0000 C   0  0  0  0  0  0
    9.7500   -9.0933    0.0000 C   0  0  0  0  0  0
   10.5000  -10.3923    0.0000 C   0  0  0  0  0  0
    9.7500  -11.6913    0.0000 C   0  0  0  0  0  0
    8.2500  -11.6913    0.0000 C   0  0  0  0  0  0
    3.7500   -9.0933    0.0000 C   0  0  0  0  0  0
    3.0000   -7.7942    0.0000 O   0  0  0  0  0  0
    3.0000  -10.3923    0.0000 N   0  0  0  0  0  0
    1.5000  -10.3923    0.0000 C   0  0  1  0  0  0
    0.7500  -11.6913    0.0000 C   0  0  0  0  0  0
    1.5000  -12.9904    0.0000 C   0  0  0  0  0  0
    0.7500  -14.2894    0.0000 F   0  0  0  0  0  0
    3.0000  -12.9904    0.0000 F   0  0  0  0  0  0
    0.7500   -9.0933    0.0000 C   0  0  0  0  0  0
    1.5000   -7.7942    0.0000 O   0  0  0  0  0  0
   -0.7500   -9.0933    0.0000 C   0  0  0  0  0  0
   -1.5000   -7.7942    0.0000 O   0  0  0  0  0  0
   -1.5000  -10.3923    0.0000 N   0  0  0  0  0  0
   -3.0000  -10.3923    0.0000 C   0  0  0  0  0  0
   -3.7500  -11.6913    0.0000 C   0  0  0  0  0  0
   -3.0000  -12.9904    0.0000 C   0  0  0  0  0  0
   -3.7500  -14.2894    0.0000 C   0  0  0  0  0  0
   -5.2500  -14.2894    0.0000 C   0  0  0  0  0  0
   -6.0000  -12.9904    0.0000 C   0  0  0  0  0  0
   -5.2500  -11.6913    0.0000 C   0  0  0  0  0  0
  1  2  1  0  0  0
  2  3  2  0  0  0
  2  4  1  0  0  0
  4  5  1  0  0  0
  5  6  1  0  0  0
  5 10  1  6  0  0
  6  7  1  0  0  0
  7  8  2  0  0  0
  7  9  1  0  0  0
 10 11  2  0  0  0
 10 12  1  0  0  0
 12 13  1  0  0  0
 13 14  1  0  0  0
 13 19  1  6  0  0
 14 15  1  0  0  0
 15 16  1  0  0  0
 16 17  2  0  0  0
 16 18  1  0  0  0
 19 20  2  0  0  0
 19 21  1  0  0  0
 21 22  1  0  0  0
 22 23  1  0  0  0
 22 36  1  6  0  0
 23 24  1  0  0  0
 23 30  1  0  0  0
 24 25  2  0  0  0
 24 29  1  0  0  0
 25 26  1  0  0  0
 26 27  2  0  0  0
 27 28  1  0  0  0
 28 29  2  0  0  0
 30 31  2  0  0  0
 30 35  1  0  0  0
 31 32  1  0  0  0
 32 33  2  0  0  0
 33 34  1  0  0  0
 34 35  2  0  0  0
 36 37  2  0  0  0
 36 38  1  0  0  0
 38 39  1  0  0  0
 39 40  1  0  0  0
 39 45  1  6  0  0
 40 41  1  0  0  0
 41 42  1  0  0  0
 42 43  2  0  0  0
 42 44  1  0  0  0
 45 46  2  0  0  0
 45 47  1  0  0  0
 47 48  1  0  0  0
 48 49  1  0  0  0
 48 56  1  6  0  0
 49 50  1  0  0  0
 50 51  1  0  0  0
 50 55  1  0  0  0
 51 52  1  0  0  0
 52 53  1  0  0  0
 53 54  1  0  0  0
 54 55  1  0  0  0
 56 57  2  0  0  0
 56 58  1  0  0  0
 58 59  1  0  0  0
 59 60  1  0  0  0
 59 64  1  6  0  0
 60 61  1  0  0  0
 61 62  1  0  0  0
 61 63  1  0  0  0
 64 65  2  0  0  0
 64 66  1  0  0  0
 66 67  2  0  0  0
 66 68  1  0  0  0
 68 69  1  0  0  0
 69 70  1  0  0  0
 70 71  2  0  0  0
 70 75  1  0  0  0
 71 72  1  0  0  0
 72 73  2  0  0  0
 73 74  1  0  0  0
 74 75  2  0  0  0
M  END
> <s_m_entry_id>
6626

> <s_m_entry_name>
NS3-4A.167

> <CHEMBLID>
CHEMBL406457

> <s_m_Source_Path>
/home/liwei/Desktop/Machine/HCV/Active

> <s_m_Source_File>
NS3-4A.sdf

> <i_m_Source_File_Index>
167

$$$$
CHEMBL406600
                    3D
 Structure written by MMmdl.
 54 59  0  0  1  0            999 V2000
    1.4576  -23.2661    0.0000 C   0  0  2  0  0  0
    2.2826  -23.2661    0.0000 C   0  0  0  0  0  0
    1.8701  -22.5516    0.0000 C   0  0  2  0  0  0
    2.5805  -22.1339    0.0000 C   0  0  0  0  0  0
    3.2974  -22.5378    0.0000 O   0  0  0  0  0  0
    2.5740  -21.3073    0.0000 O   0  0  0  0  0  0
    1.1551  -22.1385    0.0000 N   0  0  0  0  0  0
    0.4405  -22.5508    0.0000 C   0  0  0  0  0  0
   -0.2730  -22.1379    0.0000 C   0  0  2  0  0  0
    0.4402  -23.3759    0.0000 O   0  0  0  0  0  0
   -0.5350  -21.3518    0.0000 C   0  0  0  0  0  0
   -1.3599  -21.3583    0.0000 C   0  0  2  0  0  0
   -1.6087  -22.1449    0.0000 C   0  0  0  0  0  0
   -0.9375  -22.6245    0.0000 N   0  0  0  0  0  0
   -0.9326  -23.4496    0.0000 C   0  0  0  0  0  0
    2.1680  -23.6786    0.0000 C   0  0  0  0  0  0
    2.1660  -24.5036    0.0000 C   0  0  0  0  0  0
   -0.2156  -23.8578    0.0000 O   0  0  0  0  0  0
   -1.6447  -23.8663    0.0000 N   0  0  0  0  0  0
    1.0404  -23.9765    0.0000 H   0  0  0  0  0  0
    0.4354  -21.7169    0.0000 H   0  0  0  0  0  0
   -2.3605  -23.4495    0.0000 N   0  0  0  0  0  0
   -3.0765  -23.8592    0.0000 C   0  0  0  0  0  0
   -3.0796  -24.6843    0.0000 O   0  0  0  0  0  0
   -3.7896  -23.4441    0.0000 O   0  0  0  0  0  0
   -3.7865  -22.6190    0.0000 C   0  0  0  0  0  0
   -3.7952  -21.7901    0.0000 C   0  0  0  0  0  0
   -2.9614  -22.6163    0.0000 C   0  0  0  0  0  0
   -4.6114  -22.6259    0.0000 C   0  0  0  0  0  0
   -2.0763  -20.9422    0.0000 O   0  0  0  0  0  0
   -2.0743  -20.1172    0.0000 C   0  0  0  0  0  0
   -1.3555  -19.7099    0.0000 C   0  0  0  0  0  0
   -1.3531  -18.8857    0.0000 C   0  0  0  0  0  0
   -2.0671  -18.4705    0.0000 N   0  0  0  0  0  0
   -2.7839  -19.7086    0.0000 C   0  0  0  0  0  0
   -2.7849  -18.8889    0.0000 C   0  0  0  0  0  0
   -3.4942  -18.4817    0.0000 C   0  0  0  0  0  0
   -4.2030  -18.8930    0.0000 C   0  0  0  0  0  0
   -4.1979  -19.7160    0.0000 C   0  0  0  0  0  0
   -3.4880  -20.1195    0.0000 C   0  0  0  0  0  0
   -0.6373  -18.4754    0.0000 C   0  0  0  0  0  0
    0.0727  -18.8911    0.0000 C   0  0  0  0  0  0
    0.7880  -18.4814    0.0000 C   0  0  0  0  0  0
    0.7909  -17.6555    0.0000 C   0  0  0  0  0  0
    0.0726  -17.2410    0.0000 C   0  0  0  0  0  0
   -0.6397  -17.6531    0.0000 C   0  0  0  0  0  0
   -4.9192  -18.4836    0.0000 O   0  0  0  0  0  0
   -4.9226  -17.6586    0.0000 C   0  0  0  0  0  0
   -1.6437  -24.6913    0.0000 C   0  0  0  0  0  0
   -2.3544  -25.1037    0.0000 C   0  0  0  0  0  0
   -2.3555  -25.9251    0.0000 C   0  0  0  0  0  0
   -1.6424  -26.3407    0.0000 C   0  0  0  0  0  0
   -0.9266  -25.9286    0.0000 C   0  0  0  0  0  0
   -0.9238  -25.1010    0.0000 C   0  0  0  0  0  0
  1  3  1  0  0  0
  1 16  1  0  0  0
  1 20  1  0  0  0
  1  2  1  6  0  0
  2  3  1  0  0  0
  3  7  1  0  0  0
  3  4  1  1  0  0
  4  5  1  0  0  0
  4  6  2  0  0  0
  7  8  1  0  0  0
  8  9  1  0  0  0
  8 10  2  0  0  0
  9 14  1  0  0  0
  9 21  1  0  0  0
  9 11  1  6  0  0
 11 12  1  0  0  0
 12 13  1  0  0  0
 12 30  1  6  0  0
 13 14  1  0  0  0
 14 15  1  0  0  0
 15 18  2  0  0  0
 15 19  1  0  0  0
 16 17  2  0  0  0
 19 22  1  0  0  0
 19 49  1  0  0  0
 22 23  1  0  0  0
 23 24  2  0  0  0
 23 25  1  0  0  0
 25 26  1  0  0  0
 26 27  1  0  0  0
 26 28  1  0  0  0
 26 29  1  0  0  0
 30 31  1  0  0  0
 31 32  2  0  0  0
 31 35  1  0  0  0
 32 33  1  0  0  0
 33 34  2  0  0  0
 33 41  1  0  0  0
 34 36  1  0  0  0
 35 36  1  0  0  0
 35 40  2  0  0  0
 36 37  2  0  0  0
 37 38  1  0  0  0
 38 39  2  0  0  0
 38 47  1  0  0  0
 39 40  1  0  0  0
 41 42  2  0  0  0
 41 46  1  0  0  0
 42 43  1  0  0  0
 43 44  2  0  0  0
 44 45  1  0  0  0
 45 46  2  0  0  0
 47 48  1  0  0  0
 49 50  1  0  0  0
 49 54  1  0  0  0
 50 51  1  0  0  0
 51 52  1  0  0  0
 52 53  1  0  0  0
 53 54  1  0  0  0
M  END
> <s_m_entry_id>
6924

> <s_m_entry_name>
CHEMBL406600.1

> <CHEMBLID>
CHEMBL406600

> <s_m_Source_Path>
/home/liwei/Desktop/Machine/HCV/Active/buchong

> <s_m_Source_File>
CHEMBL406600.sdf

> <i_m_Source_File_Index>
1

> <MOLREGNO>
427882

> <MAX_PHASE>
0

> <MOLWEIGHT>
713.82

> <ALOGP>
5.66

> <PSA>
159.62

> <HBA>
9

> <HBD>
3

> <RO5>
2

> <RTB>
12

> <RO3>
N

> <ACD_MOST_APKA>
4.31

> <ACD_LOGP>
5.18

> <ACD_LOGD>
2.22

> <AROMATIC_RINGS>
3

> <HEAVY_ATOMS>
52

> <QED_WEIGHTED>
0.16

> <HBA_LIPINSKI>
13

> <HBD_LIPINSKI>
3

> <NUM_LIPINSKI_RO5_VIOLATIONS>
2

> <MW_MONOISOTOPIC>
713.3425

> <MOLECULAR_SPECIES>
ACID

> <FULL_MOLFORMULA>
C39H47N5O8

> <ACD_MOST_BPKA>
6.14

$$$$
CHEMBL407433
                    3D
 Structure written by MMmdl.
 54 57  0  0  1  0            999 V2000
    8.9985    2.5266    0.0000 C   0  0  0  0  0  0
    9.4620    1.1000    0.0000 C   0  0  0  0  0  0
    8.4583   -0.0147    0.0000 C   0  0  2  0  0  0
    8.9218   -1.4413    0.0000 N   0  0  0  0  0  0
    7.9182   -2.5560    0.0000 C   0  0  0  0  0  0
    6.4509   -2.2442    0.0000 O   0  0  0  0  0  0
    8.3817   -3.9826    0.0000 C   0  0  2  0  0  0
    9.8083   -4.4462    0.0000 C   0  0  0  0  0  0
    9.8083   -5.9462    0.0000 C   0  0  2  0  0  0
    8.3817   -6.4097    0.0000 C   0  0  0  0  0  0
    7.5000   -5.1962    0.0000 N   0  0  0  0  0  0
    6.0000   -5.1962    0.0000 C   0  0  0  0  0  0
    5.2500   -3.8971    0.0000 O   0  0  0  0  0  0
    5.2500   -6.4952    0.0000 C   0  0  2  0  0  0
    3.7500   -6.4952    0.0000 N   0  0  0  0  0  0
    3.0000   -5.1962    0.0000 C   0  0  0  0  0  0
    3.7500   -3.8971    0.0000 O   0  0  0  0  0  0
    1.5000   -5.1962    0.0000 C   0  0  2  0  0  0
    0.7500   -3.8971    0.0000 N   0  0  0  0  0  0
    1.5000   -2.5981    0.0000 C   0  0  0  0  0  0
    3.0000   -2.5981    0.0000 O   0  0  0  0  0  0
    0.7500   -1.2990    0.0000 C   0  0  0  0  0  0
    1.5000    0.0000    0.0000 C   0  0  0  0  0  0
    0.7500    1.2990    0.0000 N   0  0  0  0  0  0
   -0.7500    1.2990    0.0000 C   0  0  0  0  0  0
   -1.5000    0.0000    0.0000 C   0  0  0  0  0  0
   -0.7500   -1.2990    0.0000 N   0  0  0  0  0  0
    0.7500   -6.4952    0.0000 C   0  0  0  0  0  0
    1.5000   -7.7942    0.0000 C   0  0  0  0  0  0
   -0.7500   -6.4952    0.0000 C   0  0  0  0  0  0
    6.0000   -7.7942    0.0000 C   0  0  0  0  0  0
    7.5000   -7.7942    0.0000 C   0  0  0  0  0  0
    5.2500   -9.0933    0.0000 C   0  0  0  0  0  0
   11.0218   -6.8278    0.0000 O   0  0  0  0  0  0
   10.8650   -8.3196    0.0000 C   0  0  0  0  0  0
   12.0785   -9.2013    0.0000 C   0  0  0  0  0  0
   11.9217  -10.6931    0.0000 C   0  0  0  0  0  0
   13.1353  -11.5748    0.0000 C   0  0  0  0  0  0
   14.5056  -10.9646    0.0000 C   0  0  0  0  0  0
   14.6624   -9.4729    0.0000 C   0  0  0  0  0  0
   13.4488   -8.5912    0.0000 C   0  0  0  0  0  0
    6.9911    0.2971    0.0000 C   0  0  0  0  0  0
    5.9874   -0.8176    0.0000 O   0  0  0  0  0  0
    6.5276    1.7237    0.0000 C   0  0  0  0  0  0
    7.5313    2.8384    0.0000 O   0  0  0  0  0  0
    5.0604    2.0356    0.0000 N   0  0  0  0  0  0
    4.5968    3.4622    0.0000 C   0  0  1  0  0  0
    3.1296    3.7740    0.0000 C   0  0  0  0  0  0
    5.6005    4.5769    0.0000 C   0  0  0  0  0  0
    7.0677    4.2650    0.0000 C   0  0  0  0  0  0
    8.0714    5.3797    0.0000 C   0  0  0  0  0  0
    7.6079    6.8063    0.0000 C   0  0  0  0  0  0
    6.1407    7.1182    0.0000 C   0  0  0  0  0  0
    5.1370    6.0035    0.0000 C   0  0  0  0  0  0
  1  2  1  0  0  0
  2  3  1  0  0  0
  3  4  1  0  0  0
  3 42  1  1  0  0
  4  5  1  0  0  0
  5  6  2  0  0  0
  5  7  1  0  0  0
  7  8  1  0  0  0
  7 11  1  1  0  0
  8  9  1  0  0  0
  9 10  1  0  0  0
  9 34  1  6  0  0
 10 11  1  0  0  0
 11 12  1  0  0  0
 12 13  2  0  0  0
 12 14  1  0  0  0
 14 15  1  0  0  0
 14 31  1  6  0  0
 15 16  1  0  0  0
 16 17  2  0  0  0
 16 18  1  0  0  0
 18 19  1  0  0  0
 18 28  1  6  0  0
 19 20  1  0  0  0
 20 21  2  0  0  0
 20 22  1  0  0  0
 22 23  2  0  0  0
 22 27  1  0  0  0
 23 24  1  0  0  0
 24 25  2  0  0  0
 25 26  1  0  0  0
 26 27  2  0  0  0
 28 29  1  0  0  0
 28 30  1  0  0  0
 31 32  1  0  0  0
 31 33  1  0  0  0
 34 35  1  0  0  0
 35 36  1  0  0  0
 36 37  2  0  0  0
 36 41  1  0  0  0
 37 38  1  0  0  0
 38 39  2  0  0  0
 39 40  1  0  0  0
 40 41  2  0  0  0
 42 43  2  0  0  0
 42 44  1  0  0  0
 44 45  2  0  0  0
 44 46  1  0  0  0
 46 47  1  0  0  0
 47 48  1  0  0  0
 47 49  1  6  0  0
 49 50  2  0  0  0
 49 54  1  0  0  0
 50 51  1  0  0  0
 51 52  2  0  0  0
 52 53  1  0  0  0
 53 54  2  0  0  0
M  END
> <s_m_entry_id>
6627

> <s_m_entry_name>
NS3-4A.168

> <CHEMBLID>
CHEMBL407433

> <s_m_Source_Path>
/home/liwei/Desktop/Machine/HCV/Active

> <s_m_Source_File>
NS3-4A.sdf

> <i_m_Source_File_Index>
168

$$$$
CHEMBL407674
                    3D
 Structure written by MMmdl.
 43 45  0  0  1  0            999 V2000
    8.9985    2.5266    0.0000 C   0  0  0  0  0  0
    9.4620    1.1000    0.0000 C   0  0  0  0  0  0
    8.4583   -0.0147    0.0000 C   0  0  2  0  0  0
    8.9218   -1.4413    0.0000 N   0  0  0  0  0  0
    7.9182   -2.5560    0.0000 C   0  0  0  0  0  0
    6.4509   -2.2442    0.0000 O   0  0  0  0  0  0
    8.3817   -3.9826    0.0000 C   0  0  2  0  0  0
    9.8083   -4.4462    0.0000 C   0  0  0  0  0  0
    9.8083   -5.9462    0.0000 C   0  0  2  0  0  0
    8.3817   -6.4097    0.0000 C   0  0  0  0  0  0
    7.5000   -5.1962    0.0000 N   0  0  0  0  0  0
    6.0000   -5.1962    0.0000 C   0  0  0  0  0  0
    5.2500   -3.8971    0.0000 O   0  0  0  0  0  0
    5.2500   -6.4952    0.0000 C   0  0  2  0  0  0
    3.7500   -6.4952    0.0000 N   0  0  0  0  0  0
    3.0000   -5.1962    0.0000 C   0  0  0  0  0  0
    3.7500   -3.8971    0.0000 O   0  0  0  0  0  0
    1.5000   -5.1962    0.0000 C   0  0  2  0  0  0
    0.7500   -3.8971    0.0000 N   0  0  0  0  0  0
    1.5000   -2.5981    0.0000 C   0  0  0  0  0  0
    3.0000   -2.5981    0.0000 O   0  0  0  0  0  0
    0.7500   -1.2990    0.0000 C   0  0  0  0  0  0
    1.5000   -0.0000    0.0000 C   0  0  0  0  0  0
    0.7500    1.2990    0.0000 N   0  0  0  0  0  0
   -0.7500    1.2990    0.0000 C   0  0  0  0  0  0
   -1.5000    0.0000    0.0000 C   0  0  0  0  0  0
   -0.7500   -1.2990    0.0000 N   0  0  0  0  0  0
    0.7500   -6.4952    0.0000 C   0  0  0  0  0  0
    1.5000   -7.7942    0.0000 C   0  0  0  0  0  0
   -0.7500   -6.4952    0.0000 C   0  0  0  0  0  0
    6.0000   -7.7942    0.0000 C   0  0  0  0  0  0
    7.5000   -7.7942    0.0000 C   0  0  0  0  0  0
    5.2500   -9.0933    0.0000 C   0  0  0  0  0  0
   11.0218   -6.8278    0.0000 O   0  0  0  0  0  0
   12.3921   -6.2177    0.0000 C   0  0  0  0  0  0
   13.6056   -7.0994    0.0000 C   0  0  0  0  0  0
   14.9760   -6.4893    0.0000 C   0  0  0  0  0  0
   16.1895   -7.3710    0.0000 C   0  0  0  0  0  0
   16.0327   -8.8628    0.0000 C   0  0  0  0  0  0
   14.6624   -9.4729    0.0000 C   0  0  0  0  0  0
   13.4488   -8.5912    0.0000 C   0  0  0  0  0  0
    6.9911    0.2971    0.0000 C   0  0  0  0  0  0
    6.5276    1.7237    0.0000 O   0  0  0  0  0  0
  1  2  1  0  0  0
  2  3  1  0  0  0
  3  4  1  0  0  0
  3 42  1  1  0  0
  4  5  1  0  0  0
  5  6  2  0  0  0
  5  7  1  0  0  0
  7  8  1  0  0  0
  7 11  1  1  0  0
  8  9  1  0  0  0
  9 10  1  0  0  0
  9 34  1  6  0  0
 10 11  1  0  0  0
 11 12  1  0  0  0
 12 13  2  0  0  0
 12 14  1  0  0  0
 14 15  1  0  0  0
 14 31  1  6  0  0
 15 16  1  0  0  0
 16 17  2  0  0  0
 16 18  1  0  0  0
 18 19  1  0  0  0
 18 28  1  6  0  0
 19 20  1  0  0  0
 20 21  2  0  0  0
 20 22  1  0  0  0
 22 23  2  0  0  0
 22 27  1  0  0  0
 23 24  1  0  0  0
 24 25  2  0  0  0
 25 26  1  0  0  0
 26 27  2  0  0  0
 28 29  1  0  0  0
 28 30  1  0  0  0
 31 32  1  0  0  0
 31 33  1  0  0  0
 34 35  1  0  0  0
 35 36  1  0  0  0
 36 37  2  0  0  0
 36 41  1  0  0  0
 37 38  1  0  0  0
 38 39  2  0  0  0
 39 40  1  0  0  0
 40 41  2  0  0  0
 42 43  2  0  0  0
M  END
> <s_m_entry_id>
6628

> <s_m_entry_name>
NS3-4A.169

> <CHEMBLID>
CHEMBL407674

> <s_m_Source_Path>
/home/liwei/Desktop/Machine/HCV/Active

> <s_m_Source_File>
NS3-4A.sdf

> <i_m_Source_File_Index>
169

$$$$
CHEMBL408494
                    3D
 Structure written by MMmdl.
 44 46  0  0  1  0            999 V2000
   10.0022  -14.0336    0.0000 C   0  0  0  0  0  0
    8.9985  -12.9189    0.0000 C   0  0  0  0  0  0
    9.4620  -11.4923    0.0000 C   0  0  0  0  0  0
    8.4583  -10.3776    0.0000 C   0  0  2  0  0  0
    8.9218   -8.9510    0.0000 N   0  0  0  0  0  0
    7.9182   -7.8363    0.0000 C   0  0  0  0  0  0
    6.4509   -8.1481    0.0000 O   0  0  0  0  0  0
    8.3817   -6.4097    0.0000 C   0  0  2  0  0  0
    9.8083   -5.9462    0.0000 C   0  0  0  0  0  0
    9.8083   -4.4462    0.0000 C   0  0  2  0  0  0
    8.3817   -3.9826    0.0000 C   0  0  0  0  0  0
    7.5000   -5.1962    0.0000 N   0  0  0  0  0  0
    6.0000   -5.1962    0.0000 C   0  0  0  0  0  0
    5.2500   -6.4952    0.0000 O   0  0  0  0  0  0
    5.2500   -3.8971    0.0000 C   0  0  1  0  0  0
    3.7500   -3.8971    0.0000 N   0  0  0  0  0  0
    3.0000   -5.1962    0.0000 C   0  0  0  0  0  0
    3.7500   -6.4952    0.0000 O   0  0  0  0  0  0
    1.5000   -5.1962    0.0000 C   0  0  1  0  0  0
    0.7500   -6.4952    0.0000 N   0  0  0  0  0  0
    1.5000   -7.7942    0.0000 C   0  0  0  0  0  0
    3.0000   -7.7942    0.0000 O   0  0  0  0  0  0
    0.7500   -9.0933    0.0000 C   0  0  0  0  0  0
    1.5000  -10.3923    0.0000 C   0  0  0  0  0  0
    0.7500  -11.6913    0.0000 N   0  0  0  0  0  0
   -0.7500  -11.6913    0.0000 C   0  0  0  0  0  0
   -1.5000  -10.3923    0.0000 C   0  0  0  0  0  0
   -0.7500   -9.0933    0.0000 N   0  0  0  0  0  0
    0.7500   -3.8971    0.0000 C   0  0  0  0  0  0
    1.5000   -2.5981    0.0000 C   0  0  0  0  0  0
   -0.7500   -3.8971    0.0000 C   0  0  0  0  0  0
    6.0000   -2.5981    0.0000 C   0  0  0  0  0  0
    7.5000   -2.5981    0.0000 C   0  0  0  0  0  0
    5.2500   -1.2990    0.0000 C   0  0  0  0  0  0
   11.0218   -3.5645    0.0000 O   0  0  0  0  0  0
   12.3921   -4.1746    0.0000 C   0  0  0  0  0  0
   13.6056   -3.2929    0.0000 C   0  0  0  0  0  0
   14.9760   -3.9030    0.0000 C   0  0  0  0  0  0
   16.1895   -3.0213    0.0000 C   0  0  0  0  0  0
   16.0327   -1.5295    0.0000 C   0  0  0  0  0  0
   14.6624   -0.9194    0.0000 C   0  0  0  0  0  0
   13.4488   -1.8011    0.0000 C   0  0  0  0  0  0
    6.9911  -10.6894    0.0000 C   0  0  0  0  0  0
    6.5276  -12.1160    0.0000 O   0  0  0  0  0  0
  1  2  1  0  0  0
  2  3  1  0  0  0
  3  4  1  0  0  0
  4  5  1  0  0  0
  4 43  1  1  0  0
  5  6  1  0  0  0
  6  7  2  0  0  0
  6  8  1  0  0  0
  8  9  1  0  0  0
  8 12  1  1  0  0
  9 10  1  0  0  0
 10 11  1  0  0  0
 10 35  1  6  0  0
 11 12  1  0  0  0
 12 13  1  0  0  0
 13 14  2  0  0  0
 13 15  1  0  0  0
 15 16  1  0  0  0
 15 32  1  6  0  0
 16 17  1  0  0  0
 17 18  2  0  0  0
 17 19  1  0  0  0
 19 20  1  0  0  0
 19 29  1  6  0  0
 20 21  1  0  0  0
 21 22  2  0  0  0
 21 23  1  0  0  0
 23 24  2  0  0  0
 23 28  1  0  0  0
 24 25  1  0  0  0
 25 26  2  0  0  0
 26 27  1  0  0  0
 27 28  2  0  0  0
 29 30  1  0  0  0
 29 31  1  0  0  0
 32 33  1  0  0  0
 32 34  1  0  0  0
 35 36  1  0  0  0
 36 37  1  0  0  0
 37 38  2  0  0  0
 37 42  1  0  0  0
 38 39  1  0  0  0
 39 40  2  0  0  0
 40 41  1  0  0  0
 41 42  2  0  0  0
 43 44  2  0  0  0
M  END
> <s_m_entry_id>
6629

> <s_m_entry_name>
NS3-4A.170

> <CHEMBLID>
CHEMBL408494

> <s_m_Source_Path>
/home/liwei/Desktop/Machine/HCV/Active

> <s_m_Source_File>
NS3-4A.sdf

> <i_m_Source_File_Index>
170

$$$$
CHEMBL409025
                    3D
 Structure written by MMmdl.
 53 58  0  0  1  0            999 V2000
    1.9750   -3.5792    0.0000 C   0  0  1  0  0  0
    1.5667   -2.8667    0.0000 C   0  0  1  0  0  0
    1.1538   -3.5765    0.0000 C   0  0  0  0  0  0
   -1.9135   -2.3574    0.0000 C   0  0  0  0  0  0
   -1.3317   -2.9417    0.0000 N   0  0  0  0  0  0
   -0.5951   -2.5662    0.0000 C   0  0  1  0  0  0
   -0.7241   -1.7514    0.0000 C   0  0  0  0  0  0
   -1.5389   -1.6224    0.0000 C   0  0  1  0  0  0
    0.1425   -2.9423    0.0000 C   0  0  0  0  0  0
    0.1856   -3.7662    0.0000 O   0  0  0  0  0  0
    0.8344   -2.4930    0.0000 N   0  0  0  0  0  0
    2.2614   -2.4183    0.0000 C   0  0  0  0  0  0
    2.9976   -2.7911    0.0000 O   0  0  0  0  0  0
    2.2194   -1.5927    0.0000 O   0  0  0  0  0  0
    2.6875   -3.9917    0.0000 C   0  0  0  0  0  0
    2.6865   -4.8167    0.0000 C   0  0  0  0  0  0
    1.9715   -5.2283    0.0000 C   0  0  0  0  0  0
   -1.7710   -3.6400    0.0000 C   0  0  0  0  0  0
   -2.5954   -3.6087    0.0000 O   0  0  0  0  0  0
   -1.3859   -4.3696    0.0000 N   0  0  0  0  0  0
   -1.8253   -5.0679    0.0000 N   0  0  0  0  0  0
   -0.5615   -4.4010    0.0000 C   0  0  0  0  0  0
   -0.1764   -5.1306    0.0000 C   0  0  0  0  0  0
    0.6480   -5.1619    0.0000 C   0  0  0  0  0  0
    1.0873   -4.4636    0.0000 C   0  0  0  0  0  0
   -2.6497   -5.0366    0.0000 C   0  0  0  0  0  0
   -3.0890   -5.7349    0.0000 O   0  0  0  0  0  0
   -3.0347   -4.3070    0.0000 O   0  0  0  0  0  0
   -3.9134   -5.7036    0.0000 C   0  0  0  0  0  0
   -4.7417   -5.7000    0.0000 C   0  0  0  0  0  0
   -3.8959   -4.8788    0.0000 C   0  0  0  0  0  0
   -3.9275   -6.5285    0.0000 C   0  0  0  0  0  0
   -1.9133   -0.8872    0.0000 O   0  0  0  0  0  0
   -1.4842   -0.1826    0.0000 C   0  0  0  0  0  0
   -0.6582   -0.2067    0.0000 C   0  0  0  0  0  0
   -0.2293    0.4938    0.0000 C   0  0  0  0  0  0
   -0.6214    1.2201    0.0000 N   0  0  0  0  0  0
    0.5930    0.4723    0.0000 C   0  0  0  0  0  0
    0.9853   -0.2547    0.0000 C   0  0  0  0  0  0
    1.8092   -0.2775    0.0000 C   0  0  0  0  0  0
    2.2418    0.4261    0.0000 C   0  0  0  0  0  0
    1.8445    1.1540    0.0000 C   0  0  0  0  0  0
    1.0219    1.1731    0.0000 C   0  0  0  0  0  0
   -1.8807    0.5364    0.0000 C   0  0  0  0  0  0
   -1.4491    1.2378    0.0000 C   0  0  0  0  0  0
   -1.8407    1.9602    0.0000 C   0  0  0  0  0  0
   -2.6637    1.9824    0.0000 C   0  0  0  0  0  0
   -3.0936    1.2762    0.0000 C   0  0  0  0  0  0
   -2.6995    0.5567    0.0000 C   0  0  0  0  0  0
   -3.0582    2.7069    0.0000 O   0  0  0  0  0  0
   -2.6279    3.4109    0.0000 C   0  0  0  0  0  0
    0.2140   -1.9786    0.0000 H   0  0  0  0  0  0
    1.7140   -4.5445    0.0000 H   0  0  0  0  0  0
  1 15  1  0  0  0
  1  3  1  0  0  0
  1  2  1  0  0  0
  1 53  1  1  0  0
  2 12  1  0  0  0
  2 11  1  0  0  0
  2  3  1  6  0  0
  4  5  1  0  0  0
  4  8  1  0  0  0
  5  6  1  0  0  0
  5 18  1  0  0  0
  6  7  1  0  0  0
  6  9  1  0  0  0
  6 52  1  1  0  0
  7  8  1  0  0  0
  8 33  1  1  0  0
  9 10  2  0  0  0
  9 11  1  0  0  0
 12 13  1  0  0  0
 12 14  2  0  0  0
 15 16  2  0  0  0
 16 17  1  0  0  0
 17 25  1  0  0  0
 18 19  2  0  0  0
 18 20  1  0  0  0
 20 21  1  0  0  0
 20 22  1  0  0  0
 21 26  1  0  0  0
 22 23  1  0  0  0
 23 24  1  0  0  0
 24 25  1  0  0  0
 26 27  1  0  0  0
 26 28  2  0  0  0
 27 29  1  0  0  0
 29 30  1  0  0  0
 29 31  1  0  0  0
 29 32  1  0  0  0
 33 34  1  0  0  0
 34 35  2  0  0  0
 34 44  1  0  0  0
 35 36  1  0  0  0
 36 37  2  0  0  0
 36 38  1  0  0  0
 37 45  1  0  0  0
 38 39  2  0  0  0
 38 43  1  0  0  0
 39 40  1  0  0  0
 40 41  2  0  0  0
 41 42  1  0  0  0
 42 43  2  0  0  0
 44 45  2  0  0  0
 44 49  1  0  0  0
 45 46  1  0  0  0
 46 47  2  0  0  0
 47 48  1  0  0  0
 47 50  1  0  0  0
 48 49  2  0  0  0
 50 51  1  0  0  0
M  END
> <s_m_entry_id>
6925

> <s_m_entry_name>
CHEMBL409025.1

> <CHEMBLID>
CHEMBL409025

> <s_m_Source_Path>
/home/liwei/Desktop/Machine/HCV/Active/buchong

> <s_m_Source_File>
CHEMBL409025.sdf

> <i_m_Source_File_Index>
1

> <MOLREGNO>
427967

> <MAX_PHASE>
0

> <MOLWEIGHT>
699.79

> <ALOGP>
5.16

> <PSA>
159.62

> <HBA>
9

> <HBD>
3

> <RO5>
2

> <RTB>
8

> <RO3>
N

> <ACD_MOST_APKA>
3.6

> <ACD_LOGP>
6.15

> <ACD_LOGD>
2.8

> <AROMATIC_RINGS>
3

> <HEAVY_ATOMS>
51

> <QED_WEIGHTED>
0.27

> <HBA_LIPINSKI>
13

> <HBD_LIPINSKI>
3

> <NUM_LIPINSKI_RO5_VIOLATIONS>
2

> <MW_MONOISOTOPIC>
699.3268

> <MOLECULAR_SPECIES>
ACID

> <FULL_MOLFORMULA>
C38H45N5O8

> <ACD_MOST_BPKA>
6.04

$$$$
CHEMBL409677
                    3D
 Structure written by MMmdl.
 74 77  0  0  1  0            999 V2000
    1.5000    5.1962    0.0000 C   0  0  0  0  0  0
    3.0000    5.1962    0.0000 C   0  0  0  0  0  0
    3.7500    6.4952    0.0000 O   0  0  0  0  0  0
    3.7500    3.8971    0.0000 N   0  0  0  0  0  0
    5.2500    3.8971    0.0000 C   0  0  1  0  0  0
    6.0000    5.1962    0.0000 C   0  0  0  0  0  0
    7.5000    5.1962    0.0000 C   0  0  0  0  0  0
    8.2500    3.8971    0.0000 O   0  0  0  0  0  0
    8.2500    6.4952    0.0000 O   0  0  0  0  0  0
    6.0000    2.5981    0.0000 C   0  0  0  0  0  0
    7.5000    2.5981    0.0000 O   0  0  0  0  0  0
    5.2500    1.2990    0.0000 N   0  0  0  0  0  0
    6.0000   -0.0000    0.0000 C   0  0  1  0  0  0
    7.5000   -0.0000    0.0000 C   0  0  0  0  0  0
    8.2500    1.2990    0.0000 C   0  0  0  0  0  0
    9.7500    1.2990    0.0000 C   0  0  0  0  0  0
   10.5000   -0.0000    0.0000 O   0  0  0  0  0  0
   10.5000    2.5981    0.0000 O   0  0  0  0  0  0
    5.2500   -1.2990    0.0000 C   0  0  0  0  0  0
    6.0000   -2.5981    0.0000 O   0  0  0  0  0  0
    3.7500   -1.2990    0.0000 N   0  0  0  0  0  0
    3.0000   -2.5981    0.0000 C   0  0  1  0  0  0
    1.5000   -2.5981    0.0000 C   0  0  0  0  0  0
    0.7500   -1.2990    0.0000 C   0  0  0  0  0  0
    1.5000    0.0000    0.0000 C   0  0  0  0  0  0
    0.7500    1.2990    0.0000 C   0  0  0  0  0  0
   -0.7500    1.2990    0.0000 C   0  0  0  0  0  0
   -1.5000    0.0000    0.0000 C   0  0  0  0  0  0
   -0.7500   -1.2990    0.0000 C   0  0  0  0  0  0
    0.7500   -3.8971    0.0000 C   0  0  0  0  0  0
   -0.7500   -3.8971    0.0000 C   0  0  0  0  0  0
   -1.5000   -5.1962    0.0000 C   0  0  0  0  0  0
   -0.7500   -6.4952    0.0000 C   0  0  0  0  0  0
    0.7500   -6.4952    0.0000 C   0  0  0  0  0  0
    1.5000   -5.1962    0.0000 C   0  0  0  0  0  0
    3.7500   -3.8971    0.0000 C   0  0  0  0  0  0
    3.0000   -5.1962    0.0000 O   0  0  0  0  0  0
    5.2500   -3.8971    0.0000 N   0  0  0  0  0  0
    6.0000   -5.1962    0.0000 C   0  0  1  0  0  0
    7.5000   -5.1962    0.0000 C   0  0  0  0  0  0
    8.2500   -6.4952    0.0000 C   0  0  0  0  0  0
    9.7500   -6.4952    0.0000 C   0  0  0  0  0  0
   10.5000   -5.1962    0.0000 O   0  0  0  0  0  0
   10.5000   -7.7942    0.0000 O   0  0  0  0  0  0
    5.2500   -6.4952    0.0000 C   0  0  0  0  0  0
    3.7500   -6.4952    0.0000 O   0  0  0  0  0  0
    6.0000   -7.7942    0.0000 N   0  0  0  0  0  0
    5.2500   -9.0933    0.0000 C   0  0  1  0  0  0
    6.0000  -10.3923    0.0000 C   0  0  0  0  0  0
    5.2500  -11.6913    0.0000 C   0  0  0  0  0  0
    3.7500  -11.6913    0.0000 C   0  0  0  0  0  0
    3.0000  -12.9904    0.0000 C   0  0  0  0  0  0
    3.7500  -14.2894    0.0000 C   0  0  0  0  0  0
    5.2500  -14.2894    0.0000 C   0  0  0  0  0  0
    6.0000  -12.9904    0.0000 C   0  0  0  0  0  0
    3.7500   -9.0933    0.0000 C   0  0  0  0  0  0
    3.0000   -7.7942    0.0000 O   0  0  0  0  0  0
    3.0000  -10.3923    0.0000 N   0  0  0  0  0  0
    1.5000  -10.3923    0.0000 C   0  0  1  0  0  0
    0.7500  -11.6913    0.0000 C   0  0  0  0  0  0
   -0.7500  -11.6913    0.0000 C   0  0  0  0  0  0
   -1.5000  -12.9904    0.0000 F   0  0  0  0  0  0
   -1.5000  -10.3923    0.0000 F   0  0  0  0  0  0
    0.7500   -9.0933    0.0000 C   0  0  0  0  0  0
    1.5000   -7.7942    0.0000 O   0  0  0  0  0  0
   -0.7500   -9.0933    0.0000 N   0  0  0  0  0  0
   -1.5000   -7.7942    0.0000 C   0  0  0  0  0  0
   -3.0000   -7.7942    0.0000 C   0  0  0  0  0  0
   -3.7500   -6.4952    0.0000 C   0  0  0  0  0  0
   -3.0000   -5.1962    0.0000 C   0  0  0  0  0  0
   -3.7500   -3.8971    0.0000 C   0  0  0  0  0  0
   -5.2500   -3.8971    0.0000 C   0  0  0  0  0  0
   -6.0000   -5.1962    0.0000 C   0  0  0  0  0  0
   -5.2500   -6.4952    0.0000 C   0  0  0  0  0  0
  1  2  1  0  0  0
  2  3  2  0  0  0
  2  4  1  0  0  0
  4  5  1  0  0  0
  5  6  1  0  0  0
  5 10  1  6  0  0
  6  7  1  0  0  0
  7  8  2  0  0  0
  7  9  1  0  0  0
 10 11  2  0  0  0
 10 12  1  0  0  0
 12 13  1  0  0  0
 13 14  1  0  0  0
 13 19  1  6  0  0
 14 15  1  0  0  0
 15 16  1  0  0  0
 16 17  2  0  0  0
 16 18  1  0  0  0
 19 20  2  0  0  0
 19 21  1  0  0  0
 21 22  1  0  0  0
 22 23  1  0  0  0
 22 36  1  6  0  0
 23 24  1  0  0  0
 23 30  1  0  0  0
 24 25  2  0  0  0
 24 29  1  0  0  0
 25 26  1  0  0  0
 26 27  2  0  0  0
 27 28  1  0  0  0
 28 29  2  0  0  0
 30 31  2  0  0  0
 30 35  1  0  0  0
 31 32  1  0  0  0
 32 33  2  0  0  0
 33 34  1  0  0  0
 34 35  2  0  0  0
 36 37  2  0  0  0
 36 38  1  0  0  0
 38 39  1  0  0  0
 39 40  1  0  0  0
 39 45  1  6  0  0
 40 41  1  0  0  0
 41 42  1  0  0  0
 42 43  2  0  0  0
 42 44  1  0  0  0
 45 46  2  0  0  0
 45 47  1  0  0  0
 47 48  1  0  0  0
 48 49  1  0  0  0
 48 56  1  6  0  0
 49 50  1  0  0  0
 50 51  1  0  0  0
 50 55  1  0  0  0
 51 52  1  0  0  0
 52 53  1  0  0  0
 53 54  1  0  0  0
 54 55  1  0  0  0
 56 57  2  0  0  0
 56 58  1  0  0  0
 58 59  1  0  0  0
 59 60  1  0  0  0
 59 64  1  6  0  0
 60 61  1  0  0  0
 61 62  1  0  0  0
 61 63  1  0  0  0
 64 65  2  0  0  0
 64 66  1  0  0  0
 66 67  1  0  0  0
 67 68  1  0  0  0
 68 69  1  0  0  0
 69 70  2  0  0  0
 69 74  1  0  0  0
 70 71  1  0  0  0
 71 72  2  0  0  0
 72 73  1  0  0  0
 73 74  2  0  0  0
M  END
> <s_m_entry_id>
6630

> <s_m_entry_name>
NS3-4A.171

> <CHEMBLID>
CHEMBL409677

> <s_m_Source_Path>
/home/liwei/Desktop/Machine/HCV/Active

> <s_m_Source_File>
NS3-4A.sdf

> <i_m_Source_File_Index>
171

$$$$
CHEMBL412390
                    3D
 Structure written by MMmdl.
 37 40  0  0  1  0            999 V2000
   -1.5000    2.5981    0.0000 C   0  0  0  0  0  0
   -0.7500    1.2990    0.0000 C   0  0  0  0  0  0
    0.7500    1.2990    0.0000 C   0  0  0  0  0  0
   -1.5000   -0.0000    0.0000 O   0  0  0  0  0  0
   -0.7500   -1.2990    0.0000 C   0  0  0  0  0  0
    0.7500   -1.2990    0.0000 O   0  0  0  0  0  0
   -1.5000   -2.5981    0.0000 N   0  0  0  0  0  0
   -0.7500   -3.8971    0.0000 C   0  0  3  0  0  0
   -1.5000   -5.1962    0.0000 C   0  0  0  0  0  0
   -3.0000   -5.1962    0.0000 C   0  0  0  0  0  0
   -3.7500   -6.4952    0.0000 C   0  0  0  0  0  0
   -3.0000   -7.7942    0.0000 C   0  0  0  0  0  0
   -1.5000   -7.7942    0.0000 C   0  0  0  0  0  0
   -0.7500   -6.4952    0.0000 C   0  0  0  0  0  0
    0.7500   -3.8971    0.0000 C   0  0  0  0  0  0
    1.5000   -2.5981    0.0000 O   0  0  0  0  0  0
    1.5000   -5.1962    0.0000 N   0  0  0  0  0  0
    0.8899   -6.5665    0.0000 C   0  0  0  0  0  0
    2.0046   -7.5702    0.0000 C   0  0  1  0  0  0
    3.3037   -6.8202    0.0000 C   0  0  1  0  0  0
    2.9918   -5.3529    0.0000 C   0  0  3  0  0  0
    3.9955   -4.2382    0.0000 C   0  0  0  0  0  0
    3.5320   -2.8116    0.0000 O   0  0  0  0  0  0
    5.4627   -4.5501    0.0000 N   0  0  0  0  0  0
    6.4664   -3.4354    0.0000 C   0  0  1  0  0  0
    7.9336   -3.7472    0.0000 C   0  0  0  0  0  0
    8.3971   -5.1738    0.0000 C   0  0  0  0  0  0
    8.0853   -6.6411    0.0000 C   0  0  0  0  0  0
    9.5119   -6.1775    0.0000 C   0  0  0  0  0  0
    6.0029   -2.0088    0.0000 C   0  0  0  0  0  0
    4.5356   -1.6969    0.0000 O   0  0  0  0  0  0
    7.0066   -0.8941    0.0000 C   0  0  0  0  0  0
    8.4738   -1.2059    0.0000 O   0  0  0  0  0  0
    6.5430    0.5325    0.0000 N   0  0  0  0  0  0
    3.3037   -8.3202    0.0000 C   0  0  0  0  0  0
    4.7809   -8.5806    0.0000 C   0  0  0  0  0  0
    2.7906   -9.7297    0.0000 C   0  0  0  0  0  0
  1  2  1  0  0  0
  2  3  1  0  0  0
  2  4  1  0  0  0
  4  5  1  0  0  0
  5  6  2  0  0  0
  5  7  1  0  0  0
  7  8  1  0  0  0
  8  9  1  0  0  0
  8 15  1  0  0  0
  9 10  1  0  0  0
  9 14  1  0  0  0
 10 11  1  0  0  0
 11 12  1  0  0  0
 12 13  1  0  0  0
 13 14  1  0  0  0
 15 16  2  0  0  0
 15 17  1  0  0  0
 17 18  1  0  0  0
 17 21  1  0  0  0
 18 19  1  0  0  0
 19 20  1  0  0  0
 19 35  1  6  0  0
 20 21  1  0  0  0
 20 35  1  1  0  0
 21 22  1  0  0  0
 22 23  2  0  0  0
 22 24  1  0  0  0
 24 25  1  0  0  0
 25 26  1  0  0  0
 25 30  1  6  0  0
 26 27  1  0  0  0
 27 28  1  0  0  0
 27 29  1  0  0  0
 28 29  1  0  0  0
 30 31  2  0  0  0
 30 32  1  0  0  0
 32 33  2  0  0  0
 32 34  1  0  0  0
 35 36  1  0  0  0
 35 37  1  0  0  0
M  END
> <s_m_entry_id>
6631

> <s_m_entry_name>
NS3-4A.172

> <CHEMBLID>
CHEMBL412390

> <s_m_Source_Path>
/home/liwei/Desktop/Machine/HCV/Active

> <s_m_Source_File>
NS3-4A.sdf

> <i_m_Source_File_Index>
172

$$$$
CHEMBL412493
                    3D
 Structure written by MMmdl.
 77 79  0  0  1  0            999 V2000
    0.7500  -11.6913    0.0000 C   0  0  0  0  0  0
    1.5000  -12.9904    0.0000 C   0  0  0  0  0  0
    0.7500  -14.2894    0.0000 C   0  0  2  0  0  0
   -0.7500  -14.2894    0.0000 N   0  0  0  0  0  0
   -1.5000  -12.9904    0.0000 C   0  0  0  0  0  0
   -0.7500  -11.6913    0.0000 O   0  0  0  0  0  0
   -3.0000  -12.9904    0.0000 C   0  0  0  0  0  0
   -3.7500  -14.2894    0.0000 O   0  0  0  0  0  0
   -3.7500  -11.6913    0.0000 C   0  0  1  0  0  0
   -5.2500  -11.6913    0.0000 C   0  0  0  0  0  0
   -6.0000  -12.9904    0.0000 C   0  0  0  0  0  0
   -6.7500  -14.2894    0.0000 F   0  0  0  0  0  0
   -7.2990  -12.2404    0.0000 F   0  0  0  0  0  0
   -4.7010  -13.7404    0.0000 F   0  0  0  0  0  0
   -3.0000  -10.3923    0.0000 N   0  0  0  0  0  0
   -3.7500   -9.0933    0.0000 C   0  0  0  0  0  0
   -2.7080   -8.0143    0.0000 O   0  0  0  0  0  0
   -5.2500   -9.0933    0.0000 C   0  0  2  0  0  0
   -6.0000   -7.7942    0.0000 C   0  0  0  0  0  0
   -7.5000   -7.7942    0.0000 C   0  0  0  0  0  0
   -8.5420   -6.7153    0.0000 C   0  0  0  0  0  0
   -8.0538   -8.3676    0.0000 C   0  0  0  0  0  0
   -6.0000  -10.3923    0.0000 N   0  0  0  0  0  0
   -7.5000  -10.3923    0.0000 C   0  0  0  0  0  0
   -8.2500  -11.6913    0.0000 O   0  0  0  0  0  0
   -8.2500   -9.0933    0.0000 C   0  0  1  0  0  0
   -7.5000   -7.7942    0.0000 N   0  0  0  0  0  0
   -8.2500   -6.4952    0.0000 C   0  0  0  0  0  0
   -9.7500   -6.4952    0.0000 O   0  0  0  0  0  0
   -7.5000   -5.1962    0.0000 C   0  0  2  0  0  0
   -8.2500   -3.8971    0.0000 C   0  0  0  0  0  0
   -7.5000   -2.5981    0.0000 C   0  0  0  0  0  0
   -6.0000   -2.5981    0.0000 C   0  0  0  0  0  0
   -5.2500   -1.2990    0.0000 C   0  0  0  0  0  0
   -6.0000   -0.0000    0.0000 C   0  0  0  0  0  0
   -7.5000   -0.0000    0.0000 C   0  0  0  0  0  0
   -8.2500   -1.2990    0.0000 C   0  0  0  0  0  0
   -9.7500   -1.2990    0.0000 C   0  0  0  0  0  0
   -6.0000   -5.1962    0.0000 N   0  0  0  0  0  0
   -5.2500   -3.8971    0.0000 C   0  0  0  0  0  0
   -5.6634   -2.4552    0.0000 O   0  0  0  0  0  0
   -3.7500   -3.8971    0.0000 C   0  0  2  0  0  0
   -3.0000   -2.5981    0.0000 C   0  0  0  0  0  0
   -1.5000   -2.5981    0.0000 C   0  0  0  0  0  0
   -0.7500   -1.2990    0.0000 C   0  0  0  0  0  0
   -1.5000    0.0000    0.0000 O   0  0  0  0  0  0
    0.7500   -1.2990    0.0000 O   0  0  0  0  0  0
   -3.0000   -5.1962    0.0000 N   0  0  0  0  0  0
   -3.7500   -6.4952    0.0000 C   0  0  0  0  0  0
   -5.2500   -6.4952    0.0000 O   0  0  0  0  0  0
   -3.0000   -7.7942    0.0000 C   0  0  2  0  0  0
   -3.7500   -9.0933    0.0000 C   0  0  0  0  0  0
   -3.0000  -10.3923    0.0000 C   0  0  0  0  0  0
   -1.5112  -10.5751    0.0000 O   0  0  0  0  0  0
   -4.0420  -11.4713    0.0000 O   0  0  0  0  0  0
   -1.5000   -7.7942    0.0000 N   0  0  0  0  0  0
   -0.7500   -9.0933    0.0000 C   0  0  0  0  0  0
   -1.3361  -10.4740    0.0000 O   0  0  0  0  0  0
    0.7500   -9.0933    0.0000 C   0  0  0  0  0  0
    1.5000  -10.3923    0.0000 C   0  0  0  0  0  0
    3.0000  -10.3923    0.0000 C   0  0  0  0  0  0
    3.7500   -9.0933    0.0000 O   0  0  0  0  0  0
    3.7500  -11.6913    0.0000 O   0  0  0  0  0  0
   -9.7500   -9.0933    0.0000 C   0  0  0  0  0  0
   -9.7500   -7.5933    0.0000 C   0  0  0  0  0  0
   -9.7500  -10.5933    0.0000 C   0  0  0  0  0  0
  -11.2500   -9.0933    0.0000 C   0  0  0  0  0  0
    1.5000  -15.5885    0.0000 C   0  0  0  0  0  0
    0.7500  -16.8875    0.0000 C   0  0  0  0  0  0
    1.5000  -18.1865    0.0000 C   0  0  0  0  0  0
    3.0000  -18.1865    0.0000 C   0  0  0  0  0  0
    3.7500  -19.4856    0.0000 C   0  0  0  0  0  0
    5.2500  -19.4856    0.0000 C   0  0  0  0  0  0
    6.0000  -18.1865    0.0000 C   0  0  0  0  0  0
    5.2500  -16.8875    0.0000 C   0  0  0  0  0  0
    3.7500  -16.8875    0.0000 C   0  0  0  0  0  0
    3.0000  -15.5885    0.0000 C   0  0  0  0  0  0
  1  2  1  0  0  0
  2  3  1  0  0  0
  3  4  1  0  0  0
  3 68  1  1  0  0
  4  5  1  0  0  0
  5  6  2  0  0  0
  5  7  1  0  0  0
  7  8  2  0  0  0
  7  9  1  0  0  0
  9 10  1  0  0  0
  9 15  1  1  0  0
 10 11  1  0  0  0
 11 12  1  0  0  0
 11 13  1  0  0  0
 11 14  1  0  0  0
 15 16  1  0  0  0
 16 17  2  0  0  0
 16 18  1  0  0  0
 18 19  1  0  0  0
 18 23  1  1  0  0
 19 20  1  0  0  0
 20 21  1  0  0  0
 20 22  1  0  0  0
 23 24  1  0  0  0
 24 25  2  0  0  0
 24 26  1  0  0  0
 26 27  1  0  0  0
 26 64  1  6  0  0
 27 28  1  0  0  0
 28 29  2  0  0  0
 28 30  1  0  0  0
 30 31  1  0  0  0
 30 39  1  1  0  0
 31 32  1  0  0  0
 32 33  2  0  0  0
 32 37  1  0  0  0
 33 34  1  0  0  0
 34 35  2  0  0  0
 35 36  1  0  0  0
 36 37  2  0  0  0
 37 38  1  0  0  0
 39 40  1  0  0  0
 40 41  2  0  0  0
 40 42  1  0  0  0
 42 43  1  0  0  0
 42 48  1  1  0  0
 43 44  1  0  0  0
 44 45  1  0  0  0
 45 46  2  0  0  0
 45 47  1  0  0  0
 48 49  1  0  0  0
 49 50  2  0  0  0
 49 51  1  0  0  0
 51 52  1  0  0  0
 51 56  1  1  0  0
 52 53  1  0  0  0
 53 54  2  0  0  0
 53 55  1  0  0  0
 56 57  1  0  0  0
 57 58  2  0  0  0
 57 59  1  0  0  0
 59 60  1  0  0  0
 60 61  1  0  0  0
 61 62  2  0  0  0
 61 63  1  0  0  0
 64 65  1  0  0  0
 64 66  1  0  0  0
 64 67  1  0  0  0
 68 69  2  0  0  0
 68 77  1  0  0  0
 69 70  1  0  0  0
 70 71  2  0  0  0
 71 72  1  0  0  0
 71 76  1  0  0  0
 72 73  2  0  0  0
 73 74  1  0  0  0
 74 75  2  0  0  0
 75 76  1  0  0  0
 76 77  2  0  0  0
M  END
> <s_m_entry_id>
6632

> <s_m_entry_name>
NS3-4A.173

> <CHEMBLID>
CHEMBL412493

> <s_m_Source_Path>
/home/liwei/Desktop/Machine/HCV/Active

> <s_m_Source_File>
NS3-4A.sdf

> <i_m_Source_File_Index>
173

$$$$
CHEMBL414922
                    3D
 Structure written by MMmdl.
 72 73  0  0  1  0            999 V2000
    6.0000  -12.9904    0.0000 C   0  0  0  0  0  0
    5.2500  -11.6913    0.0000 C   0  0  0  0  0  0
    3.7500  -11.6913    0.0000 C   0  0  0  0  0  0
    6.0000  -10.3923    0.0000 C   0  0  0  0  0  0
    5.2500   -9.0933    0.0000 C   0  0  2  0  0  0
    6.0000   -7.7942    0.0000 N   0  0  0  0  0  0
    5.2500   -6.4952    0.0000 C   0  0  0  0  0  0
    3.7500   -6.4952    0.0000 O   0  0  0  0  0  0
    6.0000   -5.1962    0.0000 C   0  0  1  0  0  0
    5.2500   -3.8971    0.0000 N   0  0  0  0  0  0
    3.7500   -3.8971    0.0000 C   0  0  0  0  0  0
    3.0000   -5.1962    0.0000 O   0  0  0  0  0  0
    3.0000   -2.5981    0.0000 C   0  0  2  0  0  0
    1.5000   -2.5981    0.0000 C   0  0  0  0  0  0
    0.7500   -1.2990    0.0000 C   0  0  0  0  0  0
    1.5000    0.0000    0.0000 C   0  0  0  0  0  0
    0.7500    1.2990    0.0000 C   0  0  0  0  0  0
   -0.7500    1.2990    0.0000 C   0  0  0  0  0  0
   -1.5000    0.0000    0.0000 C   0  0  0  0  0  0
   -0.7500   -1.2990    0.0000 C   0  0  0  0  0  0
   -1.5000   -2.5981    0.0000 C   0  0  0  0  0  0
    3.7500   -1.2990    0.0000 N   0  0  0  0  0  0
    5.2500   -1.2990    0.0000 C   0  0  0  0  0  0
    6.0000   -2.5981    0.0000 O   0  0  0  0  0  0
    6.0000   -0.0000    0.0000 C   0  0  2  0  0  0
    7.5000   -0.0000    0.0000 C   0  0  0  0  0  0
    8.2500    1.2990    0.0000 C   0  0  0  0  0  0
    9.7500    1.2990    0.0000 C   0  0  0  0  0  0
   10.5000   -0.0000    0.0000 O   0  0  0  0  0  0
   10.5000    2.5981    0.0000 O   0  0  0  0  0  0
    5.2500    1.2990    0.0000 N   0  0  0  0  0  0
    6.0000    2.5981    0.0000 C   0  0  0  0  0  0
    7.5000    2.5981    0.0000 O   0  0  0  0  0  0
    5.2500    3.8971    0.0000 C   0  0  2  0  0  0
    6.0000    5.1962    0.0000 C   0  0  0  0  0  0
    7.5000    5.1962    0.0000 C   0  0  0  0  0  0
    8.2500    3.8971    0.0000 O   0  0  0  0  0  0
    8.2500    6.4952    0.0000 O   0  0  0  0  0  0
    3.7500    3.8971    0.0000 N   0  0  0  0  0  0
    3.0000    5.1962    0.0000 C   0  0  0  0  0  0
    3.7500    6.4952    0.0000 O   0  0  0  0  0  0
    1.5000    5.1962    0.0000 C   0  0  0  0  0  0
    0.7500    6.4952    0.0000 C   0  0  0  0  0  0
   -0.7500    6.4952    0.0000 C   0  0  0  0  0  0
   -1.5000    5.1962    0.0000 O   0  0  0  0  0  0
   -1.5000    7.7942    0.0000 O   0  0  0  0  0  0
    7.5000   -5.1962    0.0000 C   0  0  0  0  0  0
    7.5000   -6.6962    0.0000 C   0  0  0  0  0  0
    7.5000   -3.6962    0.0000 C   0  0  0  0  0  0
    9.0000   -5.1962    0.0000 C   0  0  0  0  0  0
    3.7500   -9.0933    0.0000 C   0  0  0  0  0  0
    3.0000   -7.7942    0.0000 O   0  0  0  0  0  0
    3.0000  -10.3923    0.0000 N   0  0  0  0  0  0
    1.5000  -10.3923    0.0000 C   0  0  2  0  0  0
    0.7500  -11.6913    0.0000 C   0  0  0  0  0  0
    1.5000  -12.9904    0.0000 C   0  0  0  0  0  0
    2.2500  -14.2894    0.0000 F   0  0  0  0  0  0
    0.2010  -13.7404    0.0000 F   0  0  0  0  0  0
    2.7990  -12.2404    0.0000 F   0  0  0  0  0  0
    0.7500   -9.0933    0.0000 C   0  0  0  0  0  0
    1.5000   -7.7942    0.0000 O   0  0  0  0  0  0
   -0.7500   -9.0933    0.0000 C   0  0  0  0  0  0
   -1.5000   -7.7942    0.0000 O   0  0  0  0  0  0
   -1.5000  -10.3923    0.0000 N   0  0  0  0  0  0
   -3.0000  -10.3923    0.0000 C   0  0  2  0  0  0
   -3.7500  -11.6913    0.0000 C   0  0  0  0  0  0
   -3.7500   -9.0933    0.0000 C   0  0  0  0  0  0
   -5.2500   -9.0933    0.0000 C   0  0  0  0  0  0
   -6.0000   -7.7942    0.0000 C   0  0  0  0  0  0
   -5.2500   -6.4952    0.0000 C   0  0  0  0  0  0
   -3.7500   -6.4952    0.0000 C   0  0  0  0  0  0
   -3.0000   -7.7942    0.0000 C   0  0  0  0  0  0
  1  2  1  0  0  0
  2  3  1  0  0  0
  2  4  1  0  0  0
  4  5  1  0  0  0
  5  6  1  0  0  0
  5 51  1  1  0  0
  6  7  1  0  0  0
  7  8  2  0  0  0
  7  9  1  0  0  0
  9 10  1  0  0  0
  9 47  1  6  0  0
 10 11  1  0  0  0
 11 12  2  0  0  0
 11 13  1  0  0  0
 13 14  1  0  0  0
 13 22  1  1  0  0
 14 15  1  0  0  0
 15 16  2  0  0  0
 15 20  1  0  0  0
 16 17  1  0  0  0
 17 18  2  0  0  0
 18 19  1  0  0  0
 19 20  2  0  0  0
 20 21  1  0  0  0
 22 23  1  0  0  0
 23 24  2  0  0  0
 23 25  1  0  0  0
 25 26  1  0  0  0
 25 31  1  1  0  0
 26 27  1  0  0  0
 27 28  1  0  0  0
 28 29  2  0  0  0
 28 30  1  0  0  0
 31 32  1  0  0  0
 32 33  2  0  0  0
 32 34  1  0  0  0
 34 35  1  0  0  0
 34 39  1  1  0  0
 35 36  1  0  0  0
 36 37  2  0  0  0
 36 38  1  0  0  0
 39 40  1  0  0  0
 40 41  2  0  0  0
 40 42  1  0  0  0
 42 43  1  0  0  0
 43 44  1  0  0  0
 44 45  2  0  0  0
 44 46  1  0  0  0
 47 48  1  0  0  0
 47 49  1  0  0  0
 47 50  1  0  0  0
 51 52  2  0  0  0
 51 53  1  0  0  0
 53 54  1  0  0  0
 54 55  1  0  0  0
 54 60  1  6  0  0
 55 56  1  0  0  0
 56 57  1  0  0  0
 56 58  1  0  0  0
 56 59  1  0  0  0
 60 61  2  0  0  0
 60 62  1  0  0  0
 62 63  2  0  0  0
 62 64  1  0  0  0
 64 65  1  0  0  0
 65 66  1  0  0  0
 65 67  1  6  0  0
 67 68  2  0  0  0
 67 72  1  0  0  0
 68 69  1  0  0  0
 69 70  2  0  0  0
 70 71  1  0  0  0
 71 72  2  0  0  0
M  END
> <s_m_entry_id>
6633

> <s_m_entry_name>
NS3-4A.174

> <CHEMBLID>
CHEMBL414922

> <s_m_Source_Path>
/home/liwei/Desktop/Machine/HCV/Active

> <s_m_Source_File>
NS3-4A.sdf

> <i_m_Source_File_Index>
174

$$$$
CHEMBL417559
                    3D
 Structure written by MMmdl.
 64 66  0  0  1  0            999 V2000
    1.5000    5.1962    0.0000 C   0  0  0  0  0  0
    3.0000    5.1962    0.0000 C   0  0  0  0  0  0
    3.7500    6.4952    0.0000 O   0  0  0  0  0  0
    3.7500    3.8971    0.0000 N   0  0  0  0  0  0
    5.2500    3.8971    0.0000 C   0  0  1  0  0  0
    6.0000    5.1962    0.0000 C   0  0  0  0  0  0
    7.5000    5.1962    0.0000 C   0  0  0  0  0  0
    8.2500    3.8971    0.0000 O   0  0  0  0  0  0
    8.2500    6.4952    0.0000 O   0  0  0  0  0  0
    6.0000    2.5981    0.0000 C   0  0  0  0  0  0
    7.5000    2.5981    0.0000 O   0  0  0  0  0  0
    5.2500    1.2990    0.0000 N   0  0  0  0  0  0
    6.0000   -0.0000    0.0000 C   0  0  1  0  0  0
    7.5000   -0.0000    0.0000 C   0  0  0  0  0  0
    8.2500    1.2990    0.0000 C   0  0  0  0  0  0
    9.7500    1.2990    0.0000 C   0  0  0  0  0  0
   10.5000   -0.0000    0.0000 O   0  0  0  0  0  0
   10.5000    2.5981    0.0000 O   0  0  0  0  0  0
    5.2500   -1.2990    0.0000 C   0  0  0  0  0  0
    6.0000   -2.5981    0.0000 O   0  0  0  0  0  0
    3.7500   -1.2990    0.0000 N   0  0  0  0  0  0
    3.0000   -2.5981    0.0000 C   0  0  1  0  0  0
    1.5000   -2.5981    0.0000 C   0  0  0  0  0  0
    0.7500   -1.2990    0.0000 C   0  0  0  0  0  0
    1.5000    0.0000    0.0000 C   0  0  0  0  0  0
    0.7500    1.2990    0.0000 C   0  0  0  0  0  0
   -0.7500    1.2990    0.0000 C   0  0  0  0  0  0
   -1.5000    0.0000    0.0000 C   0  0  0  0  0  0
   -0.7500   -1.2990    0.0000 C   0  0  0  0  0  0
    0.7500   -3.8971    0.0000 C   0  0  0  0  0  0
   -0.7500   -3.8971    0.0000 C   0  0  0  0  0  0
   -1.5000   -5.1962    0.0000 C   0  0  0  0  0  0
   -0.7500   -6.4952    0.0000 C   0  0  0  0  0  0
    0.7500   -6.4952    0.0000 C   0  0  0  0  0  0
    1.5000   -5.1962    0.0000 C   0  0  0  0  0  0
    3.7500   -3.8971    0.0000 C   0  0  0  0  0  0
    3.0000   -5.1962    0.0000 O   0  0  0  0  0  0
    5.2500   -3.8971    0.0000 N   0  0  0  0  0  0
    6.0000   -5.1962    0.0000 C   0  0  1  0  0  0
    7.5000   -5.1962    0.0000 C   0  0  0  0  0  0
    8.2500   -6.4952    0.0000 C   0  0  0  0  0  0
    9.7500   -6.4952    0.0000 C   0  0  0  0  0  0
   10.5000   -5.1962    0.0000 O   0  0  0  0  0  0
   10.5000   -7.7942    0.0000 O   0  0  0  0  0  0
    5.2500   -6.4952    0.0000 C   0  0  0  0  0  0
    3.7500   -6.4952    0.0000 O   0  0  0  0  0  0
    6.0000   -7.7942    0.0000 N   0  0  0  0  0  0
    5.2500   -9.0933    0.0000 C   0  0  1  0  0  0
    6.0000  -10.3923    0.0000 C   0  0  0  0  0  0
    5.2500  -11.6913    0.0000 C   0  0  0  0  0  0
    3.7500  -11.6913    0.0000 C   0  0  0  0  0  0
    3.0000  -12.9904    0.0000 C   0  0  0  0  0  0
    3.7500  -14.2894    0.0000 C   0  0  0  0  0  0
    5.2500  -14.2894    0.0000 C   0  0  0  0  0  0
    6.0000  -12.9904    0.0000 C   0  0  0  0  0  0
    3.7500   -9.0933    0.0000 C   0  0  0  0  0  0
    3.0000   -7.7942    0.0000 O   0  0  0  0  0  0
    3.0000  -10.3923    0.0000 N   0  0  0  0  0  0
    1.5000  -10.3923    0.0000 C   0  0  1  0  0  0
    0.7500   -9.0933    0.0000 C   0  0  0  0  0  0
   -0.7500   -9.0933    0.0000 S   0  0  0  0  0  0
    0.7500  -11.6913    0.0000 C   0  0  0  0  0  0
    1.5000  -12.9904    0.0000 O   0  0  0  0  0  0
   -0.7500  -11.6913    0.0000 O   0  0  0  0  0  0
  1  2  1  0  0  0
  2  3  2  0  0  0
  2  4  1  0  0  0
  4  5  1  0  0  0
  5  6  1  0  0  0
  5 10  1  6  0  0
  6  7  1  0  0  0
  7  8  2  0  0  0
  7  9  1  0  0  0
 10 11  2  0  0  0
 10 12  1  0  0  0
 12 13  1  0  0  0
 13 14  1  0  0  0
 13 19  1  6  0  0
 14 15  1  0  0  0
 15 16  1  0  0  0
 16 17  2  0  0  0
 16 18  1  0  0  0
 19 20  2  0  0  0
 19 21  1  0  0  0
 21 22  1  0  0  0
 22 23  1  0  0  0
 22 36  1  6  0  0
 23 24  1  0  0  0
 23 30  1  0  0  0
 24 25  2  0  0  0
 24 29  1  0  0  0
 25 26  1  0  0  0
 26 27  2  0  0  0
 27 28  1  0  0  0
 28 29  2  0  0  0
 30 31  2  0  0  0
 30 35  1  0  0  0
 31 32  1  0  0  0
 32 33  2  0  0  0
 33 34  1  0  0  0
 34 35  2  0  0  0
 36 37  2  0  0  0
 36 38  1  0  0  0
 38 39  1  0  0  0
 39 40  1  0  0  0
 39 45  1  6  0  0
 40 41  1  0  0  0
 41 42  1  0  0  0
 42 43  2  0  0  0
 42 44  1  0  0  0
 45 46  2  0  0  0
 45 47  1  0  0  0
 47 48  1  0  0  0
 48 49  1  0  0  0
 48 56  1  6  0  0
 49 50  1  0  0  0
 50 51  1  0  0  0
 50 55  1  0  0  0
 51 52  1  0  0  0
 52 53  1  0  0  0
 53 54  1  0  0  0
 54 55  1  0  0  0
 56 57  2  0  0  0
 56 58  1  0  0  0
 58 59  1  0  0  0
 59 60  1  0  0  0
 59 62  1  1  0  0
 60 61  1  0  0  0
 62 63  2  0  0  0
 62 64  1  0  0  0
M  END
> <s_m_entry_id>
6634

> <s_m_entry_name>
NS3-4A.175

> <CHEMBLID>
CHEMBL417559

> <s_m_Source_Path>
/home/liwei/Desktop/Machine/HCV/Active

> <s_m_Source_File>
NS3-4A.sdf

> <i_m_Source_File_Index>
175

$$$$
CHEMBL419551
                    3D
 Structure written by MMmdl.
 35 38  0  0  1  0            999 V2000
   -2.6401   -3.1891    0.0000 C   0  0  0  0  0  0
   -1.2135   -2.7256    0.0000 N   0  0  0  0  0  0
   -0.0000   -3.6073    0.0000 C   0  0  0  0  0  0
    1.2135   -2.7256    0.0000 N   0  0  0  0  0  0
    0.7500   -1.2990    0.0000 C   0  0  0  0  0  0
    1.5000    0.0000    0.0000 C   0  0  0  0  0  0
    0.7500    1.2990    0.0000 C   0  0  0  0  0  0
   -0.7500    1.2990    0.0000 C   0  0  0  0  0  0
   -1.5000    0.0000    0.0000 C   0  0  0  0  0  0
   -0.7500   -1.2990    0.0000 C   0  0  0  0  0  0
   -1.5000    2.5981    0.0000 C   0  0  0  0  0  0
   -3.0000    2.5981    0.0000 O   0  0  0  0  0  0
   -0.7500    3.8971    0.0000 N   0  0  0  0  0  0
   -1.5000    5.1962    0.0000 C   0  0  3  0  0  0
   -0.7500    6.4952    0.0000 C   0  0  0  0  0  0
   -1.5000    7.7942    0.0000 P   0  0  0  0  0  0
   -2.2500    9.0933    0.0000 O   0  0  0  0  0  0
   -0.2010    8.5442    0.0000 O   0  0  0  0  0  0
   -2.7990    7.0442    0.0000 O   0  0  0  0  0  0
   -3.0000    5.1962    0.0000 C   0  0  0  0  0  0
   -3.7500    6.4952    0.0000 O   0  0  0  0  0  0
   -3.7500    3.8971    0.0000 O   0  0  0  0  0  0
   -0.0000   -5.1073    0.0000 C   0  0  0  0  0  0
   -1.5000   -5.1073    0.0000 F   0  0  0  0  0  0
    1.5000   -5.1073    0.0000 F   0  0  0  0  0  0
   -0.0000   -6.6073    0.0000 C   0  0  0  0  0  0
   -1.2135   -7.4890    0.0000 N   0  0  0  0  0  0
   -0.7500   -8.9156    0.0000 C   0  0  0  0  0  0
   -1.5000  -10.2146    0.0000 C   0  0  0  0  0  0
   -0.7500  -11.5136    0.0000 C   0  0  0  0  0  0
   -1.5000  -12.8127    0.0000 Cl  0  0  0  0  0  0
    0.7500  -11.5136    0.0000 C   0  0  0  0  0  0
    1.5000  -10.2146    0.0000 C   0  0  0  0  0  0
    0.7500   -8.9156    0.0000 C   0  0  0  0  0  0
    1.2135   -7.4890    0.0000 N   0  0  0  0  0  0
  1  2  1  0  0  0
  2  3  1  0  0  0
  2 10  1  0  0  0
  3  4  2  0  0  0
  3 23  1  0  0  0
  4  5  1  0  0  0
  5  6  2  0  0  0
  5 10  1  0  0  0
  6  7  1  0  0  0
  7  8  2  0  0  0
  8  9  1  0  0  0
  8 11  1  0  0  0
  9 10  2  0  0  0
 11 12  2  0  0  0
 11 13  1  0  0  0
 13 14  1  0  0  0
 14 15  1  0  0  0
 14 20  1  0  0  0
 15 16  1  0  0  0
 16 17  2  0  0  0
 16 18  1  0  0  0
 16 19  1  0  0  0
 20 21  2  0  0  0
 20 22  1  0  0  0
 23 24  1  0  0  0
 23 25  1  0  0  0
 23 26  1  0  0  0
 26 27  2  0  0  0
 26 35  1  0  0  0
 27 28  1  0  0  0
 28 29  2  0  0  0
 28 34  1  0  0  0
 29 30  1  0  0  0
 30 31  1  0  0  0
 30 32  2  0  0  0
 32 33  1  0  0  0
 33 34  2  0  0  0
 34 35  1  0  0  0
M  END
> <s_m_entry_id>
6635

> <s_m_entry_name>
NS3-4A.176

> <CHEMBLID>
CHEMBL419551

> <s_m_Source_Path>
/home/liwei/Desktop/Machine/HCV/Active

> <s_m_Source_File>
NS3-4A.sdf

> <i_m_Source_File_Index>
176

$$$$
CHEMBL419731
                    3D
 Structure written by MMmdl.
 37 40  0  0  1  0            999 V2000
   -2.6401   -3.1891    0.0000 C   0  0  0  0  0  0
   -1.2135   -2.7256    0.0000 N   0  0  0  0  0  0
   -0.0000   -3.6073    0.0000 C   0  0  0  0  0  0
    1.2135   -2.7256    0.0000 N   0  0  0  0  0  0
    0.7500   -1.2990    0.0000 C   0  0  0  0  0  0
    1.5000    0.0000    0.0000 C   0  0  0  0  0  0
    0.7500    1.2990    0.0000 C   0  0  0  0  0  0
   -0.7500    1.2990    0.0000 C   0  0  0  0  0  0
   -1.5000    0.0000    0.0000 C   0  0  0  0  0  0
   -0.7500   -1.2990    0.0000 C   0  0  0  0  0  0
   -1.5000    2.5981    0.0000 C   0  0  0  0  0  0
   -3.0000    2.5981    0.0000 O   0  0  0  0  0  0
   -0.7500    3.8971    0.0000 N   0  0  0  0  0  0
   -1.5000    5.1962    0.0000 C   0  0  3  0  0  0
   -0.7500    6.4952    0.0000 C   0  0  0  0  0  0
   -1.5000    7.7942    0.0000 P   0  0  0  0  0  0
   -2.2500    9.0933    0.0000 O   0  0  0  0  0  0
   -0.2010    8.5442    0.0000 O   0  0  0  0  0  0
   -2.7990    7.0442    0.0000 O   0  0  0  0  0  0
   -3.0000    5.1962    0.0000 C   0  0  0  0  0  0
   -3.7500    6.4952    0.0000 O   0  0  0  0  0  0
   -3.7500    3.8971    0.0000 O   0  0  0  0  0  0
   -0.0000   -5.1073    0.0000 C   0  0  0  0  0  0
   -1.5000   -5.1073    0.0000 F   0  0  0  0  0  0
    1.5000   -5.1073    0.0000 F   0  0  0  0  0  0
   -0.0000   -6.6073    0.0000 C   0  0  0  0  0  0
   -1.2135   -7.4890    0.0000 N   0  0  0  0  0  0
   -0.7500   -8.9156    0.0000 C   0  0  0  0  0  0
   -1.5000  -10.2146    0.0000 C   0  0  0  0  0  0
   -0.7500  -11.5136    0.0000 C   0  0  0  0  0  0
    0.7500  -11.5136    0.0000 C   0  0  0  0  0  0
    1.5000  -10.2146    0.0000 C   0  0  0  0  0  0
    0.7500   -8.9156    0.0000 C   0  0  0  0  0  0
    1.2135   -7.4890    0.0000 N   0  0  0  0  0  0
   -1.5000  -12.8127    0.0000 C   0  0  0  0  0  0
   -0.7500  -14.1117    0.0000 O   0  0  0  0  0  0
   -3.0000  -12.8127    0.0000 N   0  0  0  0  0  0
  1  2  1  0  0  0
  2  3  1  0  0  0
  2 10  1  0  0  0
  3  4  2  0  0  0
  3 23  1  0  0  0
  4  5  1  0  0  0
  5  6  2  0  0  0
  5 10  1  0  0  0
  6  7  1  0  0  0
  7  8  2  0  0  0
  8  9  1  0  0  0
  8 11  1  0  0  0
  9 10  2  0  0  0
 11 12  2  0  0  0
 11 13  1  0  0  0
 13 14  1  0  0  0
 14 15  1  0  0  0
 14 20  1  0  0  0
 15 16  1  0  0  0
 16 17  2  0  0  0
 16 18  1  0  0  0
 16 19  1  0  0  0
 20 21  2  0  0  0
 20 22  1  0  0  0
 23 24  1  0  0  0
 23 25  1  0  0  0
 23 26  1  0  0  0
 26 27  2  0  0  0
 26 34  1  0  0  0
 27 28  1  0  0  0
 28 29  2  0  0  0
 28 33  1  0  0  0
 29 30  1  0  0  0
 30 31  2  0  0  0
 30 35  1  0  0  0
 31 32  1  0  0  0
 32 33  2  0  0  0
 33 34  1  0  0  0
 35 36  2  0  0  0
 35 37  1  0  0  0
M  END
> <s_m_entry_id>
6636

> <s_m_entry_name>
NS3-4A.177

> <CHEMBLID>
CHEMBL419731

> <s_m_Source_Path>
/home/liwei/Desktop/Machine/HCV/Active

> <s_m_Source_File>
NS3-4A.sdf

> <i_m_Source_File_Index>
177

$$$$
CHEMBL419917
                    3D
 Structure written by MMmdl.
 33 36  0  0  1  0            999 V2000
   -2.6401   -3.1891    0.0000 C   0  0  0  0  0  0
   -1.2135   -2.7256    0.0000 N   0  0  0  0  0  0
   -0.0000   -3.6073    0.0000 C   0  0  0  0  0  0
   -0.0000   -5.1073    0.0000 C   0  0  0  0  0  0
   -1.2990   -5.8573    0.0000 C   0  0  0  0  0  0
   -2.6694   -5.2472    0.0000 N   0  0  0  0  0  0
   -3.6731   -6.3619    0.0000 C   0  0  0  0  0  0
   -5.1731   -6.3619    0.0000 C   0  0  0  0  0  0
   -5.9231   -7.6610    0.0000 C   0  0  0  0  0  0
   -7.4231   -7.6610    0.0000 Cl  0  0  0  0  0  0
   -5.1731   -8.9600    0.0000 C   0  0  0  0  0  0
   -3.6731   -8.9600    0.0000 C   0  0  0  0  0  0
   -2.9231   -7.6610    0.0000 C   0  0  0  0  0  0
   -1.4558   -7.3491    0.0000 N   0  0  0  0  0  0
    1.2135   -2.7256    0.0000 N   0  0  0  0  0  0
    0.7500   -1.2990    0.0000 C   0  0  0  0  0  0
    1.5000    0.0000    0.0000 C   0  0  0  0  0  0
    0.7500    1.2990    0.0000 C   0  0  0  0  0  0
   -0.7500    1.2990    0.0000 C   0  0  0  0  0  0
   -1.5000    0.0000    0.0000 C   0  0  0  0  0  0
   -0.7500   -1.2990    0.0000 C   0  0  0  0  0  0
   -1.5000    2.5981    0.0000 C   0  0  0  0  0  0
   -3.0000    2.5981    0.0000 O   0  0  0  0  0  0
   -0.7500    3.8971    0.0000 N   0  0  0  0  0  0
   -1.5000    5.1962    0.0000 C   0  0  3  0  0  0
   -0.7500    6.4952    0.0000 C   0  0  0  0  0  0
   -1.5000    7.7942    0.0000 P   0  0  0  0  0  0
   -2.2500    9.0933    0.0000 O   0  0  0  0  0  0
   -0.2010    8.5442    0.0000 O   0  0  0  0  0  0
   -2.7990    7.0442    0.0000 O   0  0  0  0  0  0
   -3.0000    5.1962    0.0000 C   0  0  0  0  0  0
   -3.7500    6.4952    0.0000 O   0  0  0  0  0  0
   -3.7500    3.8971    0.0000 O   0  0  0  0  0  0
  1  2  1  0  0  0
  2  3  1  0  0  0
  2 21  1  0  0  0
  3  4  1  0  0  0
  3 15  2  0  0  0
  4  5  1  0  0  0
  5  6  2  0  0  0
  5 14  1  0  0  0
  6  7  1  0  0  0
  7  8  2  0  0  0
  7 13  1  0  0  0
  8  9  1  0  0  0
  9 10  1  0  0  0
  9 11  2  0  0  0
 11 12  1  0  0  0
 12 13  2  0  0  0
 13 14  1  0  0  0
 15 16  1  0  0  0
 16 17  2  0  0  0
 16 21  1  0  0  0
 17 18  1  0  0  0
 18 19  2  0  0  0
 19 20  1  0  0  0
 19 22  1  0  0  0
 20 21  2  0  0  0
 22 23  2  0  0  0
 22 24  1  0  0  0
 24 25  1  0  0  0
 25 26  1  0  0  0
 25 31  1  0  0  0
 26 27  1  0  0  0
 27 28  2  0  0  0
 27 29  1  0  0  0
 27 30  1  0  0  0
 31 32  2  0  0  0
 31 33  1  0  0  0
M  END
> <s_m_entry_id>
6637

> <s_m_entry_name>
NS3-4A.178

> <CHEMBLID>
CHEMBL419917

> <s_m_Source_Path>
/home/liwei/Desktop/Machine/HCV/Active

> <s_m_Source_File>
NS3-4A.sdf

> <i_m_Source_File_Index>
178

$$$$
CHEMBL420303
                    3D
 Structure written by MMmdl.
 29 29  0  0  1  0            999 V2000
    9.7500   -3.8971    0.0000 C   0  0  0  0  0  0
    8.2500   -3.8971    0.0000 C   0  0  0  0  0  0
    7.5000   -5.1962    0.0000 C   0  0  0  0  0  0
    7.5000   -2.5981    0.0000 C   0  0  0  0  0  0
    6.0000   -2.5981    0.0000 C   0  0  2  0  0  0
    5.2500   -1.2990    0.0000 N   0  0  0  0  0  0
    3.7500   -1.2990    0.0000 C   0  0  0  0  0  0
    3.0000   -2.5981    0.0000 O   0  0  0  0  0  0
    3.0000    0.0000    0.0000 C   0  0  2  0  0  0
    3.7500    1.2990    0.0000 O   0  0  0  0  0  0
    1.5000    0.0000    0.0000 C   0  0  0  0  0  0
    0.7500   -1.2990    0.0000 C   0  0  0  0  0  0
   -0.7500   -1.2990    0.0000 C   0  0  0  0  0  0
   -1.5000    0.0000    0.0000 C   0  0  0  0  0  0
   -0.7500    1.2990    0.0000 C   0  0  0  0  0  0
    0.7500    1.2990    0.0000 C   0  0  0  0  0  0
    5.2500   -3.8971    0.0000 C   0  0  0  0  0  0
    3.7500   -3.8971    0.0000 O   0  0  0  0  0  0
    6.0000   -5.1962    0.0000 N   0  0  0  0  0  0
    5.2500   -6.4952    0.0000 C   0  0  1  0  0  0
    6.0000   -7.7942    0.0000 C   0  0  0  0  0  0
    7.5000   -7.7942    0.0000 C   0  0  0  0  0  0
    8.2500   -9.0933    0.0000 F   0  0  0  0  0  0
    8.2500   -6.4952    0.0000 F   0  0  0  0  0  0
    3.7500   -6.4952    0.0000 C   0  0  0  0  0  0
    3.0000   -5.1962    0.0000 O   0  0  0  0  0  0
    3.0000   -7.7942    0.0000 C   0  0  0  0  0  0
    3.7500   -9.0933    0.0000 O   0  0  0  0  0  0
    1.5000   -7.7942    0.0000 O   0  0  0  0  0  0
  1  2  1  0  0  0
  2  3  1  0  0  0
  2  4  1  0  0  0
  4  5  1  0  0  0
  5  6  1  0  0  0
  5 17  1  1  0  0
  6  7  1  0  0  0
  7  8  2  0  0  0
  7  9  1  0  0  0
  9 10  1  0  0  0
  9 11  1  6  0  0
 11 12  1  0  0  0
 11 16  1  0  0  0
 12 13  1  0  0  0
 13 14  1  0  0  0
 14 15  1  0  0  0
 15 16  1  0  0  0
 17 18  2  0  0  0
 17 19  1  0  0  0
 19 20  1  0  0  0
 20 21  1  0  0  0
 20 25  1  6  0  0
 21 22  1  0  0  0
 22 23  1  0  0  0
 22 24  1  0  0  0
 25 26  2  0  0  0
 25 27  1  0  0  0
 27 28  2  0  0  0
 27 29  1  0  0  0
M  END
> <s_m_entry_id>
6638

> <s_m_entry_name>
NS3-4A.179

> <CHEMBLID>
CHEMBL420303

> <s_m_Source_Path>
/home/liwei/Desktop/Machine/HCV/Active

> <s_m_Source_File>
NS3-4A.sdf

> <i_m_Source_File_Index>
179

$$$$
CHEMBL421233
                    3D
 Structure written by MMmdl.
 66 68  0  0  1  0            999 V2000
    1.5000    5.1962    0.0000 C   0  0  0  0  0  0
    3.0000    5.1962    0.0000 C   0  0  0  0  0  0
    3.7500    6.4952    0.0000 O   0  0  0  0  0  0
    3.7500    3.8971    0.0000 N   0  0  0  0  0  0
    5.2500    3.8971    0.0000 C   0  0  1  0  0  0
    6.0000    5.1962    0.0000 C   0  0  0  0  0  0
    7.5000    5.1962    0.0000 C   0  0  0  0  0  0
    8.2500    3.8971    0.0000 O   0  0  0  0  0  0
    8.2500    6.4952    0.0000 O   0  0  0  0  0  0
    6.0000    2.5981    0.0000 C   0  0  0  0  0  0
    7.5000    2.5981    0.0000 O   0  0  0  0  0  0
    5.2500    1.2990    0.0000 N   0  0  0  0  0  0
    6.0000   -0.0000    0.0000 C   0  0  1  0  0  0
    7.5000   -0.0000    0.0000 C   0  0  0  0  0  0
    8.2500    1.2990    0.0000 C   0  0  0  0  0  0
    9.7500    1.2990    0.0000 C   0  0  0  0  0  0
   10.5000   -0.0000    0.0000 O   0  0  0  0  0  0
   10.5000    2.5981    0.0000 O   0  0  0  0  0  0
    5.2500   -1.2990    0.0000 C   0  0  0  0  0  0
    6.0000   -2.5981    0.0000 O   0  0  0  0  0  0
    3.7500   -1.2990    0.0000 N   0  0  0  0  0  0
    3.0000   -2.5981    0.0000 C   0  0  1  0  0  0
    1.5000   -2.5981    0.0000 C   0  0  0  0  0  0
    0.7500   -1.2990    0.0000 C   0  0  0  0  0  0
    1.5000    0.0000    0.0000 C   0  0  0  0  0  0
    0.7500    1.2990    0.0000 C   0  0  0  0  0  0
   -0.7500    1.2990    0.0000 C   0  0  0  0  0  0
   -1.5000    0.0000    0.0000 C   0  0  0  0  0  0
   -0.7500   -1.2990    0.0000 C   0  0  0  0  0  0
    0.7500   -3.8971    0.0000 C   0  0  0  0  0  0
   -0.7500   -3.8971    0.0000 C   0  0  0  0  0  0
   -1.5000   -5.1962    0.0000 C   0  0  0  0  0  0
   -0.7500   -6.4952    0.0000 C   0  0  0  0  0  0
    0.7500   -6.4952    0.0000 C   0  0  0  0  0  0
    1.5000   -5.1962    0.0000 C   0  0  0  0  0  0
    3.7500   -3.8971    0.0000 C   0  0  0  0  0  0
    3.0000   -5.1962    0.0000 O   0  0  0  0  0  0
    5.2500   -3.8971    0.0000 N   0  0  0  0  0  0
    6.0000   -5.1962    0.0000 C   0  0  1  0  0  0
    7.5000   -5.1962    0.0000 C   0  0  0  0  0  0
    8.2500   -6.4952    0.0000 C   0  0  0  0  0  0
    9.7500   -6.4952    0.0000 C   0  0  0  0  0  0
   10.5000   -5.1962    0.0000 O   0  0  0  0  0  0
   10.5000   -7.7942    0.0000 O   0  0  0  0  0  0
    5.2500   -6.4952    0.0000 C   0  0  0  0  0  0
    3.7500   -6.4952    0.0000 O   0  0  0  0  0  0
    6.0000   -7.7942    0.0000 N   0  0  0  0  0  0
    5.2500   -9.0933    0.0000 C   0  0  1  0  0  0
    6.0000  -10.3923    0.0000 C   0  0  0  0  0  0
    5.2500  -11.6913    0.0000 C   0  0  0  0  0  0
    3.7500  -11.6913    0.0000 C   0  0  0  0  0  0
    3.0000  -12.9904    0.0000 C   0  0  0  0  0  0
    3.7500  -14.2894    0.0000 C   0  0  0  0  0  0
    5.2500  -14.2894    0.0000 C   0  0  0  0  0  0
    6.0000  -12.9904    0.0000 C   0  0  0  0  0  0
    3.7500   -9.0933    0.0000 C   0  0  0  0  0  0
    3.0000   -7.7942    0.0000 O   0  0  0  0  0  0
    3.0000  -10.3923    0.0000 N   0  0  0  0  0  0
    1.5000  -10.3923    0.0000 C   0  0  1  0  0  0
    0.7500  -11.6913    0.0000 C   0  0  0  0  0  0
   -0.7500  -11.6913    0.0000 C   0  0  0  0  0  0
   -1.5000  -12.9904    0.0000 F   0  0  0  0  0  0
   -1.5000  -10.3923    0.0000 F   0  0  0  0  0  0
    0.7500   -9.0933    0.0000 C   0  0  0  0  0  0
    1.5000   -7.7942    0.0000 O   0  0  0  0  0  0
   -0.7500   -9.0933    0.0000 O   0  0  0  0  0  0
  1  2  1  0  0  0
  2  3  2  0  0  0
  2  4  1  0  0  0
  4  5  1  0  0  0
  5  6  1  0  0  0
  5 10  1  6  0  0
  6  7  1  0  0  0
  7  8  2  0  0  0
  7  9  1  0  0  0
 10 11  2  0  0  0
 10 12  1  0  0  0
 12 13  1  0  0  0
 13 14  1  0  0  0
 13 19  1  6  0  0
 14 15  1  0  0  0
 15 16  1  0  0  0
 16 17  2  0  0  0
 16 18  1  0  0  0
 19 20  2  0  0  0
 19 21  1  0  0  0
 21 22  1  0  0  0
 22 23  1  0  0  0
 22 36  1  6  0  0
 23 24  1  0  0  0
 23 30  1  0  0  0
 24 25  2  0  0  0
 24 29  1  0  0  0
 25 26  1  0  0  0
 26 27  2  0  0  0
 27 28  1  0  0  0
 28 29  2  0  0  0
 30 31  2  0  0  0
 30 35  1  0  0  0
 31 32  1  0  0  0
 32 33  2  0  0  0
 33 34  1  0  0  0
 34 35  2  0  0  0
 36 37  2  0  0  0
 36 38  1  0  0  0
 38 39  1  0  0  0
 39 40  1  0  0  0
 39 45  1  6  0  0
 40 41  1  0  0  0
 41 42  1  0  0  0
 42 43  2  0  0  0
 42 44  1  0  0  0
 45 46  2  0  0  0
 45 47  1  0  0  0
 47 48  1  0  0  0
 48 49  1  0  0  0
 48 56  1  6  0  0
 49 50  1  0  0  0
 50 51  1  0  0  0
 50 55  1  0  0  0
 51 52  1  0  0  0
 52 53  1  0  0  0
 53 54  1  0  0  0
 54 55  1  0  0  0
 56 57  2  0  0  0
 56 58  1  0  0  0
 58 59  1  0  0  0
 59 60  1  0  0  0
 59 64  1  6  0  0
 60 61  1  0  0  0
 61 62  1  0  0  0
 61 63  1  0  0  0
 64 65  2  0  0  0
 64 66  1  0  0  0
M  END
> <s_m_entry_id>
6639

> <s_m_entry_name>
NS3-4A.180

> <CHEMBLID>
CHEMBL421233

> <s_m_Source_Path>
/home/liwei/Desktop/Machine/HCV/Active

> <s_m_Source_File>
NS3-4A.sdf

> <i_m_Source_File_Index>
180

$$$$
CHEMBL421708
                    3D
 Structure written by MMmdl.
 35 38  0  0  1  0            999 V2000
   -2.6401   -3.1891    0.0000 C   0  0  0  0  0  0
   -1.2135   -2.7256    0.0000 N   0  0  0  0  0  0
   -0.0000   -3.6073    0.0000 C   0  0  0  0  0  0
   -0.0000   -5.1073    0.0000 C   0  0  0  0  0  0
   -1.2990   -5.8573    0.0000 C   0  0  0  0  0  0
   -2.6694   -5.2472    0.0000 N   0  0  0  0  0  0
   -3.6731   -6.3619    0.0000 C   0  0  0  0  0  0
   -5.1731   -6.3619    0.0000 C   0  0  0  0  0  0
   -5.9231   -7.6610    0.0000 C   0  0  0  0  0  0
   -5.1731   -8.9600    0.0000 C   0  0  0  0  0  0
   -3.6731   -8.9600    0.0000 C   0  0  0  0  0  0
   -2.9231   -7.6610    0.0000 C   0  0  0  0  0  0
   -1.4558   -7.3491    0.0000 N   0  0  0  0  0  0
   -7.4231   -7.6610    0.0000 C   0  0  0  0  0  0
   -8.1731   -8.9600    0.0000 O   0  0  0  0  0  0
   -8.1731   -6.3619    0.0000 N   0  0  0  0  0  0
    1.2135   -2.7256    0.0000 N   0  0  0  0  0  0
    0.7500   -1.2990    0.0000 C   0  0  0  0  0  0
    1.5000    0.0000    0.0000 C   0  0  0  0  0  0
    0.7500    1.2990    0.0000 C   0  0  0  0  0  0
   -0.7500    1.2990    0.0000 C   0  0  0  0  0  0
   -1.5000    0.0000    0.0000 C   0  0  0  0  0  0
   -0.7500   -1.2990    0.0000 C   0  0  0  0  0  0
   -1.5000    2.5981    0.0000 C   0  0  0  0  0  0
   -3.0000    2.5981    0.0000 O   0  0  0  0  0  0
   -0.7500    3.8971    0.0000 N   0  0  0  0  0  0
   -1.5000    5.1962    0.0000 C   0  0  3  0  0  0
   -0.7500    6.4952    0.0000 C   0  0  0  0  0  0
   -1.5000    7.7942    0.0000 P   0  0  0  0  0  0
   -2.2500    9.0933    0.0000 O   0  0  0  0  0  0
   -0.2010    8.5442    0.0000 O   0  0  0  0  0  0
   -2.7990    7.0442    0.0000 O   0  0  0  0  0  0
   -3.0000    5.1962    0.0000 C   0  0  0  0  0  0
   -3.7500    6.4952    0.0000 O   0  0  0  0  0  0
   -3.7500    3.8971    0.0000 O   0  0  0  0  0  0
  1  2  1  0  0  0
  2  3  1  0  0  0
  2 23  1  0  0  0
  3  4  1  0  0  0
  3 17  2  0  0  0
  4  5  1  0  0  0
  5  6  2  0  0  0
  5 13  1  0  0  0
  6  7  1  0  0  0
  7  8  2  0  0  0
  7 12  1  0  0  0
  8  9  1  0  0  0
  9 10  2  0  0  0
  9 14  1  0  0  0
 10 11  1  0  0  0
 11 12  2  0  0  0
 12 13  1  0  0  0
 14 15  2  0  0  0
 14 16  1  0  0  0
 17 18  1  0  0  0
 18 19  2  0  0  0
 18 23  1  0  0  0
 19 20  1  0  0  0
 20 21  2  0  0  0
 21 22  1  0  0  0
 21 24  1  0  0  0
 22 23  2  0  0  0
 24 25  2  0  0  0
 24 26  1  0  0  0
 26 27  1  0  0  0
 27 28  1  0  0  0
 27 33  1  0  0  0
 28 29  1  0  0  0
 29 30  2  0  0  0
 29 31  1  0  0  0
 29 32  1  0  0  0
 33 34  2  0  0  0
 33 35  1  0  0  0
M  END
> <s_m_entry_id>
6640

> <s_m_entry_name>
NS3-4A.181

> <CHEMBLID>
CHEMBL421708

> <s_m_Source_Path>
/home/liwei/Desktop/Machine/HCV/Active

> <s_m_Source_File>
NS3-4A.sdf

> <i_m_Source_File_Index>
181

$$$$
CHEMBL423300
                    3D
 Structure written by MMmdl.
 57 60  0  0  1  0            999 V2000
   -7.4248  -15.9896    0.0000 C   0  0  0  0  0  0
   -6.2113  -15.1079    0.0000 C   0  0  0  0  0  0
   -6.3681  -13.6161    0.0000 C   0  0  0  0  0  0
   -5.1546  -12.7344    0.0000 C   0  0  3  0  0  0
   -5.3113  -11.2427    0.0000 N   0  0  0  0  0  0
   -4.0978  -10.3610    0.0000 C   0  0  0  0  0  0
   -2.7275  -10.9711    0.0000 O   0  0  0  0  0  0
   -4.2546   -8.8692    0.0000 C   0  0  2  0  0  0
   -3.1399   -7.8655    0.0000 C   0  0  0  0  0  0
   -3.7500   -6.4952    0.0000 C   0  0  2  0  0  0
   -5.2418   -6.6520    0.0000 C   0  0  0  0  0  0
   -5.5537   -8.1192    0.0000 N   0  0  0  0  0  0
   -6.9240   -8.7293    0.0000 C   0  0  0  0  0  0
   -7.0808  -10.2211    0.0000 O   0  0  0  0  0  0
   -8.1375   -7.8476    0.0000 C   0  0  2  0  0  0
   -7.9807   -6.3558    0.0000 N   0  0  0  0  0  0
   -9.1942   -5.4742    0.0000 C   0  0  0  0  0  0
  -10.5645   -6.0843    0.0000 O   0  0  0  0  0  0
   -9.0374   -3.9824    0.0000 C   0  0  2  0  0  0
   -7.6671   -3.3723    0.0000 N   0  0  0  0  0  0
   -7.5103   -1.8805    0.0000 C   0  0  0  0  0  0
   -8.7238   -0.9988    0.0000 O   0  0  0  0  0  0
   -6.1400   -1.2704    0.0000 C   0  0  0  0  0  0
   -4.9265   -2.1521    0.0000 C   0  0  0  0  0  0
   -3.5562   -1.5420    0.0000 N   0  0  0  0  0  0
   -3.3994   -0.0502    0.0000 C   0  0  0  0  0  0
   -4.6129    0.8315    0.0000 C   0  0  0  0  0  0
   -5.9832    0.2214    0.0000 N   0  0  0  0  0  0
  -10.2510   -3.1007    0.0000 C   0  0  0  0  0  0
  -10.0942   -1.6089    0.0000 C   0  0  0  0  0  0
  -11.6213   -3.7108    0.0000 C   0  0  0  0  0  0
   -9.5078   -8.4577    0.0000 C   0  0  0  0  0  0
  -10.7213   -7.5761    0.0000 C   0  0  0  0  0  0
   -9.6646   -9.9495    0.0000 C   0  0  0  0  0  0
   -3.0000   -5.1962    0.0000 O   0  0  0  0  0  0
   -1.5000   -5.1962    0.0000 C   0  0  0  0  0  0
   -0.7500   -6.4952    0.0000 O   0  0  0  0  0  0
   -0.7500   -3.8971    0.0000 N   0  0  0  0  0  0
    0.7500   -3.8971    0.0000 C   0  0  0  0  0  0
    1.5000   -2.5981    0.0000 C   0  0  0  0  0  0
    0.7500   -1.2990    0.0000 C   0  0  0  0  0  0
    1.5000    0.0000    0.0000 C   0  0  0  0  0  0
    0.7500    1.2990    0.0000 C   0  0  0  0  0  0
   -0.7500    1.2990    0.0000 C   0  0  0  0  0  0
   -1.5000    0.0000    0.0000 C   0  0  0  0  0  0
   -0.7500   -1.2990    0.0000 C   0  0  0  0  0  0
   -1.5000   -2.5981    0.0000 C   0  0  0  0  0  0
   -3.7842  -13.3446    0.0000 C   0  0  0  0  0  0
   -2.5707  -12.4629    0.0000 O   0  0  0  0  0  0
   -3.6274  -14.8363    0.0000 C   0  0  0  0  0  0
   -4.8410  -15.7180    0.0000 O   0  0  0  0  0  0
   -2.2571  -15.4464    0.0000 N   0  0  0  0  0  0
   -2.1003  -16.9382    0.0000 C   0  0  3  0  0  0
   -0.7300  -17.5483    0.0000 C   0  0  0  0  0  0
   -3.3139  -17.8199    0.0000 C   0  0  0  0  0  0
   -4.6842  -17.2098    0.0000 O   0  0  0  0  0  0
   -3.1571  -19.3117    0.0000 O   0  0  0  0  0  0
  1  2  1  0  0  0
  2  3  1  0  0  0
  3  4  1  0  0  0
  4  5  1  0  0  0
  4 48  1  0  0  0
  5  6  1  0  0  0
  6  7  2  0  0  0
  6  8  1  0  0  0
  8  9  1  0  0  0
  8 12  1  1  0  0
  9 10  1  0  0  0
 10 11  1  0  0  0
 10 35  1  6  0  0
 11 12  1  0  0  0
 12 13  1  0  0  0
 13 14  2  0  0  0
 13 15  1  0  0  0
 15 16  1  0  0  0
 15 32  1  6  0  0
 16 17  1  0  0  0
 17 18  2  0  0  0
 17 19  1  0  0  0
 19 20  1  0  0  0
 19 29  1  6  0  0
 20 21  1  0  0  0
 21 22  2  0  0  0
 21 23  1  0  0  0
 23 24  2  0  0  0
 23 28  1  0  0  0
 24 25  1  0  0  0
 25 26  2  0  0  0
 26 27  1  0  0  0
 27 28  2  0  0  0
 29 30  1  0  0  0
 29 31  1  0  0  0
 32 33  1  0  0  0
 32 34  1  0  0  0
 35 36  1  0  0  0
 36 37  2  0  0  0
 36 38  1  0  0  0
 38 39  1  0  0  0
 38 47  1  0  0  0
 39 40  1  0  0  0
 40 41  1  0  0  0
 41 42  2  0  0  0
 41 46  1  0  0  0
 42 43  1  0  0  0
 43 44  2  0  0  0
 44 45  1  0  0  0
 45 46  2  0  0  0
 46 47  1  0  0  0
 48 49  2  0  0  0
 48 50  1  0  0  0
 50 51  2  0  0  0
 50 52  1  0  0  0
 52 53  1  0  0  0
 53 54  1  0  0  0
 53 55  1  0  0  0
 55 56  2  0  0  0
 55 57  1  0  0  0
M  END
> <s_m_entry_id>
6641

> <s_m_entry_name>
NS3-4A.182

> <CHEMBLID>
CHEMBL423300

> <s_m_Source_Path>
/home/liwei/Desktop/Machine/HCV/Active

> <s_m_Source_File>
NS3-4A.sdf

> <i_m_Source_File_Index>
182

$$$$
CHEMBL424775
                    3D
 Structure written by MMmdl.
 53 55  0  0  1  0            999 V2000
   10.0022    3.6413    0.0000 C   0  0  0  0  0  0
    8.9985    2.5266    0.0000 C   0  0  0  0  0  0
    9.4620    1.1000    0.0000 C   0  0  0  0  0  0
    8.4583   -0.0147    0.0000 C   0  0  2  0  0  0
    8.9218   -1.4413    0.0000 N   0  0  0  0  0  0
    7.9182   -2.5560    0.0000 C   0  0  0  0  0  0
    6.4509   -2.2442    0.0000 O   0  0  0  0  0  0
    8.3817   -3.9826    0.0000 C   0  0  2  0  0  0
    9.8083   -4.4462    0.0000 C   0  0  1  0  0  0
   11.0218   -3.5645    0.0000 C   0  0  0  0  0  0
   12.3921   -4.1746    0.0000 C   0  0  0  0  0  0
   13.6056   -3.2929    0.0000 C   0  0  0  0  0  0
    9.8083   -5.9462    0.0000 C   0  0  0  0  0  0
    8.3817   -6.4097    0.0000 C   0  0  0  0  0  0
    7.5000   -5.1962    0.0000 N   0  0  0  0  0  0
    6.0000   -5.1962    0.0000 C   0  0  0  0  0  0
    5.2500   -3.8971    0.0000 O   0  0  0  0  0  0
    5.2500   -6.4952    0.0000 C   0  0  2  0  0  0
    3.7500   -6.4952    0.0000 N   0  0  0  0  0  0
    3.0000   -5.1962    0.0000 C   0  0  0  0  0  0
    3.7500   -3.8971    0.0000 O   0  0  0  0  0  0
    1.5000   -5.1962    0.0000 C   0  0  2  0  0  0
    0.7500   -3.8971    0.0000 N   0  0  0  0  0  0
    1.5000   -2.5981    0.0000 C   0  0  0  0  0  0
    3.0000   -2.5981    0.0000 O   0  0  0  0  0  0
    0.7500   -1.2990    0.0000 C   0  0  0  0  0  0
    1.5000    0.0000    0.0000 C   0  0  0  0  0  0
    0.7500    1.2990    0.0000 N   0  0  0  0  0  0
   -0.7500    1.2990    0.0000 C   0  0  0  0  0  0
   -1.5000    0.0000    0.0000 C   0  0  0  0  0  0
   -0.7500   -1.2990    0.0000 N   0  0  0  0  0  0
    0.7500   -6.4952    0.0000 C   0  0  0  0  0  0
    1.5000   -7.7942    0.0000 C   0  0  0  0  0  0
   -0.7500   -6.4952    0.0000 C   0  0  0  0  0  0
    6.0000   -7.7942    0.0000 C   0  0  0  0  0  0
    7.5000   -7.7942    0.0000 C   0  0  0  0  0  0
    5.2500   -9.0933    0.0000 C   0  0  0  0  0  0
    6.9911    0.2971    0.0000 C   0  0  0  0  0  0
    5.9874   -0.8176    0.0000 O   0  0  0  0  0  0
    6.5276    1.7237    0.0000 C   0  0  0  0  0  0
    7.5313    2.8384    0.0000 O   0  0  0  0  0  0
    5.0604    2.0356    0.0000 N   0  0  0  0  0  0
    4.5968    3.4622    0.0000 C   0  0  1  0  0  0
    3.1296    3.7740    0.0000 C   0  0  0  0  0  0
    2.6661    5.2006    0.0000 C   0  0  0  0  0  0
    3.6698    6.3153    0.0000 C   0  0  0  0  0  0
    3.2063    7.7419    0.0000 C   0  0  0  0  0  0
    1.7390    8.0538    0.0000 C   0  0  0  0  0  0
    0.7353    6.9391    0.0000 C   0  0  0  0  0  0
    1.1989    5.5125    0.0000 C   0  0  0  0  0  0
    5.6005    4.5769    0.0000 C   0  0  0  0  0  0
    7.0677    4.2650    0.0000 O   0  0  0  0  0  0
    5.1370    6.0035    0.0000 O   0  0  0  0  0  0
  1  2  1  0  0  0
  2  3  1  0  0  0
  3  4  1  0  0  0
  4  5  1  0  0  0
  4 38  1  1  0  0
  5  6  1  0  0  0
  6  7  2  0  0  0
  6  8  1  0  0  0
  8  9  1  0  0  0
  8 15  1  1  0  0
  9 10  1  0  0  0
  9 13  1  6  0  0
 10 11  1  0  0  0
 11 12  2  0  0  0
 13 14  1  0  0  0
 14 15  1  0  0  0
 15 16  1  0  0  0
 16 17  2  0  0  0
 16 18  1  0  0  0
 18 19  1  0  0  0
 18 35  1  6  0  0
 19 20  1  0  0  0
 20 21  2  0  0  0
 20 22  1  0  0  0
 22 23  1  0  0  0
 22 32  1  6  0  0
 23 24  1  0  0  0
 24 25  2  0  0  0
 24 26  1  0  0  0
 26 27  2  0  0  0
 26 31  1  0  0  0
 27 28  1  0  0  0
 28 29  2  0  0  0
 29 30  1  0  0  0
 30 31  2  0  0  0
 32 33  1  0  0  0
 32 34  1  0  0  0
 35 36  1  0  0  0
 35 37  1  0  0  0
 38 39  2  0  0  0
 38 40  1  0  0  0
 40 41  2  0  0  0
 40 42  1  0  0  0
 42 43  1  0  0  0
 43 44  1  0  0  0
 43 51  1  6  0  0
 44 45  1  0  0  0
 45 46  2  0  0  0
 45 50  1  0  0  0
 46 47  1  0  0  0
 47 48  2  0  0  0
 48 49  1  0  0  0
 49 50  2  0  0  0
 51 52  2  0  0  0
 51 53  1  0  0  0
M  END
> <s_m_entry_id>
6642

> <s_m_entry_name>
NS3-4A.183

> <CHEMBLID>
CHEMBL424775

> <s_m_Source_Path>
/home/liwei/Desktop/Machine/HCV/Active

> <s_m_Source_File>
NS3-4A.sdf

> <i_m_Source_File_Index>
183

$$$$
CHEMBL426196
                    3D
 Structure written by MMmdl.
 38 41  0  0  1  0            999 V2000
   -2.0490    2.0490    0.0000 C   0  0  0  0  0  0
   -0.7500    1.2990    0.0000 C   0  0  0  0  0  0
    0.5490    0.5490    0.0000 C   0  0  0  0  0  0
   -0.0000    2.5981    0.0000 C   0  0  0  0  0  0
   -1.5000   -0.0000    0.0000 N   0  0  0  0  0  0
   -0.7500   -1.2990    0.0000 C   0  0  0  0  0  0
    0.7500   -1.2990    0.0000 O   0  0  0  0  0  0
   -1.5000   -2.5981    0.0000 N   0  0  0  0  0  0
   -0.7500   -3.8971    0.0000 C   0  0  3  0  0  0
   -1.5000   -5.1962    0.0000 C   0  0  0  0  0  0
   -3.0000   -5.1962    0.0000 C   0  0  0  0  0  0
   -3.7500   -6.4952    0.0000 C   0  0  0  0  0  0
   -3.0000   -7.7942    0.0000 C   0  0  0  0  0  0
   -1.5000   -7.7942    0.0000 C   0  0  0  0  0  0
   -0.7500   -6.4952    0.0000 C   0  0  0  0  0  0
    0.7500   -3.8971    0.0000 C   0  0  0  0  0  0
    1.5000   -2.5981    0.0000 O   0  0  0  0  0  0
    1.5000   -5.1962    0.0000 N   0  0  0  0  0  0
    0.8899   -6.5665    0.0000 C   0  0  0  0  0  0
    2.0046   -7.5702    0.0000 C   0  0  1  0  0  0
    3.3037   -6.8202    0.0000 C   0  0  1  0  0  0
    2.9918   -5.3529    0.0000 C   0  0  3  0  0  0
    3.9955   -4.2382    0.0000 C   0  0  0  0  0  0
    3.5320   -2.8116    0.0000 O   0  0  0  0  0  0
    5.4627   -4.5501    0.0000 N   0  0  0  0  0  0
    6.4664   -3.4354    0.0000 C   0  0  1  0  0  0
    7.9336   -3.7472    0.0000 C   0  0  0  0  0  0
    8.3971   -5.1738    0.0000 C   0  0  0  0  0  0
    8.0853   -6.6411    0.0000 C   0  0  0  0  0  0
    9.5119   -6.1775    0.0000 C   0  0  0  0  0  0
    6.0029   -2.0088    0.0000 C   0  0  0  0  0  0
    4.5356   -1.6969    0.0000 O   0  0  0  0  0  0
    7.0066   -0.8941    0.0000 C   0  0  0  0  0  0
    8.4738   -1.2059    0.0000 O   0  0  0  0  0  0
    6.5430    0.5325    0.0000 N   0  0  0  0  0  0
    3.3037   -8.3202    0.0000 C   0  0  0  0  0  0
    4.7809   -8.5806    0.0000 C   0  0  0  0  0  0
    2.7906   -9.7297    0.0000 C   0  0  0  0  0  0
  1  2  1  0  0  0
  2  3  1  0  0  0
  2  4  1  0  0  0
  2  5  1  0  0  0
  5  6  1  0  0  0
  6  7  2  0  0  0
  6  8  1  0  0  0
  8  9  1  0  0  0
  9 10  1  0  0  0
  9 16  1  0  0  0
 10 11  1  0  0  0
 10 15  1  0  0  0
 11 12  1  0  0  0
 12 13  1  0  0  0
 13 14  1  0  0  0
 14 15  1  0  0  0
 16 17  2  0  0  0
 16 18  1  0  0  0
 18 19  1  0  0  0
 18 22  1  0  0  0
 19 20  1  0  0  0
 20 21  1  0  0  0
 20 36  1  6  0  0
 21 22  1  0  0  0
 21 36  1  1  0  0
 22 23  1  0  0  0
 23 24  2  0  0  0
 23 25  1  0  0  0
 25 26  1  0  0  0
 26 27  1  0  0  0
 26 31  1  6  0  0
 27 28  1  0  0  0
 28 29  1  0  0  0
 28 30  1  0  0  0
 29 30  1  0  0  0
 31 32  2  0  0  0
 31 33  1  0  0  0
 33 34  2  0  0  0
 33 35  1  0  0  0
 36 37  1  0  0  0
 36 38  1  0  0  0
M  END
> <s_m_entry_id>
6643

> <s_m_entry_name>
NS3-4A.184

> <CHEMBLID>
CHEMBL426196

> <s_m_Source_Path>
/home/liwei/Desktop/Machine/HCV/Active

> <s_m_Source_File>
NS3-4A.sdf

> <i_m_Source_File_Index>
184

$$$$
CHEMBL427455
                    3D
 Structure written by MMmdl.
 39 42  0  0  1  0            999 V2000
   -2.0490    2.0490    0.0000 C   0  0  0  0  0  0
   -0.7500    1.2990    0.0000 C   0  0  0  0  0  0
    0.5490    0.5490    0.0000 C   0  0  0  0  0  0
   -0.0000    2.5981    0.0000 C   0  0  0  0  0  0
   -1.5000   -0.0000    0.0000 O   0  0  0  0  0  0
   -0.7500   -1.2990    0.0000 C   0  0  0  0  0  0
    0.7500   -1.2990    0.0000 O   0  0  0  0  0  0
   -1.5000   -2.5981    0.0000 N   0  0  0  0  0  0
   -0.7500   -3.8971    0.0000 C   0  0  3  0  0  0
   -1.5000   -5.1962    0.0000 C   0  0  0  0  0  0
   -3.0000   -5.1962    0.0000 C   0  0  0  0  0  0
   -3.7500   -6.4952    0.0000 C   0  0  0  0  0  0
   -3.0000   -7.7942    0.0000 C   0  0  0  0  0  0
   -1.5000   -7.7942    0.0000 C   0  0  0  0  0  0
   -0.7500   -6.4952    0.0000 C   0  0  0  0  0  0
    0.7500   -3.8971    0.0000 C   0  0  0  0  0  0
    1.5000   -2.5981    0.0000 O   0  0  0  0  0  0
    1.5000   -5.1962    0.0000 N   0  0  0  0  0  0
    0.8899   -6.5665    0.0000 C   0  0  0  0  0  0
    2.0046   -7.5702    0.0000 C   0  0  1  0  0  0
    3.3037   -6.8202    0.0000 C   0  0  1  0  0  0
    2.9918   -5.3529    0.0000 C   0  0  3  0  0  0
    3.9955   -4.2382    0.0000 C   0  0  0  0  0  0
    3.5320   -2.8116    0.0000 O   0  0  0  0  0  0
    5.4627   -4.5501    0.0000 N   0  0  0  0  0  0
    6.4664   -3.4354    0.0000 C   0  0  1  0  0  0
    7.9336   -3.7472    0.0000 C   0  0  0  0  0  0
    8.3971   -5.1738    0.0000 C   0  0  0  0  0  0
    9.7337   -5.8548    0.0000 C   0  0  0  0  0  0
    9.0527   -7.1913    0.0000 C   0  0  0  0  0  0
    7.7162   -6.5103    0.0000 C   0  0  0  0  0  0
    6.0029   -2.0088    0.0000 C   0  0  0  0  0  0
    4.5356   -1.6969    0.0000 O   0  0  0  0  0  0
    7.0066   -0.8941    0.0000 C   0  0  0  0  0  0
    8.4738   -1.2059    0.0000 O   0  0  0  0  0  0
    6.5430    0.5325    0.0000 N   0  0  0  0  0  0
    3.3037   -8.3202    0.0000 C   0  0  0  0  0  0
    4.7809   -8.5806    0.0000 C   0  0  0  0  0  0
    2.7906   -9.7297    0.0000 C   0  0  0  0  0  0
  1  2  1  0  0  0
  2  3  1  0  0  0
  2  4  1  0  0  0
  2  5  1  0  0  0
  5  6  1  0  0  0
  6  7  2  0  0  0
  6  8  1  0  0  0
  8  9  1  0  0  0
  9 10  1  0  0  0
  9 16  1  0  0  0
 10 11  1  0  0  0
 10 15  1  0  0  0
 11 12  1  0  0  0
 12 13  1  0  0  0
 13 14  1  0  0  0
 14 15  1  0  0  0
 16 17  2  0  0  0
 16 18  1  0  0  0
 18 19  1  0  0  0
 18 22  1  0  0  0
 19 20  1  0  0  0
 20 21  1  0  0  0
 20 37  1  6  0  0
 21 22  1  0  0  0
 21 37  1  1  0  0
 22 23  1  0  0  0
 23 24  2  0  0  0
 23 25  1  0  0  0
 25 26  1  0  0  0
 26 27  1  0  0  0
 26 32  1  6  0  0
 27 28  1  0  0  0
 28 29  1  0  0  0
 28 31  1  0  0  0
 29 30  1  0  0  0
 30 31  1  0  0  0
 32 33  2  0  0  0
 32 34  1  0  0  0
 34 35  2  0  0  0
 34 36  1  0  0  0
 37 38  1  0  0  0
 37 39  1  0  0  0
M  END
> <s_m_entry_id>
6644

> <s_m_entry_name>
NS3-4A.185

> <CHEMBLID>
CHEMBL427455

> <s_m_Source_Path>
/home/liwei/Desktop/Machine/HCV/Active

> <s_m_Source_File>
NS3-4A.sdf

> <i_m_Source_File_Index>
185

$$$$
CHEMBL427489
                    3D
 Structure written by MMmdl.
 51 55  0  0  1  0            999 V2000
   10.0022    3.6413    0.0000 C   0  0  0  0  0  0
    8.9985    2.5266    0.0000 C   0  0  0  0  0  0
    9.4620    1.1000    0.0000 C   0  0  0  0  0  0
    8.4583   -0.0147    0.0000 C   0  0  2  0  0  0
    8.9218   -1.4413    0.0000 N   0  0  0  0  0  0
    7.9182   -2.5560    0.0000 C   0  0  0  0  0  0
    6.4509   -2.2442    0.0000 O   0  0  0  0  0  0
    8.3817   -3.9826    0.0000 C   0  0  2  0  0  0
    9.8083   -4.4462    0.0000 C   0  0  2  0  0  0
    9.8083   -5.9462    0.0000 C   0  0  0  0  0  0
    8.3817   -6.4097    0.0000 C   0  0  0  0  0  0
    7.5000   -5.1962    0.0000 N   0  0  0  0  0  0
    6.0000   -5.1962    0.0000 C   0  0  0  0  0  0
    5.2500   -3.8971    0.0000 O   0  0  0  0  0  0
    5.2500   -6.4952    0.0000 C   0  0  2  0  0  0
    3.7500   -6.4952    0.0000 N   0  0  0  0  0  0
    3.0000   -5.1962    0.0000 C   0  0  0  0  0  0
    3.7500   -3.8971    0.0000 O   0  0  0  0  0  0
    1.5000   -5.1962    0.0000 C   0  0  2  0  0  0
    0.7500   -3.8971    0.0000 N   0  0  0  0  0  0
    1.5000   -2.5981    0.0000 C   0  0  3  0  0  0
    3.0000   -2.5981    0.0000 O   0  0  0  0  0  0
    0.7500   -1.2990    0.0000 C   0  0  0  0  0  0
    1.5000    0.0000    0.0000 C   0  0  0  0  0  0
    0.7500    1.2990    0.0000 N   0  0  0  0  0  0
   -0.7500    1.2990    0.0000 C   0  0  0  0  0  0
   -1.5000    0.0000    0.0000 C   0  0  0  0  0  0
   -0.7500   -1.2990    0.0000 N   0  0  0  0  0  0
    0.7500   -6.4952    0.0000 C   0  0  0  0  0  0
   -0.7500   -6.4952    0.0000 C   0  0  0  0  0  0
   -1.5000   -7.7942    0.0000 C   0  0  0  0  0  0
   -0.7500   -9.0933    0.0000 C   0  0  0  0  0  0
    0.7500   -9.0933    0.0000 C   0  0  0  0  0  0
    1.5000   -7.7942    0.0000 C   0  0  0  0  0  0
    6.0000   -7.7942    0.0000 C   0  0  0  0  0  0
    7.2990   -7.0442    0.0000 C   0  0  0  0  0  0
    4.7010   -8.5442    0.0000 C   0  0  0  0  0  0
    6.7500   -9.0933    0.0000 C   0  0  0  0  0  0
   11.0218   -3.5645    0.0000 C   0  0  0  0  0  0
   11.0218   -2.0645    0.0000 C   0  0  0  0  0  0
   12.4484   -1.6009    0.0000 C   0  0  0  0  0  0
   13.3301   -2.8145    0.0000 C   0  0  0  0  0  0
   12.4484   -4.0280    0.0000 C   0  0  0  0  0  0
    6.9911    0.2971    0.0000 C   0  0  0  0  0  0
    5.9874   -0.8176    0.0000 O   0  0  0  0  0  0
    6.5276    1.7237    0.0000 C   0  0  0  0  0  0
    7.5313    2.8384    0.0000 O   0  0  0  0  0  0
    5.0604    2.0356    0.0000 N   0  0  0  0  0  0
    4.5968    3.4622    0.0000 C   0  0  0  0  0  0
    3.4821    4.4659    0.0000 C   0  0  0  0  0  0
    4.9087    4.9294    0.0000 C   0  0  0  0  0  0
  1  2  1  0  0  0
  2  3  1  0  0  0
  3  4  1  0  0  0
  4  5  1  0  0  0
  4 44  1  1  0  0
  5  6  1  0  0  0
  6  7  2  0  0  0
  6  8  1  0  0  0
  8  9  1  0  0  0
  8 12  1  1  0  0
  9 10  1  0  0  0
  9 39  1  6  0  0
 10 11  1  0  0  0
 11 12  1  0  0  0
 12 13  1  0  0  0
 13 14  2  0  0  0
 13 15  1  0  0  0
 15 16  1  0  0  0
 15 35  1  6  0  0
 16 17  1  0  0  0
 17 18  2  0  0  0
 17 19  1  0  0  0
 19 20  1  0  0  0
 19 29  1  6  0  0
 20 21  1  0  0  0
 21 22  1  0  0  0
 21 23  1  0  0  0
 23 24  2  0  0  0
 23 28  1  0  0  0
 24 25  1  0  0  0
 25 26  2  0  0  0
 26 27  1  0  0  0
 27 28  2  0  0  0
 29 30  1  0  0  0
 29 34  1  0  0  0
 30 31  1  0  0  0
 31 32  1  0  0  0
 32 33  1  0  0  0
 33 34  1  0  0  0
 35 36  1  0  0  0
 35 37  1  0  0  0
 35 38  1  0  0  0
 39 40  1  0  0  0
 39 43  1  0  0  0
 40 41  1  0  0  0
 41 42  1  0  0  0
 42 43  1  0  0  0
 44 45  2  0  0  0
 44 46  1  0  0  0
 46 47  2  0  0  0
 46 48  1  0  0  0
 48 49  1  0  0  0
 49 50  1  0  0  0
 49 51  1  0  0  0
 50 51  1  0  0  0
M  END
> <s_m_entry_id>
6645

> <s_m_entry_name>
NS3-4A.186

> <CHEMBLID>
CHEMBL427489

> <s_m_Source_Path>
/home/liwei/Desktop/Machine/HCV/Active

> <s_m_Source_File>
NS3-4A.sdf

> <i_m_Source_File_Index>
186

$$$$
CHEMBL427986
                    3D
 Structure written by MMmdl.
 76 78  0  0  1  0            999 V2000
   -8.5420   -6.7153    0.0000 C   0  0  0  0  0  0
   -7.5000   -7.7942    0.0000 C   0  0  0  0  0  0
   -8.0538   -8.3676    0.0000 C   0  0  0  0  0  0
   -6.0000   -7.7942    0.0000 C   0  0  0  0  0  0
   -5.2500   -9.0933    0.0000 C   0  0  2  0  0  0
   -6.0000  -10.3923    0.0000 N   0  0  0  0  0  0
   -7.5000  -10.3923    0.0000 C   0  0  0  0  0  0
   -8.2500  -11.6913    0.0000 O   0  0  0  0  0  0
   -8.2500   -9.0933    0.0000 C   0  0  1  0  0  0
   -7.5000   -7.7942    0.0000 N   0  0  0  0  0  0
   -8.2500   -6.4952    0.0000 C   0  0  0  0  0  0
   -9.7500   -6.4952    0.0000 O   0  0  0  0  0  0
   -7.5000   -5.1962    0.0000 C   0  0  2  0  0  0
   -8.2500   -3.8971    0.0000 C   0  0  0  0  0  0
   -7.5000   -2.5981    0.0000 C   0  0  0  0  0  0
   -6.0000   -2.5981    0.0000 C   0  0  0  0  0  0
   -5.2500   -1.2990    0.0000 C   0  0  0  0  0  0
   -6.0000   -0.0000    0.0000 C   0  0  0  0  0  0
   -7.5000   -0.0000    0.0000 C   0  0  0  0  0  0
   -8.2500   -1.2990    0.0000 C   0  0  0  0  0  0
   -9.7500   -1.2990    0.0000 C   0  0  0  0  0  0
   -6.0000   -5.1962    0.0000 N   0  0  0  0  0  0
   -5.2500   -3.8971    0.0000 C   0  0  0  0  0  0
   -5.6634   -2.4552    0.0000 O   0  0  0  0  0  0
   -3.7500   -3.8971    0.0000 C   0  0  2  0  0  0
   -3.0000   -2.5981    0.0000 C   0  0  0  0  0  0
   -1.5000   -2.5981    0.0000 C   0  0  0  0  0  0
   -0.7500   -1.2990    0.0000 C   0  0  0  0  0  0
   -1.5000    0.0000    0.0000 O   0  0  0  0  0  0
    0.7500   -1.2990    0.0000 O   0  0  0  0  0  0
   -3.0000   -5.1962    0.0000 N   0  0  0  0  0  0
   -3.7500   -6.4952    0.0000 C   0  0  0  0  0  0
   -5.2500   -6.4952    0.0000 O   0  0  0  0  0  0
   -3.0000   -7.7942    0.0000 C   0  0  2  0  0  0
   -3.7500   -9.0933    0.0000 C   0  0  0  0  0  0
   -3.0000  -10.3923    0.0000 C   0  0  0  0  0  0
   -1.5997  -10.9300    0.0000 O   0  0  0  0  0  0
   -3.7500  -11.6913    0.0000 O   0  0  0  0  0  0
   -1.5000   -7.7942    0.0000 N   0  0  0  0  0  0
   -0.7500   -9.0933    0.0000 C   0  0  0  0  0  0
   -0.9845  -10.5748    0.0000 O   0  0  0  0  0  0
    0.7500   -9.0933    0.0000 C   0  0  0  0  0  0
    1.5000  -10.3923    0.0000 C   0  0  0  0  0  0
    3.0000  -10.3923    0.0000 C   0  0  0  0  0  0
    3.7500   -9.0933    0.0000 O   0  0  0  0  0  0
    3.7500  -11.6913    0.0000 O   0  0  0  0  0  0
   -9.7500   -9.0933    0.0000 C   0  0  0  0  0  0
   -9.7500   -7.5933    0.0000 C   0  0  0  0  0  0
   -9.7500  -10.5933    0.0000 C   0  0  0  0  0  0
  -11.2500   -9.0933    0.0000 C   0  0  0  0  0  0
   -3.7500   -9.0933    0.0000 C   0  0  0  0  0  0
   -2.5842   -8.1494    0.0000 O   0  0  0  0  0  0
   -3.0000  -10.3923    0.0000 N   0  0  0  0  0  0
   -1.5000  -10.3923    0.0000 C   0  0  2  0  0  0
   -0.7500   -9.0933    0.0000 C   0  0  0  0  0  0
   -1.5000   -7.7942    0.0000 C   0  0  0  0  0  0
   -2.2500   -6.4952    0.0000 F   0  0  0  0  0  0
   -0.2010   -7.0442    0.0000 F   0  0  0  0  0  0
   -2.4439   -8.9600    0.0000 F   0  0  0  0  0  0
   -0.7500  -11.6913    0.0000 C   0  0  0  0  0  0
    0.7500  -11.6913    0.0000 O   0  0  0  0  0  0
   -1.5000  -12.9904    0.0000 C   0  0  0  0  0  0
   -3.0000  -12.9904    0.0000 O   0  0  0  0  0  0
   -0.7500  -14.2894    0.0000 N   0  0  0  0  0  0
   -1.5000  -15.5885    0.0000 C   0  0  1  0  0  0
   -3.0000  -15.5885    0.0000 C   0  0  0  0  0  0
   -0.7500  -16.8875    0.0000 C   0  0  0  0  0  0
    0.7500  -16.8875    0.0000 C   0  0  0  0  0  0
    1.5000  -18.1865    0.0000 C   0  0  0  0  0  0
    0.7500  -19.4856    0.0000 C   0  0  0  0  0  0
    1.5000  -20.7846    0.0000 C   0  0  0  0  0  0
    0.7500  -22.0836    0.0000 C   0  0  0  0  0  0
   -0.7500  -22.0836    0.0000 C   0  0  0  0  0  0
   -1.5000  -20.7846    0.0000 C   0  0  0  0  0  0
   -0.7500  -19.4856    0.0000 C   0  0  0  0  0  0
   -1.5000  -18.1865    0.0000 C   0  0  0  0  0  0
  1  2  1  0  0  0
  2  3  1  0  0  0
  2  4  1  0  0  0
  4  5  1  0  0  0
  5  6  1  0  0  0
  5 51  1  1  0  0
  6  7  1  0  0  0
  7  8  2  0  0  0
  7  9  1  0  0  0
  9 10  1  0  0  0
  9 47  1  6  0  0
 10 11  1  0  0  0
 11 12  2  0  0  0
 11 13  1  0  0  0
 13 14  1  0  0  0
 13 22  1  1  0  0
 14 15  1  0  0  0
 15 16  2  0  0  0
 15 20  1  0  0  0
 16 17  1  0  0  0
 17 18  2  0  0  0
 18 19  1  0  0  0
 19 20  2  0  0  0
 20 21  1  0  0  0
 22 23  1  0  0  0
 23 24  2  0  0  0
 23 25  1  0  0  0
 25 26  1  0  0  0
 25 31  1  1  0  0
 26 27  1  0  0  0
 27 28  1  0  0  0
 28 29  2  0  0  0
 28 30  1  0  0  0
 31 32  1  0  0  0
 32 33  2  0  0  0
 32 34  1  0  0  0
 34 35  1  0  0  0
 34 39  1  1  0  0
 35 36  1  0  0  0
 36 37  2  0  0  0
 36 38  1  0  0  0
 39 40  1  0  0  0
 40 41  2  0  0  0
 40 42  1  0  0  0
 42 43  1  0  0  0
 43 44  1  0  0  0
 44 45  2  0  0  0
 44 46  1  0  0  0
 47 48  1  0  0  0
 47 49  1  0  0  0
 47 50  1  0  0  0
 51 52  2  0  0  0
 51 53  1  0  0  0
 53 54  1  0  0  0
 54 55  1  0  0  0
 54 60  1  6  0  0
 55 56  1  0  0  0
 56 57  1  0  0  0
 56 58  1  0  0  0
 56 59  1  0  0  0
 60 61  2  0  0  0
 60 62  1  0  0  0
 62 63  2  0  0  0
 62 64  1  0  0  0
 64 65  1  0  0  0
 65 66  1  0  0  0
 65 67  1  6  0  0
 67 68  2  0  0  0
 67 76  1  0  0  0
 68 69  1  0  0  0
 69 70  2  0  0  0
 70 71  1  0  0  0
 70 75  1  0  0  0
 71 72  2  0  0  0
 72 73  1  0  0  0
 73 74  2  0  0  0
 74 75  1  0  0  0
 75 76  2  0  0  0
M  END
> <s_m_entry_id>
6646

> <s_m_entry_name>
NS3-4A.187

> <CHEMBLID>
CHEMBL427986

> <s_m_Source_Path>
/home/liwei/Desktop/Machine/HCV/Active

> <s_m_Source_File>
NS3-4A.sdf

> <i_m_Source_File_Index>
187

$$$$
CHEMBL432615
                    3D
 Structure written by MMmdl.
 35 39  0  0  1  0            999 V2000
    7.5000    0.0000    0.0000 O   0  0  0  0  0  0
    6.0000    0.0000    0.0000 C   0  0  0  0  0  0
    5.2500    1.2990    0.0000 O   0  0  0  0  0  0
    5.2500   -1.2990    0.0000 C   0  0  3  0  0  0
    6.0000   -2.5981    0.0000 C   0  0  0  0  0  0
    7.5000   -2.5981    0.0000 P   0  0  0  0  0  0
    9.0000   -2.5981    0.0000 O   0  0  0  0  0  0
    7.5000   -4.0981    0.0000 O   0  0  0  0  0  0
    7.5000   -1.0981    0.0000 O   0  0  0  0  0  0
    3.7500   -1.2990    0.0000 N   0  0  0  0  0  0
    3.0000    0.0000    0.0000 C   0  0  0  0  0  0
    3.7500    1.2990    0.0000 O   0  0  0  0  0  0
    1.5000    0.0000    0.0000 C   0  0  0  0  0  0
    0.7500   -1.2990    0.0000 C   0  0  0  0  0  0
   -0.7500   -1.2990    0.0000 C   0  0  0  0  0  0
   -1.5000    0.0000    0.0000 C   0  0  0  0  0  0
   -2.9672    0.3119    0.0000 N   0  0  0  0  0  0
   -3.1240    1.8037    0.0000 C   0  0  0  0  0  0
   -4.4231    2.5537    0.0000 C   0  0  0  0  0  0
   -4.4231    4.0537    0.0000 C   0  0  0  0  0  0
   -3.2095    4.9353    0.0000 N   0  0  0  0  0  0
   -3.6731    6.3619    0.0000 C   0  0  0  0  0  0
   -2.9231    7.6610    0.0000 C   0  0  0  0  0  0
   -3.6731    8.9600    0.0000 C   0  0  0  0  0  0
   -5.1731    8.9600    0.0000 C   0  0  0  0  0  0
   -5.9231    7.6610    0.0000 C   0  0  0  0  0  0
   -5.1731    6.3619    0.0000 C   0  0  0  0  0  0
   -5.6366    4.9353    0.0000 N   0  0  0  0  0  0
   -1.7537    2.4138    0.0000 N   0  0  0  0  0  0
   -1.4418    3.8810    0.0000 C   0  0  0  0  0  0
   -0.0152    4.3445    0.0000 C   0  0  0  0  0  0
    0.9885    5.4592    0.0000 C   0  0  0  0  0  0
    1.4520    4.0326    0.0000 C   0  0  0  0  0  0
   -0.7500    1.2990    0.0000 C   0  0  0  0  0  0
    0.7500    1.2990    0.0000 C   0  0  0  0  0  0
  1  2  1  0  0  0
  2  3  2  0  0  0
  2  4  1  0  0  0
  4  5  1  0  0  0
  4 10  1  0  0  0
  5  6  1  0  0  0
  6  7  2  0  0  0
  6  8  1  0  0  0
  6  9  1  0  0  0
 10 11  1  0  0  0
 11 12  2  0  0  0
 11 13  1  0  0  0
 13 14  2  0  0  0
 13 35  1  0  0  0
 14 15  1  0  0  0
 15 16  2  0  0  0
 16 17  1  0  0  0
 16 34  1  0  0  0
 17 18  2  0  0  0
 18 19  1  0  0  0
 18 29  1  0  0  0
 19 20  1  0  0  0
 20 21  2  0  0  0
 20 28  1  0  0  0
 21 22  1  0  0  0
 22 23  2  0  0  0
 22 27  1  0  0  0
 23 24  1  0  0  0
 24 25  2  0  0  0
 25 26  1  0  0  0
 26 27  2  0  0  0
 27 28  1  0  0  0
 29 30  1  0  0  0
 29 34  1  0  0  0
 30 31  1  0  0  0
 31 32  1  0  0  0
 31 33  1  0  0  0
 32 33  1  0  0  0
 34 35  2  0  0  0
M  END
> <s_m_entry_id>
6647

> <s_m_entry_name>
NS3-4A.188

> <CHEMBLID>
CHEMBL432615

> <s_m_Source_Path>
/home/liwei/Desktop/Machine/HCV/Active

> <s_m_Source_File>
NS3-4A.sdf

> <i_m_Source_File_Index>
188

$$$$
CHEMBL433693
                    3D
 Structure written by MMmdl.
 65 67  0  0  1  0            999 V2000
    1.5000    5.1962    0.0000 C   0  0  0  0  0  0
    3.0000    5.1962    0.0000 C   0  0  0  0  0  0
    3.7500    6.4952    0.0000 O   0  0  0  0  0  0
    3.7500    3.8971    0.0000 N   0  0  0  0  0  0
    5.2500    3.8971    0.0000 C   0  0  1  0  0  0
    6.0000    5.1962    0.0000 C   0  0  0  0  0  0
    7.5000    5.1962    0.0000 C   0  0  0  0  0  0
    8.2500    3.8971    0.0000 O   0  0  0  0  0  0
    8.2500    6.4952    0.0000 O   0  0  0  0  0  0
    6.0000    2.5981    0.0000 C   0  0  0  0  0  0
    7.5000    2.5981    0.0000 O   0  0  0  0  0  0
    5.2500    1.2990    0.0000 N   0  0  0  0  0  0
    6.0000   -0.0000    0.0000 C   0  0  1  0  0  0
    7.5000   -0.0000    0.0000 C   0  0  0  0  0  0
    8.2500    1.2990    0.0000 C   0  0  0  0  0  0
    9.7500    1.2990    0.0000 C   0  0  0  0  0  0
   10.5000   -0.0000    0.0000 O   0  0  0  0  0  0
   10.5000    2.5981    0.0000 O   0  0  0  0  0  0
    5.2500   -1.2990    0.0000 C   0  0  0  0  0  0
    6.0000   -2.5981    0.0000 O   0  0  0  0  0  0
    3.7500   -1.2990    0.0000 N   0  0  0  0  0  0
    3.0000   -2.5981    0.0000 C   0  0  1  0  0  0
    1.5000   -2.5981    0.0000 C   0  0  0  0  0  0
    0.7500   -1.2990    0.0000 C   0  0  0  0  0  0
    1.5000    0.0000    0.0000 C   0  0  0  0  0  0
    0.7500    1.2990    0.0000 C   0  0  0  0  0  0
   -0.7500    1.2990    0.0000 C   0  0  0  0  0  0
   -1.5000    0.0000    0.0000 C   0  0  0  0  0  0
   -0.7500   -1.2990    0.0000 C   0  0  0  0  0  0
    0.7500   -3.8971    0.0000 C   0  0  0  0  0  0
   -0.7500   -3.8971    0.0000 C   0  0  0  0  0  0
   -1.5000   -5.1962    0.0000 C   0  0  0  0  0  0
   -0.7500   -6.4952    0.0000 C   0  0  0  0  0  0
    0.7500   -6.4952    0.0000 C   0  0  0  0  0  0
    1.5000   -5.1962    0.0000 C   0  0  0  0  0  0
    3.7500   -3.8971    0.0000 C   0  0  0  0  0  0
    3.0000   -5.1962    0.0000 O   0  0  0  0  0  0
    5.2500   -3.8971    0.0000 N   0  0  0  0  0  0
    6.0000   -5.1962    0.0000 C   0  0  1  0  0  0
    7.5000   -5.1962    0.0000 C   0  0  0  0  0  0
    8.2500   -6.4952    0.0000 C   0  0  0  0  0  0
    9.7500   -6.4952    0.0000 C   0  0  0  0  0  0
   10.5000   -5.1962    0.0000 O   0  0  0  0  0  0
   10.5000   -7.7942    0.0000 O   0  0  0  0  0  0
    5.2500   -6.4952    0.0000 C   0  0  0  0  0  0
    3.7500   -6.4952    0.0000 O   0  0  0  0  0  0
    6.0000   -7.7942    0.0000 N   0  0  0  0  0  0
    5.2500   -9.0933    0.0000 C   0  0  1  0  0  0
    6.0000  -10.3923    0.0000 C   0  0  0  0  0  0
    5.2500  -11.6913    0.0000 C   0  0  0  0  0  0
    3.7500  -11.6913    0.0000 C   0  0  0  0  0  0
    3.0000  -12.9904    0.0000 C   0  0  0  0  0  0
    3.7500  -14.2894    0.0000 C   0  0  0  0  0  0
    5.2500  -14.2894    0.0000 C   0  0  0  0  0  0
    6.0000  -12.9904    0.0000 C   0  0  0  0  0  0
    3.7500   -9.0933    0.0000 C   0  0  0  0  0  0
    3.0000   -7.7942    0.0000 O   0  0  0  0  0  0
    3.0000  -10.3923    0.0000 N   0  0  0  0  0  0
    1.5000  -10.3923    0.0000 C   0  0  1  0  0  0
    0.7500  -11.6913    0.0000 C   0  0  0  0  0  0
   -0.7500  -11.6913    0.0000 C   0  0  0  0  0  0
   -1.5000  -12.9904    0.0000 C   0  0  0  0  0  0
    0.7500   -9.0933    0.0000 C   0  0  0  0  0  0
    1.5000   -7.7942    0.0000 O   0  0  0  0  0  0
   -0.7500   -9.0933    0.0000 O   0  0  0  0  0  0
  1  2  1  0  0  0
  2  3  2  0  0  0
  2  4  1  0  0  0
  4  5  1  0  0  0
  5  6  1  0  0  0
  5 10  1  6  0  0
  6  7  1  0  0  0
  7  8  2  0  0  0
  7  9  1  0  0  0
 10 11  2  0  0  0
 10 12  1  0  0  0
 12 13  1  0  0  0
 13 14  1  0  0  0
 13 19  1  6  0  0
 14 15  1  0  0  0
 15 16  1  0  0  0
 16 17  2  0  0  0
 16 18  1  0  0  0
 19 20  2  0  0  0
 19 21  1  0  0  0
 21 22  1  0  0  0
 22 23  1  0  0  0
 22 36  1  6  0  0
 23 24  1  0  0  0
 23 30  1  0  0  0
 24 25  2  0  0  0
 24 29  1  0  0  0
 25 26  1  0  0  0
 26 27  2  0  0  0
 27 28  1  0  0  0
 28 29  2  0  0  0
 30 31  2  0  0  0
 30 35  1  0  0  0
 31 32  1  0  0  0
 32 33  2  0  0  0
 33 34  1  0  0  0
 34 35  2  0  0  0
 36 37  2  0  0  0
 36 38  1  0  0  0
 38 39  1  0  0  0
 39 40  1  0  0  0
 39 45  1  6  0  0
 40 41  1  0  0  0
 41 42  1  0  0  0
 42 43  2  0  0  0
 42 44  1  0  0  0
 45 46  2  0  0  0
 45 47  1  0  0  0
 47 48  1  0  0  0
 48 49  1  0  0  0
 48 56  1  6  0  0
 49 50  1  0  0  0
 50 51  1  0  0  0
 50 55  1  0  0  0
 51 52  1  0  0  0
 52 53  1  0  0  0
 53 54  1  0  0  0
 54 55  1  0  0  0
 56 57  2  0  0  0
 56 58  1  0  0  0
 58 59  1  0  0  0
 59 60  1  0  0  0
 59 63  1  6  0  0
 60 61  1  0  0  0
 61 62  2  0  0  0
 63 64  2  0  0  0
 63 65  1  0  0  0
M  END
> <s_m_entry_id>
6648

> <s_m_entry_name>
NS3-4A.189

> <CHEMBLID>
CHEMBL433693

> <s_m_Source_Path>
/home/liwei/Desktop/Machine/HCV/Active

> <s_m_Source_File>
NS3-4A.sdf

> <i_m_Source_File_Index>
189

$$$$
CHEMBL434033
                    3D
 Structure written by MMmdl.
 49 51  0  0  1  0            999 V2000
   -6.2113  -15.1079    0.0000 C   0  0  0  0  0  0
   -6.3681  -13.6161    0.0000 C   0  0  0  0  0  0
   -5.1546  -12.7344    0.0000 C   0  0  2  0  0  0
   -5.3113  -11.2427    0.0000 N   0  0  0  0  0  0
   -4.0978  -10.3610    0.0000 C   0  0  0  0  0  0
   -2.7275  -10.9711    0.0000 O   0  0  0  0  0  0
   -4.2546   -8.8692    0.0000 C   0  0  2  0  0  0
   -3.1399   -7.8655    0.0000 C   0  0  0  0  0  0
   -3.7500   -6.4952    0.0000 C   0  0  2  0  0  0
   -5.2418   -6.6520    0.0000 C   0  0  0  0  0  0
   -5.5537   -8.1192    0.0000 N   0  0  0  0  0  0
   -6.9240   -8.7293    0.0000 C   0  0  0  0  0  0
   -7.0808  -10.2211    0.0000 O   0  0  0  0  0  0
   -8.1375   -7.8476    0.0000 C   0  0  1  0  0  0
   -7.9807   -6.3558    0.0000 N   0  0  0  0  0  0
   -9.1942   -5.4742    0.0000 C   0  0  0  0  0  0
  -10.5645   -6.0843    0.0000 O   0  0  0  0  0  0
   -9.0374   -3.9824    0.0000 C   0  0  2  0  0  0
   -7.6671   -3.3723    0.0000 N   0  0  0  0  0  0
   -7.5103   -1.8805    0.0000 C   0  0  0  0  0  0
   -8.7238   -0.9988    0.0000 O   0  0  0  0  0  0
   -6.1400   -1.2704    0.0000 C   0  0  0  0  0  0
   -5.9832    0.2214    0.0000 C   0  0  0  0  0  0
   -4.6129    0.8315    0.0000 C   0  0  0  0  0  0
   -4.4561    2.3233    0.0000 C   0  0  0  0  0  0
   -3.0858    2.9334    0.0000 C   0  0  0  0  0  0
   -1.8723    2.0517    0.0000 O   0  0  0  0  0  0
   -2.9290    4.4252    0.0000 O   0  0  0  0  0  0
  -10.2510   -3.1007    0.0000 C   0  0  0  0  0  0
  -10.0942   -1.6089    0.0000 C   0  0  0  0  0  0
  -11.6213   -3.7108    0.0000 C   0  0  0  0  0  0
   -9.5078   -8.4577    0.0000 C   0  0  0  0  0  0
  -10.7213   -7.5761    0.0000 C   0  0  0  0  0  0
   -9.6646   -9.9495    0.0000 C   0  0  0  0  0  0
   -3.0000   -5.1962    0.0000 O   0  0  0  0  0  0
   -1.5000   -5.1962    0.0000 C   0  0  0  0  0  0
   -0.7500   -6.4952    0.0000 O   0  0  0  0  0  0
   -0.7500   -3.8971    0.0000 C   0  0  0  0  0  0
    0.7500   -3.8971    0.0000 C   0  0  0  0  0  0
    1.5000   -2.5981    0.0000 C   0  0  0  0  0  0
    0.7500   -1.2990    0.0000 C   0  0  0  0  0  0
    1.5000    0.0000    0.0000 C   0  0  0  0  0  0
    0.7500    1.2990    0.0000 C   0  0  0  0  0  0
   -0.7500    1.2990    0.0000 C   0  0  0  0  0  0
   -1.5000    0.0000    0.0000 C   0  0  0  0  0  0
   -0.7500   -1.2990    0.0000 C   0  0  0  0  0  0
   -1.5000   -2.5981    0.0000 C   0  0  0  0  0  0
   -3.7842  -13.3446    0.0000 C   0  0  0  0  0  0
   -3.6274  -14.8363    0.0000 O   0  0  0  0  0  0
  1  2  1  0  0  0
  2  3  1  0  0  0
  3  4  1  0  0  0
  3 48  1  1  0  0
  4  5  1  0  0  0
  5  6  2  0  0  0
  5  7  1  0  0  0
  7  8  1  0  0  0
  7 11  1  1  0  0
  8  9  1  0  0  0
  9 10  1  0  0  0
  9 35  1  6  0  0
 10 11  1  0  0  0
 11 12  1  0  0  0
 12 13  2  0  0  0
 12 14  1  0  0  0
 14 15  1  0  0  0
 14 32  1  6  0  0
 15 16  1  0  0  0
 16 17  2  0  0  0
 16 18  1  0  0  0
 18 19  1  0  0  0
 18 29  1  6  0  0
 19 20  1  0  0  0
 20 21  2  0  0  0
 20 22  1  0  0  0
 22 23  1  0  0  0
 23 24  1  0  0  0
 24 25  1  0  0  0
 25 26  1  0  0  0
 26 27  2  0  0  0
 26 28  1  0  0  0
 29 30  1  0  0  0
 29 31  1  0  0  0
 32 33  1  0  0  0
 32 34  1  0  0  0
 35 36  1  0  0  0
 36 37  2  0  0  0
 36 38  1  0  0  0
 38 39  2  0  0  0
 38 47  1  0  0  0
 39 40  1  0  0  0
 40 41  2  0  0  0
 41 42  1  0  0  0
 41 46  1  0  0  0
 42 43  2  0  0  0
 43 44  1  0  0  0
 44 45  2  0  0  0
 45 46  1  0  0  0
 46 47  2  0  0  0
 48 49  2  0  0  0
M  END
> <s_m_entry_id>
6649

> <s_m_entry_name>
NS3-4A.190

> <CHEMBLID>
CHEMBL434033

> <s_m_Source_Path>
/home/liwei/Desktop/Machine/HCV/Active

> <s_m_Source_File>
NS3-4A.sdf

> <i_m_Source_File_Index>
190

$$$$
CHEMBL434083
                    3D
 Structure written by MMmdl.
 48 50  0  0  1  0            999 V2000
    1.8667    0.2583    0.0000 C   0  0  1  0  0  0
    6.8667   -0.9792    0.0000 C   0  0  0  0  0  0
    2.5792   -0.1542    0.0000 C   0  0  0  0  0  0
    6.8667   -0.1542    0.0000 C   0  0  1  0  0  0
    5.4417   -0.1542    0.0000 C   0  0  0  0  0  0
    6.1542    0.2583    0.0000 N   0  0  0  0  0  0
    4.0167   -0.1542    0.0000 N   0  0  0  0  0  0
    7.5917   -1.3917    0.0000 C   0  0  0  0  0  0
    3.3042    0.2583    0.0000 C   0  0  1  0  0  0
    7.5917    0.2583    0.0000 C   0  0  0  0  0  0
    4.7292    0.2583    0.0000 C   0  0  1  0  0  0
    1.1542   -0.1542    0.0000 N   0  0  0  0  0  0
    1.8667    1.0833    0.0000 C   0  0  0  0  0  0
    1.1542   -0.9792    0.0000 C   0  0  0  0  0  0
    3.4792   -2.0667    0.0000 C   0  0  0  0  0  0
    6.1542   -1.3917    0.0000 O   0  0  0  0  0  0
    2.5792   -0.9792    0.0000 O   0  0  0  0  0  0
    5.4417   -0.9792    0.0000 O   0  0  0  0  0  0
    7.9917    0.9750    0.0000 C   0  0  0  0  0  0
    4.7292    1.0833    0.0000 C   0  0  0  0  0  0
    8.3042   -0.9792    0.0000 O   0  0  0  0  0  0
    3.2917   -0.5625    0.0000 C   0  0  0  0  0  0
    1.1542    1.4958    0.0000 C   0  0  0  0  0  0
    2.5792    1.4958    0.0000 C   0  0  0  0  0  0
    1.8667   -1.3917    0.0000 O   0  0  0  0  0  0
    4.0667   -2.6542    0.0000 O   0  0  0  0  0  0
    3.7042   -1.2750    0.0000 C   0  0  0  0  0  0
    7.5917   -2.2167    0.0000 O   0  0  0  0  0  0
    8.8167    0.9833    0.0000 F   0  0  0  0  0  0
    7.5792    1.6875    0.0000 F   0  0  0  0  0  0
    2.6917   -2.2792    0.0000 O   0  0  0  0  0  0
    5.4417    1.4958    0.0000 C   0  0  0  0  0  0
    0.4417   -1.3917    0.0000 C   0  0  0  0  0  0
    3.3042    1.0833    0.0000 C   0  0  0  0  0  0
    2.5792    2.3125    0.0000 C   0  0  0  0  0  0
    1.1542    2.3333    0.0000 C   0  0  0  0  0  0
    0.4417    1.0875    0.0000 C   0  0  0  0  0  0
    5.4417    2.3125    0.0000 C   0  0  0  0  0  0
    6.1542    1.0833    0.0000 C   0  0  0  0  0  0
   -0.2708    1.4958    0.0000 C   0  0  0  0  0  0
    4.0167    1.4958    0.0000 C   0  0  0  0  0  0
    3.2917    2.7333    0.0000 C   0  0  0  0  0  0
    0.4417    2.7375    0.0000 C   0  0  0  0  0  0
    6.1542    2.7250    0.0000 C   0  0  0  0  0  0
    6.8667    1.4875    0.0000 C   0  0  0  0  0  0
    4.0167    2.3208    0.0000 C   0  0  0  0  0  0
   -0.2708    2.3333    0.0000 C   0  0  0  0  0  0
    6.8667    2.3125    0.0000 C   0  0  0  0  0  0
  1  3  1  0  0  0
  1 12  1  0  0  0
  1 13  1  6  0  0
  2  4  1  0  0  0
  2  8  1  0  0  0
  2 16  2  0  0  0
  3  9  1  0  0  0
  3 17  2  0  0  0
  4  6  1  0  0  0
  4 10  1  6  0  0
  5 11  1  0  0  0
  5  6  1  0  0  0
  5 18  2  0  0  0
  7  9  1  0  0  0
  7 11  1  0  0  0
  8 21  2  0  0  0
  8 28  1  0  0  0
  9 22  1  6  0  0
 10 19  1  0  0  0
 11 20  1  6  0  0
 12 14  1  0  0  0
 13 23  1  0  0  0
 13 24  1  0  0  0
 14 25  2  0  0  0
 14 33  1  0  0  0
 15 27  1  0  0  0
 15 26  2  0  0  0
 15 31  1  0  0  0
 19 29  1  0  0  0
 19 30  1  0  0  0
 20 32  1  0  0  0
 22 27  1  0  0  0
 23 36  2  0  0  0
 23 37  1  0  0  0
 24 34  2  0  0  0
 24 35  1  0  0  0
 32 38  1  0  0  0
 32 39  1  0  0  0
 34 41  1  0  0  0
 35 42  2  0  0  0
 36 43  1  0  0  0
 37 40  2  0  0  0
 38 44  1  0  0  0
 39 45  1  0  0  0
 40 47  1  0  0  0
 41 46  2  0  0  0
 42 46  1  0  0  0
 43 47  2  0  0  0
 44 48  1  0  0  0
 45 48  1  0  0  0
M  END
> <s_m_entry_id>
6650

> <s_m_entry_name>
NS3-4A.191

> <CHEMBLID>
CHEMBL434083

> <s_m_Source_Path>
/home/liwei/Desktop/Machine/HCV/Active

> <s_m_Source_File>
NS3-4A.sdf

> <i_m_Source_File_Index>
191

> <MOLREGNO>
269068

> <MAX_PHASE>
0

> <MOLWEIGHT>
671.73

> <ALOGP>
1.33

> <PSA>
178.96

> <HBA>
9

> <HBD>
5

> <RO5>
1

> <RTB>
19

> <RO3>
N

> <ACD_MOST_APKA>
2.01

> <ACD_LOGP>
1.82

> <ACD_LOGD>
-2.92

> <AROMATIC_RINGS>
2

> <HEAVY_ATOMS>
48

> <QED_WEIGHTED>
0.14

> <HBA_LIPINSKI>
11

> <HBD_LIPINSKI>
5

> <NUM_LIPINSKI_RO5_VIOLATIONS>
1

> <MW_MONOISOTOPIC>
671.3018

> <MOLECULAR_SPECIES>
ACID

> <FULL_MOLFORMULA>
C35H43F2N3O8

> <ACD_MOST_BPKA>
4.71

$$$$
CHEMBL434301
                    3D
 Structure written by MMmdl.
 53 57  0  0  1  0            999 V2000
   -8.1545   -1.6454    0.0000 C   0  0  0  0  0  0
   -6.6873   -1.3335    0.0000 C   0  0  0  0  0  0
   -5.6836   -2.4482    0.0000 C   0  0  0  0  0  0
   -4.2164   -2.1363    0.0000 C   0  0  2  0  0  0
   -3.2127   -3.2511    0.0000 N   0  0  0  0  0  0
   -1.7455   -2.9392    0.0000 C   0  0  0  0  0  0
   -1.2820   -1.5126    0.0000 O   0  0  0  0  0  0
   -0.7418   -4.0539    0.0000 C   0  0  2  0  0  0
    0.7500   -3.8971    0.0000 C   0  0  1  0  0  0
    1.5000   -2.5981    0.0000 C   0  0  0  0  0  0
    3.0000   -2.5981    0.0000 C   0  0  0  0  0  0
    3.7500   -1.2990    0.0000 C   0  0  0  0  0  0
    5.2500   -1.2990    0.0000 C   0  0  0  0  0  0
    6.0000   -2.5981    0.0000 C   0  0  0  0  0  0
    5.2500   -3.8971    0.0000 C   0  0  0  0  0  0
    3.7500   -3.8971    0.0000 C   0  0  0  0  0  0
    1.3601   -5.2674    0.0000 C   0  0  0  0  0  0
    0.2454   -6.2711    0.0000 C   0  0  0  0  0  0
   -1.0537   -5.5211    0.0000 N   0  0  0  0  0  0
   -2.4240   -6.1312    0.0000 C   0  0  0  0  0  0
   -3.6375   -5.2496    0.0000 O   0  0  0  0  0  0
   -2.5808   -7.6230    0.0000 C   0  0  2  0  0  0
   -1.3672   -8.5047    0.0000 N   0  0  0  0  0  0
   -1.5240   -9.9965    0.0000 C   0  0  0  0  0  0
   -2.8943  -10.6066    0.0000 O   0  0  0  0  0  0
   -0.3105  -10.8782    0.0000 C   0  0  2  0  0  0
    1.0598  -10.2680    0.0000 N   0  0  0  0  0  0
    2.2733  -11.1497    0.0000 C   0  0  3  0  0  0
    2.1165  -12.6415    0.0000 O   0  0  0  0  0  0
    3.6437  -10.5396    0.0000 C   0  0  0  0  0  0
    4.8572  -11.4213    0.0000 C   0  0  0  0  0  0
    6.2275  -10.8112    0.0000 N   0  0  0  0  0  0
    6.3843   -9.3194    0.0000 C   0  0  0  0  0  0
    5.1708   -8.4377    0.0000 C   0  0  0  0  0  0
    3.8005   -9.0478    0.0000 N   0  0  0  0  0  0
   -0.4673  -12.3699    0.0000 C   0  0  0  0  0  0
   -1.8376  -12.9800    0.0000 C   0  0  0  0  0  0
   -1.9944  -14.4718    0.0000 C   0  0  0  0  0  0
   -0.7809  -15.3535    0.0000 C   0  0  0  0  0  0
    0.5894  -14.7434    0.0000 C   0  0  0  0  0  0
    0.7462  -13.2516    0.0000 C   0  0  0  0  0  0
   -3.9511   -8.2331    0.0000 C   0  0  0  0  0  0
   -3.3410   -9.6034    0.0000 C   0  0  0  0  0  0
   -4.5612   -6.8628    0.0000 C   0  0  0  0  0  0
   -5.3214   -8.8432    0.0000 C   0  0  0  0  0  0
   -3.7529   -0.7098    0.0000 C   0  0  0  0  0  0
   -2.2856   -0.3979    0.0000 O   0  0  0  0  0  0
   -4.7566    0.4050    0.0000 C   0  0  0  0  0  0
   -6.2238    0.0931    0.0000 O   0  0  0  0  0  0
   -4.2930    1.8315    0.0000 N   0  0  0  0  0  0
   -5.2967    2.9463    0.0000 C   0  0  0  0  0  0
   -6.7233    3.4098    0.0000 C   0  0  0  0  0  0
   -5.6086    4.4135    0.0000 C   0  0  0  0  0  0
  1  2  1  0  0  0
  2  3  1  0  0  0
  3  4  1  0  0  0
  4  5  1  0  0  0
  4 46  1  1  0  0
  5  6  1  0  0  0
  6  7  2  0  0  0
  6  8  1  0  0  0
  8  9  1  0  0  0
  8 19  1  1  0  0
  9 10  1  0  0  0
  9 17  1  6  0  0
 10 11  1  0  0  0
 11 12  2  0  0  0
 11 16  1  0  0  0
 12 13  1  0  0  0
 13 14  2  0  0  0
 14 15  1  0  0  0
 15 16  2  0  0  0
 17 18  1  0  0  0
 18 19  1  0  0  0
 19 20  1  0  0  0
 20 21  2  0  0  0
 20 22  1  0  0  0
 22 23  1  0  0  0
 22 42  1  6  0  0
 23 24  1  0  0  0
 24 25  2  0  0  0
 24 26  1  0  0  0
 26 27  1  0  0  0
 26 36  1  6  0  0
 27 28  1  0  0  0
 28 29  1  0  0  0
 28 30  1  0  0  0
 30 31  2  0  0  0
 30 35  1  0  0  0
 31 32  1  0  0  0
 32 33  2  0  0  0
 33 34  1  0  0  0
 34 35  2  0  0  0
 36 37  1  0  0  0
 36 41  1  0  0  0
 37 38  1  0  0  0
 38 39  1  0  0  0
 39 40  1  0  0  0
 40 41  1  0  0  0
 42 43  1  0  0  0
 42 44  1  0  0  0
 42 45  1  0  0  0
 46 47  2  0  0  0
 46 48  1  0  0  0
 48 49  2  0  0  0
 48 50  1  0  0  0
 50 51  1  0  0  0
 51 52  1  0  0  0
 51 53  1  0  0  0
 52 53  1  0  0  0
M  END
> <s_m_entry_id>
6651

> <s_m_entry_name>
NS3-4A.192

> <CHEMBLID>
CHEMBL434301

> <s_m_Source_Path>
/home/liwei/Desktop/Machine/HCV/Active

> <s_m_Source_File>
NS3-4A.sdf

> <i_m_Source_File_Index>
192

$$$$
CHEMBL435498
                    3D
 Structure written by MMmdl.
 50 52  0  0  1  0            999 V2000
   14.0846  -15.2566    0.0000 C   0  0  0  0  0  0
   13.0809  -14.1419    0.0000 C   0  0  0  0  0  0
   13.5444  -12.7153    0.0000 C   0  0  0  0  0  0
   11.6137  -14.4538    0.0000 C   0  0  0  0  0  0
   10.6100  -13.3391    0.0000 O   0  0  0  0  0  0
    9.1428  -13.6509    0.0000 C   0  0  0  0  0  0
    8.6792  -15.0775    0.0000 O   0  0  0  0  0  0
    8.1391  -12.5362    0.0000 N   0  0  0  0  0  0
    6.6718  -12.8481    0.0000 C   0  0  1  0  0  0
    6.2083  -14.2747    0.0000 C   0  0  0  0  0  0
    7.2120  -15.3894    0.0000 C   0  0  0  0  0  0
    4.7411  -14.5865    0.0000 C   0  0  0  0  0  0
    5.6682  -11.7334    0.0000 C   0  0  0  0  0  0
    4.2009  -12.0452    0.0000 O   0  0  0  0  0  0
    6.1317  -10.3068    0.0000 N   0  0  0  0  0  0
    7.5583   -9.8433    0.0000 C   0  0  0  0  0  0
    7.5583   -8.3433    0.0000 C   0  0  1  0  0  0
    6.1317   -7.8797    0.0000 C   0  0  0  0  0  0
    5.2500   -9.0933    0.0000 C   0  0  1  0  0  0
    3.7500   -9.0933    0.0000 C   0  0  0  0  0  0
    3.0000  -10.3923    0.0000 O   0  0  0  0  0  0
    3.0000   -7.7942    0.0000 N   0  0  0  0  0  0
    1.5000   -7.7942    0.0000 C   0  0  1  0  0  0
    0.7500   -9.0933    0.0000 C   0  0  0  0  0  0
   -0.7500   -9.0933    0.0000 C   0  0  0  0  0  0
   -1.5000  -10.3923    0.0000 F   0  0  0  0  0  0
   -1.5000   -7.7942    0.0000 F   0  0  0  0  0  0
    0.7500   -6.4952    0.0000 C   0  0  0  0  0  0
   -0.7500   -6.4952    0.0000 O   0  0  0  0  0  0
    1.5000   -5.1962    0.0000 N   0  0  0  0  0  0
    0.7500   -3.8971    0.0000 C   0  0  0  0  0  0
    1.5000   -2.5981    0.0000 C   0  0  0  0  0  0
    0.7500   -1.2990    0.0000 C   0  0  0  0  0  0
    1.5000    0.0000    0.0000 C   0  0  0  0  0  0
    0.7500    1.2990    0.0000 C   0  0  0  0  0  0
    1.5000    2.5981    0.0000 C   0  0  0  0  0  0
    3.0000    2.5981    0.0000 C   0  0  0  0  0  0
    3.7500    3.8971    0.0000 C   0  0  0  0  0  0
    3.0000    5.1962    0.0000 O   0  0  0  0  0  0
    5.2500    3.8971    0.0000 O   0  0  0  0  0  0
   -0.7500    1.2990    0.0000 C   0  0  0  0  0  0
   -1.5000    0.0000    0.0000 C   0  0  0  0  0  0
   -0.7500   -1.2990    0.0000 C   0  0  0  0  0  0
   -1.5000   -2.5981    0.0000 F   0  0  0  0  0  0
    8.7718   -7.4616    0.0000 C   0  0  0  0  0  0
   10.1421   -8.0717    0.0000 C   0  0  0  0  0  0
   11.3556   -7.1900    0.0000 C   0  0  0  0  0  0
   11.1988   -5.6982    0.0000 C   0  0  0  0  0  0
    9.8285   -5.0881    0.0000 C   0  0  0  0  0  0
    8.6150   -5.9698    0.0000 C   0  0  0  0  0  0
  1  2  1  0  0  0
  2  3  1  0  0  0
  2  4  1  0  0  0
  4  5  1  0  0  0
  5  6  1  0  0  0
  6  7  2  0  0  0
  6  8  1  0  0  0
  8  9  1  0  0  0
  9 10  1  0  0  0
  9 13  1  6  0  0
 10 11  1  0  0  0
 10 12  1  0  0  0
 13 14  2  0  0  0
 13 15  1  0  0  0
 15 16  1  0  0  0
 15 19  1  0  0  0
 16 17  1  0  0  0
 17 18  1  0  0  0
 17 45  1  6  0  0
 18 19  1  0  0  0
 19 20  1  6  0  0
 20 21  2  0  0  0
 20 22  1  0  0  0
 22 23  1  0  0  0
 23 24  1  0  0  0
 23 28  1  6  0  0
 24 25  1  0  0  0
 25 26  1  0  0  0
 25 27  1  0  0  0
 28 29  2  0  0  0
 28 30  1  0  0  0
 30 31  1  0  0  0
 31 32  1  0  0  0
 32 33  1  0  0  0
 33 34  2  0  0  0
 33 43  1  0  0  0
 34 35  1  0  0  0
 35 36  1  0  0  0
 35 41  2  0  0  0
 36 37  2  0  0  0
 37 38  1  0  0  0
 38 39  2  0  0  0
 38 40  1  0  0  0
 41 42  1  0  0  0
 42 43  2  0  0  0
 43 44  1  0  0  0
 45 46  2  0  0  0
 45 50  1  0  0  0
 46 47  1  0  0  0
 47 48  2  0  0  0
 48 49  1  0  0  0
 49 50  2  0  0  0
M  END
> <s_m_entry_id>
6652

> <s_m_entry_name>
NS3-4A.193

> <CHEMBLID>
CHEMBL435498

> <s_m_Source_Path>
/home/liwei/Desktop/Machine/HCV/Active

> <s_m_Source_File>
NS3-4A.sdf

> <i_m_Source_File_Index>
193

$$$$
CHEMBL435648
                    3D
 Structure written by MMmdl.
 35 34  0  0  1  0            999 V2000
    9.9042   -5.8667    0.0000 C   0  0  0  0  0  0
    9.1875   -5.4542    0.0000 C   0  0  1  0  0  0
    7.7500   -5.4542    0.0000 C   0  0  0  0  0  0
    4.1542   -6.6917    0.0000 C   0  0  0  0  0  0
    5.5917   -5.8667    0.0000 C   0  0  0  0  0  0
    8.4667   -5.8667    0.0000 N   0  0  0  0  0  0
    6.3167   -5.4542    0.0000 N   0  0  0  0  0  0
    9.9042   -6.6917    0.0000 C   0  0  0  0  0  0
    9.1875   -4.6167    0.0000 C   0  0  0  0  0  0
    7.0292   -5.8667    0.0000 C   0  0  1  0  0  0
    4.1542   -5.8667    0.0000 N   0  0  0  0  0  0
    4.8792   -5.4542    0.0000 C   0  0  1  0  0  0
    4.1542   -3.3917    0.0000 C   0  0  0  0  0  0
    3.4500   -7.1042    0.0000 O   0  0  0  0  0  0
   10.6167   -5.4500    0.0000 O   0  0  0  0  0  0
    4.8750   -7.0917    0.0000 O   0  0  0  0  0  0
    7.7500   -4.6167    0.0000 O   0  0  0  0  0  0
    5.5917   -6.6917    0.0000 O   0  0  0  0  0  0
    9.9042   -4.2042    0.0000 C   0  0  0  0  0  0
   10.6167   -7.1000    0.0000 O   0  0  0  0  0  0
    7.0292   -6.6917    0.0000 C   0  0  0  0  0  0
    3.4375   -2.9792    0.0000 O   0  0  0  0  0  0
    3.4542   -7.9292    0.0000 C   0  0  0  0  0  0
    4.8792   -4.6292    0.0000 C   0  0  0  0  0  0
    4.1625   -4.2167    0.0000 C   0  0  0  0  0  0
    4.8667   -2.9667    0.0000 N   0  0  0  0  0  0
    9.1917   -7.1042    0.0000 O   0  0  0  0  0  0
    9.9042   -3.3792    0.0000 F   0  0  0  0  0  0
   10.6250   -4.6167    0.0000 F   0  0  0  0  0  0
    6.6167   -7.4042    0.0000 C   0  0  0  0  0  0
    4.1750   -8.3375    0.0000 C   0  0  0  0  0  0
    2.7417   -8.3500    0.0000 C   0  0  0  0  0  0
    3.4542   -8.7542    0.0000 C   0  0  0  0  0  0
    7.0250   -8.1167    0.0000 C   0  0  0  0  0  0
    5.7917   -7.3917    0.0000 C   0  0  0  0  0  0
  1  2  1  0  0  0
  1  8  1  0  0  0
  1 15  2  0  0  0
  2  6  1  0  0  0
  2  9  1  6  0  0
  3  6  1  0  0  0
  3 10  1  0  0  0
  3 17  2  0  0  0
  4 11  1  0  0  0
  4 14  1  0  0  0
  4 16  2  0  0  0
  5  7  1  0  0  0
  5 12  1  0  0  0
  5 18  2  0  0  0
  7 10  1  0  0  0
  8 20  2  0  0  0
  8 27  1  0  0  0
  9 19  1  0  0  0
 10 21  1  6  0  0
 11 12  1  0  0  0
 12 24  1  6  0  0
 13 25  1  0  0  0
 13 22  2  0  0  0
 13 26  1  0  0  0
 14 23  1  0  0  0
 19 28  1  0  0  0
 19 29  1  0  0  0
 21 30  1  0  0  0
 23 31  1  0  0  0
 23 32  1  0  0  0
 23 33  1  0  0  0
 24 25  1  0  0  0
 30 34  1  0  0  0
 30 35  1  0  0  0
M  END
> <s_m_entry_id>
6653

> <s_m_entry_name>
NS3-4A.194

> <CHEMBLID>
CHEMBL435648

> <s_m_Source_Path>
/home/liwei/Desktop/Machine/HCV/Active

> <s_m_Source_File>
NS3-4A.sdf

> <i_m_Source_File_Index>
194

> <MOLREGNO>
269060

> <MAX_PHASE>
0

> <MOLWEIGHT>
508.51

> <ALOGP>
0.6

> <PSA>
193.98

> <HBA>
8

> <HBD>
5

> <RO5>
1

> <RTB>
16

> <RO3>
N

> <ACD_MOST_APKA>
2.05

> <ACD_LOGP>
0.99

> <ACD_LOGD>
-2.75

> <AROMATIC_RINGS>
0

> <HEAVY_ATOMS>
35

> <QED_WEIGHTED>
0.19

> <HBA_LIPINSKI>
12

> <HBD_LIPINSKI>
6

> <NUM_LIPINSKI_RO5_VIOLATIONS>
2

> <MW_MONOISOTOPIC>
508.2345

> <MOLECULAR_SPECIES>
ACID

> <FULL_MOLFORMULA>
C21H34F2N4O8

$$$$
CHEMBL439014
                    3D
 Structure written by MMmdl.
 40 43  0  0  1  0            999 V2000
    2.2882   -7.9581    0.0000 C   0  0  0  0  0  0
    0.8393   -8.3463    0.0000 C   0  0  0  0  0  0
   -0.6096   -8.7345    0.0000 C   0  0  0  0  0  0
    1.2275   -9.7952    0.0000 C   0  0  0  0  0  0
    0.4511   -6.8974    0.0000 O   0  0  0  0  0  0
   -0.9978   -6.5092    0.0000 C   0  0  0  0  0  0
   -2.0585   -7.5698    0.0000 O   0  0  0  0  0  0
   -1.3861   -5.0603    0.0000 N   0  0  0  0  0  0
   -2.8349   -4.6721    0.0000 C   0  0  1  0  0  0
   -3.8956   -5.7327    0.0000 C   0  0  0  0  0  0
   -5.3445   -5.3445    0.0000 C   0  0  0  0  0  0
   -6.4052   -6.4052    0.0000 C   0  0  0  0  0  0
   -6.0169   -7.8540    0.0000 C   0  0  0  0  0  0
   -4.5680   -8.2423    0.0000 C   0  0  0  0  0  0
   -3.5074   -7.1816    0.0000 C   0  0  0  0  0  0
   -3.2232   -3.2232    0.0000 C   0  0  0  0  0  0
   -4.6721   -2.8349    0.0000 O   0  0  0  0  0  0
   -2.1625   -2.1625    0.0000 N   0  0  0  0  0  0
   -0.6810   -2.3972    0.0000 C   0  0  0  0  0  0
   -0.0000   -1.0607    0.0000 C   0  0  2  0  0  0
    1.0607    0.0000    0.0000 O   0  0  0  0  0  0
    0.0000    1.0607    0.0000 C   0  0  0  0  0  0
   -1.0607    2.1213    0.0000 C   0  0  0  0  0  0
    1.0607    2.1213    0.0000 C   0  0  0  0  0  0
   -1.0607    0.0000    0.0000 C   0  0  2  0  0  0
   -2.3972   -0.6810    0.0000 C   0  0  1  0  0  0
   -3.7337    0.0000    0.0000 C   0  0  0  0  0  0
   -4.9917   -0.8170    0.0000 O   0  0  0  0  0  0
   -3.8122    1.4979    0.0000 N   0  0  0  0  0  0
   -5.1487    2.1789    0.0000 C   0  0  3  0  0  0
   -5.2272    3.6769    0.0000 C   0  0  0  0  0  0
   -3.9692    4.4938    0.0000 C   0  0  0  0  0  0
   -3.6573    5.9611    0.0000 C   0  0  0  0  0  0
   -2.1901    5.6492    0.0000 C   0  0  0  0  0  0
   -2.5020    4.1820    0.0000 C   0  0  0  0  0  0
   -6.4067    1.3620    0.0000 C   0  0  0  0  0  0
   -6.3282   -0.1360    0.0000 O   0  0  0  0  0  0
   -7.7432    2.0430    0.0000 C   0  0  0  0  0  0
   -9.0012    1.2260    0.0000 O   0  0  0  0  0  0
   -7.8217    3.5409    0.0000 N   0  0  0  0  0  0
  1  2  1  0  0  0
  2  3  1  0  0  0
  2  4  1  0  0  0
  2  5  1  0  0  0
  5  6  1  0  0  0
  6  7  2  0  0  0
  6  8  1  0  0  0
  8  9  1  0  0  0
  9 10  1  0  0  0
  9 16  1  6  0  0
 10 11  1  0  0  0
 10 15  1  0  0  0
 11 12  1  0  0  0
 12 13  1  0  0  0
 13 14  1  0  0  0
 14 15  1  0  0  0
 16 17  2  0  0  0
 16 18  1  0  0  0
 18 19  1  0  0  0
 18 26  1  0  0  0
 19 20  1  0  0  0
 20 21  1  0  0  0
 20 25  1  6  0  0
 21 22  1  0  0  0
 22 23  1  0  0  0
 22 24  1  0  0  0
 22 25  1  0  0  0
 25 26  1  6  0  0
 26 27  1  6  0  0
 27 28  2  0  0  0
 27 29  1  0  0  0
 29 30  1  0  0  0
 30 31  1  0  0  0
 30 36  1  0  0  0
 31 32  1  0  0  0
 32 33  1  0  0  0
 32 35  1  0  0  0
 33 34  1  0  0  0
 34 35  1  0  0  0
 36 37  2  0  0  0
 36 38  1  0  0  0
 38 39  2  0  0  0
 38 40  1  0  0  0
M  END
> <s_m_entry_id>
6654

> <s_m_entry_name>
NS3-4A.195

> <CHEMBLID>
CHEMBL439014

> <s_m_Source_Path>
/home/liwei/Desktop/Machine/HCV/Active

> <s_m_Source_File>
NS3-4A.sdf

> <i_m_Source_File_Index>
195

$$$$
CHEMBL444014
                    3D
 Structure written by MMmdl.
 35 38  0  0  1  0            999 V2000
   -2.6401   -3.1891    0.0000 C   0  0  0  0  0  0
   -1.2135   -2.7256    0.0000 N   0  0  0  0  0  0
   -0.0000   -3.6073    0.0000 C   0  0  0  0  0  0
    1.2135   -2.7256    0.0000 N   0  0  0  0  0  0
    0.7500   -1.2990    0.0000 C   0  0  0  0  0  0
    1.5000    0.0000    0.0000 C   0  0  0  0  0  0
    0.7500    1.2990    0.0000 C   0  0  0  0  0  0
   -0.7500    1.2990    0.0000 C   0  0  0  0  0  0
   -1.5000    0.0000    0.0000 C   0  0  0  0  0  0
   -0.7500   -1.2990    0.0000 C   0  0  0  0  0  0
   -1.5000    2.5981    0.0000 C   0  0  0  0  0  0
   -3.0000    2.5981    0.0000 O   0  0  0  0  0  0
   -0.7500    3.8971    0.0000 N   0  0  0  0  0  0
   -1.5000    5.1962    0.0000 C   0  0  3  0  0  0
   -0.7500    6.4952    0.0000 C   0  0  0  0  0  0
   -1.5000    7.7942    0.0000 P   0  0  0  0  0  0
   -2.2500    9.0933    0.0000 O   0  0  0  0  0  0
   -0.2010    8.5442    0.0000 O   0  0  0  0  0  0
   -2.7990    7.0442    0.0000 O   0  0  0  0  0  0
   -3.0000    5.1962    0.0000 C   0  0  0  0  0  0
   -3.7500    6.4952    0.0000 O   0  0  0  0  0  0
   -3.7500    3.8971    0.0000 O   0  0  0  0  0  0
   -0.0000   -5.1073    0.0000 C   0  0  0  0  0  0
   -1.5000   -5.1073    0.0000 F   0  0  0  0  0  0
    1.5000   -5.1073    0.0000 F   0  0  0  0  0  0
   -0.0000   -6.6073    0.0000 C   0  0  0  0  0  0
   -1.2135   -7.4890    0.0000 N   0  0  0  0  0  0
   -0.7500   -8.9156    0.0000 C   0  0  0  0  0  0
   -1.5000  -10.2146    0.0000 C   0  0  0  0  0  0
   -0.7500  -11.5136    0.0000 C   0  0  0  0  0  0
   -1.5000  -12.8127    0.0000 F   0  0  0  0  0  0
    0.7500  -11.5136    0.0000 C   0  0  0  0  0  0
    1.5000  -10.2146    0.0000 C   0  0  0  0  0  0
    0.7500   -8.9156    0.0000 C   0  0  0  0  0  0
    1.2135   -7.4890    0.0000 N   0  0  0  0  0  0
  1  2  1  0  0  0
  2  3  1  0  0  0
  2 10  1  0  0  0
  3  4  2  0  0  0
  3 23  1  0  0  0
  4  5  1  0  0  0
  5  6  2  0  0  0
  5 10  1  0  0  0
  6  7  1  0  0  0
  7  8  2  0  0  0
  8  9  1  0  0  0
  8 11  1  0  0  0
  9 10  2  0  0  0
 11 12  2  0  0  0
 11 13  1  0  0  0
 13 14  1  0  0  0
 14 15  1  0  0  0
 14 20  1  0  0  0
 15 16  1  0  0  0
 16 17  2  0  0  0
 16 18  1  0  0  0
 16 19  1  0  0  0
 20 21  2  0  0  0
 20 22  1  0  0  0
 23 24  1  0  0  0
 23 25  1  0  0  0
 23 26  1  0  0  0
 26 27  2  0  0  0
 26 35  1  0  0  0
 27 28  1  0  0  0
 28 29  2  0  0  0
 28 34  1  0  0  0
 29 30  1  0  0  0
 30 31  1  0  0  0
 30 32  2  0  0  0
 32 33  1  0  0  0
 33 34  2  0  0  0
 34 35  1  0  0  0
M  END
> <s_m_entry_id>
6655

> <s_m_entry_name>
NS3-4A.196

> <CHEMBLID>
CHEMBL444014

> <s_m_Source_Path>
/home/liwei/Desktop/Machine/HCV/Active

> <s_m_Source_File>
NS3-4A.sdf

> <i_m_Source_File_Index>
196

$$$$
CHEMBL444346
                    3D
 Structure written by MMmdl.
 37 37  0  0  1  0            999 V2000
    8.9917   -0.6667    0.0000 C   0  0  0  0  0  0
    4.7167   -0.6792    0.0000 C   0  0  0  0  0  0
    8.2792   -0.2542    0.0000 C   0  0  1  0  0  0
    6.8542   -0.2625    0.0000 C   0  0  0  0  0  0
    7.5667   -0.6667    0.0000 N   0  0  0  0  0  0
    5.4292   -0.2667    0.0000 N   0  0  0  0  0  0
    2.5792   -0.2750    0.0000 C   0  0  0  0  0  0
    9.7042   -0.2542    0.0000 C   0  0  0  0  0  0
    8.2792    0.5708    0.0000 C   0  0  0  0  0  0
    4.0042   -0.2667    0.0000 C   0  0  1  0  0  0
    6.1417   -0.6750    0.0000 C   0  0  1  0  0  0
    3.2917   -0.6792    0.0000 N   0  0  0  0  0  0
    8.9917   -1.4917    0.0000 O   0  0  0  0  0  0
    4.7167   -1.5042    0.0000 O   0  0  0  0  0  0
    6.8542    0.5625    0.0000 O   0  0  0  0  0  0
    8.8542    1.1583    0.0000 C   0  0  0  0  0  0
    2.5792    0.5500    0.0000 O   0  0  0  0  0  0
    9.7042    0.5708    0.0000 O   0  0  0  0  0  0
    1.8667   -0.6875    0.0000 O   0  0  0  0  0  0
    6.1417   -1.5000    0.0000 C   0  0  0  0  0  0
    4.0042    0.5583    0.0000 C   0  0  2  0  0  0
   10.4167   -0.6625    0.0000 O   0  0  0  0  0  0
    9.6792    1.1583    0.0000 F   0  0  0  0  0  0
    8.6417    1.9583    0.0000 F   0  0  0  0  0  0
    1.1542   -0.2792    0.0000 C   0  0  0  0  0  0
    0.4417   -0.6917    0.0000 C   0  0  0  0  0  0
    6.5542   -2.2042    0.0000 C   0  0  0  0  0  0
    3.2917    0.9833    0.0000 C   0  0  0  0  0  0
    4.7292    0.9458    0.0000 C   0  0  0  0  0  0
   -0.2708   -0.2792    0.0000 C   0  0  0  0  0  0
    0.4417   -1.5042    0.0000 C   0  0  0  0  0  0
    6.1417   -2.9125    0.0000 C   0  0  0  0  0  0
    7.3667   -2.2042    0.0000 C   0  0  0  0  0  0
    3.3167    1.8083    0.0000 C   0  0  0  0  0  0
   -0.2583   -1.9167    0.0000 C   0  0  0  0  0  0
   -0.9833   -0.6917    0.0000 C   0  0  0  0  0  0
   -0.9708   -1.5042    0.0000 C   0  0  0  0  0  0
  1  3  1  0  0  0
  1  8  1  0  0  0
  1 13  2  0  0  0
  2  6  1  0  0  0
  2 10  1  0  0  0
  2 14  2  0  0  0
  3  5  1  0  0  0
  3  9  1  6  0  0
  4  5  1  0  0  0
  4 11  1  0  0  0
  4 15  2  0  0  0
  6 11  1  0  0  0
  7 12  1  0  0  0
  7 17  2  0  0  0
  7 19  1  0  0  0
  8 18  2  0  0  0
  8 22  1  0  0  0
  9 16  1  0  0  0
 10 12  1  0  0  0
 10 21  1  6  0  0
 11 20  1  6  0  0
 16 23  1  0  0  0
 16 24  1  0  0  0
 19 25  1  0  0  0
 20 27  1  0  0  0
 21 28  1  0  0  0
 21 29  1  1  0  0
 25 26  1  0  0  0
 26 30  2  0  0  0
 26 31  1  0  0  0
 27 32  1  0  0  0
 27 33  1  0  0  0
 28 34  1  0  0  0
 30 36  1  0  0  0
 31 35  2  0  0  0
 35 37  1  0  0  0
 36 37  2  0  0  0
M  END
> <s_m_entry_id>
6656

> <s_m_entry_name>
NS3-4A.197

> <CHEMBLID>
CHEMBL444346

> <s_m_Source_Path>
/home/liwei/Desktop/Machine/HCV/Active

> <s_m_Source_File>
NS3-4A.sdf

> <i_m_Source_File_Index>
197

> <MOLREGNO>
268794

> <MAX_PHASE>
0

> <MOLWEIGHT>
527.56

> <ALOGP>
3.48

> <PSA>
150.89

> <HBA>
7

> <HBD>
4

> <RO5>
1

> <RTB>
16

> <RO3>
N

> <ACD_MOST_APKA>
2.05

> <ACD_LOGP>
3.83

> <ACD_LOGD>
0.09

> <AROMATIC_RINGS>
1

> <HEAVY_ATOMS>
37

> <QED_WEIGHTED>
0.24

> <HBA_LIPINSKI>
10

> <HBD_LIPINSKI>
4

> <NUM_LIPINSKI_RO5_VIOLATIONS>
0

> <MW_MONOISOTOPIC>
527.2443

> <MOLECULAR_SPECIES>
ACID

> <FULL_MOLFORMULA>
C25H35F2N3O7

$$$$
CHEMBL444708
                    3D
 Structure written by MMmdl.
 52 58  0  0  1  0            999 V2000
   -8.0962  -14.4839    0.0000 C   0  0  0  0  0  0
   -6.7259  -13.8738    0.0000 O   0  0  0  0  0  0
   -6.5691  -12.3820    0.0000 C   0  0  0  0  0  0
   -5.1988  -11.7719    0.0000 C   0  0  0  0  0  0
   -5.0420  -10.2801    0.0000 C   0  0  0  0  0  0
   -6.2555   -9.3984    0.0000 C   0  0  0  0  0  0
   -6.0987   -7.9066    0.0000 C   0  0  0  0  0  0
   -4.7284   -7.2965    0.0000 O   0  0  0  0  0  0
   -4.5716   -5.8048    0.0000 C   0  0  2  0  0  0
   -3.2726   -5.0548    0.0000 C   0  0  0  0  0  0
   -3.5844   -3.5875    0.0000 C   0  0  2  0  0  0
   -5.0762   -3.4307    0.0000 N   0  0  0  0  0  0
   -5.6863   -4.8011    0.0000 C   0  0  0  0  0  0
   -6.3752   -2.6807    0.0000 C   0  0  0  0  0  0
   -7.3789   -3.7955    0.0000 O   0  0  0  0  0  0
   -7.2569   -1.4672    0.0000 N   0  0  0  0  0  0
   -7.5688    0.0000    0.0000 C   0  0  0  0  0  0
   -7.2569    1.4672    0.0000 C   0  0  0  0  0  0
   -6.3752    2.6807    0.0000 C   0  0  0  0  0  0
   -5.0762    3.4307    0.0000 C   0  0  0  0  0  0
   -3.5844    3.5875    0.0000 C   0  0  0  0  0  0
   -2.1578    3.1240    0.0000 C   0  0  0  0  0  0
   -1.0431    2.1203    0.0000 C   0  0  0  0  0  0
   -0.4330    0.7500    0.0000 C   0  0  2  0  0  0
    0.8660    0.0000    0.0000 C   0  0  0  0  0  0
   -0.4330   -0.7500    0.0000 C   0  0  1  0  0  0
   -1.0431   -2.1203    0.0000 N   0  0  0  0  0  0
   -2.1578   -3.1240    0.0000 C   0  0  0  0  0  0
   -1.4078   -4.4231    0.0000 O   0  0  0  0  0  0
    0.6817   -1.7537    0.0000 C   0  0  0  0  0  0
    0.3698   -3.2209    0.0000 O   0  0  0  0  0  0
    2.1083   -1.2902    0.0000 N   0  0  0  0  0  0
    3.2230   -2.2939    0.0000 S   0  0  0  0  0  0
    2.2193   -3.4086    0.0000 O   0  0  0  0  0  0
    4.2267   -1.1791    0.0000 O   0  0  0  0  0  0
    4.3377   -3.2976    0.0000 C   0  0  0  0  0  0
    5.8049   -3.6094    0.0000 C   0  0  0  0  0  0
    4.8012   -4.7241    0.0000 C   0  0  0  0  0  0
   -7.3122   -7.0250    0.0000 C   0  0  0  0  0  0
   -8.6825   -7.6351    0.0000 C   0  0  0  0  0  0
   -8.8393   -9.1269    0.0000 N   0  0  0  0  0  0
   -7.6258  -10.0085    0.0000 C   0  0  0  0  0  0
   -7.7826  -11.5003    0.0000 C   0  0  0  0  0  0
   -9.1529  -12.1104    0.0000 Cl  0  0  0  0  0  0
   -9.8961   -6.7534    0.0000 C   0  0  0  0  0  0
  -11.3227   -7.2169    0.0000 N   0  0  0  0  0  0
  -12.2043   -6.0034    0.0000 C   0  0  0  0  0  0
  -11.3227   -4.7899    0.0000 C   0  0  0  0  0  0
   -9.8961   -5.2534    0.0000 S   0  0  0  0  0  0
  -13.7043   -6.0034    0.0000 C   0  0  0  0  0  0
  -14.4543   -4.7044    0.0000 C   0  0  0  0  0  0
  -14.4543   -7.3024    0.0000 C   0  0  0  0  0  0
  1  2  1  0  0  0
  2  3  1  0  0  0
  3  4  2  0  0  0
  3 43  1  0  0  0
  4  5  1  0  0  0
  5  6  2  0  0  0
  6  7  1  0  0  0
  6 42  1  0  0  0
  7  8  1  0  0  0
  7 39  2  0  0  0
  8  9  1  0  0  0
  9 10  1  0  0  0
  9 13  1  6  0  0
 10 11  1  0  0  0
 11 12  1  0  0  0
 11 28  1  1  0  0
 12 13  1  0  0  0
 12 14  1  0  0  0
 14 15  2  0  0  0
 14 16  1  0  0  0
 16 17  1  0  0  0
 17 18  1  0  0  0
 18 19  1  0  0  0
 19 20  1  0  0  0
 20 21  1  0  0  0
 21 22  1  0  0  0
 22 23  2  0  0  0
 23 24  1  0  0  0
 24 25  1  0  0  0
 24 26  1  1  0  0
 25 26  1  0  0  0
 26 27  1  0  0  0
 26 30  1  6  0  0
 27 28  1  0  0  0
 28 29  2  0  0  0
 30 31  2  0  0  0
 30 32  1  0  0  0
 32 33  1  0  0  0
 33 34  2  0  0  0
 33 35  2  0  0  0
 33 36  1  0  0  0
 36 37  1  0  0  0
 36 38  1  0  0  0
 37 38  1  0  0  0
 39 40  1  0  0  0
 40 41  2  0  0  0
 40 45  1  0  0  0
 41 42  1  0  0  0
 42 43  2  0  0  0
 43 44  1  0  0  0
 45 46  2  0  0  0
 45 49  1  0  0  0
 46 47  1  0  0  0
 47 48  2  0  0  0
 47 50  1  0  0  0
 48 49  1  0  0  0
 50 51  1  0  0  0
 50 52  1  0  0  0
M  END
> <s_m_entry_id>
6657

> <s_m_entry_name>
NS3-4A.198

> <CHEMBLID>
CHEMBL444708

> <s_m_Source_Path>
/home/liwei/Desktop/Machine/HCV/Active

> <s_m_Source_File>
NS3-4A.sdf

> <i_m_Source_File_Index>
198

$$$$
CHEMBL446617
                    3D
 Structure written by MMmdl.
 49 52  0  0  1  0            999 V2000
   -8.4613  -13.8089    0.0000 C   0  0  0  0  0  0
   -8.6181  -12.3171    0.0000 C   0  0  0  0  0  0
   -7.4046  -11.4354    0.0000 C   0  0  2  0  0  0
   -7.5613   -9.9436    0.0000 N   0  0  0  0  0  0
   -6.3478   -9.0619    0.0000 C   0  0  0  0  0  0
   -4.9775   -9.6721    0.0000 O   0  0  0  0  0  0
   -6.5046   -7.5702    0.0000 C   0  0  2  0  0  0
   -5.3899   -6.5665    0.0000 C   0  0  0  0  0  0
   -6.0000   -5.1962    0.0000 C   0  0  2  0  0  0
   -7.4918   -5.3529    0.0000 C   0  0  0  0  0  0
   -7.8037   -6.8202    0.0000 N   0  0  0  0  0  0
   -9.1740   -7.4303    0.0000 C   0  0  0  0  0  0
   -9.3308   -8.9221    0.0000 O   0  0  0  0  0  0
  -10.3875   -6.5486    0.0000 C   0  0  2  0  0  0
  -10.2307   -5.0568    0.0000 N   0  0  0  0  0  0
  -11.4442   -4.1751    0.0000 C   0  0  0  0  0  0
  -12.8145   -4.7852    0.0000 O   0  0  0  0  0  0
  -11.2874   -2.6834    0.0000 C   0  0  2  0  0  0
   -9.9171   -2.0732    0.0000 N   0  0  0  0  0  0
   -9.7603   -0.5815    0.0000 C   0  0  0  0  0  0
  -10.9738    0.3002    0.0000 O   0  0  0  0  0  0
   -8.3900    0.0286    0.0000 C   0  0  0  0  0  0
   -7.1765   -0.8530    0.0000 C   0  0  0  0  0  0
   -5.8062   -0.2429    0.0000 N   0  0  0  0  0  0
   -5.6494    1.2489    0.0000 C   0  0  0  0  0  0
   -6.8629    2.1305    0.0000 C   0  0  0  0  0  0
   -8.2332    1.5204    0.0000 N   0  0  0  0  0  0
  -12.5010   -1.8017    0.0000 C   0  0  0  0  0  0
  -12.3442   -0.3099    0.0000 C   0  0  0  0  0  0
  -13.8713   -2.4118    0.0000 C   0  0  0  0  0  0
  -11.7578   -7.1587    0.0000 C   0  0  0  0  0  0
  -12.9713   -6.2770    0.0000 C   0  0  0  0  0  0
  -11.9146   -8.6505    0.0000 C   0  0  0  0  0  0
   -5.2500   -3.8971    0.0000 O   0  0  0  0  0  0
   -3.7500   -3.8971    0.0000 C   0  0  0  0  0  0
   -3.0000   -5.1962    0.0000 O   0  0  0  0  0  0
   -3.0000   -2.5981    0.0000 N   0  0  0  0  0  0
   -1.5000   -2.5981    0.0000 C   0  0  0  0  0  0
   -0.7500   -3.8971    0.0000 C   0  0  0  0  0  0
    0.7500   -3.8971    0.0000 C   0  0  0  0  0  0
    1.5000   -2.5981    0.0000 C   0  0  0  0  0  0
    0.7500   -1.2990    0.0000 C   0  0  0  0  0  0
    1.5000    0.0000    0.0000 C   0  0  0  0  0  0
    0.7500    1.2990    0.0000 C   0  0  0  0  0  0
   -0.7500    1.2990    0.0000 C   0  0  0  0  0  0
   -1.5000    0.0000    0.0000 C   0  0  0  0  0  0
   -0.7500   -1.2990    0.0000 C   0  0  0  0  0  0
   -6.0342  -12.0455    0.0000 C   0  0  0  0  0  0
   -5.8774  -13.5373    0.0000 O   0  0  0  0  0  0
  1  2  1  0  0  0
  2  3  1  0  0  0
  3  4  1  0  0  0
  3 48  1  1  0  0
  4  5  1  0  0  0
  5  6  2  0  0  0
  5  7  1  0  0  0
  7  8  1  0  0  0
  7 11  1  1  0  0
  8  9  1  0  0  0
  9 10  1  0  0  0
  9 34  1  6  0  0
 10 11  1  0  0  0
 11 12  1  0  0  0
 12 13  2  0  0  0
 12 14  1  0  0  0
 14 15  1  0  0  0
 14 31  1  6  0  0
 15 16  1  0  0  0
 16 17  2  0  0  0
 16 18  1  0  0  0
 18 19  1  0  0  0
 18 28  1  6  0  0
 19 20  1  0  0  0
 20 21  2  0  0  0
 20 22  1  0  0  0
 22 23  2  0  0  0
 22 27  1  0  0  0
 23 24  1  0  0  0
 24 25  2  0  0  0
 25 26  1  0  0  0
 26 27  2  0  0  0
 28 29  1  0  0  0
 28 30  1  0  0  0
 31 32  1  0  0  0
 31 33  1  0  0  0
 34 35  1  0  0  0
 35 36  2  0  0  0
 35 37  1  0  0  0
 37 38  1  0  0  0
 38 39  2  0  0  0
 38 47  1  0  0  0
 39 40  1  0  0  0
 40 41  2  0  0  0
 41 42  1  0  0  0
 42 43  2  0  0  0
 42 47  1  0  0  0
 43 44  1  0  0  0
 44 45  2  0  0  0
 45 46  1  0  0  0
 46 47  2  0  0  0
 48 49  2  0  0  0
M  END
> <s_m_entry_id>
6658

> <s_m_entry_name>
NS3-4A.199

> <CHEMBLID>
CHEMBL446617

> <s_m_Source_Path>
/home/liwei/Desktop/Machine/HCV/Active

> <s_m_Source_File>
NS3-4A.sdf

> <i_m_Source_File_Index>
199

$$$$
CHEMBL449844
                    3D
 Structure written by MMmdl.
 48 54  0  0  1  0            999 V2000
   -9.4994  -13.6502    0.0000 C   0  0  0  0  0  0
   -8.0661  -13.2081    0.0000 O   0  0  0  0  0  0
   -7.7323  -11.7457    0.0000 C   0  0  0  0  0  0
   -6.2989  -11.3035    0.0000 C   0  0  0  0  0  0
   -5.9652   -9.8411    0.0000 C   0  0  0  0  0  0
   -7.0647   -8.8209    0.0000 C   0  0  0  0  0  0
   -6.7310   -7.3585    0.0000 C   0  0  0  0  0  0
   -5.2976   -6.9164    0.0000 O   0  0  0  0  0  0
   -4.9638   -5.4540    0.0000 C   0  0  2  0  0  0
   -3.5845   -4.8644    0.0000 C   0  0  0  0  0  0
   -3.7190   -3.3705    0.0000 C   0  0  2  0  0  0
   -5.1814   -3.0367    0.0000 N   0  0  0  0  0  0
   -5.9507   -4.3244    0.0000 C   0  0  0  0  0  0
   -6.3541   -2.1015    0.0000 C   0  0  0  0  0  0
   -7.5269   -3.0367    0.0000 O   0  0  0  0  0  0
   -7.0049   -0.7500    0.0000 O   0  0  0  0  0  0
   -7.0049    0.7500    0.0000 C   0  0  0  0  0  0
   -6.3541    2.1015    0.0000 C   0  0  0  0  0  0
   -5.1814    3.0367    0.0000 C   0  0  0  0  0  0
   -3.7190    3.3705    0.0000 C   0  0  0  0  0  0
   -2.2566    3.0367    0.0000 C   0  0  0  0  0  0
   -1.0838    2.1015    0.0000 C   0  0  0  0  0  0
   -0.4330    0.7500    0.0000 C   0  0  2  0  0  0
    0.8660    0.0000    0.0000 C   0  0  0  0  0  0
   -0.4330   -0.7500    0.0000 C   0  0  1  0  0  0
   -1.0838   -2.1015    0.0000 N   0  0  0  0  0  0
   -2.2566   -3.0367    0.0000 C   0  0  0  0  0  0
   -1.6058   -4.3881    0.0000 O   0  0  0  0  0  0
    0.6666   -1.7703    0.0000 C   0  0  0  0  0  0
    0.3328   -3.2327    0.0000 O   0  0  0  0  0  0
    2.0999   -1.3281    0.0000 N   0  0  0  0  0  0
    3.1995   -2.3484    0.0000 S   0  0  0  0  0  0
    2.1792   -3.4480    0.0000 O   0  0  0  0  0  0
    4.2198   -1.2488    0.0000 O   0  0  0  0  0  0
    4.2991   -3.3686    0.0000 C   0  0  0  0  0  0
    5.7615   -3.7024    0.0000 C   0  0  0  0  0  0
    4.7412   -4.8020    0.0000 C   0  0  0  0  0  0
   -7.8305   -6.3382    0.0000 C   0  0  0  0  0  0
   -9.2639   -6.7804    0.0000 C   0  0  0  0  0  0
   -9.5977   -8.2428    0.0000 N   0  0  0  0  0  0
   -8.4981   -9.2630    0.0000 C   0  0  0  0  0  0
   -8.8319  -10.7254    0.0000 C   0  0  0  0  0  0
  -10.3635   -5.7601    0.0000 C   0  0  0  0  0  0
  -10.0297   -4.2977    0.0000 C   0  0  0  0  0  0
  -11.1293   -3.2775    0.0000 C   0  0  0  0  0  0
  -12.5626   -3.7196    0.0000 C   0  0  0  0  0  0
  -12.8964   -5.1820    0.0000 C   0  0  0  0  0  0
  -11.7968   -6.2022    0.0000 C   0  0  0  0  0  0
  1  2  1  0  0  0
  2  3  1  0  0  0
  3  4  2  0  0  0
  3 42  1  0  0  0
  4  5  1  0  0  0
  5  6  2  0  0  0
  6  7  1  0  0  0
  6 41  1  0  0  0
  7  8  1  0  0  0
  7 38  2  0  0  0
  8  9  1  0  0  0
  9 10  1  0  0  0
  9 13  1  6  0  0
 10 11  1  0  0  0
 11 12  1  0  0  0
 11 27  1  1  0  0
 12 13  1  0  0  0
 12 14  1  0  0  0
 14 15  2  0  0  0
 14 16  1  0  0  0
 16 17  1  0  0  0
 17 18  1  0  0  0
 18 19  1  0  0  0
 19 20  1  0  0  0
 20 21  1  0  0  0
 21 22  2  0  0  0
 22 23  1  0  0  0
 23 24  1  0  0  0
 23 25  1  1  0  0
 24 25  1  0  0  0
 25 26  1  0  0  0
 25 29  1  6  0  0
 26 27  1  0  0  0
 27 28  2  0  0  0
 29 30  2  0  0  0
 29 31  1  0  0  0
 31 32  1  0  0  0
 32 33  2  0  0  0
 32 34  2  0  0  0
 32 35  1  0  0  0
 35 36  1  0  0  0
 35 37  1  0  0  0
 36 37  1  0  0  0
 38 39  1  0  0  0
 39 40  2  0  0  0
 39 43  1  0  0  0
 40 41  1  0  0  0
 41 42  2  0  0  0
 43 44  2  0  0  0
 43 48  1  0  0  0
 44 45  1  0  0  0
 45 46  2  0  0  0
 46 47  1  0  0  0
 47 48  2  0  0  0
M  END
> <s_m_entry_id>
6659

> <s_m_entry_name>
NS3-4A.200

> <CHEMBLID>
CHEMBL449844

> <s_m_Source_Path>
/home/liwei/Desktop/Machine/HCV/Active

> <s_m_Source_File>
NS3-4A.sdf

> <i_m_Source_File_Index>
200

$$$$
CHEMBL489267
                    3D
 Structure written by MMmdl.
 53 59  0  0  1  0            999 V2000
   -8.0962  -14.4839    0.0000 C   0  0  0  0  0  0
   -6.7259  -13.8738    0.0000 O   0  0  0  0  0  0
   -6.5691  -12.3820    0.0000 C   0  0  0  0  0  0
   -5.1988  -11.7719    0.0000 C   0  0  0  0  0  0
   -5.0420  -10.2801    0.0000 C   0  0  0  0  0  0
   -6.2555   -9.3984    0.0000 C   0  0  0  0  0  0
   -6.0987   -7.9066    0.0000 C   0  0  0  0  0  0
   -4.7284   -7.2965    0.0000 O   0  0  0  0  0  0
   -4.5716   -5.8048    0.0000 C   0  0  2  0  0  0
   -3.2726   -5.0548    0.0000 C   0  0  0  0  0  0
   -3.5844   -3.5875    0.0000 C   0  0  2  0  0  0
   -5.0762   -3.4307    0.0000 N   0  0  0  0  0  0
   -5.6863   -4.8011    0.0000 C   0  0  0  0  0  0
   -6.3752   -2.6807    0.0000 C   0  0  0  0  0  0
   -7.3789   -3.7955    0.0000 O   0  0  0  0  0  0
   -7.2569   -1.4672    0.0000 N   0  0  0  0  0  0
   -7.5688    0.0000    0.0000 C   0  0  0  0  0  0
   -7.2569    1.4672    0.0000 C   0  0  0  0  0  0
   -6.3752    2.6807    0.0000 C   0  0  0  0  0  0
   -5.0762    3.4307    0.0000 C   0  0  0  0  0  0
   -3.5844    3.5875    0.0000 C   0  0  0  0  0  0
   -2.1578    3.1240    0.0000 C   0  0  0  0  0  0
   -1.0431    2.1203    0.0000 C   0  0  0  0  0  0
   -0.4330    0.7500    0.0000 C   0  0  2  0  0  0
    0.8660    0.0000    0.0000 C   0  0  0  0  0  0
   -0.4330   -0.7500    0.0000 C   0  0  1  0  0  0
   -1.0431   -2.1203    0.0000 N   0  0  0  0  0  0
   -2.1578   -3.1240    0.0000 C   0  0  0  0  0  0
   -1.4078   -4.4231    0.0000 O   0  0  0  0  0  0
    0.6817   -1.7537    0.0000 C   0  0  0  0  0  0
    0.3698   -3.2209    0.0000 O   0  0  0  0  0  0
    2.1083   -1.2902    0.0000 N   0  0  0  0  0  0
    3.2230   -2.2939    0.0000 S   0  0  0  0  0  0
    2.2193   -3.4086    0.0000 O   0  0  0  0  0  0
    4.2267   -1.1791    0.0000 O   0  0  0  0  0  0
    4.3377   -3.2976    0.0000 C   0  0  0  0  0  0
    3.5428   -4.5696    0.0000 C   0  0  0  0  0  0
    5.7285   -3.8595    0.0000 C   0  0  0  0  0  0
    5.5197   -2.3741    0.0000 C   0  0  0  0  0  0
   -7.3122   -7.0250    0.0000 C   0  0  0  0  0  0
   -8.6825   -7.6351    0.0000 C   0  0  0  0  0  0
   -8.8393   -9.1269    0.0000 N   0  0  0  0  0  0
   -7.6258  -10.0085    0.0000 C   0  0  0  0  0  0
   -7.7826  -11.5003    0.0000 C   0  0  0  0  0  0
   -9.1529  -12.1104    0.0000 Cl  0  0  0  0  0  0
   -9.8961   -6.7534    0.0000 C   0  0  0  0  0  0
  -11.3227   -7.2169    0.0000 N   0  0  0  0  0  0
  -12.2043   -6.0034    0.0000 C   0  0  0  0  0  0
  -11.3227   -4.7899    0.0000 C   0  0  0  0  0  0
   -9.8961   -5.2534    0.0000 S   0  0  0  0  0  0
  -13.7043   -6.0034    0.0000 C   0  0  0  0  0  0
  -14.4543   -4.7044    0.0000 C   0  0  0  0  0  0
  -14.4543   -7.3024    0.0000 C   0  0  0  0  0  0
  1  2  1  0  0  0
  2  3  1  0  0  0
  3  4  2  0  0  0
  3 44  1  0  0  0
  4  5  1  0  0  0
  5  6  2  0  0  0
  6  7  1  0  0  0
  6 43  1  0  0  0
  7  8  1  0  0  0
  7 40  2  0  0  0
  8  9  1  0  0  0
  9 10  1  0  0  0
  9 13  1  6  0  0
 10 11  1  0  0  0
 11 12  1  0  0  0
 11 28  1  1  0  0
 12 13  1  0  0  0
 12 14  1  0  0  0
 14 15  2  0  0  0
 14 16  1  0  0  0
 16 17  1  0  0  0
 17 18  1  0  0  0
 18 19  1  0  0  0
 19 20  1  0  0  0
 20 21  1  0  0  0
 21 22  1  0  0  0
 22 23  2  0  0  0
 23 24  1  0  0  0
 24 25  1  0  0  0
 24 26  1  1  0  0
 25 26  1  0  0  0
 26 27  1  0  0  0
 26 30  1  6  0  0
 27 28  1  0  0  0
 28 29  2  0  0  0
 30 31  2  0  0  0
 30 32  1  0  0  0
 32 33  1  0  0  0
 33 34  2  0  0  0
 33 35  2  0  0  0
 33 36  1  0  0  0
 36 37  1  0  0  0
 36 38  1  0  0  0
 36 39  1  0  0  0
 38 39  1  0  0  0
 40 41  1  0  0  0
 41 42  2  0  0  0
 41 46  1  0  0  0
 42 43  1  0  0  0
 43 44  2  0  0  0
 44 45  1  0  0  0
 46 47  2  0  0  0
 46 50  1  0  0  0
 47 48  1  0  0  0
 48 49  2  0  0  0
 48 51  1  0  0  0
 49 50  1  0  0  0
 51 52  1  0  0  0
 51 53  1  0  0  0
M  END
> <s_m_entry_id>
6660

> <s_m_entry_name>
NS3-4A.201

> <CHEMBLID>
CHEMBL489267

> <s_m_Source_Path>
/home/liwei/Desktop/Machine/HCV/Active

> <s_m_Source_File>
NS3-4A.sdf

> <i_m_Source_File_Index>
201

$$$$
CHEMBL502719
                    3D
 Structure written by MMmdl.
 52 58  0  0  1  0            999 V2000
   -9.4994  -13.6502    0.0000 C   0  0  0  0  0  0
   -8.0661  -13.2081    0.0000 O   0  0  0  0  0  0
   -7.7323  -11.7457    0.0000 C   0  0  0  0  0  0
   -6.2989  -11.3035    0.0000 C   0  0  0  0  0  0
   -5.9652   -9.8411    0.0000 C   0  0  0  0  0  0
   -7.0647   -8.8209    0.0000 C   0  0  0  0  0  0
   -6.7310   -7.3585    0.0000 C   0  0  0  0  0  0
   -5.2976   -6.9164    0.0000 O   0  0  0  0  0  0
   -4.9638   -5.4540    0.0000 C   0  0  2  0  0  0
   -3.5845   -4.8644    0.0000 C   0  0  0  0  0  0
   -3.7190   -3.3705    0.0000 C   0  0  2  0  0  0
   -5.1814   -3.0367    0.0000 C   0  0  1  0  0  0
   -5.9507   -4.3244    0.0000 C   0  0  0  0  0  0
   -6.3541   -2.1015    0.0000 C   0  0  0  0  0  0
   -7.5269   -3.0367    0.0000 O   0  0  0  0  0  0
   -7.0049   -0.7500    0.0000 N   0  0  0  0  0  0
   -8.4673   -1.0838    0.0000 C   0  0  0  0  0  0
   -7.0049    0.7500    0.0000 C   0  0  0  0  0  0
   -6.3541    2.1015    0.0000 C   0  0  0  0  0  0
   -5.1814    3.0367    0.0000 C   0  0  0  0  0  0
   -3.7190    3.3705    0.0000 C   0  0  0  0  0  0
   -2.2566    3.0367    0.0000 C   0  0  0  0  0  0
   -1.0838    2.1015    0.0000 C   0  0  0  0  0  0
   -0.4330    0.7500    0.0000 C   0  0  2  0  0  0
    0.8660    0.0000    0.0000 C   0  0  0  0  0  0
   -0.4330   -0.7500    0.0000 C   0  0  1  0  0  0
   -1.0838   -2.1015    0.0000 N   0  0  0  0  0  0
   -2.2566   -3.0367    0.0000 C   0  0  0  0  0  0
   -1.6058   -4.3881    0.0000 O   0  0  0  0  0  0
    0.6666   -1.7703    0.0000 C   0  0  0  0  0  0
    0.3328   -3.2327    0.0000 O   0  0  0  0  0  0
    2.0999   -1.3281    0.0000 N   0  0  0  0  0  0
    3.1995   -2.3484    0.0000 S   0  0  0  0  0  0
    2.1792   -3.4480    0.0000 O   0  0  0  0  0  0
    4.2198   -1.2488    0.0000 O   0  0  0  0  0  0
    4.2991   -3.3686    0.0000 C   0  0  0  0  0  0
    5.7615   -3.7024    0.0000 C   0  0  0  0  0  0
    4.7412   -4.8020    0.0000 C   0  0  0  0  0  0
   -7.8305   -6.3382    0.0000 C   0  0  0  0  0  0
   -9.2639   -6.7804    0.0000 C   0  0  0  0  0  0
   -9.5977   -8.2428    0.0000 N   0  0  0  0  0  0
   -8.4981   -9.2630    0.0000 C   0  0  0  0  0  0
   -8.8319  -10.7254    0.0000 C   0  0  0  0  0  0
  -10.2652  -11.1675    0.0000 Cl  0  0  0  0  0  0
  -10.3635   -5.7601    0.0000 C   0  0  0  0  0  0
  -11.8352   -6.0500    0.0000 N   0  0  0  0  0  0
  -12.5657   -4.7399    0.0000 C   0  0  0  0  0  0
  -11.5454   -3.6403    0.0000 C   0  0  0  0  0  0
  -10.1844   -4.2708    0.0000 S   0  0  0  0  0  0
  -14.0549   -4.5608    0.0000 C   0  0  0  0  0  0
  -14.6445   -3.1815    0.0000 C   0  0  0  0  0  0
  -14.9547   -5.7610    0.0000 C   0  0  0  0  0  0
  1  2  1  0  0  0
  2  3  1  0  0  0
  3  4  2  0  0  0
  3 43  1  0  0  0
  4  5  1  0  0  0
  5  6  2  0  0  0
  6  7  1  0  0  0
  6 42  1  0  0  0
  7  8  1  0  0  0
  7 39  2  0  0  0
  8  9  1  0  0  0
  9 10  1  0  0  0
  9 13  1  6  0  0
 10 11  1  0  0  0
 11 12  1  0  0  0
 11 28  1  6  0  0
 12 13  1  0  0  0
 12 14  1  1  0  0
 14 15  2  0  0  0
 14 16  1  0  0  0
 16 17  1  0  0  0
 16 18  1  0  0  0
 18 19  1  0  0  0
 19 20  1  0  0  0
 20 21  1  0  0  0
 21 22  1  0  0  0
 22 23  2  0  0  0
 23 24  1  0  0  0
 24 25  1  0  0  0
 24 26  1  1  0  0
 25 26  1  0  0  0
 26 27  1  0  0  0
 26 30  1  6  0  0
 27 28  1  0  0  0
 28 29  2  0  0  0
 30 31  2  0  0  0
 30 32  1  0  0  0
 32 33  1  0  0  0
 33 34  2  0  0  0
 33 35  2  0  0  0
 33 36  1  0  0  0
 36 37  1  0  0  0
 36 38  1  0  0  0
 37 38  1  0  0  0
 39 40  1  0  0  0
 40 41  2  0  0  0
 40 45  1  0  0  0
 41 42  1  0  0  0
 42 43  2  0  0  0
 43 44  1  0  0  0
 45 46  2  0  0  0
 45 49  1  0  0  0
 46 47  1  0  0  0
 47 48  2  0  0  0
 47 50  1  0  0  0
 48 49  1  0  0  0
 50 51  1  0  0  0
 50 52  1  0  0  0
M  END
> <s_m_entry_id>
6662

> <s_m_entry_name>
NS3-4A.203

> <CHEMBLID>
CHEMBL502719

> <s_m_Source_Path>
/home/liwei/Desktop/Machine/HCV/Active

> <s_m_Source_File>
NS3-4A.sdf

> <i_m_Source_File_Index>
203

$$$$
CHEMBL503785
                    3D
 Structure written by MMmdl.
 49 55  0  0  1  0            999 V2000
   -8.0962  -14.4839    0.0000 C   0  0  0  0  0  0
   -6.7259  -13.8738    0.0000 O   0  0  0  0  0  0
   -6.5691  -12.3820    0.0000 C   0  0  0  0  0  0
   -5.1988  -11.7719    0.0000 C   0  0  0  0  0  0
   -5.0420  -10.2801    0.0000 C   0  0  0  0  0  0
   -6.2555   -9.3984    0.0000 C   0  0  0  0  0  0
   -6.0987   -7.9066    0.0000 C   0  0  0  0  0  0
   -4.7284   -7.2965    0.0000 O   0  0  0  0  0  0
   -4.5716   -5.8048    0.0000 C   0  0  2  0  0  0
   -3.2726   -5.0548    0.0000 C   0  0  0  0  0  0
   -3.5844   -3.5875    0.0000 C   0  0  2  0  0  0
   -5.0762   -3.4307    0.0000 N   0  0  0  0  0  0
   -5.6863   -4.8011    0.0000 C   0  0  0  0  0  0
   -6.3752   -2.6807    0.0000 C   0  0  0  0  0  0
   -7.3789   -3.7955    0.0000 O   0  0  0  0  0  0
   -7.2569   -1.4672    0.0000 O   0  0  0  0  0  0
   -7.5688    0.0000    0.0000 C   0  0  0  0  0  0
   -7.2569    1.4672    0.0000 C   0  0  0  0  0  0
   -6.3752    2.6807    0.0000 C   0  0  0  0  0  0
   -5.0762    3.4307    0.0000 C   0  0  0  0  0  0
   -3.5844    3.5875    0.0000 C   0  0  0  0  0  0
   -2.1578    3.1240    0.0000 C   0  0  0  0  0  0
   -1.0431    2.1203    0.0000 C   0  0  0  0  0  0
   -0.4330    0.7500    0.0000 C   0  0  2  0  0  0
    0.8660    0.0000    0.0000 C   0  0  0  0  0  0
   -0.4330   -0.7500    0.0000 C   0  0  1  0  0  0
   -1.0431   -2.1203    0.0000 N   0  0  0  0  0  0
   -2.1578   -3.1240    0.0000 C   0  0  0  0  0  0
   -1.4078   -4.4231    0.0000 O   0  0  0  0  0  0
    0.6817   -1.7537    0.0000 C   0  0  0  0  0  0
    0.3698   -3.2209    0.0000 O   0  0  0  0  0  0
    2.1083   -1.2902    0.0000 N   0  0  0  0  0  0
    3.2230   -2.2939    0.0000 S   0  0  0  0  0  0
    2.2193   -3.4086    0.0000 O   0  0  0  0  0  0
    4.2267   -1.1791    0.0000 O   0  0  0  0  0  0
    4.3377   -3.2976    0.0000 C   0  0  0  0  0  0
    5.8049   -3.6094    0.0000 C   0  0  0  0  0  0
    4.8012   -4.7241    0.0000 C   0  0  0  0  0  0
   -7.3122   -7.0250    0.0000 C   0  0  0  0  0  0
   -8.6825   -7.6351    0.0000 C   0  0  0  0  0  0
   -8.8393   -9.1269    0.0000 N   0  0  0  0  0  0
   -7.6258  -10.0085    0.0000 C   0  0  0  0  0  0
   -7.7826  -11.5003    0.0000 C   0  0  0  0  0  0
   -9.8961   -6.7534    0.0000 C   0  0  0  0  0  0
   -9.7393   -5.2616    0.0000 C   0  0  0  0  0  0
  -10.9528   -4.3799    0.0000 C   0  0  0  0  0  0
  -12.3231   -4.9900    0.0000 C   0  0  0  0  0  0
  -12.4799   -6.4818    0.0000 C   0  0  0  0  0  0
  -11.2664   -7.3635    0.0000 C   0  0  0  0  0  0
  1  2  1  0  0  0
  2  3  1  0  0  0
  3  4  2  0  0  0
  3 43  1  0  0  0
  4  5  1  0  0  0
  5  6  2  0  0  0
  6  7  1  0  0  0
  6 42  1  0  0  0
  7  8  1  0  0  0
  7 39  2  0  0  0
  8  9  1  0  0  0
  9 10  1  0  0  0
  9 13  1  6  0  0
 10 11  1  0  0  0
 11 12  1  0  0  0
 11 28  1  1  0  0
 12 13  1  0  0  0
 12 14  1  0  0  0
 14 15  2  0  0  0
 14 16  1  0  0  0
 16 17  1  0  0  0
 17 18  1  0  0  0
 18 19  1  0  0  0
 19 20  1  0  0  0
 20 21  1  0  0  0
 21 22  1  0  0  0
 22 23  2  0  0  0
 23 24  1  0  0  0
 24 25  1  0  0  0
 24 26  1  1  0  0
 25 26  1  0  0  0
 26 27  1  0  0  0
 26 30  1  6  0  0
 27 28  1  0  0  0
 28 29  2  0  0  0
 30 31  2  0  0  0
 30 32  1  0  0  0
 32 33  1  0  0  0
 33 34  2  0  0  0
 33 35  2  0  0  0
 33 36  1  0  0  0
 36 37  1  0  0  0
 36 38  1  0  0  0
 37 38  1  0  0  0
 39 40  1  0  0  0
 40 41  2  0  0  0
 40 44  1  0  0  0
 41 42  1  0  0  0
 42 43  2  0  0  0
 44 45  2  0  0  0
 44 49  1  0  0  0
 45 46  1  0  0  0
 46 47  2  0  0  0
 47 48  1  0  0  0
 48 49  2  0  0  0
M  END
> <s_m_entry_id>
6663

> <s_m_entry_name>
NS3-4A.204

> <CHEMBLID>
CHEMBL503785

> <s_m_Source_Path>
/home/liwei/Desktop/Machine/HCV/Active

> <s_m_Source_File>
NS3-4A.sdf

> <i_m_Source_File_Index>
204

$$$$
CHEMBL599872
                    3D
 Structure written by MMmdl.
 53 58  0  0  1  0            999 V2000
    0.4969  -12.4858    0.0000 C   0  0  0  0  0  0
   -0.9847  -12.2512    0.0000 C   0  0  0  0  0  0
   -2.4837  -12.1989    0.0000 C   0  0  0  0  0  0
   -1.2193  -13.7327    0.0000 C   0  0  0  0  0  0
   -0.7500  -10.7697    0.0000 C   0  0  2  0  0  0
    0.7500  -10.7697    0.0000 N   0  0  0  0  0  0
    2.1766  -10.3061    0.0000 C   0  0  0  0  0  0
    2.8576  -11.6426    0.0000 O   0  0  0  0  0  0
    3.3901   -9.4245    0.0000 O   0  0  0  0  0  0
    4.2718   -8.2109    0.0000 C   0  0  0  0  0  0
    4.7353   -6.7844    0.0000 C   0  0  0  0  0  0
    5.8500   -7.7880    0.0000 C   0  0  0  0  0  0
    6.1056   -6.1742    0.0000 C   0  0  0  0  0  0
    4.7353   -5.2844    0.0000 C   0  0  0  0  0  0
    4.2718   -3.8578    0.0000 C   0  0  0  0  0  0
    3.3901   -2.6442    0.0000 C   0  0  0  0  0  0
    2.1766   -1.7626    0.0000 C   0  0  0  0  0  0
    0.7500   -1.2990    0.0000 C   0  0  0  0  0  0
    1.5000    0.0000    0.0000 C   0  0  0  0  0  0
    0.7500    1.2990    0.0000 C   0  0  0  0  0  0
   -0.7500    1.2990    0.0000 C   0  0  0  0  0  0
   -1.5000    0.0000    0.0000 C   0  0  0  0  0  0
   -2.9230   -0.4745    0.0000 C   0  0  0  0  0  0
   -3.3901   -2.6442    0.0000 N   0  0  0  0  0  0
   -2.1766   -1.7626    0.0000 C   0  0  0  0  0  0
   -0.7500   -1.2990    0.0000 C   0  0  0  0  0  0
   -4.2718   -3.8578    0.0000 C   0  0  0  0  0  0
   -5.6083   -3.1768    0.0000 O   0  0  0  0  0  0
   -4.7353   -5.2844    0.0000 O   0  0  0  0  0  0
   -4.7353   -6.7844    0.0000 C   0  0  2  0  0  0
   -5.7960   -7.8450    0.0000 C   0  0  0  0  0  0
   -5.1150   -9.1815    0.0000 C   0  0  2  0  0  0
   -3.3901   -9.4245    0.0000 N   0  0  0  0  0  0
   -4.2718   -8.2109    0.0000 C   0  0  0  0  0  0
   -2.1766  -10.3061    0.0000 C   0  0  0  0  0  0
   -3.0154  -11.5497    0.0000 O   0  0  0  0  0  0
   -5.7960  -10.5180    0.0000 C   0  0  0  0  0  0
   -4.9282  -11.5522    0.0000 O   0  0  0  0  0  0
   -7.2939  -10.5965    0.0000 N   0  0  0  0  0  0
   -7.9749  -11.9330    0.0000 C   0  0  1  0  0  0
   -9.0719  -12.9560    0.0000 C   0  0  0  0  0  0
   -9.4094  -11.4945    0.0000 C   0  0  1  0  0  0
  -10.4324  -10.3975    0.0000 C   0  0  0  0  0  0
  -11.8939  -10.7349    0.0000 C   0  0  0  0  0  0
   -6.7770  -12.8358    0.0000 C   0  0  0  0  0  0
   -5.4792  -12.4637    0.0000 O   0  0  0  0  0  0
   -6.9598  -14.3246    0.0000 N   0  0  0  0  0  0
   -5.7618  -15.2273    0.0000 S   0  0  0  0  0  0
   -4.8591  -14.0294    0.0000 O   0  0  0  0  0  0
   -6.6645  -16.4253    0.0000 O   0  0  0  0  0  0
   -4.5638  -16.1300    0.0000 C   0  0  0  0  0  0
   -3.0750  -16.3128    0.0000 C   0  0  0  0  0  0
   -3.9778  -17.5108    0.0000 C   0  0  0  0  0  0
  1  2  1  0  0  0
  2  3  1  0  0  0
  2  4  1  0  0  0
  2  5  1  0  0  0
  5  6  1  0  0  0
  5 35  1  1  0  0
  6  7  1  0  0  0
  7  8  2  0  0  0
  7  9  1  0  0  0
  9 10  1  0  0  0
 10 11  1  0  0  0
 11 12  1  0  0  0
 11 13  1  0  0  0
 11 14  1  0  0  0
 14 15  1  0  0  0
 15 16  1  0  0  0
 16 17  1  0  0  0
 17 18  1  0  0  0
 18 19  1  0  0  0
 18 26  2  0  0  0
 19 20  2  0  0  0
 20 21  1  0  0  0
 21 22  2  0  0  0
 22 23  1  0  0  0
 22 26  1  0  0  0
 23 24  1  0  0  0
 24 25  1  0  0  0
 24 27  1  0  0  0
 25 26  1  0  0  0
 27 28  2  0  0  0
 27 29  1  0  0  0
 29 30  1  0  0  0
 30 31  1  0  0  0
 30 34  1  6  0  0
 31 32  1  0  0  0
 32 33  1  0  0  0
 32 37  1  1  0  0
 33 34  1  0  0  0
 33 35  1  0  0  0
 35 36  2  0  0  0
 37 38  2  0  0  0
 37 39  1  0  0  0
 39 40  1  0  0  0
 40 41  1  0  0  0
 40 45  1  0  0  0
 40 42  1  1  0  0
 41 42  1  0  0  0
 42 43  1  6  0  0
 43 44  2  0  0  0
 45 46  2  0  0  0
 45 47  1  0  0  0
 47 48  1  0  0  0
 48 49  2  0  0  0
 48 50  2  0  0  0
 48 51  1  0  0  0
 51 52  1  0  0  0
 51 53  1  0  0  0
 52 53  1  0  0  0
M  END
> <s_m_entry_id>
6664

> <s_m_entry_name>
NS3-4A.205

> <CHEMBLID>
CHEMBL599872

> <s_m_Source_Path>
/home/liwei/Desktop/Machine/HCV/Active

> <s_m_Source_File>
NS3-4A.sdf

> <i_m_Source_File_Index>
205

$$$$
CHEMBL607290
                    3D
 Structure written by MMmdl.
 51 53  0  0  1  0            999 V2000
   14.0846  -15.2566    0.0000 C   0  0  0  0  0  0
   13.0809  -14.1419    0.0000 C   0  0  0  0  0  0
   13.5444  -12.7153    0.0000 C   0  0  0  0  0  0
   11.6137  -14.4538    0.0000 C   0  0  0  0  0  0
   10.6100  -13.3391    0.0000 O   0  0  0  0  0  0
    9.1428  -13.6509    0.0000 C   0  0  0  0  0  0
    8.6792  -15.0775    0.0000 O   0  0  0  0  0  0
    8.1391  -12.5362    0.0000 N   0  0  0  0  0  0
    6.6718  -12.8481    0.0000 C   0  0  1  0  0  0
    6.2083  -14.2747    0.0000 C   0  0  0  0  0  0
    7.2120  -15.3894    0.0000 C   0  0  0  0  0  0
    4.7411  -14.5865    0.0000 C   0  0  0  0  0  0
    5.6682  -11.7334    0.0000 C   0  0  0  0  0  0
    4.2009  -12.0452    0.0000 O   0  0  0  0  0  0
    6.1317  -10.3068    0.0000 N   0  0  0  0  0  0
    7.5583   -9.8433    0.0000 C   0  0  0  0  0  0
    7.5583   -8.3433    0.0000 C   0  0  3  0  0  0
    6.1317   -7.8797    0.0000 C   0  0  0  0  0  0
    5.2500   -9.0933    0.0000 C   0  0  2  0  0  0
    3.7500   -9.0933    0.0000 C   0  0  0  0  0  0
    3.0000  -10.3923    0.0000 O   0  0  0  0  0  0
    3.0000   -7.7942    0.0000 N   0  0  0  0  0  0
    1.5000   -7.7942    0.0000 C   0  0  1  0  0  0
    0.7500   -9.0933    0.0000 C   0  0  0  0  0  0
   -0.7500   -9.0933    0.0000 C   0  0  0  0  0  0
   -1.5000  -10.3923    0.0000 F   0  0  0  0  0  0
   -1.5000   -7.7942    0.0000 F   0  0  0  0  0  0
    0.7500   -6.4952    0.0000 C   0  0  0  0  0  0
   -0.7500   -6.4952    0.0000 O   0  0  0  0  0  0
    1.5000   -5.1962    0.0000 N   0  0  0  0  0  0
    0.7500   -3.8971    0.0000 C   0  0  0  0  0  0
    1.5000   -2.5981    0.0000 C   0  0  0  0  0  0
    0.7500   -1.2990    0.0000 C   0  0  0  0  0  0
    1.5000    0.0000    0.0000 C   0  0  0  0  0  0
    3.0000    0.0000    0.0000 F   0  0  0  0  0  0
    0.7500    1.2990    0.0000 C   0  0  0  0  0  0
   -0.7500    1.2990    0.0000 C   0  0  0  0  0  0
   -1.5000    0.0000    0.0000 C   0  0  0  0  0  0
   -0.7500   -1.2990    0.0000 C   0  0  0  0  0  0
   -1.5000   -2.5981    0.0000 F   0  0  0  0  0  0
   -1.5000    2.5981    0.0000 C   0  0  0  0  0  0
   -3.0000    2.5981    0.0000 O   0  0  0  0  0  0
   -0.7500    3.8971    0.0000 O   0  0  0  0  0  0
    8.7718   -7.4616    0.0000 O   0  0  0  0  0  0
   10.1421   -8.0717    0.0000 C   0  0  0  0  0  0
   11.3556   -7.1900    0.0000 C   0  0  0  0  0  0
   12.7260   -7.8001    0.0000 C   0  0  0  0  0  0
   13.9395   -6.9184    0.0000 C   0  0  0  0  0  0
   13.7827   -5.4267    0.0000 C   0  0  0  0  0  0
   12.4124   -4.8166    0.0000 C   0  0  0  0  0  0
   11.1988   -5.6982    0.0000 C   0  0  0  0  0  0
  1  2  1  0  0  0
  2  3  1  0  0  0
  2  4  1  0  0  0
  4  5  1  0  0  0
  5  6  1  0  0  0
  6  7  2  0  0  0
  6  8  1  0  0  0
  8  9  1  0  0  0
  9 10  1  0  0  0
  9 13  1  6  0  0
 10 11  1  0  0  0
 10 12  1  0  0  0
 13 14  2  0  0  0
 13 15  1  0  0  0
 15 16  1  0  0  0
 15 19  1  0  0  0
 16 17  1  0  0  0
 17 18  1  0  0  0
 17 44  1  0  0  0
 18 19  1  0  0  0
 19 20  1  6  0  0
 20 21  2  0  0  0
 20 22  1  0  0  0
 22 23  1  0  0  0
 23 24  1  0  0  0
 23 28  1  6  0  0
 24 25  1  0  0  0
 25 26  1  0  0  0
 25 27  1  0  0  0
 28 29  2  0  0  0
 28 30  1  0  0  0
 30 31  1  0  0  0
 31 32  1  0  0  0
 32 33  1  0  0  0
 33 34  2  0  0  0
 33 39  1  0  0  0
 34 35  1  0  0  0
 34 36  1  0  0  0
 36 37  2  0  0  0
 37 38  1  0  0  0
 37 41  1  0  0  0
 38 39  2  0  0  0
 39 40  1  0  0  0
 41 42  2  0  0  0
 41 43  1  0  0  0
 44 45  1  0  0  0
 45 46  1  0  0  0
 46 47  2  0  0  0
 46 51  1  0  0  0
 47 48  1  0  0  0
 48 49  2  0  0  0
 49 50  1  0  0  0
 50 51  2  0  0  0
M  END
> <s_m_entry_id>
6665

> <s_m_entry_name>
NS3-4A.206

> <CHEMBLID>
CHEMBL607290

> <s_m_Source_Path>
/home/liwei/Desktop/Machine/HCV/Active

> <s_m_Source_File>
NS3-4A.sdf

> <i_m_Source_File_Index>
206

$$$$
CHEMBL607291
                    3D
 Structure written by MMmdl.
 49 51  0  0  1  0            999 V2000
   14.0846  -15.2566    0.0000 C   0  0  0  0  0  0
   13.0809  -14.1419    0.0000 C   0  0  0  0  0  0
   13.5444  -12.7153    0.0000 C   0  0  0  0  0  0
   11.6137  -14.4538    0.0000 C   0  0  0  0  0  0
   10.6100  -13.3391    0.0000 O   0  0  0  0  0  0
    9.1428  -13.6509    0.0000 C   0  0  0  0  0  0
    8.6792  -15.0775    0.0000 O   0  0  0  0  0  0
    8.1391  -12.5362    0.0000 N   0  0  0  0  0  0
    6.6718  -12.8481    0.0000 C   0  0  1  0  0  0
    6.2083  -14.2747    0.0000 C   0  0  0  0  0  0
    7.2120  -15.3894    0.0000 C   0  0  0  0  0  0
    4.7411  -14.5865    0.0000 C   0  0  0  0  0  0
    5.6682  -11.7334    0.0000 C   0  0  0  0  0  0
    4.2009  -12.0452    0.0000 O   0  0  0  0  0  0
    6.1317  -10.3068    0.0000 N   0  0  0  0  0  0
    7.5583   -9.8433    0.0000 C   0  0  0  0  0  0
    7.5583   -8.3433    0.0000 C   0  0  3  0  0  0
    6.1317   -7.8797    0.0000 C   0  0  0  0  0  0
    5.2500   -9.0933    0.0000 C   0  0  2  0  0  0
    3.7500   -9.0933    0.0000 C   0  0  0  0  0  0
    3.0000  -10.3923    0.0000 O   0  0  0  0  0  0
    3.0000   -7.7942    0.0000 N   0  0  0  0  0  0
    1.5000   -7.7942    0.0000 C   0  0  1  0  0  0
    0.7500   -9.0933    0.0000 C   0  0  0  0  0  0
   -0.7500   -9.0933    0.0000 C   0  0  0  0  0  0
   -1.5000  -10.3923    0.0000 F   0  0  0  0  0  0
   -1.5000   -7.7942    0.0000 F   0  0  0  0  0  0
    0.7500   -6.4952    0.0000 C   0  0  0  0  0  0
   -0.7500   -6.4952    0.0000 O   0  0  0  0  0  0
    1.5000   -5.1962    0.0000 N   0  0  0  0  0  0
    0.7500   -3.8971    0.0000 C   0  0  0  0  0  0
    1.5000   -2.5981    0.0000 C   0  0  0  0  0  0
    0.7500   -1.2990    0.0000 C   0  0  0  0  0  0
    1.5000    0.0000    0.0000 C   0  0  0  0  0  0
    3.0000    0.0000    0.0000 F   0  0  0  0  0  0
    0.7500    1.2990    0.0000 C   0  0  0  0  0  0
   -0.7500    1.2990    0.0000 C   0  0  0  0  0  0
   -1.5000    0.0000    0.0000 C   0  0  0  0  0  0
   -0.7500   -1.2990    0.0000 C   0  0  0  0  0  0
   -1.5000   -2.5981    0.0000 F   0  0  0  0  0  0
   -1.5000    2.5981    0.0000 C   0  0  0  0  0  0
   -3.0000    2.5981    0.0000 O   0  0  0  0  0  0
   -0.7500    3.8971    0.0000 O   0  0  0  0  0  0
    8.7718   -7.4616    0.0000 C   0  0  0  0  0  0
   10.1421   -8.0717    0.0000 C   0  0  0  0  0  0
   11.3556   -7.1900    0.0000 C   0  0  0  0  0  0
   11.1988   -5.6982    0.0000 C   0  0  0  0  0  0
    9.8285   -5.0881    0.0000 C   0  0  0  0  0  0
    8.6150   -5.9698    0.0000 C   0  0  0  0  0  0
  1  2  1  0  0  0
  2  3  1  0  0  0
  2  4  1  0  0  0
  4  5  1  0  0  0
  5  6  1  0  0  0
  6  7  2  0  0  0
  6  8  1  0  0  0
  8  9  1  0  0  0
  9 10  1  0  0  0
  9 13  1  6  0  0
 10 11  1  0  0  0
 10 12  1  0  0  0
 13 14  2  0  0  0
 13 15  1  0  0  0
 15 16  1  0  0  0
 15 19  1  0  0  0
 16 17  1  0  0  0
 17 18  1  0  0  0
 17 44  1  0  0  0
 18 19  1  0  0  0
 19 20  1  6  0  0
 20 21  2  0  0  0
 20 22  1  0  0  0
 22 23  1  0  0  0
 23 24  1  0  0  0
 23 28  1  6  0  0
 24 25  1  0  0  0
 25 26  1  0  0  0
 25 27  1  0  0  0
 28 29  2  0  0  0
 28 30  1  0  0  0
 30 31  1  0  0  0
 31 32  1  0  0  0
 32 33  1  0  0  0
 33 34  2  0  0  0
 33 39  1  0  0  0
 34 35  1  0  0  0
 34 36  1  0  0  0
 36 37  2  0  0  0
 37 38  1  0  0  0
 37 41  1  0  0  0
 38 39  2  0  0  0
 39 40  1  0  0  0
 41 42  2  0  0  0
 41 43  1  0  0  0
 44 45  2  0  0  0
 44 49  1  0  0  0
 45 46  1  0  0  0
 46 47  2  0  0  0
 47 48  1  0  0  0
 48 49  2  0  0  0
M  END
> <s_m_entry_id>
6666

> <s_m_entry_name>
NS3-4A.207

> <CHEMBLID>
CHEMBL607291

> <s_m_Source_Path>
/home/liwei/Desktop/Machine/HCV/Active

> <s_m_Source_File>
NS3-4A.sdf

> <i_m_Source_File_Index>
207

$$$$
CHEMBL607292
                    3D
 Structure written by MMmdl.
 49 51  0  0  1  0            999 V2000
   14.0846  -15.2566    0.0000 C   0  0  0  0  0  0
   13.0809  -14.1419    0.0000 C   0  0  0  0  0  0
   13.5444  -12.7153    0.0000 C   0  0  0  0  0  0
   11.6137  -14.4538    0.0000 C   0  0  0  0  0  0
   10.6100  -13.3391    0.0000 O   0  0  0  0  0  0
    9.1428  -13.6509    0.0000 C   0  0  0  0  0  0
    8.6792  -15.0775    0.0000 O   0  0  0  0  0  0
    8.1391  -12.5362    0.0000 N   0  0  0  0  0  0
    6.6718  -12.8481    0.0000 C   0  0  1  0  0  0
    6.2083  -14.2747    0.0000 C   0  0  0  0  0  0
    7.2120  -15.3894    0.0000 C   0  0  0  0  0  0
    4.7411  -14.5865    0.0000 C   0  0  0  0  0  0
    5.6682  -11.7334    0.0000 C   0  0  0  0  0  0
    4.2009  -12.0452    0.0000 O   0  0  0  0  0  0
    6.1317  -10.3068    0.0000 N   0  0  0  0  0  0
    7.5583   -9.8433    0.0000 C   0  0  0  0  0  0
    7.5583   -8.3433    0.0000 C   0  0  3  0  0  0
    6.1317   -7.8797    0.0000 C   0  0  0  0  0  0
    5.2500   -9.0933    0.0000 C   0  0  2  0  0  0
    3.7500   -9.0933    0.0000 C   0  0  0  0  0  0
    3.0000  -10.3923    0.0000 O   0  0  0  0  0  0
    3.0000   -7.7942    0.0000 N   0  0  0  0  0  0
    1.5000   -7.7942    0.0000 C   0  0  1  0  0  0
    0.7500   -9.0933    0.0000 C   0  0  0  0  0  0
   -0.7500   -9.0933    0.0000 C   0  0  0  0  0  0
   -1.5000  -10.3923    0.0000 F   0  0  0  0  0  0
   -1.5000   -7.7942    0.0000 F   0  0  0  0  0  0
    0.7500   -6.4952    0.0000 C   0  0  0  0  0  0
   -0.7500   -6.4952    0.0000 O   0  0  0  0  0  0
    1.5000   -5.1962    0.0000 N   0  0  0  0  0  0
    0.7500   -3.8971    0.0000 C   0  0  0  0  0  0
    1.5000   -2.5981    0.0000 C   0  0  0  0  0  0
    0.7500   -1.2990    0.0000 C   0  0  0  0  0  0
    1.5000    0.0000    0.0000 C   0  0  0  0  0  0
    3.0000    0.0000    0.0000 F   0  0  0  0  0  0
    0.7500    1.2990    0.0000 C   0  0  0  0  0  0
   -0.7500    1.2990    0.0000 C   0  0  0  0  0  0
   -1.5000    0.0000    0.0000 C   0  0  0  0  0  0
   -0.7500   -1.2990    0.0000 C   0  0  0  0  0  0
   -1.5000   -2.5981    0.0000 F   0  0  0  0  0  0
   -1.5000    2.5981    0.0000 C   0  0  0  0  0  0
   -3.0000    2.5981    0.0000 O   0  0  0  0  0  0
   -0.7500    3.8971    0.0000 O   0  0  0  0  0  0
    8.7718   -7.4616    0.0000 C   0  0  0  0  0  0
   10.1421   -8.0717    0.0000 C   0  0  0  0  0  0
   11.3556   -7.1900    0.0000 C   0  0  0  0  0  0
   11.1988   -5.6982    0.0000 C   0  0  0  0  0  0
    9.8285   -5.0881    0.0000 C   0  0  0  0  0  0
    8.6150   -5.9698    0.0000 C   0  0  0  0  0  0
  1  2  1  0  0  0
  2  3  1  0  0  0
  2  4  1  0  0  0
  4  5  1  0  0  0
  5  6  1  0  0  0
  6  7  2  0  0  0
  6  8  1  0  0  0
  8  9  1  0  0  0
  9 10  1  0  0  0
  9 13  1  6  0  0
 10 11  1  0  0  0
 10 12  1  0  0  0
 13 14  2  0  0  0
 13 15  1  0  0  0
 15 16  1  0  0  0
 15 19  1  0  0  0
 16 17  1  0  0  0
 17 18  1  0  0  0
 17 44  1  0  0  0
 18 19  1  0  0  0
 19 20  1  6  0  0
 20 21  2  0  0  0
 20 22  1  0  0  0
 22 23  1  0  0  0
 23 24  1  0  0  0
 23 28  1  6  0  0
 24 25  1  0  0  0
 25 26  1  0  0  0
 25 27  1  0  0  0
 28 29  2  0  0  0
 28 30  1  0  0  0
 30 31  1  0  0  0
 31 32  1  0  0  0
 32 33  1  0  0  0
 33 34  2  0  0  0
 33 39  1  0  0  0
 34 35  1  0  0  0
 34 36  1  0  0  0
 36 37  2  0  0  0
 37 38  1  0  0  0
 37 41  1  0  0  0
 38 39  2  0  0  0
 39 40  1  0  0  0
 41 42  2  0  0  0
 41 43  1  0  0  0
 44 45  1  0  0  0
 44 49  1  0  0  0
 45 46  1  0  0  0
 46 47  1  0  0  0
 47 48  1  0  0  0
 48 49  1  0  0  0
M  END
> <s_m_entry_id>
6667

> <s_m_entry_name>
NS3-4A.208

> <CHEMBLID>
CHEMBL607292

> <s_m_Source_Path>
/home/liwei/Desktop/Machine/HCV/Active

> <s_m_Source_File>
NS3-4A.sdf

> <i_m_Source_File_Index>
208

$$$$
CHEMBL1170408
                    3D
 Structure written by MMmdl.
 62 65  0  0  1  0            999 V2000
  -12.7500  -11.6913    0.0000 C   0  0  0  0  0  0
  -12.0000  -10.3923    0.0000 C   0  0  0  0  0  0
  -10.5000  -10.3923    0.0000 C   0  0  0  0  0  0
   -9.7500   -9.0933    0.0000 C   0  0  2  0  0  0
   -8.2500   -9.0933    0.0000 N   0  0  0  0  0  0
   -7.5000   -7.7942    0.0000 C   0  0  0  0  0  0
   -8.2500   -6.4952    0.0000 O   0  0  0  0  0  0
   -6.0000   -7.7942    0.0000 C   0  0  1  0  0  0
   -5.2500   -9.0933    0.0000 N   0  0  0  0  0  0
   -6.0000  -10.3923    0.0000 C   0  0  0  0  0  0
   -7.5000  -10.3923    0.0000 O   0  0  0  0  0  0
   -5.2500  -11.6913    0.0000 C   0  0  1  0  0  0
   -3.7500  -11.6913    0.0000 N   0  0  0  0  0  0
   -3.0000  -12.9904    0.0000 C   0  0  0  0  0  0
   -3.7500  -14.2894    0.0000 O   0  0  0  0  0  0
   -1.5000  -12.9904    0.0000 O   0  0  0  0  0  0
   -0.7500  -14.2894    0.0000 C   0  0  0  0  0  0
    0.5490  -13.5394    0.0000 C   0  0  0  0  0  0
   -2.0490  -15.0394    0.0000 C   0  0  0  0  0  0
   -0.0000  -15.5885    0.0000 C   0  0  0  0  0  0
   -6.0000  -12.9904    0.0000 C   0  0  0  0  0  0
   -4.7010  -13.7404    0.0000 C   0  0  0  0  0  0
   -7.2990  -12.2404    0.0000 C   0  0  0  0  0  0
   -6.7500  -14.2894    0.0000 C   0  0  0  0  0  0
   -5.2500   -6.4952    0.0000 C   0  0  0  0  0  0
   -6.0000   -5.1962    0.0000 C   0  0  0  0  0  0
   -5.2500   -3.8971    0.0000 C   0  0  0  0  0  0
   -3.7500   -3.8971    0.0000 C   0  0  0  0  0  0
   -3.0000   -2.5981    0.0000 O   0  0  0  0  0  0
   -1.5000   -2.5981    0.0000 C   0  0  0  0  0  0
   -0.7500   -3.8971    0.0000 C   0  0  0  0  0  0
    0.7500   -3.8971    0.0000 C   0  0  0  0  0  0
    1.5000   -2.5981    0.0000 N   0  0  0  0  0  0
    0.7500   -1.2990    0.0000 C   0  0  0  0  0  0
    1.5000    0.0000    0.0000 C   0  0  0  0  0  0
    0.7500    1.2990    0.0000 C   0  0  0  0  0  0
    1.5000    2.5981    0.0000 O   0  0  0  0  0  0
    3.0000    2.5981    0.0000 C   0  0  0  0  0  0
   -0.7500    1.2990    0.0000 C   0  0  0  0  0  0
   -1.5000    0.0000    0.0000 C   0  0  0  0  0  0
   -0.7500   -1.2990    0.0000 C   0  0  0  0  0  0
    1.5000   -5.1962    0.0000 C   0  0  0  0  0  0
    0.7500   -6.4952    0.0000 C   0  0  0  0  0  0
    1.5000   -7.7942    0.0000 C   0  0  0  0  0  0
    3.0000   -7.7942    0.0000 C   0  0  0  0  0  0
    3.7500   -6.4952    0.0000 C   0  0  0  0  0  0
    3.0000   -5.1962    0.0000 C   0  0  0  0  0  0
   -3.0000   -5.1962    0.0000 C   0  0  0  0  0  0
   -1.5000   -5.1962    0.0000 C   0  0  0  0  0  0
   -0.7500   -6.4952    0.0000 C   0  0  0  0  0  0
   -3.7500   -6.4952    0.0000 C   0  0  0  0  0  0
  -10.5000   -7.7942    0.0000 C   0  0  0  0  0  0
   -9.7500   -6.4952    0.0000 O   0  0  0  0  0  0
  -12.0000   -7.7942    0.0000 N   0  0  0  0  0  0
  -12.7500   -6.4952    0.0000 S   0  0  0  0  0  0
  -11.4510   -5.7452    0.0000 O   0  0  0  0  0  0
  -14.0490   -7.2452    0.0000 O   0  0  0  0  0  0
  -13.5000   -5.1962    0.0000 C   0  0  0  0  0  0
  -12.7500   -3.8971    0.0000 C   0  0  0  0  0  0
  -13.5000   -2.5981    0.0000 C   0  0  0  0  0  0
  -12.7500   -1.2990    0.0000 C   0  0  0  0  0  0
  -13.5000    0.0000    0.0000 C   0  0  0  0  0  0
  1  2  1  0  0  0
  2  3  1  0  0  0
  3  4  1  0  0  0
  4  5  1  0  0  0
  4 52  1  1  0  0
  5  6  1  0  0  0
  6  7  2  0  0  0
  6  8  1  0  0  0
  8  9  1  0  0  0
  8 25  1  6  0  0
  9 10  1  0  0  0
 10 11  2  0  0  0
 10 12  1  0  0  0
 12 13  1  0  0  0
 12 21  1  6  0  0
 13 14  1  0  0  0
 14 15  2  0  0  0
 14 16  1  0  0  0
 16 17  1  0  0  0
 17 18  1  0  0  0
 17 19  1  0  0  0
 17 20  1  0  0  0
 21 22  1  0  0  0
 21 23  1  0  0  0
 21 24  1  0  0  0
 25 26  2  0  0  0
 25 51  1  0  0  0
 26 27  1  0  0  0
 27 28  2  0  0  0
 28 29  1  0  0  0
 28 48  1  0  0  0
 29 30  1  0  0  0
 30 31  2  0  0  0
 30 41  1  0  0  0
 31 32  1  0  0  0
 32 33  2  0  0  0
 32 42  1  0  0  0
 33 34  1  0  0  0
 34 35  2  0  0  0
 34 41  1  0  0  0
 35 36  1  0  0  0
 36 37  1  0  0  0
 36 39  2  0  0  0
 37 38  1  0  0  0
 39 40  1  0  0  0
 40 41  2  0  0  0
 42 43  2  0  0  0
 42 47  1  0  0  0
 43 44  1  0  0  0
 44 45  2  0  0  0
 45 46  1  0  0  0
 46 47  2  0  0  0
 48 49  1  0  0  0
 48 51  2  0  0  0
 49 50  2  0  0  0
 52 53  2  0  0  0
 52 54  1  0  0  0
 54 55  1  0  0  0
 55 56  2  0  0  0
 55 57  2  0  0  0
 55 58  1  0  0  0
 58 59  1  0  0  0
 59 60  1  0  0  0
 60 61  1  0  0  0
 61 62  2  0  0  0
M  END
> <s_m_entry_id>
6668

> <s_m_entry_name>
NS3-4A.209

> <CHEMBLID>
CHEMBL1170408

> <s_m_Source_Path>
/home/liwei/Desktop/Machine/HCV/Active

> <s_m_Source_File>
NS3-4A.sdf

> <i_m_Source_File_Index>
209

$$$$
CHEMBL1170421
                    3D
 Structure written by MMmdl.
 57 60  0  0  1  0            999 V2000
   -7.4248  -13.3915    0.0000 C   0  0  0  0  0  0
   -6.2113  -12.5098    0.0000 C   0  0  0  0  0  0
   -6.3681  -11.0180    0.0000 C   0  0  0  0  0  0
   -5.1546  -10.1364    0.0000 C   0  0  2  0  0  0
   -5.3113   -8.6446    0.0000 N   0  0  0  0  0  0
   -4.0978   -7.7629    0.0000 C   0  0  0  0  0  0
   -2.7275   -8.3730    0.0000 O   0  0  0  0  0  0
   -4.2546   -6.2711    0.0000 C   0  0  2  0  0  0
   -3.1399   -5.2674    0.0000 C   0  0  0  0  0  0
   -3.7500   -3.8971    0.0000 C   0  0  2  0  0  0
   -5.2418   -4.0539    0.0000 C   0  0  0  0  0  0
   -5.5537   -5.5211    0.0000 N   0  0  0  0  0  0
   -6.9240   -6.1312    0.0000 C   0  0  0  0  0  0
   -7.0808   -7.6230    0.0000 O   0  0  0  0  0  0
   -8.1375   -5.2496    0.0000 C   0  0  1  0  0  0
   -7.9807   -3.7578    0.0000 N   0  0  0  0  0  0
   -9.1942   -2.8761    0.0000 C   0  0  0  0  0  0
  -10.5645   -3.4862    0.0000 O   0  0  0  0  0  0
   -9.0374   -1.3843    0.0000 O   0  0  0  0  0  0
  -10.2510   -0.5026    0.0000 C   0  0  0  0  0  0
   -9.3693    0.7109    0.0000 C   0  0  0  0  0  0
  -11.1326   -1.7162    0.0000 C   0  0  0  0  0  0
  -11.4645    0.3790    0.0000 C   0  0  0  0  0  0
   -9.5078   -5.8597    0.0000 C   0  0  0  0  0  0
  -10.1179   -4.4893    0.0000 C   0  0  0  0  0  0
   -8.8977   -7.2300    0.0000 C   0  0  0  0  0  0
  -10.8781   -6.4698    0.0000 C   0  0  0  0  0  0
   -3.0000   -2.5981    0.0000 O   0  0  0  0  0  0
   -1.5000   -2.5981    0.0000 C   0  0  0  0  0  0
   -0.7500   -3.8971    0.0000 C   0  0  0  0  0  0
    0.7500   -3.8971    0.0000 C   0  0  0  0  0  0
    1.5000   -2.5981    0.0000 N   0  0  0  0  0  0
    0.7500   -1.2990    0.0000 C   0  0  0  0  0  0
    1.5000    0.0000    0.0000 C   0  0  0  0  0  0
    0.7500    1.2990    0.0000 C   0  0  0  0  0  0
    1.5000    2.5981    0.0000 O   0  0  0  0  0  0
    3.0000    2.5981    0.0000 C   0  0  0  0  0  0
   -0.7500    1.2990    0.0000 C   0  0  0  0  0  0
   -1.5000    0.0000    0.0000 C   0  0  0  0  0  0
   -0.7500   -1.2990    0.0000 C   0  0  0  0  0  0
    1.5000   -5.1962    0.0000 C   0  0  0  0  0  0
    0.7500   -6.4952    0.0000 C   0  0  0  0  0  0
    1.5000   -7.7942    0.0000 C   0  0  0  0  0  0
    3.0000   -7.7942    0.0000 C   0  0  0  0  0  0
    3.7500   -6.4952    0.0000 C   0  0  0  0  0  0
    3.0000   -5.1962    0.0000 C   0  0  0  0  0  0
   -3.7842  -10.7465    0.0000 C   0  0  0  0  0  0
   -2.5707   -9.8648    0.0000 O   0  0  0  0  0  0
   -3.6274  -12.2383    0.0000 N   0  0  0  0  0  0
   -2.2571  -12.8484    0.0000 S   0  0  0  0  0  0
   -1.6470  -11.4780    0.0000 O   0  0  0  0  0  0
   -2.8672  -14.2187    0.0000 O   0  0  0  0  0  0
   -0.8868  -13.4585    0.0000 C   0  0  0  0  0  0
    0.3267  -12.5768    0.0000 C   0  0  0  0  0  0
    1.6970  -13.1869    0.0000 C   0  0  0  0  0  0
    2.9106  -12.3052    0.0000 C   0  0  0  0  0  0
    4.2809  -12.9153    0.0000 C   0  0  0  0  0  0
  1  2  1  0  0  0
  2  3  1  0  0  0
  3  4  1  0  0  0
  4  5  1  0  0  0
  4 47  1  1  0  0
  5  6  1  0  0  0
  6  7  2  0  0  0
  6  8  1  0  0  0
  8  9  1  0  0  0
  8 12  1  1  0  0
  9 10  1  0  0  0
 10 11  1  0  0  0
 10 28  1  6  0  0
 11 12  1  0  0  0
 12 13  1  0  0  0
 13 14  2  0  0  0
 13 15  1  0  0  0
 15 16  1  0  0  0
 15 24  1  6  0  0
 16 17  1  0  0  0
 17 18  2  0  0  0
 17 19  1  0  0  0
 19 20  1  0  0  0
 20 21  1  0  0  0
 20 22  1  0  0  0
 20 23  1  0  0  0
 24 25  1  0  0  0
 24 26  1  0  0  0
 24 27  1  0  0  0
 28 29  1  0  0  0
 29 30  2  0  0  0
 29 40  1  0  0  0
 30 31  1  0  0  0
 31 32  2  0  0  0
 31 41  1  0  0  0
 32 33  1  0  0  0
 33 34  2  0  0  0
 33 40  1  0  0  0
 34 35  1  0  0  0
 35 36  1  0  0  0
 35 38  2  0  0  0
 36 37  1  0  0  0
 38 39  1  0  0  0
 39 40  2  0  0  0
 41 42  2  0  0  0
 41 46  1  0  0  0
 42 43  1  0  0  0
 43 44  2  0  0  0
 44 45  1  0  0  0
 45 46  2  0  0  0
 47 48  2  0  0  0
 47 49  1  0  0  0
 49 50  1  0  0  0
 50 51  2  0  0  0
 50 52  2  0  0  0
 50 53  1  0  0  0
 53 54  1  0  0  0
 54 55  1  0  0  0
 55 56  1  0  0  0
 56 57  2  0  0  0
M  END
> <s_m_entry_id>
6669

> <s_m_entry_name>
NS3-4A.210

> <CHEMBLID>
CHEMBL1170421

> <s_m_Source_Path>
/home/liwei/Desktop/Machine/HCV/Active

> <s_m_Source_File>
NS3-4A.sdf

> <i_m_Source_File_Index>
210

$$$$
CHEMBL1779109
                    3D
 Structure written by MMmdl.
 55 60  0  0  1  0            999 V2000
    2.8088   -3.0813    0.0000 C   0  0  0  0  0  0
    2.2401   -2.4844    0.0000 C   0  0  2  0  0  0
    2.0092   -3.2743    0.0000 C   0  0  2  0  0  0
   -1.3086   -0.3697    0.0000 C   0  0  0  0  0  0
   -0.5058   -0.1748    0.0000 C   0  0  0  0  0  0
   -0.2764    0.6232    0.0000 C   0  0  0  0  0  0
   -0.8485    1.2180    0.0000 N   0  0  0  0  0  0
   -1.8765    0.2234    0.0000 C   0  0  0  0  0  0
   -1.6439    1.0155    0.0000 C   0  0  0  0  0  0
   -2.2129    1.6129    0.0000 C   0  0  0  0  0  0
   -3.0158    1.4158    0.0000 C   0  0  0  0  0  0
   -3.2455    0.6196    0.0000 C   0  0  0  0  0  0
   -2.6738    0.0293    0.0000 C   0  0  0  0  0  0
    0.5252    0.8273    0.0000 C   0  0  0  0  0  0
    1.1567    0.2943    0.0000 C   0  0  0  0  0  0
    1.8582    0.7320    0.0000 S   0  0  0  0  0  0
    1.6571    1.5337    0.0000 C   0  0  0  0  0  0
    0.8342    1.5922    0.0000 N   0  0  0  0  0  0
   -3.5869    2.0134    0.0000 O   0  0  0  0  0  0
   -4.3892    1.8149    0.0000 C   0  0  0  0  0  0
   -1.5395   -1.1622    0.0000 O   0  0  0  0  0  0
    2.1900    2.1653    0.0000 N   0  0  0  0  0  0
    3.0025    2.0214    0.0000 C   0  0  0  0  0  0
    3.5316    2.6540    0.0000 C   0  0  0  0  0  0
    3.2820    1.2458    0.0000 C   0  0  0  0  0  0
   -1.0394   -1.8205    0.0000 C   0  0  1  0  0  0
   -1.2731   -2.6096    0.0000 C   0  0  0  0  0  0
   -0.5945   -3.0784    0.0000 N   0  0  0  0  0  0
    0.0639   -2.5783    0.0000 C   0  0  1  0  0  0
   -0.2111   -1.8021    0.0000 C   0  0  0  0  0  0
    0.8541   -2.8156    0.0000 C   0  0  0  0  0  0
   -0.5734   -3.9043    0.0000 C   0  0  0  0  0  0
   -1.2813   -4.3355    0.0000 C   0  0  2  0  0  0
    0.1504   -4.3000    0.0000 O   0  0  0  0  0  0
    1.0417   -3.6186    0.0000 O   0  0  0  0  0  0
    1.4530   -2.2489    0.0000 N   0  0  0  0  0  0
    2.8448   -1.9242    0.0000 P   0  0  3  0  0  0
    2.2024   -4.0709    0.0000 C   0  0  0  0  0  0
    1.6022   -4.6391    0.0000 C   0  0  0  0  0  0
   -1.2657   -5.1603    0.0000 C   0  0  0  0  0  0
   -2.0044   -3.9383    0.0000 N   0  0  0  0  0  0
   -2.7109   -4.3623    0.0000 C   0  0  0  0  0  0
   -3.4340   -3.9651    0.0000 O   0  0  0  0  0  0
   -2.6952   -5.1871    0.0000 O   0  0  0  0  0  0
   -3.4497   -3.1404    0.0000 C   0  0  0  0  0  0
   -2.7942   -2.6424    0.0000 C   0  0  0  0  0  0
   -3.0676   -1.8656    0.0000 C   0  0  0  0  0  0
   -3.8925   -1.8813    0.0000 C   0  0  0  0  0  0
   -4.1312   -2.6710    0.0000 C   0  0  0  0  0  0
   -1.9732   -5.5879    0.0000 C   0  0  0  0  0  0
   -0.5426   -5.5574    0.0000 C   0  0  0  0  0  0
   -1.0736   -5.9583    0.0000 C   0  0  0  0  0  0
    2.6628   -1.1234    0.0000 O   0  0  0  0  0  0
    3.6336   -1.7083    0.0000 O   0  0  0  0  0  0
    3.4206   -2.4986    0.0000 C   0  0  0  0  0  0
  1  3  1  0  0  0
  1  2  1  0  0  0
  2  3  1  0  0  0
  2 36  1  0  0  0
  2 37  1  6  0  0
  3 38  1  1  0  0
  4  8  1  0  0  0
  4 21  1  0  0  0
  4  5  2  0  0  0
  5  6  1  0  0  0
  6  7  2  0  0  0
  6 14  1  0  0  0
  7  9  1  0  0  0
  8 13  2  0  0  0
  8  9  1  0  0  0
  9 10  2  0  0  0
 10 11  1  0  0  0
 11 19  1  0  0  0
 11 12  2  0  0  0
 12 13  1  0  0  0
 14 15  2  0  0  0
 14 18  1  0  0  0
 15 16  1  0  0  0
 16 17  1  0  0  0
 17 18  2  0  0  0
 17 22  1  0  0  0
 19 20  1  0  0  0
 21 26  1  0  0  0
 22 23  1  0  0  0
 23 24  1  0  0  0
 23 25  1  0  0  0
 26 27  1  0  0  0
 26 30  1  1  0  0
 27 28  1  0  0  0
 28 29  1  0  0  0
 28 32  1  0  0  0
 29 30  1  0  0  0
 29 31  1  6  0  0
 31 35  2  0  0  0
 31 36  1  0  0  0
 32 33  1  0  0  0
 32 34  2  0  0  0
 33 40  1  0  0  0
 33 41  1  1  0  0
 37 53  2  0  0  0
 37 54  1  0  0  0
 37 55  1  0  0  0
 38 39  2  0  0  0
 40 50  1  0  0  0
 40 51  1  0  0  0
 40 52  1  0  0  0
 41 42  1  0  0  0
 42 43  1  0  0  0
 42 44  2  0  0  0
 43 45  1  0  0  0
 45 46  1  0  0  0
 45 49  1  0  0  0
 46 47  1  0  0  0
 47 48  1  0  0  0
 48 49  1  0  0  0
M  END
> <s_m_entry_id>
6932

> <s_m_entry_name>
CHEMBL1779109.1

> <CHEMBLID>
CHEMBL1779109

> <s_m_Source_Path>
/home/liwei/Desktop/Machine/HCV/Active/buchong

> <s_m_Source_File>
CHEMBL1779109.sdf

> <i_m_Source_File_Index>
1

> <MOLREGNO>
1147578

> <MAX_PHASE>
0

> <MOLWEIGHT>
796.91

> <ALOGP>
5.16

> <PSA>
219.35

> <HBA>
11

> <HBD>
4

> <RO5>
3

> <RTB>
15

> <RO3>
N

> <ACD_MOST_APKA>
3.08

> <ACD_LOGP>
5.03

> <ACD_LOGD>
1.59

> <AROMATIC_RINGS>
3

> <HEAVY_ATOMS>
55

> <QED_WEIGHTED>
0.12

> <HBA_LIPINSKI>
14

> <HBD_LIPINSKI>
4

> <NUM_LIPINSKI_RO5_VIOLATIONS>
2

> <MW_MONOISOTOPIC>
796.3383

> <MOLECULAR_SPECIES>
ACID

> <FULL_MOLFORMULA>
C39H53N6O8PS

> <ACD_MOST_BPKA>
3.13

$$$$
CHEMBL1790303
                    3D
 Structure written by MMmdl.
 45 45  0  0  1  0            999 V2000
    5.7760    7.7942    0.0000 C   0  0  0  0  0  0
    5.0260    6.4952    0.0000 C   0  0  0  0  0  0
    3.5260    6.4952    0.0000 C   0  0  2  0  0  0
    2.7760    7.7942    0.0000 C   0  0  0  0  0  0
    2.7760    5.1962    0.0000 C   0  0  2  0  0  0
    1.2760    5.1962    0.0000 N   0  0  0  0  0  0
    0.5260    6.4952    0.0000 C   0  0  0  0  0  0
    1.2760    7.7942    0.0000 O   0  0  0  0  0  0
   -0.9740    6.4952    0.0000 C   0  0  2  0  0  0
   -1.7240    7.7942    0.0000 C   0  0  0  0  0  0
   -0.9740    9.0933    0.0000 C   0  0  0  0  0  0
    0.5260    9.0933    0.0000 O   0  0  0  0  0  0
   -1.7240   10.3923    0.0000 O   0  0  0  0  0  0
   -1.7240    5.1962    0.0000 N   0  0  0  0  0  0
   -3.2240    5.1962    0.0000 C   0  0  0  0  0  0
   -3.9740    6.4952    0.0000 O   0  0  0  0  0  0
   -3.9740    3.8971    0.0000 C   0  0  1  0  0  0
   -3.2240    2.5981    0.0000 N   0  0  0  0  0  0
   -5.4740    3.8971    0.0000 C   0  0  0  0  0  0
   -6.2240    2.5981    0.0000 C   0  0  0  0  0  0
   -5.4740    1.2990    0.0000 O   0  0  0  0  0  0
   -7.7240    2.5981    0.0000 O   0  0  0  0  0  0
    3.5260    3.8971    0.0000 C   0  0  0  0  0  0
    5.0260    3.8971    0.0000 O   0  0  0  0  0  0
    2.7760    2.5981    0.0000 N   0  0  0  0  0  0
    3.5260    1.2990    0.0000 C   0  0  1  0  0  0
    5.0260    1.2990    0.0000 C   0  0  0  0  0  0
    5.7760    2.5981    0.0000 C   0  0  0  0  0  0
    5.7760   -0.0000    0.0000 C   0  0  0  0  0  0
    2.7760    0.0000    0.0000 C   0  0  0  0  0  0
    3.5260   -1.2990    0.0000 O   0  0  0  0  0  0
    1.2760    0.0000    0.0000 N   0  0  0  0  0  0
    0.3943    1.2135    0.0000 C   0  0  0  0  0  0
   -1.0323    0.7500    0.0000 C   0  0  0  0  0  0
   -1.0323   -0.7500    0.0000 C   0  0  0  0  0  0
    0.3943   -1.2135    0.0000 C   0  0  1  0  0  0
    0.8578   -2.6401    0.0000 C   0  0  0  0  0  0
    2.3250   -2.9520    0.0000 O   0  0  0  0  0  0
   -0.1459   -3.7548    0.0000 N   0  0  0  0  0  0
    0.3177   -5.1814    0.0000 C   0  0  1  0  0  0
    1.7849   -5.4933    0.0000 C   0  0  0  0  0  0
    2.2484   -6.9199    0.0000 S   0  0  0  0  0  0
   -0.6860   -6.2961    0.0000 C   0  0  0  0  0  0
   -2.1533   -5.9843    0.0000 O   0  0  0  0  0  0
   -0.2225   -7.7227    0.0000 O   0  0  0  0  0  0
  1  2  1  0  0  0
  2  3  1  0  0  0
  3  4  1  0  0  0
  3  5  1  1  0  0
  5  6  1  0  0  0
  5 23  1  1  0  0
  6  7  1  0  0  0
  7  8  2  0  0  0
  7  9  1  0  0  0
  9 10  1  0  0  0
  9 14  1  1  0  0
 10 11  1  0  0  0
 11 12  2  0  0  0
 11 13  1  0  0  0
 14 15  1  0  0  0
 15 16  2  0  0  0
 15 17  1  0  0  0
 17 18  1  0  0  0
 17 19  1  6  0  0
 19 20  1  0  0  0
 20 21  2  0  0  0
 20 22  1  0  0  0
 23 24  2  0  0  0
 23 25  1  0  0  0
 25 26  1  0  0  0
 26 27  1  0  0  0
 26 30  1  6  0  0
 27 28  1  0  0  0
 27 29  1  0  0  0
 30 31  2  0  0  0
 30 32  1  0  0  0
 32 33  1  0  0  0
 32 36  1  0  0  0
 33 34  1  0  0  0
 34 35  1  0  0  0
 35 36  1  0  0  0
 36 37  1  6  0  0
 37 38  2  0  0  0
 37 39  1  0  0  0
 39 40  1  0  0  0
 40 41  1  0  0  0
 40 43  1  1  0  0
 41 42  1  0  0  0
 43 44  2  0  0  0
 43 45  1  0  0  0
M  END
> <s_m_entry_id>
6671

> <s_m_entry_name>
NS3-4A.212

> <CHEMBLID>
CHEMBL1790303

> <s_m_Source_Path>
/home/liwei/Desktop/Machine/HCV/Active

> <s_m_Source_File>
NS3-4A.sdf

> <i_m_Source_File_Index>
212

$$$$
CHEMBL2013171
                    3D
 Structure written by MMmdl.
 58 64  0  0  1  0            999 V2000
   10.7372    0.4348    0.0000 C   0  0  0  0  0  0
   11.4537    0.8481    0.0000 C   0  0  0  0  0  0
   11.4508    1.6787    0.0000 C   0  0  0  0  0  0
   10.7354    2.0878    0.0000 N   0  0  0  0  0  0
   10.0224    0.8477    0.0000 C   0  0  0  0  0  0
   10.0247    1.6732    0.0000 C   0  0  0  0  0  0
    9.3120    2.0862    0.0000 C   0  0  0  0  0  0
    8.5966    1.6748    0.0000 C   0  0  0  0  0  0
    8.5983    0.8460    0.0000 C   0  0  0  0  0  0
    9.3115    0.4368    0.0000 C   0  0  0  0  0  0
   12.1615    2.0922    0.0000 C   0  0  0  0  0  0
   12.9388    1.8152    0.0000 N   0  0  0  0  0  0
   13.4425    2.4686    0.0000 C   0  0  0  0  0  0
   12.9768    3.1496    0.0000 S   0  0  0  0  0  0
   12.1853    2.9170    0.0000 C   0  0  0  0  0  0
    7.8820    2.0871    0.0000 O   0  0  0  0  0  0
    7.1676    1.6745    0.0000 C   0  0  0  0  0  0
   14.2672    2.4451    0.0000 N   0  0  0  0  0  0
   14.6591    1.7191    0.0000 C   0  0  0  0  0  0
   15.4838    1.6956    0.0000 C   0  0  0  0  0  0
   14.2264    1.0167    0.0000 C   0  0  0  0  0  0
   10.7370   -0.3902    0.0000 O   0  0  0  0  0  0
   11.4511   -0.8030    0.0000 C   0  0  1  0  0  0
   11.4594   -1.6310    0.0000 C   0  0  0  0  0  0
   12.2470   -1.8767    0.0000 N   0  0  0  0  0  0
   12.7241   -1.2035    0.0000 C   0  0  1  0  0  0
   12.2313   -0.5419    0.0000 C   0  0  0  0  0  0
   12.5111   -2.6582    0.0000 C   0  0  0  0  0  0
   11.9663   -3.2778    0.0000 C   0  0  1  0  0  0
   13.3201   -2.8203    0.0000 O   0  0  0  0  0  0
   11.1570   -3.1161    0.0000 N   0  0  0  0  0  0
   12.2305   -4.0593    0.0000 C   0  0  0  0  0  0
   13.5490   -1.1938    0.0000 C   0  0  0  0  0  0
   13.9699   -1.9033    0.0000 N   0  0  0  0  0  0
   13.9530   -0.4745    0.0000 O   0  0  0  0  0  0
    9.3134    2.9112    0.0000 Cl  0  0  0  0  0  0
   11.6857   -4.6789    0.0000 C   0  0  0  0  0  0
   13.0394   -4.2214    0.0000 C   0  0  0  0  0  0
   12.4417   -4.8542    0.0000 C   0  0  0  0  0  0
   10.5430   -3.6671    0.0000 C   0  0  0  0  0  0
    9.7588   -3.4108    0.0000 O   0  0  0  0  0  0
   10.7131   -4.4743    0.0000 O   0  0  0  0  0  0
    9.1447   -3.9618    0.0000 C   0  0  2  0  0  0
   14.7951   -1.8932    0.0000 C   0  0  1  0  0  0
   15.2096   -2.6032    0.0000 C   0  0  1  0  0  0
   15.6185   -1.8867    0.0000 C   0  0  0  0  0  0
   15.0042   -1.0917    0.0000 C   0  0  0  0  0  0
   15.7996   -0.8729    0.0000 O   0  0  0  0  0  0
   14.4170   -0.5122    0.0000 O   0  0  0  0  0  0
   15.2137   -3.4282    0.0000 C   0  0  0  0  0  0
   14.5013   -3.8442    0.0000 C   0  0  0  0  0  0
    8.3406   -3.7933    0.0000 C   0  0  0  0  0  0
    9.2321   -4.7867    0.0000 C   0  0  0  0  0  0
    8.4779   -5.1211    0.0000 C   0  0  2  0  0  0
    7.9259   -4.5106    0.0000 C   0  0  1  0  0  0
    7.6732   -5.2939    0.0000 C   0  0  0  0  0  0
    8.4708   -5.9458    0.0000 H   0  0  0  0  0  0
    7.1000   -4.5083    0.0000 H   0  0  0  0  0  0
  1 22  1  0  0  0
  1  2  2  0  0  0
  1  5  1  0  0  0
  2  3  1  0  0  0
  3 11  1  0  0  0
  3  4  2  0  0  0
  4  6  1  0  0  0
  5 10  2  0  0  0
  5  6  1  0  0  0
  6  7  2  0  0  0
  7  8  1  0  0  0
  7 36  1  0  0  0
  8 16  1  0  0  0
  8  9  2  0  0  0
  9 10  1  0  0  0
 11 15  2  0  0  0
 11 12  1  0  0  0
 12 13  2  0  0  0
 13 14  1  0  0  0
 13 18  1  0  0  0
 14 15  1  0  0  0
 16 17  1  0  0  0
 18 19  1  0  0  0
 19 20  1  0  0  0
 19 21  1  0  0  0
 22 23  1  0  0  0
 23 24  1  0  0  0
 23 27  1  1  0  0
 24 25  1  0  0  0
 25 28  1  0  0  0
 25 26  1  0  0  0
 26 33  1  0  0  0
 26 27  1  6  0  0
 28 29  1  0  0  0
 28 30  2  0  0  0
 29 31  1  0  0  0
 29 32  1  6  0  0
 31 40  1  0  0  0
 32 37  1  0  0  0
 32 38  1  0  0  0
 32 39  1  0  0  0
 33 34  1  0  0  0
 33 35  2  0  0  0
 34 44  1  0  0  0
 40 41  1  0  0  0
 40 42  2  0  0  0
 41 43  1  0  0  0
 43 52  1  0  0  0
 43 53  1  1  0  0
 44 45  1  0  0  0
 44 46  1  0  0  0
 44 47  1  6  0  0
 45 46  1  0  0  0
 45 50  1  1  0  0
 47 48  1  0  0  0
 47 49  2  0  0  0
 50 51  1  0  0  0
 52 55  1  0  0  0
 53 54  1  0  0  0
 54 55  1  0  0  0
 54 56  1  0  0  0
 54 57  1  1  0  0
 55 56  1  0  0  0
 55 58  1  1  0  0
M  END
> <s_m_entry_id>
6926

> <s_m_entry_name>
CHEMBL2013171.1

> <CHEMBLID>
CHEMBL2013171

> <s_m_Source_Path>
/home/liwei/Desktop/Machine/HCV/Active/buchong

> <s_m_Source_File>
CHEMBL2013171.sdf

> <i_m_Source_File_Index>
1

> <MOLREGNO>
1334238

> <MAX_PHASE>
0

> <MOLWEIGHT>
811.39

> <ALOGP>
6.26

> <PSA>
209.54

> <HBA>
11

> <HBD>
4

> <RO5>
3

> <RTB>
15

> <RO3>
N

> <ACD_MOST_APKA>
4.54

> <ACD_LOGP>
6.41

> <ACD_LOGD>
3.6

> <AROMATIC_RINGS>
3

> <HEAVY_ATOMS>
56

> <QED_WEIGHTED>
0.14

> <HBA_LIPINSKI>
14

> <HBD_LIPINSKI>
4

> <NUM_LIPINSKI_RO5_VIOLATIONS>
2

> <MW_MONOISOTOPIC>
810.3178

> <MOLECULAR_SPECIES>
ACID

> <FULL_MOLFORMULA>
C40H51ClN6O8S

> <ACD_MOST_BPKA>
1.59

$$$$
CHEMBL2013172
                    3D
 Structure written by MMmdl.
 60 66  0  0  1  0            999 V2000
   -3.8250  -16.7583    0.0000 F   0  0  0  0  0  0
   -3.6083  -15.9625    0.0000 C   0  0  0  0  0  0
   -4.4059  -16.1728    0.0000 F   0  0  0  0  0  0
   -0.5336  -10.2360    0.0000 C   0  0  0  0  0  0
    0.1828   -9.8227    0.0000 C   0  0  0  0  0  0
    0.1800   -8.9922    0.0000 C   0  0  0  0  0  0
   -0.5354   -8.5830    0.0000 N   0  0  0  0  0  0
   -1.2484   -9.8232    0.0000 C   0  0  0  0  0  0
   -1.2461   -8.9976    0.0000 C   0  0  0  0  0  0
   -1.9588   -8.5846    0.0000 C   0  0  0  0  0  0
   -2.6743   -8.9961    0.0000 C   0  0  0  0  0  0
   -2.6726   -9.8248    0.0000 C   0  0  0  0  0  0
   -1.9593  -10.2340    0.0000 C   0  0  0  0  0  0
    0.8906   -8.5787    0.0000 C   0  0  0  0  0  0
    1.6679   -8.8556    0.0000 N   0  0  0  0  0  0
    2.1717   -8.2023    0.0000 C   0  0  0  0  0  0
    1.7060   -7.5212    0.0000 S   0  0  0  0  0  0
    0.9145   -7.7538    0.0000 C   0  0  0  0  0  0
   -3.3888   -8.5837    0.0000 O   0  0  0  0  0  0
   -4.1032   -8.9963    0.0000 C   0  0  0  0  0  0
    2.9964   -8.2258    0.0000 N   0  0  0  0  0  0
    3.3883   -8.9517    0.0000 C   0  0  0  0  0  0
    4.2130   -8.9753    0.0000 C   0  0  0  0  0  0
    2.9556   -9.6541    0.0000 C   0  0  0  0  0  0
   -0.5338  -11.0610    0.0000 O   0  0  0  0  0  0
    0.1803  -11.4738    0.0000 C   0  0  1  0  0  0
    0.1886  -12.3018    0.0000 C   0  0  0  0  0  0
    0.9762  -12.5475    0.0000 N   0  0  0  0  0  0
    1.4532  -11.8744    0.0000 C   0  0  1  0  0  0
    0.9604  -11.2128    0.0000 C   0  0  0  0  0  0
    1.2403  -13.3291    0.0000 C   0  0  0  0  0  0
    0.6955  -13.9486    0.0000 C   0  0  1  0  0  0
    2.0492  -13.4911    0.0000 O   0  0  0  0  0  0
   -0.1138  -13.7869    0.0000 N   0  0  0  0  0  0
    0.9596  -14.7302    0.0000 C   0  0  0  0  0  0
    2.2782  -11.8646    0.0000 C   0  0  0  0  0  0
    2.6991  -12.5742    0.0000 N   0  0  0  0  0  0
    2.6822  -11.1453    0.0000 O   0  0  0  0  0  0
   -1.9574   -7.7596    0.0000 Cl  0  0  0  0  0  0
    0.4148  -15.3497    0.0000 C   0  0  0  0  0  0
    1.7686  -14.8922    0.0000 C   0  0  0  0  0  0
    1.1708  -15.5250    0.0000 C   0  0  0  0  0  0
   -0.7279  -14.3379    0.0000 C   0  0  0  0  0  0
   -1.5121  -14.0816    0.0000 O   0  0  0  0  0  0
   -0.5577  -15.1452    0.0000 O   0  0  0  0  0  0
   -2.1261  -14.6326    0.0000 C   0  0  2  0  0  0
    3.5242  -12.5641    0.0000 C   0  0  1  0  0  0
    3.9388  -13.2740    0.0000 C   0  0  1  0  0  0
    4.3477  -12.5575    0.0000 C   0  0  0  0  0  0
    3.7333  -11.7625    0.0000 C   0  0  0  0  0  0
    4.5288  -11.5437    0.0000 O   0  0  0  0  0  0
    3.1461  -11.1830    0.0000 O   0  0  0  0  0  0
    3.9429  -14.0990    0.0000 C   0  0  0  0  0  0
    3.2304  -14.5151    0.0000 C   0  0  0  0  0  0
   -2.9347  -14.4631    0.0000 C   0  0  0  0  0  0
   -2.0433  -15.4566    0.0000 C   0  0  0  0  0  0
   -2.7974  -15.7910    0.0000 C   0  0  2  0  0  0
   -3.3519  -15.1762    0.0000 C   0  0  1  0  0  0
   -4.1792  -15.1708    0.0000 H   0  0  0  0  0  0
   -2.8042  -16.6125    0.0000 H   0  0  0  0  0  0
  1  2  1  0  0  0
  2  3  1  0  0  0
  2 58  1  0  0  0
  2 57  1  0  0  0
  4  8  1  0  0  0
  4  5  2  0  0  0
  4 25  1  0  0  0
  5  6  1  0  0  0
  6 14  1  0  0  0
  6  7  2  0  0  0
  7  9  1  0  0  0
  8  9  1  0  0  0
  8 13  2  0  0  0
  9 10  2  0  0  0
 10 39  1  0  0  0
 10 11  1  0  0  0
 11 19  1  0  0  0
 11 12  2  0  0  0
 12 13  1  0  0  0
 14 18  2  0  0  0
 14 15  1  0  0  0
 15 16  2  0  0  0
 16 17  1  0  0  0
 16 21  1  0  0  0
 17 18  1  0  0  0
 19 20  1  0  0  0
 21 22  1  0  0  0
 22 23  1  0  0  0
 22 24  1  0  0  0
 25 26  1  0  0  0
 26 30  1  0  0  0
 26 27  1  1  0  0
 27 28  1  0  0  0
 28 29  1  0  0  0
 28 31  1  0  0  0
 29 30  1  0  0  0
 29 36  1  6  0  0
 31 32  1  0  0  0
 31 33  2  0  0  0
 32 34  1  0  0  0
 32 35  1  6  0  0
 34 43  1  0  0  0
 35 40  1  0  0  0
 35 41  1  0  0  0
 35 42  1  0  0  0
 36 37  1  0  0  0
 36 38  2  0  0  0
 37 47  1  0  0  0
 43 44  1  0  0  0
 43 45  2  0  0  0
 44 46  1  0  0  0
 46 55  1  0  0  0
 46 56  1  1  0  0
 47 48  1  0  0  0
 47 49  1  0  0  0
 47 50  1  6  0  0
 48 49  1  0  0  0
 48 53  1  1  0  0
 50 51  1  0  0  0
 50 52  2  0  0  0
 53 54  1  0  0  0
 55 58  1  0  0  0
 56 57  1  0  0  0
 57 58  1  0  0  0
 57 60  1  1  0  0
 58 59  1  1  0  0
M  END
> <s_m_entry_id>
6927

> <s_m_entry_name>
CHEMBL2013172.1

> <CHEMBLID>
CHEMBL2013172

> <s_m_Source_Path>
/home/liwei/Desktop/Machine/HCV/Active/buchong

> <s_m_Source_File>
CHEMBL2013172.sdf

> <i_m_Source_File_Index>
1

> <MOLREGNO>
1334239

> <MAX_PHASE>
0

> <MOLWEIGHT>
847.37

> <ALOGP>
5.9

> <PSA>
209.54

> <HBA>
11

> <HBD>
4

> <RO5>
3

> <RTB>
15

> <RO3>
N

> <ACD_MOST_APKA>
4.54

> <ACD_LOGP>
5.46

> <ACD_LOGD>
2.65

> <AROMATIC_RINGS>
3

> <HEAVY_ATOMS>
58

> <QED_WEIGHTED>
0.14

> <HBA_LIPINSKI>
14

> <HBD_LIPINSKI>
4

> <NUM_LIPINSKI_RO5_VIOLATIONS>
2

> <MW_MONOISOTOPIC>
846.2989

> <MOLECULAR_SPECIES>
ACID

> <FULL_MOLFORMULA>
C40H49ClF2N6O8S

> <ACD_MOST_BPKA>
1.59

$$$$
CHEMBL2013173
                    3D
 Structure written by MMmdl.
 60 66  0  0  1  0            999 V2000
    7.5792  -16.5375    0.0000 F   0  0  0  0  0  0
    7.7958  -15.7417    0.0000 C   0  0  0  0  0  0
    6.9983  -15.9519    0.0000 F   0  0  0  0  0  0
   10.8706  -10.0152    0.0000 C   0  0  0  0  0  0
   11.5870   -9.6019    0.0000 C   0  0  0  0  0  0
   11.5841   -8.7713    0.0000 C   0  0  0  0  0  0
   10.8688   -8.3622    0.0000 N   0  0  0  0  0  0
   10.1557   -9.6023    0.0000 C   0  0  0  0  0  0
   10.1581   -8.7768    0.0000 C   0  0  0  0  0  0
    9.4454   -8.3638    0.0000 C   0  0  0  0  0  0
    8.7299   -8.7752    0.0000 C   0  0  0  0  0  0
    8.7316   -9.6040    0.0000 C   0  0  0  0  0  0
    9.4449  -10.0132    0.0000 C   0  0  0  0  0  0
   12.2948   -8.3578    0.0000 C   0  0  0  0  0  0
   13.0721   -8.6348    0.0000 N   0  0  0  0  0  0
   13.5759   -7.9814    0.0000 C   0  0  0  0  0  0
   13.1101   -7.3004    0.0000 S   0  0  0  0  0  0
   12.3186   -7.5330    0.0000 C   0  0  0  0  0  0
    8.0154   -8.3629    0.0000 O   0  0  0  0  0  0
    7.3010   -8.7755    0.0000 C   0  0  0  0  0  0
   14.4005   -8.0049    0.0000 N   0  0  0  0  0  0
   14.7925   -8.7309    0.0000 C   0  0  0  0  0  0
   15.6171   -8.7544    0.0000 C   0  0  0  0  0  0
   14.3598   -9.4333    0.0000 C   0  0  0  0  0  0
   10.8704  -10.8402    0.0000 O   0  0  0  0  0  0
   11.5845  -11.2530    0.0000 C   0  0  1  0  0  0
   11.5928  -12.0810    0.0000 C   0  0  0  0  0  0
   12.3803  -12.3267    0.0000 N   0  0  0  0  0  0
   12.8574  -11.6535    0.0000 C   0  0  1  0  0  0
   12.3646  -10.9919    0.0000 C   0  0  0  0  0  0
   12.6445  -13.1082    0.0000 C   0  0  0  0  0  0
   12.0997  -13.7278    0.0000 C   0  0  1  0  0  0
   13.4534  -13.2703    0.0000 O   0  0  0  0  0  0
   11.2903  -13.5661    0.0000 N   0  0  0  0  0  0
   12.3638  -14.5093    0.0000 C   0  0  0  0  0  0
   13.6823  -11.6438    0.0000 C   0  0  0  0  0  0
   14.1033  -12.3533    0.0000 N   0  0  0  0  0  0
   14.0864  -10.9245    0.0000 O   0  0  0  0  0  0
    9.4467   -7.5388    0.0000 Cl  0  0  0  0  0  0
   11.8190  -15.1289    0.0000 C   0  0  0  0  0  0
   13.1727  -14.6714    0.0000 C   0  0  0  0  0  0
   12.5750  -15.3042    0.0000 C   0  0  0  0  0  0
   10.6763  -14.1171    0.0000 C   0  0  0  0  0  0
    9.8921  -13.8608    0.0000 O   0  0  0  0  0  0
   10.8464  -14.9243    0.0000 O   0  0  0  0  0  0
    9.2781  -14.4118    0.0000 C   0  0  1  0  0  0
   14.9284  -12.3432    0.0000 C   0  0  1  0  0  0
   15.3429  -13.0532    0.0000 C   0  0  1  0  0  0
   15.7518  -12.3367    0.0000 C   0  0  0  0  0  0
   15.1375  -11.5417    0.0000 C   0  0  0  0  0  0
   15.9330  -11.3229    0.0000 O   0  0  0  0  0  0
   14.5503  -10.9622    0.0000 O   0  0  0  0  0  0
   15.3470  -13.8782    0.0000 C   0  0  0  0  0  0
   14.6346  -14.2942    0.0000 C   0  0  0  0  0  0
    8.4695  -14.2423    0.0000 C   0  0  0  0  0  0
    9.3609  -15.2358    0.0000 C   0  0  0  0  0  0
    8.6067  -15.5701    0.0000 C   0  0  2  0  0  0
    8.0522  -14.9553    0.0000 C   0  0  1  0  0  0
    7.2250  -14.9500    0.0000 H   0  0  0  0  0  0
    8.6000  -16.3917    0.0000 H   0  0  0  0  0  0
  1  2  1  0  0  0
  2  3  1  0  0  0
  2 58  1  0  0  0
  2 57  1  0  0  0
  4  8  1  0  0  0
  4  5  2  0  0  0
  4 25  1  0  0  0
  5  6  1  0  0  0
  6 14  1  0  0  0
  6  7  2  0  0  0
  7  9  1  0  0  0
  8  9  1  0  0  0
  8 13  2  0  0  0
  9 10  2  0  0  0
 10 39  1  0  0  0
 10 11  1  0  0  0
 11 19  1  0  0  0
 11 12  2  0  0  0
 12 13  1  0  0  0
 14 18  2  0  0  0
 14 15  1  0  0  0
 15 16  2  0  0  0
 16 17  1  0  0  0
 16 21  1  0  0  0
 17 18  1  0  0  0
 19 20  1  0  0  0
 21 22  1  0  0  0
 22 23  1  0  0  0
 22 24  1  0  0  0
 25 26  1  0  0  0
 26 30  1  0  0  0
 26 27  1  1  0  0
 27 28  1  0  0  0
 28 29  1  0  0  0
 28 31  1  0  0  0
 29 30  1  0  0  0
 29 36  1  6  0  0
 31 32  1  0  0  0
 31 33  2  0  0  0
 32 34  1  0  0  0
 32 35  1  6  0  0
 34 43  1  0  0  0
 35 40  1  0  0  0
 35 41  1  0  0  0
 35 42  1  0  0  0
 36 37  1  0  0  0
 36 38  2  0  0  0
 37 47  1  0  0  0
 43 44  1  0  0  0
 43 45  2  0  0  0
 44 46  1  0  0  0
 46 55  1  0  0  0
 46 56  1  1  0  0
 47 48  1  0  0  0
 47 49  1  0  0  0
 47 50  1  6  0  0
 48 49  1  0  0  0
 48 53  1  1  0  0
 50 51  1  0  0  0
 50 52  2  0  0  0
 53 54  1  0  0  0
 55 58  1  0  0  0
 56 57  1  0  0  0
 57 58  1  0  0  0
 57 60  1  1  0  0
 58 59  1  1  0  0
M  END
> <s_m_entry_id>
6928

> <s_m_entry_name>
CHEMBL2013173.1

> <CHEMBLID>
CHEMBL2013173

> <s_m_Source_Path>
/home/liwei/Desktop/Machine/HCV/Active/buchong

> <s_m_Source_File>
CHEMBL2013173.sdf

> <i_m_Source_File_Index>
1

> <MOLREGNO>
1334240

> <MAX_PHASE>
0

> <MOLWEIGHT>
847.37

> <ALOGP>
5.9

> <PSA>
209.54

> <HBA>
11

> <HBD>
4

> <RO5>
3

> <RTB>
15

> <RO3>
N

> <ACD_MOST_APKA>
4.54

> <ACD_LOGP>
5.46

> <ACD_LOGD>
2.65

> <AROMATIC_RINGS>
3

> <HEAVY_ATOMS>
58

> <QED_WEIGHTED>
0.14

> <HBA_LIPINSKI>
14

> <HBD_LIPINSKI>
4

> <NUM_LIPINSKI_RO5_VIOLATIONS>
2

> <MW_MONOISOTOPIC>
846.2989

> <MOLECULAR_SPECIES>
ACID

> <FULL_MOLFORMULA>
C40H49ClF2N6O8S

> <ACD_MOST_BPKA>
1.59

$$$$
CHEMBL2013175
                    3D
 Structure written by MMmdl.
 67 74  0  0  1  0            999 V2000
    9.4750  -18.2500    0.0000 C   0  0  0  0  0  0
    9.8917  -18.9667    0.0000 C   0  0  0  0  0  0
   10.3040  -18.2475    0.0000 C   0  0  0  0  0  0
   15.6081  -20.6194    0.0000 C   0  0  0  0  0  0
   16.3245  -20.2060    0.0000 C   0  0  0  0  0  0
   16.3216  -19.3755    0.0000 C   0  0  0  0  0  0
   15.6063  -18.9664    0.0000 N   0  0  0  0  0  0
   14.8932  -20.2065    0.0000 C   0  0  0  0  0  0
   14.8956  -19.3809    0.0000 C   0  0  0  0  0  0
   14.1829  -18.9680    0.0000 C   0  0  0  0  0  0
   13.4674  -19.3794    0.0000 C   0  0  0  0  0  0
   13.4691  -20.2081    0.0000 C   0  0  0  0  0  0
   14.1824  -20.6174    0.0000 C   0  0  0  0  0  0
   17.0323  -18.9620    0.0000 C   0  0  0  0  0  0
   17.8096  -19.2389    0.0000 N   0  0  0  0  0  0
   18.3134  -18.5856    0.0000 C   0  0  0  0  0  0
   17.8476  -17.9045    0.0000 S   0  0  0  0  0  0
   17.0561  -18.1371    0.0000 C   0  0  0  0  0  0
   12.7529  -18.9670    0.0000 O   0  0  0  0  0  0
   12.0385  -19.3797    0.0000 C   0  0  0  0  0  0
   19.1380  -18.6091    0.0000 N   0  0  0  0  0  0
   19.5300  -19.3351    0.0000 C   0  0  0  0  0  0
   20.3546  -19.3586    0.0000 C   0  0  0  0  0  0
   19.0973  -20.0375    0.0000 C   0  0  0  0  0  0
   15.6079  -21.4444    0.0000 O   0  0  0  0  0  0
   16.3220  -21.8572    0.0000 C   0  0  1  0  0  0
   16.3303  -22.6851    0.0000 C   0  0  0  0  0  0
   17.1178  -22.9308    0.0000 N   0  0  0  0  0  0
   17.5949  -22.2577    0.0000 C   0  0  1  0  0  0
   17.1021  -21.5961    0.0000 C   0  0  0  0  0  0
   17.3820  -23.7124    0.0000 C   0  0  0  0  0  0
   16.8372  -24.3319    0.0000 C   0  0  1  0  0  0
   18.1909  -23.8744    0.0000 O   0  0  0  0  0  0
   16.0278  -24.1703    0.0000 N   0  0  0  0  0  0
   17.1013  -25.1135    0.0000 C   0  0  0  0  0  0
   18.4198  -22.2479    0.0000 C   0  0  0  0  0  0
   18.8408  -22.9575    0.0000 N   0  0  0  0  0  0
   18.8239  -21.5286    0.0000 O   0  0  0  0  0  0
   14.1842  -18.1430    0.0000 Cl  0  0  0  0  0  0
   16.5565  -25.7331    0.0000 C   0  0  0  0  0  0
   17.9102  -25.2756    0.0000 C   0  0  0  0  0  0
   17.3125  -25.9083    0.0000 C   0  0  0  0  0  0
   15.4138  -24.7212    0.0000 C   0  0  0  0  0  0
   14.6296  -24.4650    0.0000 O   0  0  0  0  0  0
   15.5839  -25.5285    0.0000 O   0  0  0  0  0  0
   14.0156  -25.0159    0.0000 C   0  0  2  0  0  0
   19.6659  -22.9474    0.0000 C   0  0  1  0  0  0
   20.0804  -23.6574    0.0000 C   0  0  1  0  0  0
   20.4893  -22.9408    0.0000 C   0  0  0  0  0  0
   19.8750  -22.1458    0.0000 C   0  0  0  0  0  0
   20.6705  -21.9270    0.0000 O   0  0  0  0  0  0
   19.2878  -21.5663    0.0000 O   0  0  0  0  0  0
   20.0845  -24.4824    0.0000 C   0  0  0  0  0  0
   19.3721  -24.8984    0.0000 C   0  0  0  0  0  0
   13.2114  -24.8474    0.0000 C   0  0  0  0  0  0
   14.1029  -25.8409    0.0000 C   0  0  0  0  0  0
   13.3487  -26.1753    0.0000 C   0  0  2  0  0  0
   12.7968  -25.5648    0.0000 C   0  0  1  0  0  0
   12.5441  -26.3481    0.0000 C   0  0  0  0  0  0
   13.3417  -27.0000    0.0000 H   0  0  0  0  0  0
   11.9708  -25.5625    0.0000 H   0  0  0  0  0  0
   11.3239  -18.9673    0.0000 C   0  0  0  0  0  0
   10.6095  -19.3799    0.0000 N   0  0  0  0  0  0
    9.1819  -19.3777    0.0000 C   0  0  0  0  0  0
    9.1778  -20.2030    0.0000 O   0  0  0  0  0  0
    9.8922  -20.6176    0.0000 C   0  0  0  0  0  0
   10.6107  -20.2068    0.0000 C   0  0  0  0  0  0
  1  2  1  0  0  0
  2  3  1  0  0  0
  2 63  1  0  0  0
  2 64  1  0  0  0
  4  5  2  0  0  0
  4 25  1  0  0  0
  4  8  1  0  0  0
  5  6  1  0  0  0
  6 14  1  0  0  0
  6  7  2  0  0  0
  7  9  1  0  0  0
  8  9  1  0  0  0
  8 13  2  0  0  0
  9 10  2  0  0  0
 10 39  1  0  0  0
 10 11  1  0  0  0
 11 19  1  0  0  0
 11 12  2  0  0  0
 12 13  1  0  0  0
 14 18  2  0  0  0
 14 15  1  0  0  0
 15 16  2  0  0  0
 16 17  1  0  0  0
 16 21  1  0  0  0
 17 18  1  0  0  0
 19 20  1  0  0  0
 20 62  1  0  0  0
 21 22  1  0  0  0
 22 23  1  0  0  0
 22 24  1  0  0  0
 25 26  1  0  0  0
 26 27  1  0  0  0
 26 30  1  1  0  0
 27 28  1  0  0  0
 28 29  1  0  0  0
 28 31  1  0  0  0
 29 36  1  0  0  0
 29 30  1  6  0  0
 31 33  2  0  0  0
 31 32  1  0  0  0
 32 34  1  0  0  0
 32 35  1  6  0  0
 34 43  1  0  0  0
 35 40  1  0  0  0
 35 41  1  0  0  0
 35 42  1  0  0  0
 36 37  1  0  0  0
 36 38  2  0  0  0
 37 47  1  0  0  0
 43 44  1  0  0  0
 43 45  2  0  0  0
 44 46  1  0  0  0
 46 55  1  0  0  0
 46 56  1  1  0  0
 47 48  1  0  0  0
 47 49  1  0  0  0
 47 50  1  6  0  0
 48 49  1  0  0  0
 48 53  1  1  0  0
 50 51  1  0  0  0
 50 52  2  0  0  0
 53 54  1  0  0  0
 55 58  1  0  0  0
 56 57  1  0  0  0
 57 58  1  0  0  0
 57 59  1  0  0  0
 57 60  1  1  0  0
 58 59  1  0  0  0
 58 61  1  1  0  0
 62 63  1  0  0  0
 63 67  1  0  0  0
 64 65  1  0  0  0
 65 66  1  0  0  0
 66 67  1  0  0  0
M  END
> <s_m_entry_id>
6929

> <s_m_entry_name>
CHEMBL2013175.1

> <CHEMBLID>
CHEMBL2013175

> <s_m_Source_Path>
/home/liwei/Desktop/Machine/HCV/Active/buchong

> <s_m_Source_File>
CHEMBL2013175.sdf

> <i_m_Source_File_Index>
1

> <MOLREGNO>
1334242

> <MAX_PHASE>
0

> <MOLWEIGHT>
938.57

> <ALOGP>
3.63

> <PSA>
222.01

> <HBA>
13

> <HBD>
4

> <RO5>
2

> <RTB>
18

> <RO3>
N

> <ACD_MOST_APKA>
4.54

> <ACD_LOGP>
6.5

> <ACD_LOGD>
3.71

> <AROMATIC_RINGS>
3

> <HEAVY_ATOMS>
65

> <QED_WEIGHTED>
0.14

> <HBA_LIPINSKI>
16

> <HBD_LIPINSKI>
4

> <NUM_LIPINSKI_RO5_VIOLATIONS>
1

> <MW_MONOISOTOPIC>
937.4175

> <MOLECULAR_SPECIES>
ACID

> <FULL_MOLFORMULA>
C47H64ClN7O9S

> <ACD_MOST_BPKA>
6.08

$$$$
CHEMBL2013176
                    3D
 Structure written by MMmdl.
 66 73  0  0  1  0            999 V2000
    2.9247   -0.6985    0.0000 C   0  0  0  0  0  0
    3.6412   -0.2852    0.0000 C   0  0  0  0  0  0
    3.6383    0.5453    0.0000 C   0  0  0  0  0  0
    2.9229    0.9545    0.0000 N   0  0  0  0  0  0
    2.2099   -0.2857    0.0000 C   0  0  0  0  0  0
    2.2122    0.5399    0.0000 C   0  0  0  0  0  0
    1.4995    0.9529    0.0000 C   0  0  0  0  0  0
    0.7841    0.5414    0.0000 C   0  0  0  0  0  0
    0.7858   -0.2873    0.0000 C   0  0  0  0  0  0
    1.4990   -0.6965    0.0000 C   0  0  0  0  0  0
    4.3490    0.9588    0.0000 C   0  0  0  0  0  0
    5.1263    0.6819    0.0000 N   0  0  0  0  0  0
    5.6300    1.3352    0.0000 C   0  0  0  0  0  0
    5.1643    2.0163    0.0000 S   0  0  0  0  0  0
    4.3728    1.7837    0.0000 C   0  0  0  0  0  0
    0.0695    0.9538    0.0000 O   0  0  0  0  0  0
   -0.6449    0.5412    0.0000 C   0  0  0  0  0  0
    6.4547    1.3117    0.0000 N   0  0  0  0  0  0
    6.8466    0.5858    0.0000 C   0  0  0  0  0  0
    7.6713    0.5622    0.0000 C   0  0  0  0  0  0
    6.4139   -0.1166    0.0000 C   0  0  0  0  0  0
    2.9245   -1.5235    0.0000 O   0  0  0  0  0  0
    3.6386   -1.9363    0.0000 C   0  0  1  0  0  0
    3.6469   -2.7643    0.0000 C   0  0  0  0  0  0
    4.4345   -3.0100    0.0000 N   0  0  0  0  0  0
    4.9116   -2.3369    0.0000 C   0  0  1  0  0  0
    4.4188   -1.6753    0.0000 C   0  0  0  0  0  0
    4.6986   -3.7916    0.0000 C   0  0  0  0  0  0
    4.1538   -4.4111    0.0000 C   0  0  1  0  0  0
    5.5076   -3.9536    0.0000 O   0  0  0  0  0  0
    3.3445   -4.2494    0.0000 N   0  0  0  0  0  0
    4.4180   -5.1927    0.0000 C   0  0  0  0  0  0
    5.7365   -2.3271    0.0000 C   0  0  0  0  0  0
    6.1574   -3.0367    0.0000 N   0  0  0  0  0  0
    6.1405   -1.6078    0.0000 O   0  0  0  0  0  0
    1.5009    1.7779    0.0000 Cl  0  0  0  0  0  0
    3.8732   -5.8122    0.0000 C   0  0  0  0  0  0
    5.2269   -5.3547    0.0000 C   0  0  0  0  0  0
    4.6292   -5.9875    0.0000 C   0  0  0  0  0  0
    2.7305   -4.8004    0.0000 C   0  0  0  0  0  0
    1.9463   -4.5441    0.0000 O   0  0  0  0  0  0
    2.9006   -5.6077    0.0000 O   0  0  0  0  0  0
    1.3322   -5.0951    0.0000 C   0  0  2  0  0  0
    6.9826   -3.0266    0.0000 C   0  0  1  0  0  0
    7.3971   -3.7365    0.0000 C   0  0  1  0  0  0
    7.8060   -3.0200    0.0000 C   0  0  0  0  0  0
    7.1917   -2.2250    0.0000 C   0  0  0  0  0  0
    7.9871   -2.0062    0.0000 O   0  0  0  0  0  0
    6.6045   -1.6455    0.0000 O   0  0  0  0  0  0
    7.4012   -4.5615    0.0000 C   0  0  0  0  0  0
    6.6888   -4.9776    0.0000 C   0  0  0  0  0  0
    0.5281   -4.9266    0.0000 C   0  0  0  0  0  0
    1.4196   -5.9201    0.0000 C   0  0  0  0  0  0
    0.6654   -6.2544    0.0000 C   0  0  2  0  0  0
    0.1134   -5.6440    0.0000 C   0  0  1  0  0  0
   -0.1393   -6.4272    0.0000 C   0  0  0  0  0  0
    0.6583   -7.0792    0.0000 H   0  0  0  0  0  0
   -0.7125   -5.6417    0.0000 H   0  0  0  0  0  0
   -1.3594    0.9536    0.0000 C   0  0  0  0  0  0
   -2.0738    0.5410    0.0000 N   0  0  0  0  0  0
   -2.8505    0.8286    0.0000 C   0  0  0  0  0  0
   -3.3590    0.1790    0.0000 C   0  0  1  0  0  0
   -2.8984   -0.5055    0.0000 C   0  0  0  0  0  0
   -2.1052   -0.2787    0.0000 C   0  0  0  0  0  0
   -4.1835    0.2086    0.0000 O   0  0  0  0  0  0
   -4.6214   -0.4906    0.0000 C   0  0  0  0  0  0
  1 22  1  0  0  0
  1  2  2  0  0  0
  1  5  1  0  0  0
  2  3  1  0  0  0
  3 11  1  0  0  0
  3  4  2  0  0  0
  4  6  1  0  0  0
  5 10  2  0  0  0
  5  6  1  0  0  0
  6  7  2  0  0  0
  7  8  1  0  0  0
  7 36  1  0  0  0
  8 16  1  0  0  0
  8  9  2  0  0  0
  9 10  1  0  0  0
 11 15  2  0  0  0
 11 12  1  0  0  0
 12 13  2  0  0  0
 13 18  1  0  0  0
 13 14  1  0  0  0
 14 15  1  0  0  0
 16 17  1  0  0  0
 17 59  1  0  0  0
 18 19  1  0  0  0
 19 20  1  0  0  0
 19 21  1  0  0  0
 22 23  1  0  0  0
 23 24  1  0  0  0
 23 27  1  1  0  0
 24 25  1  0  0  0
 25 26  1  0  0  0
 25 28  1  0  0  0
 26 33  1  0  0  0
 26 27  1  6  0  0
 28 29  1  0  0  0
 28 30  2  0  0  0
 29 32  1  0  0  0
 29 31  1  6  0  0
 31 40  1  0  0  0
 32 37  1  0  0  0
 32 38  1  0  0  0
 32 39  1  0  0  0
 33 34  1  0  0  0
 33 35  2  0  0  0
 34 44  1  0  0  0
 40 41  1  0  0  0
 40 42  2  0  0  0
 41 43  1  0  0  0
 43 52  1  0  0  0
 43 53  1  1  0  0
 44 45  1  0  0  0
 44 46  1  0  0  0
 44 47  1  6  0  0
 45 46  1  0  0  0
 45 50  1  1  0  0
 47 48  1  0  0  0
 47 49  2  0  0  0
 50 51  1  0  0  0
 52 55  1  0  0  0
 53 54  1  0  0  0
 54 55  1  0  0  0
 54 56  1  0  0  0
 54 57  1  1  0  0
 55 56  1  0  0  0
 55 58  1  1  0  0
 59 60  1  0  0  0
 60 61  1  0  0  0
 60 64  1  0  0  0
 61 62  1  0  0  0
 62 63  1  0  0  0
 62 65  1  1  0  0
 63 64  1  0  0  0
 65 66  1  0  0  0
M  END
> <s_m_entry_id>
6930

> <s_m_entry_name>
CHEMBL2013176.1

> <CHEMBLID>
CHEMBL2013176

> <s_m_Source_Path>
/home/liwei/Desktop/Machine/HCV/Active/buchong

> <s_m_Source_File>
CHEMBL2013176.sdf

> <i_m_Source_File_Index>
1

> <MOLREGNO>
1334243

> <MAX_PHASE>
0

> <MOLWEIGHT>
924.54

> <ALOGP>
3.14

> <PSA>
222.01

> <HBA>
13

> <HBD>
4

> <RO5>
2

> <RTB>
19

> <RO3>
N

> <ACD_MOST_APKA>
4.54

> <ACD_LOGP>
5.96

> <ACD_LOGD>
3.4

> <AROMATIC_RINGS>
3

> <HEAVY_ATOMS>
64

> <QED_WEIGHTED>
0.14

> <HBA_LIPINSKI>
16

> <HBD_LIPINSKI>
4

> <NUM_LIPINSKI_RO5_VIOLATIONS>
1

> <MW_MONOISOTOPIC>
923.4018

> <MOLECULAR_SPECIES>
ACID

> <FULL_MOLFORMULA>
C46H62ClN7O9S

> <ACD_MOST_BPKA>
7.91

$$$$
CHEMBL2013177
                    3D
 Structure written by MMmdl.
 65 72  0  0  1  0            999 V2000
   17.0747   -0.2944    0.0000 C   0  0  0  0  0  0
   17.7912    0.1190    0.0000 C   0  0  0  0  0  0
   17.7883    0.9495    0.0000 C   0  0  0  0  0  0
   17.0729    1.3586    0.0000 N   0  0  0  0  0  0
   16.3599    0.1185    0.0000 C   0  0  0  0  0  0
   16.3622    0.9441    0.0000 C   0  0  0  0  0  0
   15.6495    1.3570    0.0000 C   0  0  0  0  0  0
   14.9341    0.9456    0.0000 C   0  0  0  0  0  0
   14.9358    0.1169    0.0000 C   0  0  0  0  0  0
   15.6490   -0.2924    0.0000 C   0  0  0  0  0  0
   18.4990    1.3630    0.0000 C   0  0  0  0  0  0
   19.2763    1.0861    0.0000 N   0  0  0  0  0  0
   19.7800    1.7394    0.0000 C   0  0  0  0  0  0
   19.3143    2.4205    0.0000 S   0  0  0  0  0  0
   18.5228    2.1879    0.0000 C   0  0  0  0  0  0
   14.2195    1.3580    0.0000 O   0  0  0  0  0  0
   13.5051    0.9453    0.0000 C   0  0  0  0  0  0
   20.6047    1.7159    0.0000 N   0  0  0  0  0  0
   20.9966    0.9899    0.0000 C   0  0  0  0  0  0
   21.8213    0.9664    0.0000 C   0  0  0  0  0  0
   20.5639    0.2875    0.0000 C   0  0  0  0  0  0
   17.0745   -1.1194    0.0000 O   0  0  0  0  0  0
   17.7886   -1.5322    0.0000 C   0  0  1  0  0  0
   17.7969   -2.3601    0.0000 C   0  0  0  0  0  0
   18.5845   -2.6058    0.0000 N   0  0  0  0  0  0
   19.0616   -1.9327    0.0000 C   0  0  1  0  0  0
   18.5688   -1.2711    0.0000 C   0  0  0  0  0  0
   18.8486   -3.3874    0.0000 C   0  0  0  0  0  0
   18.3038   -4.0069    0.0000 C   0  0  1  0  0  0
   19.6576   -3.5494    0.0000 O   0  0  0  0  0  0
   17.4945   -3.8453    0.0000 N   0  0  0  0  0  0
   18.5680   -4.7885    0.0000 C   0  0  0  0  0  0
   19.8865   -1.9229    0.0000 C   0  0  0  0  0  0
   20.3074   -2.6325    0.0000 N   0  0  0  0  0  0
   20.2905   -1.2036    0.0000 O   0  0  0  0  0  0
   15.6509    2.1820    0.0000 Cl  0  0  0  0  0  0
   18.0232   -5.4081    0.0000 C   0  0  0  0  0  0
   19.3769   -4.9506    0.0000 C   0  0  0  0  0  0
   18.7792   -5.5833    0.0000 C   0  0  0  0  0  0
   16.8805   -4.3962    0.0000 C   0  0  0  0  0  0
   16.0963   -4.1400    0.0000 O   0  0  0  0  0  0
   17.0506   -5.2035    0.0000 O   0  0  0  0  0  0
   15.4822   -4.6909    0.0000 C   0  0  2  0  0  0
   21.1326   -2.6224    0.0000 C   0  0  1  0  0  0
   21.5471   -3.3324    0.0000 C   0  0  1  0  0  0
   21.9560   -2.6158    0.0000 C   0  0  0  0  0  0
   21.3417   -1.8208    0.0000 C   0  0  0  0  0  0
   22.1371   -1.6020    0.0000 O   0  0  0  0  0  0
   20.7545   -1.2413    0.0000 O   0  0  0  0  0  0
   21.5512   -4.1574    0.0000 C   0  0  0  0  0  0
   20.8388   -4.5734    0.0000 C   0  0  0  0  0  0
   14.6781   -4.5224    0.0000 C   0  0  0  0  0  0
   15.5696   -5.5159    0.0000 C   0  0  0  0  0  0
   14.8154   -5.8503    0.0000 C   0  0  2  0  0  0
   14.2634   -5.2398    0.0000 C   0  0  1  0  0  0
   14.0107   -6.0231    0.0000 C   0  0  0  0  0  0
   14.8083   -6.6750    0.0000 H   0  0  0  0  0  0
   13.4375   -5.2375    0.0000 H   0  0  0  0  0  0
   12.7906    1.3577    0.0000 C   0  0  0  0  0  0
   12.0762    0.9451    0.0000 N   0  0  0  0  0  0
   11.3592    1.3627    0.0000 C   0  0  0  0  0  0
   10.6469    0.9536    0.0000 C   0  0  0  0  0  0
   10.6428    0.1282    0.0000 C   0  0  0  0  0  0
   11.3572   -0.2864    0.0000 C   0  0  0  0  0  0
   12.0757    0.1244    0.0000 C   0  0  0  0  0  0
  1 22  1  0  0  0
  1  2  2  0  0  0
  1  5  1  0  0  0
  2  3  1  0  0  0
  3 11  1  0  0  0
  3  4  2  0  0  0
  4  6  1  0  0  0
  5 10  2  0  0  0
  5  6  1  0  0  0
  6  7  2  0  0  0
  7  8  1  0  0  0
  7 36  1  0  0  0
  8 16  1  0  0  0
  8  9  2  0  0  0
  9 10  1  0  0  0
 11 15  2  0  0  0
 11 12  1  0  0  0
 12 13  2  0  0  0
 13 18  1  0  0  0
 13 14  1  0  0  0
 14 15  1  0  0  0
 16 17  1  0  0  0
 17 59  1  0  0  0
 18 19  1  0  0  0
 19 20  1  0  0  0
 19 21  1  0  0  0
 22 23  1  0  0  0
 23 24  1  0  0  0
 23 27  1  1  0  0
 24 25  1  0  0  0
 25 26  1  0  0  0
 25 28  1  0  0  0
 26 33  1  0  0  0
 26 27  1  6  0  0
 28 29  1  0  0  0
 28 30  2  0  0  0
 29 31  1  0  0  0
 29 32  1  6  0  0
 31 40  1  0  0  0
 32 37  1  0  0  0
 32 38  1  0  0  0
 32 39  1  0  0  0
 33 34  1  0  0  0
 33 35  2  0  0  0
 34 44  1  0  0  0
 40 41  1  0  0  0
 40 42  2  0  0  0
 41 43  1  0  0  0
 43 52  1  0  0  0
 43 53  1  1  0  0
 44 45  1  0  0  0
 44 46  1  0  0  0
 44 47  1  6  0  0
 45 46  1  0  0  0
 45 50  1  1  0  0
 47 48  1  0  0  0
 47 49  2  0  0  0
 50 51  1  0  0  0
 52 55  1  0  0  0
 53 54  1  0  0  0
 54 55  1  0  0  0
 54 56  1  0  0  0
 54 57  1  1  0  0
 55 56  1  0  0  0
 55 58  1  1  0  0
 59 60  1  0  0  0
 60 61  1  0  0  0
 60 65  1  0  0  0
 61 62  1  0  0  0
 62 63  1  0  0  0
 63 64  1  0  0  0
 64 65  1  0  0  0
M  END
> <s_m_entry_id>
6931

> <s_m_entry_name>
CHEMBL2013177.1

> <CHEMBLID>
CHEMBL2013177

> <s_m_Source_Path>
/home/liwei/Desktop/Machine/HCV/Active/buchong

> <s_m_Source_File>
CHEMBL2013177.sdf

> <i_m_Source_File_Index>
1

> <MOLREGNO>
1334244

> <MAX_PHASE>
0

> <MOLWEIGHT>
908.54

> <ALOGP>
4.28

> <PSA>
212.78

> <HBA>
12

> <HBD>
4

> <RO5>
2

> <RTB>
18

> <RO3>
N

> <ACD_MOST_APKA>
4.54

> <ACD_LOGP>
7.16

> <ACD_LOGD>
4.64

> <AROMATIC_RINGS>
3

> <HEAVY_ATOMS>
63

> <QED_WEIGHTED>
0.14

> <HBA_LIPINSKI>
15

> <HBD_LIPINSKI>
4

> <NUM_LIPINSKI_RO5_VIOLATIONS>
1

> <MW_MONOISOTOPIC>
907.4069

> <MOLECULAR_SPECIES>
ACID

> <FULL_MOLFORMULA>
C46H62ClN7O8S

> <ACD_MOST_BPKA>
8.26

$$$$
CHEMBL2370171
                    3D
 Structure written by MMmdl.
 56 57  0  0  1  0            999 V2000
    1.5000  -10.3923    0.0000 C   0  0  0  0  0  0
    0.7500   -9.0933    0.0000 C   0  0  0  0  0  0
    1.5000   -7.7942    0.0000 C   0  0  0  0  0  0
    0.7500   -6.4952    0.0000 C   0  0  1  0  0  0
   -0.7500   -6.4952    0.0000 N   0  0  0  0  0  0
   -1.5000   -7.7942    0.0000 C   0  0  0  0  0  0
   -0.7500   -9.0933    0.0000 O   0  0  0  0  0  0
   -3.0000   -7.7942    0.0000 C   0  0  2  0  0  0
   -3.8817   -9.0078    0.0000 C   0  0  0  0  0  0
   -5.3083   -8.5442    0.0000 C   0  0  0  0  0  0
   -5.3083   -7.0442    0.0000 C   0  0  0  0  0  0
   -3.8817   -6.5807    0.0000 N   0  0  0  0  0  0
   -3.4182   -5.1541    0.0000 C   0  0  0  0  0  0
   -1.9509   -4.8423    0.0000 O   0  0  0  0  0  0
   -4.4218   -4.0394    0.0000 C   0  0  1  0  0  0
   -5.8891   -4.3513    0.0000 N   0  0  0  0  0  0
   -6.8928   -3.2366    0.0000 C   0  0  0  0  0  0
   -6.4292   -1.8100    0.0000 O   0  0  0  0  0  0
   -8.3600   -3.5484    0.0000 C   0  0  1  0  0  0
   -8.8235   -4.9750    0.0000 N   0  0  0  0  0  0
  -10.2907   -5.2869    0.0000 C   0  0  0  0  0  0
  -11.2944   -4.1722    0.0000 O   0  0  0  0  0  0
  -10.7543   -6.7135    0.0000 C   0  0  1  0  0  0
  -12.2215   -7.0253    0.0000 C   0  0  0  0  0  0
  -13.2252   -5.9106    0.0000 C   0  0  0  0  0  0
  -12.7617   -4.4840    0.0000 O   0  0  0  0  0  0
  -14.6924   -6.2225    0.0000 O   0  0  0  0  0  0
   -9.7506   -7.8282    0.0000 N   0  0  0  0  0  0
  -10.2141   -9.2548    0.0000 C   0  0  0  0  0  0
  -11.6813   -9.5666    0.0000 O   0  0  0  0  0  0
   -9.2104  -10.3695    0.0000 C   0  0  2  0  0  0
   -7.7432  -10.0576    0.0000 C   0  0  0  0  0  0
   -6.7395  -11.1723    0.0000 C   0  0  0  0  0  0
   -7.2030  -12.5989    0.0000 O   0  0  0  0  0  0
   -5.2723  -10.8605    0.0000 O   0  0  0  0  0  0
   -9.6739  -11.7961    0.0000 N   0  0  0  0  0  0
  -11.1411  -12.1079    0.0000 C   0  0  0  0  0  0
  -12.1448  -10.9932    0.0000 O   0  0  0  0  0  0
  -11.6047  -13.5345    0.0000 C   0  0  0  0  0  0
   -9.3637   -2.4337    0.0000 C   0  0  1  0  0  0
  -10.8309   -2.7456    0.0000 C   0  0  0  0  0  0
   -8.9002   -1.0071    0.0000 C   0  0  0  0  0  0
   -9.9039    0.1076    0.0000 C   0  0  0  0  0  0
   -3.9583   -2.6128    0.0000 C   0  0  0  0  0  0
   -4.9620   -1.4981    0.0000 C   0  0  0  0  0  0
   -2.4911   -2.3009    0.0000 C   0  0  0  0  0  0
    1.5000   -5.1962    0.0000 C   0  0  0  0  0  0
    3.0000   -5.1962    0.0000 O   0  0  0  0  0  0
    0.7500   -3.8971    0.0000 O   0  0  0  0  0  0
    1.5000   -2.5981    0.0000 C   0  0  0  0  0  0
    0.7500   -1.2990    0.0000 C   0  0  0  0  0  0
    1.5000    0.0000    0.0000 C   0  0  0  0  0  0
    0.7500    1.2990    0.0000 C   0  0  0  0  0  0
   -0.7500    1.2990    0.0000 C   0  0  0  0  0  0
   -1.5000    0.0000    0.0000 C   0  0  0  0  0  0
   -0.7500   -1.2990    0.0000 C   0  0  0  0  0  0
  1  2  1  0  0  0
  2  3  1  0  0  0
  3  4  1  0  0  0
  4  5  1  0  0  0
  4 47  1  1  0  0
  5  6  1  0  0  0
  6  7  2  0  0  0
  6  8  1  0  0  0
  8  9  1  0  0  0
  8 12  1  1  0  0
  9 10  1  0  0  0
 10 11  1  0  0  0
 11 12  1  0  0  0
 12 13  1  0  0  0
 13 14  2  0  0  0
 13 15  1  0  0  0
 15 16  1  0  0  0
 15 44  1  6  0  0
 16 17  1  0  0  0
 17 18  2  0  0  0
 17 19  1  0  0  0
 19 20  1  0  0  0
 19 40  1  6  0  0
 20 21  1  0  0  0
 21 22  2  0  0  0
 21 23  1  0  0  0
 23 24  1  0  0  0
 23 28  1  1  0  0
 24 25  1  0  0  0
 25 26  2  0  0  0
 25 27  1  0  0  0
 28 29  1  0  0  0
 29 30  2  0  0  0
 29 31  1  0  0  0
 31 32  1  0  0  0
 31 36  1  1  0  0
 32 33  1  0  0  0
 33 34  2  0  0  0
 33 35  1  0  0  0
 36 37  1  0  0  0
 37 38  2  0  0  0
 37 39  1  0  0  0
 40 41  1  0  0  0
 40 42  1  6  0  0
 42 43  1  0  0  0
 44 45  1  0  0  0
 44 46  1  0  0  0
 47 48  2  0  0  0
 47 49  1  0  0  0
 49 50  1  0  0  0
 50 51  1  0  0  0
 51 52  2  0  0  0
 51 56  1  0  0  0
 52 53  1  0  0  0
 53 54  2  0  0  0
 54 55  1  0  0  0
 55 56  2  0  0  0
M  END
> <s_m_entry_id>
6672

> <s_m_entry_name>
NS3-4A.213

> <CHEMBLID>
CHEMBL2370171

> <s_m_Source_Path>
/home/liwei/Desktop/Machine/HCV/Active

> <s_m_Source_File>
NS3-4A.sdf

> <i_m_Source_File_Index>
213

$$$$
CHEMBL2370174
                    3D
 Structure written by MMmdl.
 50 50  0  0  1  0            999 V2000
    8.0260   -3.8971    0.0000 C   0  0  0  0  0  0
    7.2760   -2.5981    0.0000 C   0  0  0  0  0  0
    5.7760   -2.5981    0.0000 C   0  0  0  0  0  0
    5.0260   -1.2990    0.0000 C   0  0  1  0  0  0
    3.5260   -1.2990    0.0000 N   0  0  0  0  0  0
    2.7760    0.0000    0.0000 C   0  0  0  0  0  0
    3.5260    1.2990    0.0000 O   0  0  0  0  0  0
    1.2760    0.0000    0.0000 C   0  0  2  0  0  0
    0.3943    1.2135    0.0000 C   0  0  0  0  0  0
   -1.0323    0.7500    0.0000 C   0  0  0  0  0  0
   -1.0323   -0.7500    0.0000 C   0  0  0  0  0  0
    0.3943   -1.2135    0.0000 N   0  0  0  0  0  0
    0.8578   -2.6401    0.0000 C   0  0  0  0  0  0
    2.3250   -2.9520    0.0000 O   0  0  0  0  0  0
   -0.1459   -3.7548    0.0000 C   0  0  1  0  0  0
   -1.6131   -3.4430    0.0000 N   0  0  0  0  0  0
   -2.6168   -4.5577    0.0000 C   0  0  0  0  0  0
   -2.1533   -5.9843    0.0000 O   0  0  0  0  0  0
   -4.0840   -4.2458    0.0000 C   0  0  1  0  0  0
   -4.5475   -2.8192    0.0000 N   0  0  0  0  0  0
   -6.0148   -2.5074    0.0000 C   0  0  0  0  0  0
   -7.0185   -3.6221    0.0000 O   0  0  0  0  0  0
   -6.4783   -1.0808    0.0000 C   0  0  1  0  0  0
   -7.9455   -0.7689    0.0000 C   0  0  0  0  0  0
   -8.9492   -1.8836    0.0000 C   0  0  0  0  0  0
   -8.4857   -3.3102    0.0000 O   0  0  0  0  0  0
  -10.4164   -1.5718    0.0000 O   0  0  0  0  0  0
   -5.4746    0.0339    0.0000 N   0  0  0  0  0  0
   -5.9381    1.4605    0.0000 C   0  0  0  0  0  0
   -7.4053    1.7724    0.0000 O   0  0  0  0  0  0
   -4.9344    2.5752    0.0000 C   0  0  2  0  0  0
   -3.4672    2.2634    0.0000 C   0  0  0  0  0  0
   -2.4635    3.3781    0.0000 C   0  0  0  0  0  0
   -2.9270    4.8047    0.0000 O   0  0  0  0  0  0
   -0.9963    3.0662    0.0000 O   0  0  0  0  0  0
   -5.3979    4.0018    0.0000 N   0  0  0  0  0  0
   -6.8652    4.3137    0.0000 C   0  0  0  0  0  0
   -7.3287    5.7403    0.0000 O   0  0  0  0  0  0
   -7.8689    3.1990    0.0000 C   0  0  0  0  0  0
   -5.0877   -5.3605    0.0000 C   0  0  1  0  0  0
   -6.5549   -5.0487    0.0000 C   0  0  0  0  0  0
   -4.6242   -6.7871    0.0000 C   0  0  0  0  0  0
   -5.6279   -7.9018    0.0000 C   0  0  0  0  0  0
    0.3177   -5.1814    0.0000 C   0  0  0  0  0  0
   -0.6860   -6.2961    0.0000 C   0  0  0  0  0  0
    1.7849   -5.4933    0.0000 C   0  0  0  0  0  0
    5.7760    0.0000    0.0000 C   0  0  0  0  0  0
    5.0260    1.2990    0.0000 O   0  0  0  0  0  0
    7.2760    0.0000    0.0000 O   0  0  0  0  0  0
    8.0260    1.2990    0.0000 C   0  0  0  0  0  0
  1  2  1  0  0  0
  2  3  1  0  0  0
  3  4  1  0  0  0
  4  5  1  0  0  0
  4 47  1  1  0  0
  5  6  1  0  0  0
  6  7  2  0  0  0
  6  8  1  0  0  0
  8  9  1  0  0  0
  8 12  1  1  0  0
  9 10  1  0  0  0
 10 11  1  0  0  0
 11 12  1  0  0  0
 12 13  1  0  0  0
 13 14  2  0  0  0
 13 15  1  0  0  0
 15 16  1  0  0  0
 15 44  1  6  0  0
 16 17  1  0  0  0
 17 18  2  0  0  0
 17 19  1  0  0  0
 19 20  1  0  0  0
 19 40  1  6  0  0
 20 21  1  0  0  0
 21 22  2  0  0  0
 21 23  1  0  0  0
 23 24  1  0  0  0
 23 28  1  1  0  0
 24 25  1  0  0  0
 25 26  2  0  0  0
 25 27  1  0  0  0
 28 29  1  0  0  0
 29 30  2  0  0  0
 29 31  1  0  0  0
 31 32  1  0  0  0
 31 36  1  1  0  0
 32 33  1  0  0  0
 33 34  2  0  0  0
 33 35  1  0  0  0
 36 37  1  0  0  0
 37 38  2  0  0  0
 37 39  1  0  0  0
 40 41  1  0  0  0
 40 42  1  6  0  0
 42 43  1  0  0  0
 44 45  1  0  0  0
 44 46  1  0  0  0
 47 48  2  0  0  0
 47 49  1  0  0  0
 49 50  1  0  0  0
M  END
> <s_m_entry_id>
6673

> <s_m_entry_name>
NS3-4A.214

> <CHEMBLID>
CHEMBL2370174

> <s_m_Source_Path>
/home/liwei/Desktop/Machine/HCV/Active

> <s_m_Source_File>
NS3-4A.sdf

> <i_m_Source_File_Index>
214

$$$$
CHEMBL2370179
                    3D
 Structure written by MMmdl.
 58 59  0  0  1  0            999 V2000
    0.7500  -11.6913    0.0000 C   0  0  0  0  0  0
    1.5000  -10.3923    0.0000 C   0  0  0  0  0  0
    0.7500   -9.0933    0.0000 C   0  0  0  0  0  0
    1.5000   -7.7942    0.0000 C   0  0  2  0  0  0
    3.0000   -7.7942    0.0000 N   0  0  0  0  0  0
    3.7500   -9.0933    0.0000 C   0  0  0  0  0  0
    3.0000  -10.3923    0.0000 O   0  0  0  0  0  0
    5.2500   -9.0933    0.0000 C   0  0  2  0  0  0
    6.1317   -7.8797    0.0000 C   0  0  0  0  0  0
    7.5583   -8.3433    0.0000 C   0  0  0  0  0  0
    7.5583   -9.8433    0.0000 C   0  0  0  0  0  0
    6.1317  -10.3068    0.0000 N   0  0  0  0  0  0
    5.6682  -11.7334    0.0000 C   0  0  0  0  0  0
    4.2009  -12.0452    0.0000 O   0  0  0  0  0  0
    6.6718  -12.8481    0.0000 C   0  0  1  0  0  0
    8.1391  -12.5362    0.0000 N   0  0  0  0  0  0
    9.1428  -13.6509    0.0000 C   0  0  0  0  0  0
    8.6792  -15.0775    0.0000 O   0  0  0  0  0  0
   10.6100  -13.3391    0.0000 C   0  0  1  0  0  0
   11.0735  -11.9125    0.0000 N   0  0  0  0  0  0
   12.5407  -11.6006    0.0000 C   0  0  0  0  0  0
   13.5444  -12.7153    0.0000 O   0  0  0  0  0  0
   13.0043  -10.1740    0.0000 C   0  0  2  0  0  0
   14.4715   -9.8622    0.0000 C   0  0  0  0  0  0
   15.4752  -10.9769    0.0000 C   0  0  0  0  0  0
   15.0117  -12.4035    0.0000 O   0  0  0  0  0  0
   16.9424  -10.6650    0.0000 O   0  0  0  0  0  0
   12.0006   -9.0593    0.0000 N   0  0  0  0  0  0
   12.4641   -7.6327    0.0000 C   0  0  0  0  0  0
   13.9313   -7.3209    0.0000 O   0  0  0  0  0  0
   11.4604   -6.5180    0.0000 C   0  0  2  0  0  0
    9.9932   -6.8299    0.0000 C   0  0  0  0  0  0
    8.9895   -5.7152    0.0000 C   0  0  0  0  0  0
    9.4530   -4.2886    0.0000 O   0  0  0  0  0  0
    7.5223   -6.0270    0.0000 O   0  0  0  0  0  0
   11.9239   -5.0914    0.0000 N   0  0  0  0  0  0
   13.3911   -4.7796    0.0000 C   0  0  0  0  0  0
   13.8547   -3.3530    0.0000 O   0  0  0  0  0  0
   14.3948   -5.8943    0.0000 C   0  0  0  0  0  0
   11.6137  -14.4538    0.0000 C   0  0  1  0  0  0
   13.0809  -14.1419    0.0000 C   0  0  0  0  0  0
   11.1502  -15.8804    0.0000 C   0  0  0  0  0  0
   12.1539  -16.9951    0.0000 C   0  0  0  0  0  0
    6.2083  -14.2747    0.0000 C   0  0  0  0  0  0
    7.2120  -15.3894    0.0000 C   0  0  0  0  0  0
    4.7411  -14.5865    0.0000 C   0  0  0  0  0  0
    0.7500   -6.4952    0.0000 C   0  0  0  0  0  0
   -0.7500   -6.4952    0.0000 O   0  0  0  0  0  0
    1.5000   -5.1962    0.0000 C   0  0  0  0  0  0
    3.0000   -5.1962    0.0000 O   0  0  0  0  0  0
    0.7500   -3.8971    0.0000 N   0  0  0  0  0  0
    1.5000   -2.5981    0.0000 C   0  0  0  0  0  0
    0.7500   -1.2990    0.0000 C   0  0  0  0  0  0
    1.5000    0.0000    0.0000 C   0  0  0  0  0  0
    0.7500    1.2990    0.0000 C   0  0  0  0  0  0
   -0.7500    1.2990    0.0000 C   0  0  0  0  0  0
   -1.5000    0.0000    0.0000 C   0  0  0  0  0  0
   -0.7500   -1.2990    0.0000 C   0  0  0  0  0  0
  1  2  1  0  0  0
  2  3  1  0  0  0
  3  4  1  0  0  0
  4  5  1  0  0  0
  4 47  1  1  0  0
  5  6  1  0  0  0
  6  7  2  0  0  0
  6  8  1  0  0  0
  8  9  1  0  0  0
  8 12  1  1  0  0
  9 10  1  0  0  0
 10 11  1  0  0  0
 11 12  1  0  0  0
 12 13  1  0  0  0
 13 14  2  0  0  0
 13 15  1  0  0  0
 15 16  1  0  0  0
 15 44  1  6  0  0
 16 17  1  0  0  0
 17 18  2  0  0  0
 17 19  1  0  0  0
 19 20  1  0  0  0
 19 40  1  6  0  0
 20 21  1  0  0  0
 21 22  2  0  0  0
 21 23  1  0  0  0
 23 24  1  0  0  0
 23 28  1  1  0  0
 24 25  1  0  0  0
 25 26  2  0  0  0
 25 27  1  0  0  0
 28 29  1  0  0  0
 29 30  2  0  0  0
 29 31  1  0  0  0
 31 32  1  0  0  0
 31 36  1  1  0  0
 32 33  1  0  0  0
 33 34  2  0  0  0
 33 35  1  0  0  0
 36 37  1  0  0  0
 37 38  2  0  0  0
 37 39  1  0  0  0
 40 41  1  0  0  0
 40 42  1  6  0  0
 42 43  1  0  0  0
 44 45  1  0  0  0
 44 46  1  0  0  0
 47 48  2  0  0  0
 47 49  1  0  0  0
 49 50  2  0  0  0
 49 51  1  0  0  0
 51 52  1  0  0  0
 52 53  1  0  0  0
 53 54  2  0  0  0
 53 58  1  0  0  0
 54 55  1  0  0  0
 55 56  2  0  0  0
 56 57  1  0  0  0
 57 58  2  0  0  0
M  END
> <s_m_entry_id>
6674

> <s_m_entry_name>
NS3-4A.215

> <CHEMBLID>
CHEMBL2370179

> <s_m_Source_Path>
/home/liwei/Desktop/Machine/HCV/Active

> <s_m_Source_File>
NS3-4A.sdf

> <i_m_Source_File_Index>
215

$$$$
CHEMBL2370184
                    3D
 Structure written by MMmdl.
 58 59  0  0  1  0            999 V2000
    0.7500  -11.6913    0.0000 C   0  0  0  0  0  0
    1.5000  -10.3923    0.0000 C   0  0  0  0  0  0
    0.7500   -9.0933    0.0000 C   0  0  0  0  0  0
    1.5000   -7.7942    0.0000 C   0  0  2  0  0  0
    3.0000   -7.7942    0.0000 N   0  0  0  0  0  0
    3.7500   -9.0933    0.0000 C   0  0  0  0  0  0
    3.0000  -10.3923    0.0000 O   0  0  0  0  0  0
    5.2500   -9.0933    0.0000 C   0  0  2  0  0  0
    6.1317   -7.8797    0.0000 C   0  0  0  0  0  0
    7.5583   -8.3433    0.0000 C   0  0  0  0  0  0
    7.5583   -9.8433    0.0000 C   0  0  0  0  0  0
    6.1317  -10.3068    0.0000 N   0  0  0  0  0  0
    5.6682  -11.7334    0.0000 C   0  0  0  0  0  0
    4.2009  -12.0452    0.0000 O   0  0  0  0  0  0
    6.6718  -12.8481    0.0000 C   0  0  1  0  0  0
    8.1391  -12.5362    0.0000 N   0  0  0  0  0  0
    9.1428  -13.6509    0.0000 C   0  0  0  0  0  0
    8.6792  -15.0775    0.0000 O   0  0  0  0  0  0
   10.6100  -13.3391    0.0000 C   0  0  1  0  0  0
   11.0735  -11.9125    0.0000 N   0  0  0  0  0  0
   12.5407  -11.6006    0.0000 C   0  0  0  0  0  0
   13.5444  -12.7153    0.0000 O   0  0  0  0  0  0
   13.0043  -10.1740    0.0000 C   0  0  1  0  0  0
   14.4715   -9.8622    0.0000 C   0  0  0  0  0  0
   15.4752  -10.9769    0.0000 C   0  0  0  0  0  0
   15.0117  -12.4035    0.0000 O   0  0  0  0  0  0
   16.9424  -10.6650    0.0000 O   0  0  0  0  0  0
   12.0006   -9.0593    0.0000 N   0  0  0  0  0  0
   12.4641   -7.6327    0.0000 C   0  0  0  0  0  0
   13.9313   -7.3209    0.0000 O   0  0  0  0  0  0
   11.4604   -6.5180    0.0000 C   0  0  2  0  0  0
    9.9932   -6.8299    0.0000 C   0  0  0  0  0  0
    8.9895   -5.7152    0.0000 C   0  0  0  0  0  0
    9.4530   -4.2886    0.0000 O   0  0  0  0  0  0
    7.5223   -6.0270    0.0000 O   0  0  0  0  0  0
   11.9239   -5.0914    0.0000 N   0  0  0  0  0  0
   13.3911   -4.7796    0.0000 C   0  0  0  0  0  0
   13.8547   -3.3530    0.0000 O   0  0  0  0  0  0
   14.3948   -5.8943    0.0000 C   0  0  0  0  0  0
   11.6137  -14.4538    0.0000 C   0  0  1  0  0  0
   13.0809  -14.1419    0.0000 C   0  0  0  0  0  0
   11.1502  -15.8804    0.0000 C   0  0  0  0  0  0
   12.1539  -16.9951    0.0000 C   0  0  0  0  0  0
    6.2083  -14.2747    0.0000 C   0  0  0  0  0  0
    7.2120  -15.3894    0.0000 C   0  0  0  0  0  0
    4.7411  -14.5865    0.0000 C   0  0  0  0  0  0
    0.7500   -6.4952    0.0000 C   0  0  0  0  0  0
   -0.7500   -6.4952    0.0000 O   0  0  0  0  0  0
    1.5000   -5.1962    0.0000 C   0  0  0  0  0  0
    3.0000   -5.1962    0.0000 O   0  0  0  0  0  0
    0.7500   -3.8971    0.0000 N   0  0  0  0  0  0
    1.5000   -2.5981    0.0000 C   0  0  0  0  0  0
    0.7500   -1.2990    0.0000 C   0  0  0  0  0  0
    1.5000    0.0000    0.0000 C   0  0  0  0  0  0
    0.7500    1.2990    0.0000 C   0  0  0  0  0  0
   -0.7500    1.2990    0.0000 C   0  0  0  0  0  0
   -1.5000    0.0000    0.0000 C   0  0  0  0  0  0
   -0.7500   -1.2990    0.0000 C   0  0  0  0  0  0
  1  2  1  0  0  0
  2  3  1  0  0  0
  3  4  1  0  0  0
  4  5  1  0  0  0
  4 47  1  1  0  0
  5  6  1  0  0  0
  6  7  2  0  0  0
  6  8  1  0  0  0
  8  9  1  0  0  0
  8 12  1  1  0  0
  9 10  1  0  0  0
 10 11  1  0  0  0
 11 12  1  0  0  0
 12 13  1  0  0  0
 13 14  2  0  0  0
 13 15  1  0  0  0
 15 16  1  0  0  0
 15 44  1  6  0  0
 16 17  1  0  0  0
 17 18  2  0  0  0
 17 19  1  0  0  0
 19 20  1  0  0  0
 19 40  1  6  0  0
 20 21  1  0  0  0
 21 22  2  0  0  0
 21 23  1  0  0  0
 23 24  1  0  0  0
 23 28  1  1  0  0
 24 25  1  0  0  0
 25 26  2  0  0  0
 25 27  1  0  0  0
 28 29  1  0  0  0
 29 30  2  0  0  0
 29 31  1  0  0  0
 31 32  1  0  0  0
 31 36  1  1  0  0
 32 33  1  0  0  0
 33 34  2  0  0  0
 33 35  1  0  0  0
 36 37  1  0  0  0
 37 38  2  0  0  0
 37 39  1  0  0  0
 40 41  1  0  0  0
 40 42  1  6  0  0
 42 43  1  0  0  0
 44 45  1  0  0  0
 44 46  1  0  0  0
 47 48  2  0  0  0
 47 49  1  0  0  0
 49 50  2  0  0  0
 49 51  1  0  0  0
 51 52  1  0  0  0
 52 53  1  0  0  0
 53 54  2  0  0  0
 53 58  1  0  0  0
 54 55  1  0  0  0
 55 56  2  0  0  0
 56 57  1  0  0  0
 57 58  2  0  0  0
M  END
> <s_m_entry_id>
6675

> <s_m_entry_name>
NS3-4A.216

> <CHEMBLID>
CHEMBL2370184

> <s_m_Source_Path>
/home/liwei/Desktop/Machine/HCV/Active

> <s_m_Source_File>
NS3-4A.sdf

> <i_m_Source_File_Index>
216

$$$$
CHEMBL2370192
                    3D
 Structure written by MMmdl.
 55 55  0  0  1  0            999 V2000
    8.0260   -3.8971    0.0000 C   0  0  0  0  0  0
    7.2760   -2.5981    0.0000 C   0  0  0  0  0  0
    5.7760   -2.5981    0.0000 C   0  0  0  0  0  0
    5.0260   -1.2990    0.0000 C   0  0  2  0  0  0
    3.5260   -1.2990    0.0000 N   0  0  0  0  0  0
    2.7760    0.0000    0.0000 C   0  0  0  0  0  0
    3.5260    1.2990    0.0000 O   0  0  0  0  0  0
    1.2760    0.0000    0.0000 C   0  0  2  0  0  0
    0.3943    1.2135    0.0000 C   0  0  0  0  0  0
   -1.0323    0.7500    0.0000 C   0  0  0  0  0  0
   -1.0323   -0.7500    0.0000 C   0  0  0  0  0  0
    0.3943   -1.2135    0.0000 N   0  0  0  0  0  0
    0.8578   -2.6401    0.0000 C   0  0  0  0  0  0
    2.3250   -2.9520    0.0000 O   0  0  0  0  0  0
   -0.1459   -3.7548    0.0000 C   0  0  1  0  0  0
   -1.6131   -3.4430    0.0000 N   0  0  0  0  0  0
   -2.6168   -4.5577    0.0000 C   0  0  0  0  0  0
   -2.1533   -5.9843    0.0000 O   0  0  0  0  0  0
   -4.0840   -4.2458    0.0000 C   0  0  1  0  0  0
   -4.5475   -2.8192    0.0000 N   0  0  0  0  0  0
   -6.0148   -2.5074    0.0000 C   0  0  0  0  0  0
   -7.0185   -3.6221    0.0000 O   0  0  0  0  0  0
   -6.4783   -1.0808    0.0000 C   0  0  1  0  0  0
   -7.9455   -0.7689    0.0000 C   0  0  0  0  0  0
   -8.9492   -1.8836    0.0000 C   0  0  0  0  0  0
   -8.4857   -3.3102    0.0000 O   0  0  0  0  0  0
  -10.4164   -1.5718    0.0000 O   0  0  0  0  0  0
   -5.4746    0.0339    0.0000 N   0  0  0  0  0  0
   -5.9381    1.4605    0.0000 C   0  0  0  0  0  0
   -7.4053    1.7724    0.0000 O   0  0  0  0  0  0
   -4.9344    2.5752    0.0000 C   0  0  2  0  0  0
   -3.4672    2.2634    0.0000 C   0  0  0  0  0  0
   -2.4635    3.3781    0.0000 C   0  0  0  0  0  0
   -2.9270    4.8047    0.0000 O   0  0  0  0  0  0
   -0.9963    3.0662    0.0000 O   0  0  0  0  0  0
   -5.3979    4.0018    0.0000 N   0  0  0  0  0  0
   -6.8652    4.3137    0.0000 C   0  0  0  0  0  0
   -7.3287    5.7403    0.0000 O   0  0  0  0  0  0
   -7.8689    3.1990    0.0000 C   0  0  0  0  0  0
   -5.0877   -5.3605    0.0000 C   0  0  1  0  0  0
   -6.5549   -5.0487    0.0000 C   0  0  0  0  0  0
   -4.6242   -6.7871    0.0000 C   0  0  0  0  0  0
   -5.6279   -7.9018    0.0000 C   0  0  0  0  0  0
    0.3177   -5.1814    0.0000 C   0  0  0  0  0  0
   -0.6860   -6.2961    0.0000 C   0  0  0  0  0  0
    1.7849   -5.4933    0.0000 C   0  0  0  0  0  0
    5.7760    0.0000    0.0000 C   0  0  0  0  0  0
    5.0260    1.2990    0.0000 O   0  0  0  0  0  0
    7.2760    0.0000    0.0000 C   0  0  0  0  0  0
    7.2760    1.5000    0.0000 F   0  0  0  0  0  0
    7.2760   -1.5000    0.0000 F   0  0  0  0  0  0
    8.7760    0.0000    0.0000 C   0  0  0  0  0  0
   10.2760    0.0000    0.0000 F   0  0  0  0  0  0
    8.7760   -1.5000    0.0000 F   0  0  0  0  0  0
    8.7760    1.5000    0.0000 F   0  0  0  0  0  0
  1  2  1  0  0  0
  2  3  1  0  0  0
  3  4  1  0  0  0
  4  5  1  0  0  0
  4 47  1  1  0  0
  5  6  1  0  0  0
  6  7  2  0  0  0
  6  8  1  0  0  0
  8  9  1  0  0  0
  8 12  1  1  0  0
  9 10  1  0  0  0
 10 11  1  0  0  0
 11 12  1  0  0  0
 12 13  1  0  0  0
 13 14  2  0  0  0
 13 15  1  0  0  0
 15 16  1  0  0  0
 15 44  1  6  0  0
 16 17  1  0  0  0
 17 18  2  0  0  0
 17 19  1  0  0  0
 19 20  1  0  0  0
 19 40  1  6  0  0
 20 21  1  0  0  0
 21 22  2  0  0  0
 21 23  1  0  0  0
 23 24  1  0  0  0
 23 28  1  1  0  0
 24 25  1  0  0  0
 25 26  2  0  0  0
 25 27  1  0  0  0
 28 29  1  0  0  0
 29 30  2  0  0  0
 29 31  1  0  0  0
 31 32  1  0  0  0
 31 36  1  1  0  0
 32 33  1  0  0  0
 33 34  2  0  0  0
 33 35  1  0  0  0
 36 37  1  0  0  0
 37 38  2  0  0  0
 37 39  1  0  0  0
 40 41  1  0  0  0
 40 42  1  6  0  0
 42 43  1  0  0  0
 44 45  1  0  0  0
 44 46  1  0  0  0
 47 48  2  0  0  0
 47 49  1  0  0  0
 49 50  1  0  0  0
 49 51  1  0  0  0
 49 52  1  0  0  0
 52 53  1  0  0  0
 52 54  1  0  0  0
 52 55  1  0  0  0
M  END
> <s_m_entry_id>
6676

> <s_m_entry_name>
NS3-4A.217

> <CHEMBLID>
CHEMBL2370192

> <s_m_Source_Path>
/home/liwei/Desktop/Machine/HCV/Active

> <s_m_Source_File>
NS3-4A.sdf

> <i_m_Source_File_Index>
217

$$$$
CHEMBL2370193
                    3D
 Structure written by MMmdl.
 48 48  0  0  1  0            999 V2000
    8.0260   -3.8971    0.0000 C   0  0  0  0  0  0
    7.2760   -2.5981    0.0000 C   0  0  0  0  0  0
    5.7760   -2.5981    0.0000 C   0  0  0  0  0  0
    5.0260   -1.2990    0.0000 C   0  0  2  0  0  0
    3.5260   -1.2990    0.0000 N   0  0  0  0  0  0
    2.7760    0.0000    0.0000 C   0  0  0  0  0  0
    3.5260    1.2990    0.0000 O   0  0  0  0  0  0
    1.2760    0.0000    0.0000 C   0  0  2  0  0  0
    0.3943    1.2135    0.0000 C   0  0  0  0  0  0
   -1.0323    0.7500    0.0000 C   0  0  0  0  0  0
   -1.0323   -0.7500    0.0000 C   0  0  0  0  0  0
    0.3943   -1.2135    0.0000 N   0  0  0  0  0  0
    0.8578   -2.6401    0.0000 C   0  0  0  0  0  0
    2.3250   -2.9520    0.0000 O   0  0  0  0  0  0
   -0.1459   -3.7548    0.0000 C   0  0  1  0  0  0
   -1.6131   -3.4430    0.0000 N   0  0  0  0  0  0
   -2.6168   -4.5577    0.0000 C   0  0  0  0  0  0
   -2.1533   -5.9843    0.0000 O   0  0  0  0  0  0
   -4.0840   -4.2458    0.0000 C   0  0  1  0  0  0
   -4.5475   -2.8192    0.0000 N   0  0  0  0  0  0
   -6.0148   -2.5074    0.0000 C   0  0  0  0  0  0
   -7.0185   -3.6221    0.0000 O   0  0  0  0  0  0
   -6.4783   -1.0808    0.0000 C   0  0  1  0  0  0
   -7.9455   -0.7689    0.0000 C   0  0  0  0  0  0
   -8.9492   -1.8836    0.0000 C   0  0  0  0  0  0
   -8.4857   -3.3102    0.0000 O   0  0  0  0  0  0
  -10.4164   -1.5718    0.0000 O   0  0  0  0  0  0
   -5.4746    0.0339    0.0000 N   0  0  0  0  0  0
   -5.9381    1.4605    0.0000 C   0  0  0  0  0  0
   -7.4053    1.7724    0.0000 O   0  0  0  0  0  0
   -4.9344    2.5752    0.0000 C   0  0  2  0  0  0
   -3.4672    2.2634    0.0000 C   0  0  0  0  0  0
   -2.4635    3.3781    0.0000 C   0  0  0  0  0  0
   -2.9270    4.8047    0.0000 O   0  0  0  0  0  0
   -0.9963    3.0662    0.0000 O   0  0  0  0  0  0
   -5.3979    4.0018    0.0000 N   0  0  0  0  0  0
   -6.8652    4.3137    0.0000 C   0  0  0  0  0  0
   -7.3287    5.7403    0.0000 O   0  0  0  0  0  0
   -7.8689    3.1990    0.0000 C   0  0  0  0  0  0
   -5.0877   -5.3605    0.0000 C   0  0  1  0  0  0
   -6.5549   -5.0487    0.0000 C   0  0  0  0  0  0
   -4.6242   -6.7871    0.0000 C   0  0  0  0  0  0
   -5.6279   -7.9018    0.0000 C   0  0  0  0  0  0
    0.3177   -5.1814    0.0000 C   0  0  0  0  0  0
   -0.6860   -6.2961    0.0000 C   0  0  0  0  0  0
    1.7849   -5.4933    0.0000 C   0  0  0  0  0  0
    5.7760    0.0000    0.0000 C   0  0  0  0  0  0
    7.2760    0.0000    0.0000 O   0  0  0  0  0  0
  1  2  1  0  0  0
  2  3  1  0  0  0
  3  4  1  0  0  0
  4  5  1  0  0  0
  4 47  1  1  0  0
  5  6  1  0  0  0
  6  7  2  0  0  0
  6  8  1  0  0  0
  8  9  1  0  0  0
  8 12  1  1  0  0
  9 10  1  0  0  0
 10 11  1  0  0  0
 11 12  1  0  0  0
 12 13  1  0  0  0
 13 14  2  0  0  0
 13 15  1  0  0  0
 15 16  1  0  0  0
 15 44  1  6  0  0
 16 17  1  0  0  0
 17 18  2  0  0  0
 17 19  1  0  0  0
 19 20  1  0  0  0
 19 40  1  6  0  0
 20 21  1  0  0  0
 21 22  2  0  0  0
 21 23  1  0  0  0
 23 24  1  0  0  0
 23 28  1  1  0  0
 24 25  1  0  0  0
 25 26  2  0  0  0
 25 27  1  0  0  0
 28 29  1  0  0  0
 29 30  2  0  0  0
 29 31  1  0  0  0
 31 32  1  0  0  0
 31 36  1  1  0  0
 32 33  1  0  0  0
 33 34  2  0  0  0
 33 35  1  0  0  0
 36 37  1  0  0  0
 37 38  2  0  0  0
 37 39  1  0  0  0
 40 41  1  0  0  0
 40 42  1  6  0  0
 42 43  1  0  0  0
 44 45  1  0  0  0
 44 46  1  0  0  0
 47 48  2  0  0  0
M  END
> <s_m_entry_id>
6677

> <s_m_entry_name>
NS3-4A.218

> <CHEMBLID>
CHEMBL2370193

> <s_m_Source_Path>
/home/liwei/Desktop/Machine/HCV/Active

> <s_m_Source_File>
NS3-4A.sdf

> <i_m_Source_File_Index>
218

$$$$
CHEMBL2370196
                    3D
 Structure written by MMmdl.
 48 48  0  0  1  0            999 V2000
    8.0260   -3.8971    0.0000 C   0  0  0  0  0  0
    7.2760   -2.5981    0.0000 C   0  0  0  0  0  0
    5.7760   -2.5981    0.0000 C   0  0  0  0  0  0
    5.0260   -1.2990    0.0000 C   0  0  2  0  0  0
    3.5260   -1.2990    0.0000 N   0  0  0  0  0  0
    2.7760    0.0000    0.0000 C   0  0  0  0  0  0
    3.5260    1.2990    0.0000 O   0  0  0  0  0  0
    1.2760    0.0000    0.0000 C   0  0  2  0  0  0
    0.3943    1.2135    0.0000 C   0  0  0  0  0  0
   -1.0323    0.7500    0.0000 C   0  0  0  0  0  0
   -1.0323   -0.7500    0.0000 C   0  0  0  0  0  0
    0.3943   -1.2135    0.0000 N   0  0  0  0  0  0
    0.8578   -2.6401    0.0000 C   0  0  0  0  0  0
    2.3250   -2.9520    0.0000 O   0  0  0  0  0  0
   -0.1459   -3.7548    0.0000 C   0  0  1  0  0  0
   -1.6131   -3.4430    0.0000 N   0  0  0  0  0  0
   -2.6168   -4.5577    0.0000 C   0  0  0  0  0  0
   -2.1533   -5.9843    0.0000 O   0  0  0  0  0  0
   -4.0840   -4.2458    0.0000 C   0  0  1  0  0  0
   -4.5475   -2.8192    0.0000 N   0  0  0  0  0  0
   -6.0148   -2.5074    0.0000 C   0  0  0  0  0  0
   -7.0185   -3.6221    0.0000 O   0  0  0  0  0  0
   -6.4783   -1.0808    0.0000 C   0  0  2  0  0  0
   -7.9455   -0.7689    0.0000 C   0  0  0  0  0  0
   -8.9492   -1.8836    0.0000 C   0  0  0  0  0  0
   -8.4857   -3.3102    0.0000 O   0  0  0  0  0  0
  -10.4164   -1.5718    0.0000 O   0  0  0  0  0  0
   -5.4746    0.0339    0.0000 N   0  0  0  0  0  0
   -5.9381    1.4605    0.0000 C   0  0  0  0  0  0
   -7.4053    1.7724    0.0000 O   0  0  0  0  0  0
   -4.9344    2.5752    0.0000 C   0  0  2  0  0  0
   -3.4672    2.2634    0.0000 C   0  0  0  0  0  0
   -2.4635    3.3781    0.0000 C   0  0  0  0  0  0
   -2.9270    4.8047    0.0000 O   0  0  0  0  0  0
   -0.9963    3.0662    0.0000 O   0  0  0  0  0  0
   -5.3979    4.0018    0.0000 N   0  0  0  0  0  0
   -6.8652    4.3137    0.0000 C   0  0  0  0  0  0
   -7.3287    5.7403    0.0000 O   0  0  0  0  0  0
   -7.8689    3.1990    0.0000 C   0  0  0  0  0  0
   -5.0877   -5.3605    0.0000 C   0  0  1  0  0  0
   -6.5549   -5.0487    0.0000 C   0  0  0  0  0  0
   -4.6242   -6.7871    0.0000 C   0  0  0  0  0  0
   -5.6279   -7.9018    0.0000 C   0  0  0  0  0  0
    0.3177   -5.1814    0.0000 C   0  0  0  0  0  0
   -0.6860   -6.2961    0.0000 C   0  0  0  0  0  0
    1.7849   -5.4933    0.0000 C   0  0  0  0  0  0
    5.7760    0.0000    0.0000 C   0  0  0  0  0  0
    7.2760    0.0000    0.0000 O   0  0  0  0  0  0
  1  2  1  0  0  0
  2  3  1  0  0  0
  3  4  1  0  0  0
  4  5  1  0  0  0
  4 47  1  1  0  0
  5  6  1  0  0  0
  6  7  2  0  0  0
  6  8  1  0  0  0
  8  9  1  0  0  0
  8 12  1  1  0  0
  9 10  1  0  0  0
 10 11  1  0  0  0
 11 12  1  0  0  0
 12 13  1  0  0  0
 13 14  2  0  0  0
 13 15  1  0  0  0
 15 16  1  0  0  0
 15 44  1  6  0  0
 16 17  1  0  0  0
 17 18  2  0  0  0
 17 19  1  0  0  0
 19 20  1  0  0  0
 19 40  1  6  0  0
 20 21  1  0  0  0
 21 22  2  0  0  0
 21 23  1  0  0  0
 23 24  1  0  0  0
 23 28  1  1  0  0
 24 25  1  0  0  0
 25 26  2  0  0  0
 25 27  1  0  0  0
 28 29  1  0  0  0
 29 30  2  0  0  0
 29 31  1  0  0  0
 31 32  1  0  0  0
 31 36  1  1  0  0
 32 33  1  0  0  0
 33 34  2  0  0  0
 33 35  1  0  0  0
 36 37  1  0  0  0
 37 38  2  0  0  0
 37 39  1  0  0  0
 40 41  1  0  0  0
 40 42  1  6  0  0
 42 43  1  0  0  0
 44 45  1  0  0  0
 44 46  1  0  0  0
 47 48  2  0  0  0
M  END
> <s_m_entry_id>
6678

> <s_m_entry_name>
NS3-4A.219

> <CHEMBLID>
CHEMBL2370196

> <s_m_Source_Path>
/home/liwei/Desktop/Machine/HCV/Active

> <s_m_Source_File>
NS3-4A.sdf

> <i_m_Source_File_Index>
219

$$$$
CHEMBL2370476
                    3D
 Structure written by MMmdl.
 48 48  0  0  1  0            999 V2000
    5.7760    7.7942    0.0000 C   0  0  0  0  0  0
    5.0260    6.4952    0.0000 C   0  0  0  0  0  0
    3.5260    6.4952    0.0000 C   0  0  2  0  0  0
    2.7760    7.7942    0.0000 C   0  0  0  0  0  0
    2.7760    5.1962    0.0000 C   0  0  2  0  0  0
    1.2760    5.1962    0.0000 N   0  0  0  0  0  0
    0.5260    6.4952    0.0000 C   0  0  0  0  0  0
    1.2760    7.7942    0.0000 O   0  0  0  0  0  0
   -0.9740    6.4952    0.0000 C   0  0  1  0  0  0
   -1.7240    7.7942    0.0000 C   0  0  0  0  0  0
   -0.9740    9.0933    0.0000 C   0  0  0  0  0  0
    0.5260    9.0933    0.0000 O   0  0  0  0  0  0
   -1.7240   10.3923    0.0000 O   0  0  0  0  0  0
   -1.7240    5.1962    0.0000 N   0  0  0  0  0  0
   -3.2240    5.1962    0.0000 C   0  0  0  0  0  0
   -3.9740    6.4952    0.0000 O   0  0  0  0  0  0
   -3.9740    3.8971    0.0000 C   0  0  2  0  0  0
   -5.4740    3.8971    0.0000 C   0  0  0  0  0  0
   -6.2240    2.5981    0.0000 C   0  0  0  0  0  0
   -5.4740    1.2990    0.0000 O   0  0  0  0  0  0
   -7.7240    2.5981    0.0000 O   0  0  0  0  0  0
   -3.2240    2.5981    0.0000 N   0  0  0  0  0  0
   -1.7240    2.5981    0.0000 C   0  0  0  0  0  0
   -0.9740    1.2990    0.0000 O   0  0  0  0  0  0
   -0.9740    3.8971    0.0000 C   0  0  0  0  0  0
    3.5260    3.8971    0.0000 C   0  0  0  0  0  0
    5.0260    3.8971    0.0000 O   0  0  0  0  0  0
    2.7760    2.5981    0.0000 N   0  0  0  0  0  0
    3.5260    1.2990    0.0000 C   0  0  1  0  0  0
    5.0260    1.2990    0.0000 C   0  0  0  0  0  0
    5.7760    2.5981    0.0000 C   0  0  0  0  0  0
    5.7760   -0.0000    0.0000 C   0  0  0  0  0  0
    2.7760    0.0000    0.0000 C   0  0  0  0  0  0
    1.2760   -0.0000    0.0000 O   0  0  0  0  0  0
    3.5260   -1.2990    0.0000 N   0  0  0  0  0  0
    5.0178   -1.4558    0.0000 C   0  0  0  0  0  0
    5.3296   -2.9231    0.0000 C   0  0  0  0  0  0
    4.0306   -3.6731    0.0000 C   0  0  0  0  0  0
    2.9159   -2.6694    0.0000 C   0  0  1  0  0  0
    1.4486   -2.9812    0.0000 C   0  0  0  0  0  0
    0.4450   -1.8665    0.0000 O   0  0  0  0  0  0
    0.9851   -4.4078    0.0000 N   0  0  0  0  0  0
   -0.4821   -4.7197    0.0000 C   0  0  1  0  0  0
   -1.4858   -3.6050    0.0000 C   0  0  0  0  0  0
   -2.9530   -3.9168    0.0000 S   0  0  0  0  0  0
   -0.9456   -6.1463    0.0000 C   0  0  0  0  0  0
    0.0581   -7.2610    0.0000 O   0  0  0  0  0  0
   -2.4128   -6.4581    0.0000 O   0  0  0  0  0  0
  1  2  1  0  0  0
  2  3  1  0  0  0
  3  4  1  0  0  0
  3  5  1  1  0  0
  5  6  1  0  0  0
  5 26  1  1  0  0
  6  7  1  0  0  0
  7  8  2  0  0  0
  7  9  1  0  0  0
  9 10  1  0  0  0
  9 14  1  1  0  0
 10 11  1  0  0  0
 11 12  2  0  0  0
 11 13  1  0  0  0
 14 15  1  0  0  0
 15 16  2  0  0  0
 15 17  1  0  0  0
 17 18  1  0  0  0
 17 22  1  1  0  0
 18 19  1  0  0  0
 19 20  2  0  0  0
 19 21  1  0  0  0
 22 23  1  0  0  0
 23 24  2  0  0  0
 23 25  1  0  0  0
 26 27  2  0  0  0
 26 28  1  0  0  0
 28 29  1  0  0  0
 29 30  1  0  0  0
 29 33  1  6  0  0
 30 31  1  0  0  0
 30 32  1  0  0  0
 33 34  2  0  0  0
 33 35  1  0  0  0
 35 36  1  0  0  0
 35 39  1  0  0  0
 36 37  1  0  0  0
 37 38  1  0  0  0
 38 39  1  0  0  0
 39 40  1  6  0  0
 40 41  2  0  0  0
 40 42  1  0  0  0
 42 43  1  0  0  0
 43 44  1  0  0  0
 43 46  1  1  0  0
 44 45  1  0  0  0
 46 47  2  0  0  0
 46 48  1  0  0  0
M  END
> <s_m_entry_id>
6679

> <s_m_entry_name>
NS3-4A.220

> <CHEMBLID>
CHEMBL2370476

> <s_m_Source_Path>
/home/liwei/Desktop/Machine/HCV/Active

> <s_m_Source_File>
NS3-4A.sdf

> <i_m_Source_File_Index>
220

$$$$
CHEMBL2371297
                    3D
 Structure written by MMmdl.
 35 35  0  0  1  0            999 V2000
   10.3175   -7.5740    0.0000 C   0  0  0  0  0  0
    6.0234   -7.5740    0.0000 C   0  0  0  0  0  0
    9.6067   -7.1624    0.0000 C   0  0  1  0  0  0
    8.1726   -7.1624    0.0000 C   0  0  0  0  0  0
    8.8834   -7.5740    0.0000 N   0  0  0  0  0  0
    6.7384   -7.1624    0.0000 N   0  0  0  0  0  0
    4.5893   -8.3970    0.0000 C   0  0  0  0  0  0
   10.3258   -8.3970    0.0000 C   0  0  0  0  0  0
    9.6067   -6.3269    0.0000 C   0  0  0  0  0  0
    5.3043   -7.1624    0.0000 C   0  0  1  0  0  0
    4.5810   -7.5740    0.0000 N   0  0  0  0  0  0
    7.4575   -7.5740    0.0000 C   0  0  1  0  0  0
   11.0367   -7.1582    0.0000 O   0  0  0  0  0  0
    6.0234   -8.3970    0.0000 O   0  0  0  0  0  0
    8.1726   -6.3269    0.0000 O   0  0  0  0  0  0
   10.3175   -5.9154    0.0000 C   0  0  0  0  0  0
    5.3043   -8.7961    0.0000 O   0  0  0  0  0  0
   11.0367   -8.8044    0.0000 O   0  0  0  0  0  0
    3.8701   -8.8086    0.0000 O   0  0  0  0  0  0
    5.3043   -6.3394    0.0000 C   0  0  2  0  0  0
    9.6067   -8.8086    0.0000 O   0  0  0  0  0  0
   11.0409   -6.3269    0.0000 F   0  0  0  0  0  0
   10.3175   -5.0923    0.0000 F   0  0  0  0  0  0
    3.8826   -9.6317    0.0000 C   0  0  0  0  0  0
    3.1718  -10.0557    0.0000 C   0  0  0  0  0  0
    7.4575   -8.3970    0.0000 C   0  0  0  0  0  0
    4.5934   -5.9278    0.0000 C   0  0  0  0  0  0
    6.0151   -5.9278    0.0000 C   0  0  0  0  0  0
    2.4567   -9.6441    0.0000 C   0  0  0  0  0  0
    3.1718  -10.8787    0.0000 C   0  0  0  0  0  0
    6.7384   -8.8086    0.0000 C   0  0  0  0  0  0
    4.5893   -5.1048    0.0000 C   0  0  0  0  0  0
    2.4609  -11.2986    0.0000 C   0  0  0  0  0  0
    1.7376  -10.0639    0.0000 C   0  0  0  0  0  0
    1.7376  -10.8912    0.0000 C   0  0  0  0  0  0
  1  3  1  0  0  0
  1  8  1  0  0  0
  1 13  2  0  0  0
  2  6  1  0  0  0
  2 10  1  0  0  0
  2 14  2  0  0  0
  3  5  1  0  0  0
  3  9  1  6  0  0
  4  5  1  0  0  0
  4 12  1  0  0  0
  4 15  2  0  0  0
  6 12  1  0  0  0
  7 11  1  0  0  0
  7 17  2  0  0  0
  7 19  1  0  0  0
  8 18  2  0  0  0
  8 21  1  0  0  0
  9 16  1  0  0  0
 10 11  1  0  0  0
 10 20  1  6  0  0
 12 26  1  6  0  0
 16 22  1  0  0  0
 16 23  1  0  0  0
 19 24  1  0  0  0
 20 27  1  0  0  0
 20 28  1  1  0  0
 24 25  1  0  0  0
 25 29  1  0  0  0
 25 30  2  0  0  0
 26 31  1  0  0  0
 27 32  1  0  0  0
 29 34  2  0  0  0
 30 33  1  0  0  0
 33 35  2  0  0  0
 34 35  1  0  0  0
M  END
> <s_m_entry_id>
6680

> <s_m_entry_name>
NS3-4A.221

> <CHEMBLID>
CHEMBL2371297

> <s_m_Source_Path>
/home/liwei/Desktop/Machine/HCV/Active

> <s_m_Source_File>
NS3-4A.sdf

> <i_m_Source_File_Index>
221

> <MOLREGNO>
1545748

> <MAX_PHASE>
0

> <MOLWEIGHT>
499.5

> <ALOGP>
2.77

> <PSA>
150.89

> <HBA>
7

> <HBD>
4

> <RO5>
0

> <RTB>
15

> <RO3>
N

> <ACD_MOST_APKA>
2.05

> <ACD_LOGP>
2.96

> <ACD_LOGD>
-0.78

> <AROMATIC_RINGS>
1

> <HEAVY_ATOMS>
35

> <QED_WEIGHTED>
0.27

> <HBA_LIPINSKI>
10

> <HBD_LIPINSKI>
4

> <NUM_LIPINSKI_RO5_VIOLATIONS>
0

> <MW_MONOISOTOPIC>
499.213

> <MOLECULAR_SPECIES>
ACID

> <FULL_MOLFORMULA>
C23H31F2N3O7

$$$$
CHEMBL2371298
                    3D
 Structure written by MMmdl.
 30 29  0  0  1  0            999 V2000
    8.8132   -6.6078    0.0000 C   0  0  0  0  0  0
    4.5229   -6.6078    0.0000 C   0  0  0  0  0  0
    8.1030   -6.1966    0.0000 C   0  0  1  0  0  0
    6.6701   -6.1966    0.0000 C   0  0  0  0  0  0
    7.3803   -6.6078    0.0000 N   0  0  0  0  0  0
    5.2372   -6.1966    0.0000 N   0  0  0  0  0  0
    8.8214   -7.4302    0.0000 C   0  0  0  0  0  0
    8.1030   -5.3701    0.0000 C   0  0  0  0  0  0
    3.8044   -6.1966    0.0000 C   0  0  1  0  0  0
    5.9557   -6.6078    0.0000 C   0  0  1  0  0  0
    3.0942   -6.6078    0.0000 N   0  0  0  0  0  0
    3.0900   -7.4302    0.0000 C   0  0  0  0  0  0
    9.5317   -6.1966    0.0000 O   0  0  0  0  0  0
    4.5229   -7.4384    0.0000 O   0  0  0  0  0  0
    6.6701   -5.3701    0.0000 O   0  0  0  0  0  0
    8.8132   -4.9590    0.0000 C   0  0  0  0  0  0
    9.5317   -7.8413    0.0000 O   0  0  0  0  0  0
    5.9557   -7.4384    0.0000 C   0  0  0  0  0  0
    2.3715   -7.8371    0.0000 O   0  0  0  0  0  0
    3.8044   -5.3701    0.0000 C   0  0  2  0  0  0
    8.1030   -7.8413    0.0000 O   0  0  0  0  0  0
    9.5358   -5.3701    0.0000 F   0  0  0  0  0  0
    8.8132   -4.1283    0.0000 F   0  0  0  0  0  0
    6.6701   -7.8496    0.0000 C   0  0  0  0  0  0
    3.7919   -7.8413    0.0000 C   0  0  0  0  0  0
    4.5229   -4.9590    0.0000 C   0  0  0  0  0  0
    3.0942   -4.9590    0.0000 C   0  0  0  0  0  0
    7.3803   -7.4384    0.0000 C   0  0  0  0  0  0
    6.6701   -8.6761    0.0000 C   0  0  0  0  0  0
    4.5229   -4.1283    0.0000 C   0  0  0  0  0  0
  1  3  1  0  0  0
  1  7  1  0  0  0
  1 13  2  0  0  0
  2  6  1  0  0  0
  2  9  1  0  0  0
  2 14  2  0  0  0
  3  5  1  0  0  0
  3  8  1  6  0  0
  4  5  1  0  0  0
  4 10  1  0  0  0
  4 15  2  0  0  0
  6 10  1  0  0  0
  7 17  2  0  0  0
  7 21  1  0  0  0
  8 16  1  0  0  0
  9 11  1  0  0  0
  9 20  1  6  0  0
 10 18  1  6  0  0
 11 12  1  0  0  0
 12 19  2  0  0  0
 12 25  1  0  0  0
 16 22  1  0  0  0
 16 23  1  0  0  0
 18 24  1  0  0  0
 20 26  1  0  0  0
 20 27  1  1  0  0
 24 28  1  0  0  0
 24 29  1  0  0  0
 26 30  1  0  0  0
M  END
> <s_m_entry_id>
6681

> <s_m_entry_name>
NS3-4A.222

> <CHEMBLID>
CHEMBL2371298

> <s_m_Source_Path>
/home/liwei/Desktop/Machine/HCV/Active

> <s_m_Source_File>
NS3-4A.sdf

> <i_m_Source_File_Index>
222

> <MOLREGNO>
1545749

> <MAX_PHASE>
0

> <MOLWEIGHT>
435.46

> <ALOGP>
1.25

> <PSA>
141.66

> <HBA>
6

> <HBD>
4

> <RO5>
0

> <RTB>
13

> <RO3>
N

> <ACD_MOST_APKA>
2.05

> <ACD_LOGP>
0.61

> <ACD_LOGD>
-3.13

> <AROMATIC_RINGS>
0

> <HEAVY_ATOMS>
30

> <QED_WEIGHTED>
0.32

> <HBA_LIPINSKI>
9

> <HBD_LIPINSKI>
4

> <NUM_LIPINSKI_RO5_VIOLATIONS>
0

> <MW_MONOISOTOPIC>
435.2181

> <MOLECULAR_SPECIES>
ACID

> <FULL_MOLFORMULA>
C19H31F2N3O6

$$$$
CHEMBL2371300
                    3D
 Structure written by MMmdl.
 34 33  0  0  1  0            999 V2000
    3.2542   -0.4417    0.0000 C   0  0  0  0  0  0
   -1.0375   -0.4417    0.0000 C   0  0  0  0  0  0
    2.5375   -0.0292    0.0000 C   0  0  1  0  0  0
    1.1042   -0.0292    0.0000 C   0  0  0  0  0  0
   -3.1833   -0.0292    0.0000 C   0  0  0  0  0  0
    1.8167   -0.4417    0.0000 N   0  0  0  0  0  0
   -0.3208   -0.0292    0.0000 N   0  0  0  0  0  0
    3.9667   -0.0292    0.0000 C   0  0  0  0  0  0
   -1.7458   -0.0292    0.0000 C   0  0  1  0  0  0
    2.5375    0.8000    0.0000 C   0  0  0  0  0  0
    0.3917   -0.4417    0.0000 C   0  0  1  0  0  0
   -2.4708   -0.4417    0.0000 N   0  0  0  0  0  0
   -3.8958   -0.4417    0.0000 O   0  0  0  0  0  0
    3.2542   -1.2667    0.0000 O   0  0  0  0  0  0
   -1.0375   -1.2667    0.0000 O   0  0  0  0  0  0
   -3.1833    0.8000    0.0000 O   0  0  0  0  0  0
    1.1042    0.8000    0.0000 O   0  0  0  0  0  0
    3.2542    1.2083    0.0000 C   0  0  0  0  0  0
    4.6792   -0.4417    0.0000 O   0  0  0  0  0  0
    0.3917   -1.2667    0.0000 C   0  0  0  0  0  0
   -4.6083   -0.0292    0.0000 C   0  0  0  0  0  0
   -1.7458    0.8000    0.0000 C   0  0  2  0  0  0
    3.9667    0.8000    0.0000 O   0  0  0  0  0  0
    2.4542    1.4250    0.0000 F   0  0  0  0  0  0
    3.2542    2.0333    0.0000 F   0  0  0  0  0  0
    1.1042   -1.6792    0.0000 C   0  0  0  0  0  0
   -5.3208   -0.4417    0.0000 C   0  0  0  0  0  0
   -4.6083    0.8000    0.0000 C   0  0  0  0  0  0
   -4.3958   -0.8292    0.0000 C   0  0  0  0  0  0
   -1.0375    1.2083    0.0000 C   0  0  0  0  0  0
   -2.4708    1.2083    0.0000 C   0  0  0  0  0  0
    1.8167   -1.2667    0.0000 C   0  0  0  0  0  0
    1.1042   -2.5042    0.0000 C   0  0  0  0  0  0
   -1.0375    2.0333    0.0000 C   0  0  0  0  0  0
  1  3  1  0  0  0
  1  8  1  0  0  0
  1 14  2  0  0  0
  2  7  1  0  0  0
  2  9  1  0  0  0
  2 15  2  0  0  0
  3  6  1  0  0  0
  3 10  1  6  0  0
  4  6  1  0  0  0
  4 11  1  0  0  0
  4 17  2  0  0  0
  5 12  1  0  0  0
  5 13  1  0  0  0
  5 16  2  0  0  0
  7 11  1  0  0  0
  8 19  2  0  0  0
  8 23  1  0  0  0
  9 12  1  0  0  0
  9 22  1  6  0  0
 10 18  1  0  0  0
 11 20  1  6  0  0
 13 21  1  0  0  0
 18 24  1  0  0  0
 18 25  1  0  0  0
 20 26  1  0  0  0
 21 27  1  0  0  0
 21 28  1  0  0  0
 21 29  1  0  0  0
 22 30  1  0  0  0
 22 31  1  1  0  0
 26 32  1  0  0  0
 26 33  1  0  0  0
 30 34  1  0  0  0
M  END
> <s_m_entry_id>
6682

> <s_m_entry_name>
NS3-4A.223

> <CHEMBLID>
CHEMBL2371300

> <s_m_Source_Path>
/home/liwei/Desktop/Machine/HCV/Active

> <s_m_Source_File>
NS3-4A.sdf

> <i_m_Source_File_Index>
223

> <MOLREGNO>
1545751

> <MAX_PHASE>
0

> <MOLWEIGHT>
493.54

> <ALOGP>
2.83

> <PSA>
150.89

> <HBA>
7

> <HBD>
4

> <RO5>
0

> <RTB>
15

> <RO3>
N

> <ACD_MOST_APKA>
2.05

> <ACD_LOGP>
3.15

> <ACD_LOGD>
-0.6

> <AROMATIC_RINGS>
0

> <HEAVY_ATOMS>
34

> <QED_WEIGHTED>
0.26

> <HBA_LIPINSKI>
10

> <HBD_LIPINSKI>
4

> <NUM_LIPINSKI_RO5_VIOLATIONS>
0

> <MW_MONOISOTOPIC>
493.26

> <MOLECULAR_SPECIES>
ACID

> <FULL_MOLFORMULA>
C22H37F2N3O7

$$$$
CHEMBL2371316
                    3D
 Structure written by MMmdl.
 34 34  0  0  1  0            999 V2000
   10.3175   -7.5740    0.0000 C   0  0  0  0  0  0
    6.0234   -7.5740    0.0000 C   0  0  0  0  0  0
    9.6067   -7.1624    0.0000 C   0  0  1  0  0  0
    8.1726   -7.1624    0.0000 C   0  0  0  0  0  0
    8.8834   -7.5740    0.0000 N   0  0  0  0  0  0
    6.7384   -7.1624    0.0000 N   0  0  0  0  0  0
    4.5893   -8.3970    0.0000 C   0  0  0  0  0  0
   10.3258   -8.3970    0.0000 C   0  0  0  0  0  0
    9.6067   -6.3269    0.0000 C   0  0  0  0  0  0
    5.3043   -7.1624    0.0000 C   0  0  1  0  0  0
    4.5810   -7.5740    0.0000 N   0  0  0  0  0  0
    7.4575   -7.5740    0.0000 C   0  0  1  0  0  0
   11.0367   -7.1582    0.0000 O   0  0  0  0  0  0
    6.0234   -8.3970    0.0000 O   0  0  0  0  0  0
    8.1726   -6.3269    0.0000 O   0  0  0  0  0  0
   10.3175   -5.9154    0.0000 C   0  0  0  0  0  0
    5.3043   -8.7961    0.0000 O   0  0  0  0  0  0
   11.0367   -8.8044    0.0000 O   0  0  0  0  0  0
    3.8701   -8.8086    0.0000 O   0  0  0  0  0  0
    5.3043   -6.3394    0.0000 C   0  0  2  0  0  0
    9.6067   -8.8086    0.0000 O   0  0  0  0  0  0
   11.0409   -6.3269    0.0000 F   0  0  0  0  0  0
   10.3175   -5.0923    0.0000 F   0  0  0  0  0  0
    3.8826   -9.6317    0.0000 C   0  0  0  0  0  0
    3.1718  -10.0557    0.0000 C   0  0  0  0  0  0
    7.4575   -8.3970    0.0000 C   0  0  0  0  0  0
    4.5934   -5.9278    0.0000 C   0  0  0  0  0  0
    6.0151   -5.9278    0.0000 C   0  0  0  0  0  0
    2.4567   -9.6441    0.0000 C   0  0  0  0  0  0
    3.1718  -10.8787    0.0000 C   0  0  0  0  0  0
    4.5893   -5.1048    0.0000 C   0  0  0  0  0  0
    1.7376  -10.0639    0.0000 C   0  0  0  0  0  0
    2.4609  -11.2986    0.0000 C   0  0  0  0  0  0
    1.7376  -10.8912    0.0000 C   0  0  0  0  0  0
  1  3  1  0  0  0
  1  8  1  0  0  0
  1 13  2  0  0  0
  2  6  1  0  0  0
  2 10  1  0  0  0
  2 14  2  0  0  0
  3  5  1  0  0  0
  3  9  1  6  0  0
  4  5  1  0  0  0
  4 12  1  0  0  0
  4 15  2  0  0  0
  6 12  1  0  0  0
  7 11  1  0  0  0
  7 17  2  0  0  0
  7 19  1  0  0  0
  8 18  2  0  0  0
  8 21  1  0  0  0
  9 16  1  0  0  0
 10 11  1  0  0  0
 10 20  1  6  0  0
 12 26  1  6  0  0
 16 22  1  0  0  0
 16 23  1  0  0  0
 19 24  1  0  0  0
 20 27  1  0  0  0
 20 28  1  1  0  0
 24 25  1  0  0  0
 25 29  1  0  0  0
 25 30  2  0  0  0
 27 31  1  0  0  0
 29 32  2  0  0  0
 30 33  1  0  0  0
 32 34  1  0  0  0
 33 34  2  0  0  0
M  END
> <s_m_entry_id>
6683

> <s_m_entry_name>
NS3-4A.224

> <CHEMBLID>
CHEMBL2371316

> <s_m_Source_Path>
/home/liwei/Desktop/Machine/HCV/Active

> <s_m_Source_File>
NS3-4A.sdf

> <i_m_Source_File_Index>
224

> <MOLREGNO>
1545767

> <MAX_PHASE>
0

> <MOLWEIGHT>
485.48

> <ALOGP>
2.25

> <PSA>
150.89

> <HBA>
7

> <HBD>
4

> <RO5>
0

> <RTB>
14

> <RO3>
N

> <ACD_MOST_APKA>
2.05

> <ACD_LOGP>
2.46

> <ACD_LOGD>
-1.29

> <AROMATIC_RINGS>
1

> <HEAVY_ATOMS>
34

> <QED_WEIGHTED>
0.3

> <HBA_LIPINSKI>
10

> <HBD_LIPINSKI>
4

> <NUM_LIPINSKI_RO5_VIOLATIONS>
0

> <MW_MONOISOTOPIC>
485.1974

> <MOLECULAR_SPECIES>
ACID

> <FULL_MOLFORMULA>
C22H29F2N3O7

$$$$
CHEMBL2371679
                    3D
 Structure written by MMmdl.
 46 49  0  0  1  0            999 V2000
   10.0022    3.6413    0.0000 C   0  0  0  0  0  0
    8.9985    2.5266    0.0000 C   0  0  0  0  0  0
    9.4620    1.1000    0.0000 C   0  0  0  0  0  0
    8.4583   -0.0147    0.0000 C   0  0  2  0  0  0
    8.9218   -1.4413    0.0000 N   0  0  0  0  0  0
    7.9182   -2.5560    0.0000 C   0  0  0  0  0  0
    6.4509   -2.2442    0.0000 O   0  0  0  0  0  0
    8.3817   -3.9826    0.0000 C   0  0  2  0  0  0
    9.8083   -4.4462    0.0000 C   0  0  0  0  0  0
    9.8083   -5.9462    0.0000 C   0  0  0  0  0  0
    8.3817   -6.4097    0.0000 C   0  0  0  0  0  0
    7.5000   -5.1962    0.0000 N   0  0  0  0  0  0
    6.0000   -5.1962    0.0000 C   0  0  0  0  0  0
    5.2500   -3.8971    0.0000 O   0  0  0  0  0  0
    5.2500   -6.4952    0.0000 C   0  0  2  0  0  0
    3.7500   -6.4952    0.0000 N   0  0  0  0  0  0
    3.0000   -5.1962    0.0000 C   0  0  0  0  0  0
    3.7500   -3.8971    0.0000 O   0  0  0  0  0  0
    1.5000   -5.1962    0.0000 C   0  0  2  0  0  0
    0.7500   -3.8971    0.0000 N   0  0  0  0  0  0
    1.5000   -2.5981    0.0000 C   0  0  0  0  0  0
    3.0000   -2.5981    0.0000 O   0  0  0  0  0  0
    0.7500   -1.2990    0.0000 C   0  0  0  0  0  0
    1.5000    0.0000    0.0000 C   0  0  0  0  0  0
    0.7500    1.2990    0.0000 N   0  0  0  0  0  0
   -0.7500    1.2990    0.0000 C   0  0  0  0  0  0
   -1.5000    0.0000    0.0000 C   0  0  0  0  0  0
   -0.7500   -1.2990    0.0000 N   0  0  0  0  0  0
    0.7500   -6.4952    0.0000 C   0  0  0  0  0  0
   -0.7500   -6.4952    0.0000 C   0  0  0  0  0  0
   -1.5000   -7.7942    0.0000 C   0  0  0  0  0  0
   -0.7500   -9.0933    0.0000 C   0  0  0  0  0  0
    0.7500   -9.0933    0.0000 C   0  0  0  0  0  0
    1.5000   -7.7942    0.0000 C   0  0  0  0  0  0
    6.0000   -7.7942    0.0000 C   0  0  0  0  0  0
    7.2990   -7.0442    0.0000 C   0  0  0  0  0  0
    4.7010   -8.5442    0.0000 C   0  0  0  0  0  0
    6.7500   -9.0933    0.0000 C   0  0  0  0  0  0
    6.9911    0.2971    0.0000 C   0  0  0  0  0  0
    5.9874   -0.8176    0.0000 O   0  0  0  0  0  0
    6.5276    1.7237    0.0000 C   0  0  0  0  0  0
    7.5313    2.8384    0.0000 O   0  0  0  0  0  0
    5.0604    2.0356    0.0000 N   0  0  0  0  0  0
    4.5968    3.4622    0.0000 C   0  0  0  0  0  0
    3.4821    4.4659    0.0000 C   0  0  0  0  0  0
    4.9087    4.9294    0.0000 C   0  0  0  0  0  0
  1  2  1  0  0  0
  2  3  1  0  0  0
  3  4  1  0  0  0
  4  5  1  0  0  0
  4 39  1  1  0  0
  5  6  1  0  0  0
  6  7  2  0  0  0
  6  8  1  0  0  0
  8  9  1  0  0  0
  8 12  1  1  0  0
  9 10  1  0  0  0
 10 11  1  0  0  0
 11 12  1  0  0  0
 12 13  1  0  0  0
 13 14  2  0  0  0
 13 15  1  0  0  0
 15 16  1  0  0  0
 15 35  1  6  0  0
 16 17  1  0  0  0
 17 18  2  0  0  0
 17 19  1  0  0  0
 19 20  1  0  0  0
 19 29  1  6  0  0
 20 21  1  0  0  0
 21 22  2  0  0  0
 21 23  1  0  0  0
 23 24  2  0  0  0
 23 28  1  0  0  0
 24 25  1  0  0  0
 25 26  2  0  0  0
 26 27  1  0  0  0
 27 28  2  0  0  0
 29 30  1  0  0  0
 29 34  1  0  0  0
 30 31  1  0  0  0
 31 32  1  0  0  0
 32 33  1  0  0  0
 33 34  1  0  0  0
 35 36  1  0  0  0
 35 37  1  0  0  0
 35 38  1  0  0  0
 39 40  2  0  0  0
 39 41  1  0  0  0
 41 42  2  0  0  0
 41 43  1  0  0  0
 43 44  1  0  0  0
 44 45  1  0  0  0
 44 46  1  0  0  0
 45 46  1  0  0  0
M  END
> <s_m_entry_id>
6684

> <s_m_entry_name>
NS3-4A.225

> <CHEMBLID>
CHEMBL2371679

> <s_m_Source_Path>
/home/liwei/Desktop/Machine/HCV/Active

> <s_m_Source_File>
NS3-4A.sdf

> <i_m_Source_File_Index>
225

$$$$
CHEMBL3125046
                    3D
 Structure written by MMmdl.
 60 63  0  0  1  0            999 V2000
    3.7500   -1.2990    0.0000 C   0  0  0  0  0  0
    3.0000    0.0000    0.0000 O   0  0  0  0  0  0
    1.5000    0.0000    0.0000 C   0  0  0  0  0  0
    0.7500   -1.2990    0.0000 C   0  0  0  0  0  0
   -0.7500   -1.2990    0.0000 C   0  0  0  0  0  0
   -1.5000   -2.5981    0.0000 O   0  0  0  0  0  0
   -3.0000   -2.5981    0.0000 C   0  0  0  0  0  0
   -3.7500   -1.2990    0.0000 C   0  0  0  0  0  0
   -5.2500   -1.2990    0.0000 C   0  0  0  0  0  0
   -6.0000   -2.5981    0.0000 C   0  0  0  0  0  0
   -5.2500   -3.8971    0.0000 C   0  0  0  0  0  0
   -3.7500   -3.8971    0.0000 C   0  0  0  0  0  0
   -3.0000   -5.1962    0.0000 C   0  0  0  0  0  0
   -3.7500   -6.4952    0.0000 C   0  0  0  0  0  0
   -7.5000   -2.5981    0.0000 C   0  0  2  0  0  0
   -8.2500   -3.8971    0.0000 N   0  0  0  0  0  0
   -9.7500   -3.8971    0.0000 C   0  0  0  0  0  0
  -10.5000   -2.5981    0.0000 O   0  0  0  0  0  0
  -10.5000   -5.1962    0.0000 C   0  0  1  0  0  0
   -9.7500   -6.4952    0.0000 N   0  0  0  0  0  0
  -10.5000   -7.7942    0.0000 C   0  0  0  0  0  0
  -12.0000   -7.7942    0.0000 O   0  0  0  0  0  0
   -9.7500   -9.0933    0.0000 O   0  0  0  0  0  0
  -10.5000  -10.3923    0.0000 C   0  0  0  0  0  0
   -9.2010  -11.1423    0.0000 C   0  0  0  0  0  0
  -11.7990   -9.6423    0.0000 C   0  0  0  0  0  0
  -11.2500  -11.6913    0.0000 C   0  0  0  0  0  0
  -12.0000   -5.1962    0.0000 C   0  0  0  0  0  0
  -12.0000   -6.6962    0.0000 C   0  0  0  0  0  0
  -12.0000   -3.6962    0.0000 C   0  0  0  0  0  0
  -13.5000   -5.1962    0.0000 C   0  0  0  0  0  0
   -8.2500   -1.2990    0.0000 C   0  0  0  0  0  0
   -7.5000    0.0000    0.0000 O   0  0  0  0  0  0
   -9.7500   -1.2990    0.0000 N   0  0  0  0  0  0
  -10.5000    0.0000    0.0000 C   0  0  0  0  0  0
   -9.7500    1.2990    0.0000 C   0  0  0  0  0  0
  -10.5000    2.5981    0.0000 C   0  0  0  0  0  0
  -12.0000    2.5981    0.0000 C   0  0  0  0  0  0
  -12.7500    1.2990    0.0000 C   0  0  0  0  0  0
  -12.0000    0.0000    0.0000 C   0  0  0  0  0  0
  -12.7500   -1.2990    0.0000 C   0  0  0  0  0  0
  -12.0000   -2.5981    0.0000 O   0  0  0  0  0  0
  -14.2500   -1.2990    0.0000 N   0  0  0  0  0  0
  -15.0000   -2.5981    0.0000 S   0  0  0  0  0  0
  -13.7010   -3.3481    0.0000 O   0  0  0  0  0  0
  -16.2990   -1.8481    0.0000 O   0  0  0  0  0  0
  -15.7500   -3.8971    0.0000 C   0  0  0  0  0  0
  -17.2500   -3.8971    0.0000 C   0  0  0  0  0  0
  -18.0000   -5.1962    0.0000 C   0  0  0  0  0  0
  -19.5000   -5.1962    0.0000 C   0  0  0  0  0  0
  -20.2500   -6.4952    0.0000 C   0  0  0  0  0  0
   -1.5000    0.0000    0.0000 N   0  0  0  0  0  0
   -0.7500    1.2990    0.0000 C   0  0  0  0  0  0
    0.7500    1.2990    0.0000 N   0  0  0  0  0  0
   -1.5000    2.5981    0.0000 C   0  0  0  0  0  0
   -0.7500    3.8971    0.0000 C   0  0  0  0  0  0
   -1.5000    5.1962    0.0000 C   0  0  0  0  0  0
   -3.0000    5.1962    0.0000 C   0  0  0  0  0  0
   -3.7500    3.8971    0.0000 C   0  0  0  0  0  0
   -3.0000    2.5981    0.0000 C   0  0  0  0  0  0
  1  2  1  0  0  0
  2  3  1  0  0  0
  3  4  2  0  0  0
  3 54  1  0  0  0
  4  5  1  0  0  0
  5  6  1  0  0  0
  5 52  2  0  0  0
  6  7  1  0  0  0
  7  8  2  0  0  0
  7 12  1  0  0  0
  8  9  1  0  0  0
  9 10  2  0  0  0
 10 11  1  0  0  0
 10 15  1  0  0  0
 11 12  2  0  0  0
 12 13  1  0  0  0
 13 14  2  0  0  0
 15 16  1  0  0  0
 15 32  1  1  0  0
 16 17  1  0  0  0
 17 18  2  0  0  0
 17 19  1  0  0  0
 19 20  1  0  0  0
 19 28  1  6  0  0
 20 21  1  0  0  0
 21 22  2  0  0  0
 21 23  1  0  0  0
 23 24  1  0  0  0
 24 25  1  0  0  0
 24 26  1  0  0  0
 24 27  1  0  0  0
 28 29  1  0  0  0
 28 30  1  0  0  0
 28 31  1  0  0  0
 32 33  2  0  0  0
 32 34  1  0  0  0
 34 35  1  0  0  0
 35 36  2  0  0  0
 35 40  1  0  0  0
 36 37  1  0  0  0
 37 38  2  0  0  0
 38 39  1  0  0  0
 39 40  2  0  0  0
 40 41  1  0  0  0
 41 42  2  0  0  0
 41 43  1  0  0  0
 43 44  1  0  0  0
 44 45  2  0  0  0
 44 46  2  0  0  0
 44 47  1  0  0  0
 47 48  1  0  0  0
 48 49  1  0  0  0
 49 50  1  0  0  0
 50 51  2  0  0  0
 52 53  1  0  0  0
 53 54  2  0  0  0
 53 55  1  0  0  0
 55 56  2  0  0  0
 55 60  1  0  0  0
 56 57  1  0  0  0
 57 58  2  0  0  0
 58 59  1  0  0  0
 59 60  2  0  0  0
M  END
> <s_m_entry_id>
6685

> <s_m_entry_name>
NS3-4A.226

> <CHEMBLID>
CHEMBL3125046

> <s_m_Source_Path>
/home/liwei/Desktop/Machine/HCV/Active

> <s_m_Source_File>
NS3-4A.sdf

> <i_m_Source_File_Index>
226

$$$$
CHEMBL3125047
                    3D
 Structure written by MMmdl.
 60 63  0  0  1  0            999 V2000
    3.7500   -1.2990    0.0000 C   0  0  0  0  0  0
    3.0000    0.0000    0.0000 O   0  0  0  0  0  0
    1.5000    0.0000    0.0000 C   0  0  0  0  0  0
    0.7500   -1.2990    0.0000 C   0  0  0  0  0  0
   -0.7500   -1.2990    0.0000 C   0  0  0  0  0  0
   -1.5000   -2.5981    0.0000 O   0  0  0  0  0  0
   -3.0000   -2.5981    0.0000 C   0  0  0  0  0  0
   -3.7500   -1.2990    0.0000 C   0  0  0  0  0  0
   -5.2500   -1.2990    0.0000 C   0  0  0  0  0  0
   -6.0000   -2.5981    0.0000 C   0  0  0  0  0  0
   -5.2500   -3.8971    0.0000 C   0  0  0  0  0  0
   -3.7500   -3.8971    0.0000 C   0  0  0  0  0  0
   -3.0000   -5.1962    0.0000 C   0  0  0  0  0  0
   -3.7500   -6.4952    0.0000 C   0  0  0  0  0  0
   -7.5000   -2.5981    0.0000 C   0  0  1  0  0  0
   -8.2500   -3.8971    0.0000 N   0  0  0  0  0  0
   -9.7500   -3.8971    0.0000 C   0  0  0  0  0  0
  -10.5000   -2.5981    0.0000 O   0  0  0  0  0  0
  -10.5000   -5.1962    0.0000 C   0  0  1  0  0  0
   -9.7500   -6.4952    0.0000 N   0  0  0  0  0  0
  -10.5000   -7.7942    0.0000 C   0  0  0  0  0  0
  -12.0000   -7.7942    0.0000 O   0  0  0  0  0  0
   -9.7500   -9.0933    0.0000 O   0  0  0  0  0  0
  -10.5000  -10.3923    0.0000 C   0  0  0  0  0  0
   -9.2010  -11.1423    0.0000 C   0  0  0  0  0  0
  -11.7990   -9.6423    0.0000 C   0  0  0  0  0  0
  -11.2500  -11.6913    0.0000 C   0  0  0  0  0  0
  -12.0000   -5.1962    0.0000 C   0  0  0  0  0  0
  -12.0000   -6.6962    0.0000 C   0  0  0  0  0  0
  -12.0000   -3.6962    0.0000 C   0  0  0  0  0  0
  -13.5000   -5.1962    0.0000 C   0  0  0  0  0  0
   -8.2500   -1.2990    0.0000 C   0  0  0  0  0  0
   -7.5000    0.0000    0.0000 O   0  0  0  0  0  0
   -9.7500   -1.2990    0.0000 N   0  0  0  0  0  0
  -10.5000    0.0000    0.0000 C   0  0  0  0  0  0
   -9.7500    1.2990    0.0000 C   0  0  0  0  0  0
  -10.5000    2.5981    0.0000 C   0  0  0  0  0  0
  -12.0000    2.5981    0.0000 C   0  0  0  0  0  0
  -12.7500    1.2990    0.0000 C   0  0  0  0  0  0
  -12.0000    0.0000    0.0000 C   0  0  0  0  0  0
  -12.7500   -1.2990    0.0000 C   0  0  0  0  0  0
  -12.0000   -2.5981    0.0000 O   0  0  0  0  0  0
  -14.2500   -1.2990    0.0000 N   0  0  0  0  0  0
  -15.0000   -2.5981    0.0000 S   0  0  0  0  0  0
  -13.7010   -3.3481    0.0000 O   0  0  0  0  0  0
  -16.2990   -1.8481    0.0000 O   0  0  0  0  0  0
  -15.7500   -3.8971    0.0000 C   0  0  0  0  0  0
  -17.2500   -3.8971    0.0000 C   0  0  0  0  0  0
  -18.0000   -5.1962    0.0000 C   0  0  0  0  0  0
  -19.5000   -5.1962    0.0000 C   0  0  0  0  0  0
  -20.2500   -6.4952    0.0000 C   0  0  0  0  0  0
   -1.5000    0.0000    0.0000 N   0  0  0  0  0  0
   -0.7500    1.2990    0.0000 C   0  0  0  0  0  0
    0.7500    1.2990    0.0000 N   0  0  0  0  0  0
   -1.5000    2.5981    0.0000 C   0  0  0  0  0  0
   -0.7500    3.8971    0.0000 C   0  0  0  0  0  0
   -1.5000    5.1962    0.0000 C   0  0  0  0  0  0
   -3.0000    5.1962    0.0000 C   0  0  0  0  0  0
   -3.7500    3.8971    0.0000 C   0  0  0  0  0  0
   -3.0000    2.5981    0.0000 C   0  0  0  0  0  0
  1  2  1  0  0  0
  2  3  1  0  0  0
  3  4  2  0  0  0
  3 54  1  0  0  0
  4  5  1  0  0  0
  5  6  1  0  0  0
  5 52  2  0  0  0
  6  7  1  0  0  0
  7  8  2  0  0  0
  7 12  1  0  0  0
  8  9  1  0  0  0
  9 10  2  0  0  0
 10 11  1  0  0  0
 10 15  1  0  0  0
 11 12  2  0  0  0
 12 13  1  0  0  0
 13 14  2  0  0  0
 15 16  1  0  0  0
 15 32  1  1  0  0
 16 17  1  0  0  0
 17 18  2  0  0  0
 17 19  1  0  0  0
 19 20  1  0  0  0
 19 28  1  6  0  0
 20 21  1  0  0  0
 21 22  2  0  0  0
 21 23  1  0  0  0
 23 24  1  0  0  0
 24 25  1  0  0  0
 24 26  1  0  0  0
 24 27  1  0  0  0
 28 29  1  0  0  0
 28 30  1  0  0  0
 28 31  1  0  0  0
 32 33  2  0  0  0
 32 34  1  0  0  0
 34 35  1  0  0  0
 35 36  2  0  0  0
 35 40  1  0  0  0
 36 37  1  0  0  0
 37 38  2  0  0  0
 38 39  1  0  0  0
 39 40  2  0  0  0
 40 41  1  0  0  0
 41 42  2  0  0  0
 41 43  1  0  0  0
 43 44  1  0  0  0
 44 45  2  0  0  0
 44 46  2  0  0  0
 44 47  1  0  0  0
 47 48  1  0  0  0
 48 49  1  0  0  0
 49 50  1  0  0  0
 50 51  2  0  0  0
 52 53  1  0  0  0
 53 54  2  0  0  0
 53 55  1  0  0  0
 55 56  2  0  0  0
 55 60  1  0  0  0
 56 57  1  0  0  0
 57 58  2  0  0  0
 58 59  1  0  0  0
 59 60  2  0  0  0
M  END
> <s_m_entry_id>
6686

> <s_m_entry_name>
NS3-4A.227

> <CHEMBLID>
CHEMBL3125047

> <s_m_Source_Path>
/home/liwei/Desktop/Machine/HCV/Active

> <s_m_Source_File>
NS3-4A.sdf

> <i_m_Source_File_Index>
227

$$$$
CHEMBL3125171
                    3D
 Structure written by MMmdl.
 52 55  0  0  1  0            999 V2000
    3.7500   -1.2990    0.0000 C   0  0  0  0  0  0
    3.0000    0.0000    0.0000 O   0  0  0  0  0  0
    1.5000    0.0000    0.0000 C   0  0  0  0  0  0
    0.7500   -1.2990    0.0000 C   0  0  0  0  0  0
   -0.7500   -1.2990    0.0000 C   0  0  0  0  0  0
   -1.5000   -2.5981    0.0000 O   0  0  0  0  0  0
   -3.0000   -2.5981    0.0000 C   0  0  0  0  0  0
   -3.7500   -1.2990    0.0000 C   0  0  0  0  0  0
   -5.2500   -1.2990    0.0000 C   0  0  0  0  0  0
   -6.0000   -2.5981    0.0000 C   0  0  0  0  0  0
   -5.2500   -3.8971    0.0000 C   0  0  0  0  0  0
   -3.7500   -3.8971    0.0000 C   0  0  0  0  0  0
   -3.0000   -5.1962    0.0000 C   0  0  0  0  0  0
   -3.7500   -6.4952    0.0000 C   0  0  0  0  0  0
   -7.5000   -2.5981    0.0000 C   0  0  2  0  0  0
   -8.2500   -3.8971    0.0000 N   0  0  0  0  0  0
   -9.7500   -3.8971    0.0000 C   0  0  0  0  0  0
  -10.5000   -2.5981    0.0000 O   0  0  0  0  0  0
  -10.5000   -5.1962    0.0000 O   0  0  0  0  0  0
  -12.0000   -5.1962    0.0000 C   0  0  0  0  0  0
  -12.0000   -6.6962    0.0000 C   0  0  0  0  0  0
  -12.0000   -3.6962    0.0000 C   0  0  0  0  0  0
  -13.5000   -5.1962    0.0000 C   0  0  0  0  0  0
   -8.2500   -1.2990    0.0000 C   0  0  0  0  0  0
   -7.5000    0.0000    0.0000 O   0  0  0  0  0  0
   -9.7500   -1.2990    0.0000 N   0  0  0  0  0  0
  -10.5000    0.0000    0.0000 C   0  0  0  0  0  0
   -9.7500    1.2990    0.0000 C   0  0  0  0  0  0
  -10.5000    2.5981    0.0000 C   0  0  0  0  0  0
  -12.0000    2.5981    0.0000 C   0  0  0  0  0  0
  -12.7500    1.2990    0.0000 C   0  0  0  0  0  0
  -12.0000    0.0000    0.0000 C   0  0  0  0  0  0
  -12.7500   -1.2990    0.0000 C   0  0  0  0  0  0
  -12.0000   -2.5981    0.0000 O   0  0  0  0  0  0
  -14.2500   -1.2990    0.0000 N   0  0  0  0  0  0
  -15.0000   -2.5981    0.0000 S   0  0  0  0  0  0
  -13.7010   -3.3481    0.0000 O   0  0  0  0  0  0
  -16.2990   -1.8481    0.0000 O   0  0  0  0  0  0
  -15.7500   -3.8971    0.0000 C   0  0  0  0  0  0
  -17.2500   -3.8971    0.0000 C   0  0  0  0  0  0
  -18.0000   -5.1962    0.0000 C   0  0  0  0  0  0
  -19.5000   -5.1962    0.0000 C   0  0  0  0  0  0
  -20.2500   -6.4952    0.0000 C   0  0  0  0  0  0
   -1.5000    0.0000    0.0000 N   0  0  0  0  0  0
   -0.7500    1.2990    0.0000 C   0  0  0  0  0  0
    0.7500    1.2990    0.0000 N   0  0  0  0  0  0
   -1.5000    2.5981    0.0000 C   0  0  0  0  0  0
   -0.7500    3.8971    0.0000 C   0  0  0  0  0  0
   -1.5000    5.1962    0.0000 C   0  0  0  0  0  0
   -3.0000    5.1962    0.0000 C   0  0  0  0  0  0
   -3.7500    3.8971    0.0000 C   0  0  0  0  0  0
   -3.0000    2.5981    0.0000 C   0  0  0  0  0  0
  1  2  1  0  0  0
  2  3  1  0  0  0
  3  4  2  0  0  0
  3 46  1  0  0  0
  4  5  1  0  0  0
  5  6  1  0  0  0
  5 44  2  0  0  0
  6  7  1  0  0  0
  7  8  2  0  0  0
  7 12  1  0  0  0
  8  9  1  0  0  0
  9 10  2  0  0  0
 10 11  1  0  0  0
 10 15  1  0  0  0
 11 12  2  0  0  0
 12 13  1  0  0  0
 13 14  2  0  0  0
 15 16  1  0  0  0
 15 24  1  1  0  0
 16 17  1  0  0  0
 17 18  2  0  0  0
 17 19  1  0  0  0
 19 20  1  0  0  0
 20 21  1  0  0  0
 20 22  1  0  0  0
 20 23  1  0  0  0
 24 25  2  0  0  0
 24 26  1  0  0  0
 26 27  1  0  0  0
 27 28  2  0  0  0
 27 32  1  0  0  0
 28 29  1  0  0  0
 29 30  2  0  0  0
 30 31  1  0  0  0
 31 32  2  0  0  0
 32 33  1  0  0  0
 33 34  2  0  0  0
 33 35  1  0  0  0
 35 36  1  0  0  0
 36 37  2  0  0  0
 36 38  2  0  0  0
 36 39  1  0  0  0
 39 40  1  0  0  0
 40 41  1  0  0  0
 41 42  1  0  0  0
 42 43  2  0  0  0
 44 45  1  0  0  0
 45 46  2  0  0  0
 45 47  1  0  0  0
 47 48  2  0  0  0
 47 52  1  0  0  0
 48 49  1  0  0  0
 49 50  2  0  0  0
 50 51  1  0  0  0
 51 52  2  0  0  0
M  END
> <s_m_entry_id>
6687

> <s_m_entry_name>
NS3-4A.228

> <CHEMBLID>
CHEMBL3125171

> <s_m_Source_Path>
/home/liwei/Desktop/Machine/HCV/Active

> <s_m_Source_File>
NS3-4A.sdf

> <i_m_Source_File_Index>
228

$$$$
CHEMBL3143829
                    3D
 Structure written by MMmdl.
 34 35  0  0  1  0            999 V2000
    2.2269    7.2452    0.0000 C   0  0  0  0  0  0
    3.5260    6.4952    0.0000 C   0  0  0  0  0  0
    4.8250    5.7452    0.0000 C   0  0  0  0  0  0
    4.2760    7.7942    0.0000 C   0  0  0  0  0  0
    2.7760    5.1962    0.0000 N   0  0  0  0  0  0
    3.5260    3.8971    0.0000 C   0  0  0  0  0  0
    5.0260    3.8971    0.0000 O   0  0  0  0  0  0
    2.7760    2.5981    0.0000 N   0  0  0  0  0  0
    3.5260    1.2990    0.0000 C   0  0  3  0  0  0
    2.7760    0.0000    0.0000 C   0  0  0  0  0  0
    3.5260   -1.2990    0.0000 O   0  0  0  0  0  0
    1.2760    0.0000    0.0000 N   0  0  0  0  0  0
    0.3943    1.2135    0.0000 C   0  0  0  0  0  0
   -1.0323    0.7500    0.0000 C   0  0  0  0  0  0
   -1.0323   -0.7500    0.0000 C   0  0  0  0  0  0
    0.3943   -1.2135    0.0000 C   0  0  1  0  0  0
    0.8578   -2.6401    0.0000 C   0  0  0  0  0  0
    2.3250   -2.9520    0.0000 O   0  0  0  0  0  0
   -0.1459   -3.7548    0.0000 N   0  0  0  0  0  0
    0.3177   -5.1814    0.0000 C   0  0  1  0  0  0
   -0.6860   -6.2961    0.0000 C   0  0  0  0  0  0
   -2.1533   -5.9843    0.0000 C   0  0  0  0  0  0
   -3.4113   -6.8012    0.0000 C   0  0  0  0  0  0
   -4.2282   -5.5432    0.0000 C   0  0  0  0  0  0
   -2.9702   -4.7263    0.0000 C   0  0  0  0  0  0
    1.7849   -5.4933    0.0000 C   0  0  0  0  0  0
    2.7886   -4.3786    0.0000 O   0  0  0  0  0  0
    2.2484   -6.9199    0.0000 C   0  0  0  0  0  0
    1.2447   -8.0346    0.0000 O   0  0  0  0  0  0
    3.7156   -7.2317    0.0000 N   0  0  0  0  0  0
    5.0260    1.2990    0.0000 C   0  0  0  0  0  0
    5.0260    2.7990    0.0000 C   0  0  0  0  0  0
    5.0260   -0.2010    0.0000 C   0  0  0  0  0  0
    6.5260    1.2990    0.0000 C   0  0  0  0  0  0
  1  2  1  0  0  0
  2  3  1  0  0  0
  2  4  1  0  0  0
  2  5  1  0  0  0
  5  6  1  0  0  0
  6  7  2  0  0  0
  6  8  1  0  0  0
  8  9  1  0  0  0
  9 10  1  0  0  0
  9 31  1  0  0  0
 10 11  2  0  0  0
 10 12  1  0  0  0
 12 13  1  0  0  0
 12 16  1  0  0  0
 13 14  1  0  0  0
 14 15  1  0  0  0
 15 16  1  0  0  0
 16 17  1  6  0  0
 17 18  2  0  0  0
 17 19  1  0  0  0
 19 20  1  0  0  0
 20 21  1  0  0  0
 20 26  1  6  0  0
 21 22  1  0  0  0
 22 23  1  0  0  0
 22 25  1  0  0  0
 23 24  1  0  0  0
 24 25  1  0  0  0
 26 27  2  0  0  0
 26 28  1  0  0  0
 28 29  2  0  0  0
 28 30  1  0  0  0
 31 32  1  0  0  0
 31 33  1  0  0  0
 31 34  1  0  0  0
M  END
> <s_m_entry_id>
6688

> <s_m_entry_name>
NS3-4A.229

> <CHEMBLID>
CHEMBL3143829

> <s_m_Source_Path>
/home/liwei/Desktop/Machine/HCV/Active

> <s_m_Source_File>
NS3-4A.sdf

> <i_m_Source_File_Index>
229

$$$$
CHEMBL3326536
                    3D
 Structure written by MMmdl.
 49 55  0  0  1  0            999 V2000
   -9.0450  -14.3880    0.0000 C   0  0  0  0  0  0
   -7.7749  -13.5899    0.0000 O   0  0  0  0  0  0
   -7.8310  -12.0910    0.0000 C   0  0  0  0  0  0
   -6.5609  -11.2929    0.0000 C   0  0  0  0  0  0
   -6.6170   -9.7940    0.0000 C   0  0  0  0  0  0
   -7.9431   -9.0931    0.0000 C   0  0  0  0  0  0
   -7.9992   -7.5941    0.0000 C   0  0  0  0  0  0
   -6.7292   -6.7961    0.0000 O   0  0  0  0  0  0
   -6.7852   -5.2971    0.0000 C   0  0  0  0  0  0
   -5.5152   -4.4991    0.0000 C   0  0  2  0  0  0
   -4.0528   -4.8329    0.0000 C   0  0  0  0  0  0
   -3.7190   -3.3705    0.0000 C   0  0  2  0  0  0
   -5.1814   -3.0367    0.0000 N   0  0  0  0  0  0
   -6.3541   -2.1015    0.0000 C   0  0  0  0  0  0
   -7.5269   -3.0367    0.0000 O   0  0  0  0  0  0
   -7.0049   -0.7500    0.0000 N   0  0  0  0  0  0
   -8.4673   -1.0838    0.0000 C   0  0  0  0  0  0
   -7.0049    0.7500    0.0000 C   0  0  0  0  0  0
   -6.3541    2.1015    0.0000 C   0  0  0  0  0  0
   -5.1814    3.0367    0.0000 C   0  0  0  0  0  0
   -3.7190    3.3705    0.0000 C   0  0  0  0  0  0
   -2.2566    3.0367    0.0000 C   0  0  0  0  0  0
   -1.0838    2.1015    0.0000 C   0  0  0  0  0  0
   -0.4330    0.7500    0.0000 C   0  0  1  0  0  0
    0.8660    0.0000    0.0000 C   0  0  0  0  0  0
   -0.4330   -0.7500    0.0000 C   0  0  2  0  0  0
   -1.0838   -2.1015    0.0000 N   0  0  0  0  0  0
   -2.2566   -3.0367    0.0000 C   0  0  0  0  0  0
   -1.6058   -4.3881    0.0000 O   0  0  0  0  0  0
    0.6666   -1.7703    0.0000 C   0  0  0  0  0  0
    0.3328   -3.2327    0.0000 O   0  0  0  0  0  0
    2.0999   -1.3281    0.0000 N   0  0  0  0  0  0
    3.1995   -2.3484    0.0000 S   0  0  0  0  0  0
    2.1792   -3.4480    0.0000 O   0  0  0  0  0  0
    4.2198   -1.2488    0.0000 O   0  0  0  0  0  0
    4.2991   -3.3686    0.0000 C   0  0  0  0  0  0
    5.7615   -3.7024    0.0000 C   0  0  0  0  0  0
    4.7412   -4.8020    0.0000 C   0  0  0  0  0  0
   -9.3254   -6.8932    0.0000 C   0  0  0  0  0  0
  -10.5955   -7.6913    0.0000 C   0  0  0  0  0  0
  -10.5394   -9.1902    0.0000 N   0  0  0  0  0  0
   -9.2132   -9.8911    0.0000 C   0  0  0  0  0  0
   -9.1571  -11.3901    0.0000 C   0  0  0  0  0  0
  -11.9217   -6.9904    0.0000 C   0  0  0  0  0  0
  -11.9778   -5.4914    0.0000 C   0  0  0  0  0  0
  -13.3039   -4.7905    0.0000 C   0  0  0  0  0  0
  -14.5740   -5.5886    0.0000 C   0  0  0  0  0  0
  -14.5179   -7.0875    0.0000 C   0  0  0  0  0  0
  -13.1918   -7.7884    0.0000 C   0  0  0  0  0  0
  1  2  1  0  0  0
  2  3  1  0  0  0
  3  4  2  0  0  0
  3 43  1  0  0  0
  4  5  1  0  0  0
  5  6  2  0  0  0
  6  7  1  0  0  0
  6 42  1  0  0  0
  7  8  1  0  0  0
  7 39  2  0  0  0
  8  9  1  0  0  0
  9 10  1  0  0  0
 10 11  1  0  0  0
 10 13  1  1  0  0
 11 12  1  0  0  0
 12 13  1  0  0  0
 12 28  1  1  0  0
 13 14  1  0  0  0
 14 15  2  0  0  0
 14 16  1  0  0  0
 16 17  1  0  0  0
 16 18  1  0  0  0
 18 19  1  0  0  0
 19 20  1  0  0  0
 20 21  1  0  0  0
 21 22  1  0  0  0
 22 23  2  0  0  0
 23 24  1  0  0  0
 24 25  1  0  0  0
 24 26  1  1  0  0
 25 26  1  0  0  0
 26 27  1  0  0  0
 26 30  1  6  0  0
 27 28  1  0  0  0
 28 29  2  0  0  0
 30 31  2  0  0  0
 30 32  1  0  0  0
 32 33  1  0  0  0
 33 34  2  0  0  0
 33 35  2  0  0  0
 33 36  1  0  0  0
 36 37  1  0  0  0
 36 38  1  0  0  0
 37 38  1  0  0  0
 39 40  1  0  0  0
 40 41  2  0  0  0
 40 44  1  0  0  0
 41 42  1  0  0  0
 42 43  2  0  0  0
 44 45  2  0  0  0
 44 49  1  0  0  0
 45 46  1  0  0  0
 46 47  2  0  0  0
 47 48  1  0  0  0
 48 49  2  0  0  0
M  END
> <s_m_entry_id>
6689

> <s_m_entry_name>
NS3-4A.230

> <CHEMBLID>
CHEMBL3326536

> <s_m_Source_Path>
/home/liwei/Desktop/Machine/HCV/Active

> <s_m_Source_File>
NS3-4A.sdf

> <i_m_Source_File_Index>
230

$$$$
CHEMBL3326537
                    3D
 Structure written by MMmdl.
 49 55  0  0  1  0            999 V2000
   -9.0450  -14.3880    0.0000 C   0  0  0  0  0  0
   -7.7749  -13.5899    0.0000 O   0  0  0  0  0  0
   -7.8310  -12.0910    0.0000 C   0  0  0  0  0  0
   -6.5609  -11.2929    0.0000 C   0  0  0  0  0  0
   -6.6170   -9.7940    0.0000 C   0  0  0  0  0  0
   -7.9431   -9.0931    0.0000 C   0  0  0  0  0  0
   -7.9992   -7.5941    0.0000 C   0  0  0  0  0  0
   -6.7292   -6.7961    0.0000 O   0  0  0  0  0  0
   -6.7852   -5.2971    0.0000 C   0  0  0  0  0  0
   -5.5152   -4.4991    0.0000 C   0  0  1  0  0  0
   -4.0528   -4.8329    0.0000 C   0  0  0  0  0  0
   -3.7190   -3.3705    0.0000 C   0  0  1  0  0  0
   -5.1814   -3.0367    0.0000 N   0  0  0  0  0  0
   -6.3541   -2.1015    0.0000 C   0  0  0  0  0  0
   -7.5269   -3.0367    0.0000 O   0  0  0  0  0  0
   -7.0049   -0.7500    0.0000 N   0  0  0  0  0  0
   -8.4673   -1.0838    0.0000 C   0  0  0  0  0  0
   -7.0049    0.7500    0.0000 C   0  0  0  0  0  0
   -6.3541    2.1015    0.0000 C   0  0  0  0  0  0
   -5.1814    3.0367    0.0000 C   0  0  0  0  0  0
   -3.7190    3.3705    0.0000 C   0  0  0  0  0  0
   -2.2566    3.0367    0.0000 C   0  0  0  0  0  0
   -1.0838    2.1015    0.0000 C   0  0  0  0  0  0
   -0.4330    0.7500    0.0000 C   0  0  1  0  0  0
    0.8660    0.0000    0.0000 C   0  0  0  0  0  0
   -0.4330   -0.7500    0.0000 C   0  0  2  0  0  0
   -1.0838   -2.1015    0.0000 N   0  0  0  0  0  0
   -2.2566   -3.0367    0.0000 C   0  0  0  0  0  0
   -1.6058   -4.3881    0.0000 O   0  0  0  0  0  0
    0.6666   -1.7703    0.0000 C   0  0  0  0  0  0
    0.3328   -3.2327    0.0000 O   0  0  0  0  0  0
    2.0999   -1.3281    0.0000 N   0  0  0  0  0  0
    3.1995   -2.3484    0.0000 S   0  0  0  0  0  0
    2.1792   -3.4480    0.0000 O   0  0  0  0  0  0
    4.2198   -1.2488    0.0000 O   0  0  0  0  0  0
    4.2991   -3.3686    0.0000 C   0  0  0  0  0  0
    5.7615   -3.7024    0.0000 C   0  0  0  0  0  0
    4.7412   -4.8020    0.0000 C   0  0  0  0  0  0
   -9.3254   -6.8932    0.0000 C   0  0  0  0  0  0
  -10.5955   -7.6913    0.0000 C   0  0  0  0  0  0
  -10.5394   -9.1902    0.0000 N   0  0  0  0  0  0
   -9.2132   -9.8911    0.0000 C   0  0  0  0  0  0
   -9.1571  -11.3901    0.0000 C   0  0  0  0  0  0
  -11.9217   -6.9904    0.0000 C   0  0  0  0  0  0
  -11.9778   -5.4914    0.0000 C   0  0  0  0  0  0
  -13.3039   -4.7905    0.0000 C   0  0  0  0  0  0
  -14.5740   -5.5886    0.0000 C   0  0  0  0  0  0
  -14.5179   -7.0875    0.0000 C   0  0  0  0  0  0
  -13.1918   -7.7884    0.0000 C   0  0  0  0  0  0
  1  2  1  0  0  0
  2  3  1  0  0  0
  3  4  2  0  0  0
  3 43  1  0  0  0
  4  5  1  0  0  0
  5  6  2  0  0  0
  6  7  1  0  0  0
  6 42  1  0  0  0
  7  8  1  0  0  0
  7 39  2  0  0  0
  8  9  1  0  0  0
  9 10  1  0  0  0
 10 11  1  0  0  0
 10 13  1  1  0  0
 11 12  1  0  0  0
 12 13  1  0  0  0
 12 28  1  1  0  0
 13 14  1  0  0  0
 14 15  2  0  0  0
 14 16  1  0  0  0
 16 17  1  0  0  0
 16 18  1  0  0  0
 18 19  1  0  0  0
 19 20  1  0  0  0
 20 21  1  0  0  0
 21 22  1  0  0  0
 22 23  2  0  0  0
 23 24  1  0  0  0
 24 25  1  0  0  0
 24 26  1  1  0  0
 25 26  1  0  0  0
 26 27  1  0  0  0
 26 30  1  6  0  0
 27 28  1  0  0  0
 28 29  2  0  0  0
 30 31  2  0  0  0
 30 32  1  0  0  0
 32 33  1  0  0  0
 33 34  2  0  0  0
 33 35  2  0  0  0
 33 36  1  0  0  0
 36 37  1  0  0  0
 36 38  1  0  0  0
 37 38  1  0  0  0
 39 40  1  0  0  0
 40 41  2  0  0  0
 40 44  1  0  0  0
 41 42  1  0  0  0
 42 43  2  0  0  0
 44 45  2  0  0  0
 44 49  1  0  0  0
 45 46  1  0  0  0
 46 47  2  0  0  0
 47 48  1  0  0  0
 48 49  2  0  0  0
M  END
> <s_m_entry_id>
6690

> <s_m_entry_name>
NS3-4A.231

> <CHEMBLID>
CHEMBL3326537

> <s_m_Source_Path>
/home/liwei/Desktop/Machine/HCV/Active

> <s_m_Source_File>
NS3-4A.sdf

> <i_m_Source_File_Index>
231

$$$$
CHEMBL3326538
                    3D
 Structure written by MMmdl.
 49 55  0  0  1  0            999 V2000
   -5.1631   15.2740    0.0000 C   0  0  0  0  0  0
   -5.9612   14.0039    0.0000 O   0  0  0  0  0  0
   -5.2603   12.6777    0.0000 C   0  0  0  0  0  0
   -6.0583   11.4076    0.0000 C   0  0  0  0  0  0
   -5.3574   10.0815    0.0000 C   0  0  0  0  0  0
   -3.8585   10.0254    0.0000 C   0  0  0  0  0  0
   -3.1576    8.6992    0.0000 C   0  0  0  0  0  0
   -3.9556    7.4291    0.0000 O   0  0  0  0  0  0
   -3.2547    6.1029    0.0000 C   0  0  0  0  0  0
   -4.0528    4.8329    0.0000 C   0  0  2  0  0  0
   -5.5152    4.4991    0.0000 C   0  0  0  0  0  0
   -5.1814    3.0367    0.0000 C   0  0  2  0  0  0
   -3.7190    3.3705    0.0000 N   0  0  0  0  0  0
   -2.2566    3.0367    0.0000 C   0  0  0  0  0  0
   -1.6058    4.3881    0.0000 O   0  0  0  0  0  0
   -1.0838    2.1015    0.0000 N   0  0  0  0  0  0
   -0.4330    0.7500    0.0000 C   0  0  1  0  0  0
    0.8660    0.0000    0.0000 C   0  0  0  0  0  0
   -0.4330   -0.7500    0.0000 C   0  0  2  0  0  0
   -1.0838   -2.1015    0.0000 C   0  0  0  0  0  0
   -2.2566   -3.0367    0.0000 C   0  0  0  0  0  0
   -3.7190   -3.3705    0.0000 C   0  0  0  0  0  0
   -5.1814   -3.0367    0.0000 C   0  0  0  0  0  0
   -6.3541   -2.1015    0.0000 C   0  0  0  0  0  0
   -7.0049   -0.7500    0.0000 C   0  0  0  0  0  0
   -7.0049    0.7500    0.0000 N   0  0  0  0  0  0
   -8.4673    1.0838    0.0000 C   0  0  0  0  0  0
   -6.3541    2.1015    0.0000 C   0  0  0  0  0  0
   -7.5269    3.0367    0.0000 O   0  0  0  0  0  0
    0.6666    1.7703    0.0000 C   0  0  0  0  0  0
    0.3328    3.2327    0.0000 O   0  0  0  0  0  0
    2.0999    1.3281    0.0000 N   0  0  0  0  0  0
    3.1995    2.3484    0.0000 S   0  0  0  0  0  0
    2.1792    3.4480    0.0000 O   0  0  0  0  0  0
    4.2198    1.2488    0.0000 O   0  0  0  0  0  0
    4.2991    3.3686    0.0000 C   0  0  0  0  0  0
    4.7412    4.8020    0.0000 C   0  0  0  0  0  0
    5.7615    3.7024    0.0000 C   0  0  0  0  0  0
   -1.6586    8.6431    0.0000 C   0  0  0  0  0  0
   -0.8606    9.9132    0.0000 C   0  0  0  0  0  0
   -1.5615   11.2394    0.0000 N   0  0  0  0  0  0
   -3.0604   11.2955    0.0000 C   0  0  0  0  0  0
   -3.7613   12.6216    0.0000 C   0  0  0  0  0  0
    0.6384    9.8571    0.0000 C   0  0  0  0  0  0
    1.3393    8.5309    0.0000 C   0  0  0  0  0  0
    2.8382    8.4749    0.0000 C   0  0  0  0  0  0
    3.6363    9.7449    0.0000 C   0  0  0  0  0  0
    2.9354   11.0711    0.0000 C   0  0  0  0  0  0
    1.4364   11.1272    0.0000 C   0  0  0  0  0  0
  1  2  1  0  0  0
  2  3  1  0  0  0
  3  4  2  0  0  0
  3 43  1  0  0  0
  4  5  1  0  0  0
  5  6  2  0  0  0
  6  7  1  0  0  0
  6 42  1  0  0  0
  7  8  1  0  0  0
  7 39  2  0  0  0
  8  9  1  0  0  0
  9 10  1  0  0  0
 10 11  1  0  0  0
 10 13  1  1  0  0
 11 12  1  0  0  0
 12 13  1  0  0  0
 12 28  1  1  0  0
 13 14  1  0  0  0
 14 15  2  0  0  0
 14 16  1  0  0  0
 16 17  1  0  0  0
 17 18  1  0  0  0
 17 30  1  0  0  0
 17 19  1  1  0  0
 18 19  1  0  0  0
 19 20  1  6  0  0
 20 21  2  0  0  0
 21 22  1  0  0  0
 22 23  1  0  0  0
 23 24  1  0  0  0
 24 25  1  0  0  0
 25 26  1  0  0  0
 26 27  1  0  0  0
 26 28  1  0  0  0
 28 29  2  0  0  0
 30 31  2  0  0  0
 30 32  1  0  0  0
 32 33  1  0  0  0
 33 34  2  0  0  0
 33 35  2  0  0  0
 33 36  1  0  0  0
 36 37  1  0  0  0
 36 38  1  0  0  0
 37 38  1  0  0  0
 39 40  1  0  0  0
 40 41  2  0  0  0
 40 44  1  0  0  0
 41 42  1  0  0  0
 42 43  2  0  0  0
 44 45  2  0  0  0
 44 49  1  0  0  0
 45 46  1  0  0  0
 46 47  2  0  0  0
 47 48  1  0  0  0
 48 49  2  0  0  0
M  END
> <s_m_entry_id>
6691

> <s_m_entry_name>
NS3-4A.232

> <CHEMBLID>
CHEMBL3326538

> <s_m_Source_Path>
/home/liwei/Desktop/Machine/HCV/Active

> <s_m_Source_File>
NS3-4A.sdf

> <i_m_Source_File_Index>
232

$$$$
CHEMBL3326540
                    3D
 Structure written by MMmdl.
 53 59  0  0  1  0            999 V2000
   -5.1631   15.2740    0.0000 C   0  0  0  0  0  0
   -5.9612   14.0039    0.0000 O   0  0  0  0  0  0
   -5.2603   12.6777    0.0000 C   0  0  0  0  0  0
   -6.0583   11.4076    0.0000 C   0  0  0  0  0  0
   -5.3574   10.0815    0.0000 C   0  0  0  0  0  0
   -3.8585   10.0254    0.0000 C   0  0  0  0  0  0
   -3.1576    8.6992    0.0000 C   0  0  0  0  0  0
   -3.9556    7.4291    0.0000 O   0  0  0  0  0  0
   -3.2547    6.1029    0.0000 C   0  0  0  0  0  0
   -4.0528    4.8329    0.0000 C   0  0  2  0  0  0
   -5.5152    4.4991    0.0000 C   0  0  0  0  0  0
   -5.1814    3.0367    0.0000 C   0  0  2  0  0  0
   -3.7190    3.3705    0.0000 N   0  0  0  0  0  0
   -2.2566    3.0367    0.0000 C   0  0  0  0  0  0
   -1.6058    4.3881    0.0000 O   0  0  0  0  0  0
   -1.0838    2.1015    0.0000 N   0  0  0  0  0  0
   -0.4330    0.7500    0.0000 C   0  0  1  0  0  0
    0.8660    0.0000    0.0000 C   0  0  0  0  0  0
   -0.4330   -0.7500    0.0000 C   0  0  2  0  0  0
   -1.0838   -2.1015    0.0000 C   0  0  0  0  0  0
   -2.2566   -3.0367    0.0000 C   0  0  0  0  0  0
   -3.7190   -3.3705    0.0000 C   0  0  0  0  0  0
   -5.1814   -3.0367    0.0000 C   0  0  0  0  0  0
   -6.3541   -2.1015    0.0000 C   0  0  0  0  0  0
   -7.0049   -0.7500    0.0000 C   0  0  0  0  0  0
   -7.0049    0.7500    0.0000 N   0  0  0  0  0  0
   -8.4673    1.0838    0.0000 C   0  0  0  0  0  0
   -6.3541    2.1015    0.0000 C   0  0  0  0  0  0
   -7.5269    3.0367    0.0000 O   0  0  0  0  0  0
    0.6666    1.7703    0.0000 C   0  0  0  0  0  0
    0.3328    3.2327    0.0000 O   0  0  0  0  0  0
    2.0999    1.3281    0.0000 N   0  0  0  0  0  0
    3.1995    2.3484    0.0000 S   0  0  0  0  0  0
    2.1792    3.4480    0.0000 O   0  0  0  0  0  0
    4.2198    1.2488    0.0000 O   0  0  0  0  0  0
    4.2991    3.3686    0.0000 C   0  0  0  0  0  0
    3.4853    4.6287    0.0000 C   0  0  0  0  0  0
    5.6813    3.9513    0.0000 C   0  0  0  0  0  0
    5.4948    2.4629    0.0000 C   0  0  0  0  0  0
   -1.6586    8.6431    0.0000 C   0  0  0  0  0  0
   -0.8606    9.9132    0.0000 C   0  0  0  0  0  0
   -1.5615   11.2394    0.0000 N   0  0  0  0  0  0
   -3.0604   11.2955    0.0000 C   0  0  0  0  0  0
   -3.7613   12.6216    0.0000 C   0  0  0  0  0  0
   -2.9633   13.8917    0.0000 F   0  0  0  0  0  0
    0.6384    9.8571    0.0000 C   0  0  0  0  0  0
    1.5648   11.0368    0.0000 N   0  0  0  0  0  0
    2.9731   10.5203    0.0000 C   0  0  0  0  0  0
    2.9170    9.0213    0.0000 C   0  0  0  0  0  0
    1.4741    8.6115    0.0000 S   0  0  0  0  0  0
    4.2187   11.3560    0.0000 C   0  0  0  0  0  0
    5.5653   10.6951    0.0000 C   0  0  0  0  0  0
    4.1178   12.8526    0.0000 C   0  0  0  0  0  0
  1  2  1  0  0  0
  2  3  1  0  0  0
  3  4  2  0  0  0
  3 44  1  0  0  0
  4  5  1  0  0  0
  5  6  2  0  0  0
  6  7  1  0  0  0
  6 43  1  0  0  0
  7  8  1  0  0  0
  7 40  2  0  0  0
  8  9  1  0  0  0
  9 10  1  0  0  0
 10 11  1  0  0  0
 10 13  1  1  0  0
 11 12  1  0  0  0
 12 13  1  0  0  0
 12 28  1  1  0  0
 13 14  1  0  0  0
 14 15  2  0  0  0
 14 16  1  0  0  0
 16 17  1  0  0  0
 17 18  1  0  0  0
 17 30  1  0  0  0
 17 19  1  1  0  0
 18 19  1  0  0  0
 19 20  1  6  0  0
 20 21  2  0  0  0
 21 22  1  0  0  0
 22 23  1  0  0  0
 23 24  1  0  0  0
 24 25  1  0  0  0
 25 26  1  0  0  0
 26 27  1  0  0  0
 26 28  1  0  0  0
 28 29  2  0  0  0
 30 31  2  0  0  0
 30 32  1  0  0  0
 32 33  1  0  0  0
 33 34  2  0  0  0
 33 35  2  0  0  0
 33 36  1  0  0  0
 36 37  1  0  0  0
 36 38  1  0  0  0
 36 39  1  0  0  0
 38 39  1  0  0  0
 40 41  1  0  0  0
 41 42  2  0  0  0
 41 46  1  0  0  0
 42 43  1  0  0  0
 43 44  2  0  0  0
 44 45  1  0  0  0
 46 47  2  0  0  0
 46 50  1  0  0  0
 47 48  1  0  0  0
 48 49  2  0  0  0
 48 51  1  0  0  0
 49 50  1  0  0  0
 51 52  1  0  0  0
 51 53  1  0  0  0
M  END
> <s_m_entry_id>
6692

> <s_m_entry_name>
NS3-4A.233

> <CHEMBLID>
CHEMBL3326540

> <s_m_Source_Path>
/home/liwei/Desktop/Machine/HCV/Active

> <s_m_Source_File>
NS3-4A.sdf

> <i_m_Source_File_Index>
233

$$$$
CHEMBL3326826
                    3D
 Structure written by MMmdl.
 52 58  0  0  1  0            999 V2000
   -5.1631   15.2740    0.0000 C   0  0  0  0  0  0
   -5.9612   14.0039    0.0000 O   0  0  0  0  0  0
   -5.2603   12.6777    0.0000 C   0  0  0  0  0  0
   -6.0583   11.4076    0.0000 C   0  0  0  0  0  0
   -5.3574   10.0815    0.0000 C   0  0  0  0  0  0
   -3.8585   10.0254    0.0000 C   0  0  0  0  0  0
   -3.1576    8.6992    0.0000 C   0  0  0  0  0  0
   -3.9556    7.4291    0.0000 O   0  0  0  0  0  0
   -3.2547    6.1029    0.0000 C   0  0  0  0  0  0
   -4.0528    4.8329    0.0000 C   0  0  2  0  0  0
   -5.5152    4.4991    0.0000 C   0  0  0  0  0  0
   -5.1814    3.0367    0.0000 C   0  0  2  0  0  0
   -3.7190    3.3705    0.0000 N   0  0  0  0  0  0
   -2.2566    3.0367    0.0000 C   0  0  0  0  0  0
   -1.6058    4.3881    0.0000 O   0  0  0  0  0  0
   -1.0838    2.1015    0.0000 N   0  0  0  0  0  0
   -0.4330    0.7500    0.0000 C   0  0  1  0  0  0
    0.8660    0.0000    0.0000 C   0  0  0  0  0  0
   -0.4330   -0.7500    0.0000 C   0  0  2  0  0  0
   -1.0838   -2.1015    0.0000 C   0  0  0  0  0  0
   -2.2566   -3.0367    0.0000 C   0  0  0  0  0  0
   -3.7190   -3.3705    0.0000 C   0  0  0  0  0  0
   -5.1814   -3.0367    0.0000 C   0  0  0  0  0  0
   -6.3541   -2.1015    0.0000 C   0  0  0  0  0  0
   -7.0049   -0.7500    0.0000 C   0  0  0  0  0  0
   -7.0049    0.7500    0.0000 N   0  0  0  0  0  0
   -8.4673    1.0838    0.0000 C   0  0  0  0  0  0
   -6.3541    2.1015    0.0000 C   0  0  0  0  0  0
   -7.5269    3.0367    0.0000 O   0  0  0  0  0  0
    0.6666    1.7703    0.0000 C   0  0  0  0  0  0
    0.3328    3.2327    0.0000 O   0  0  0  0  0  0
    2.0999    1.3281    0.0000 N   0  0  0  0  0  0
    3.1995    2.3484    0.0000 S   0  0  0  0  0  0
    2.1792    3.4480    0.0000 O   0  0  0  0  0  0
    4.2198    1.2488    0.0000 O   0  0  0  0  0  0
    4.2991    3.3686    0.0000 C   0  0  0  0  0  0
    3.4853    4.6287    0.0000 C   0  0  0  0  0  0
    5.6813    3.9513    0.0000 C   0  0  0  0  0  0
    5.4948    2.4629    0.0000 C   0  0  0  0  0  0
   -1.6586    8.6431    0.0000 C   0  0  0  0  0  0
   -0.8606    9.9132    0.0000 C   0  0  0  0  0  0
   -1.5615   11.2394    0.0000 N   0  0  0  0  0  0
   -3.0604   11.2955    0.0000 C   0  0  0  0  0  0
   -3.7613   12.6216    0.0000 C   0  0  0  0  0  0
    0.6384    9.8571    0.0000 C   0  0  0  0  0  0
    1.5648   11.0368    0.0000 N   0  0  0  0  0  0
    2.9731   10.5203    0.0000 C   0  0  0  0  0  0
    2.9170    9.0213    0.0000 C   0  0  0  0  0  0
    1.4741    8.6115    0.0000 S   0  0  0  0  0  0
    4.2187   11.3560    0.0000 C   0  0  0  0  0  0
    5.5653   10.6951    0.0000 C   0  0  0  0  0  0
    4.1178   12.8526    0.0000 C   0  0  0  0  0  0
  1  2  1  0  0  0
  2  3  1  0  0  0
  3  4  2  0  0  0
  3 44  1  0  0  0
  4  5  1  0  0  0
  5  6  2  0  0  0
  6  7  1  0  0  0
  6 43  1  0  0  0
  7  8  1  0  0  0
  7 40  2  0  0  0
  8  9  1  0  0  0
  9 10  1  0  0  0
 10 11  1  0  0  0
 10 13  1  1  0  0
 11 12  1  0  0  0
 12 13  1  0  0  0
 12 28  1  1  0  0
 13 14  1  0  0  0
 14 15  2  0  0  0
 14 16  1  0  0  0
 16 17  1  0  0  0
 17 18  1  0  0  0
 17 30  1  0  0  0
 17 19  1  1  0  0
 18 19  1  0  0  0
 19 20  1  6  0  0
 20 21  2  0  0  0
 21 22  1  0  0  0
 22 23  1  0  0  0
 23 24  1  0  0  0
 24 25  1  0  0  0
 25 26  1  0  0  0
 26 27  1  0  0  0
 26 28  1  0  0  0
 28 29  2  0  0  0
 30 31  2  0  0  0
 30 32  1  0  0  0
 32 33  1  0  0  0
 33 34  2  0  0  0
 33 35  2  0  0  0
 33 36  1  0  0  0
 36 37  1  0  0  0
 36 38  1  0  0  0
 36 39  1  0  0  0
 38 39  1  0  0  0
 40 41  1  0  0  0
 41 42  2  0  0  0
 41 45  1  0  0  0
 42 43  1  0  0  0
 43 44  2  0  0  0
 45 46  2  0  0  0
 45 49  1  0  0  0
 46 47  1  0  0  0
 47 48  2  0  0  0
 47 50  1  0  0  0
 48 49  1  0  0  0
 50 51  1  0  0  0
 50 52  1  0  0  0
M  END
> <s_m_entry_id>
6693

> <s_m_entry_name>
NS3-4A.234

> <CHEMBLID>
CHEMBL3326826

> <s_m_Source_Path>
/home/liwei/Desktop/Machine/HCV/Active

> <s_m_Source_File>
NS3-4A.sdf

> <i_m_Source_File_Index>
234

$$$$
CHEMBL3326827
                    3D
 Structure written by MMmdl.
 52 58  0  0  1  0            999 V2000
   -5.1631   15.2740    0.0000 C   0  0  0  0  0  0
   -5.9612   14.0039    0.0000 O   0  0  0  0  0  0
   -5.2603   12.6777    0.0000 C   0  0  0  0  0  0
   -6.0583   11.4076    0.0000 C   0  0  0  0  0  0
   -5.3574   10.0815    0.0000 C   0  0  0  0  0  0
   -3.8585   10.0254    0.0000 C   0  0  0  0  0  0
   -3.1576    8.6992    0.0000 C   0  0  0  0  0  0
   -3.9556    7.4291    0.0000 O   0  0  0  0  0  0
   -3.2547    6.1029    0.0000 C   0  0  0  0  0  0
   -4.0528    4.8329    0.0000 C   0  0  2  0  0  0
   -5.5152    4.4991    0.0000 C   0  0  0  0  0  0
   -5.1814    3.0367    0.0000 C   0  0  2  0  0  0
   -3.7190    3.3705    0.0000 N   0  0  0  0  0  0
   -2.2566    3.0367    0.0000 C   0  0  0  0  0  0
   -1.6058    4.3881    0.0000 O   0  0  0  0  0  0
   -1.0838    2.1015    0.0000 N   0  0  0  0  0  0
   -0.4330    0.7500    0.0000 C   0  0  1  0  0  0
    0.8660    0.0000    0.0000 C   0  0  0  0  0  0
   -0.4330   -0.7500    0.0000 C   0  0  2  0  0  0
   -1.0838   -2.1015    0.0000 C   0  0  0  0  0  0
   -2.2566   -3.0367    0.0000 C   0  0  0  0  0  0
   -3.7190   -3.3705    0.0000 C   0  0  0  0  0  0
   -5.1814   -3.0367    0.0000 C   0  0  0  0  0  0
   -6.3541   -2.1015    0.0000 C   0  0  0  0  0  0
   -7.0049   -0.7500    0.0000 C   0  0  0  0  0  0
   -7.0049    0.7500    0.0000 N   0  0  0  0  0  0
   -8.4673    1.0838    0.0000 C   0  0  0  0  0  0
   -6.3541    2.1015    0.0000 C   0  0  0  0  0  0
   -7.5269    3.0367    0.0000 O   0  0  0  0  0  0
    0.6666    1.7703    0.0000 C   0  0  0  0  0  0
    0.3328    3.2327    0.0000 O   0  0  0  0  0  0
    2.0999    1.3281    0.0000 N   0  0  0  0  0  0
    3.1995    2.3484    0.0000 S   0  0  0  0  0  0
    2.1792    3.4480    0.0000 O   0  0  0  0  0  0
    4.2198    1.2488    0.0000 O   0  0  0  0  0  0
    4.2991    3.3686    0.0000 C   0  0  0  0  0  0
    4.7412    4.8020    0.0000 C   0  0  0  0  0  0
    5.7615    3.7024    0.0000 C   0  0  0  0  0  0
   -1.6586    8.6431    0.0000 C   0  0  0  0  0  0
   -0.8606    9.9132    0.0000 C   0  0  0  0  0  0
   -1.5615   11.2394    0.0000 N   0  0  0  0  0  0
   -3.0604   11.2955    0.0000 C   0  0  0  0  0  0
   -3.7613   12.6216    0.0000 C   0  0  0  0  0  0
   -2.9633   13.8917    0.0000 C   0  0  0  0  0  0
    0.6384    9.8571    0.0000 C   0  0  0  0  0  0
    1.5648   11.0368    0.0000 N   0  0  0  0  0  0
    2.9731   10.5203    0.0000 C   0  0  0  0  0  0
    2.9170    9.0213    0.0000 C   0  0  0  0  0  0
    1.4741    8.6115    0.0000 S   0  0  0  0  0  0
    4.2187   11.3560    0.0000 C   0  0  0  0  0  0
    5.5653   10.6951    0.0000 C   0  0  0  0  0  0
    4.1178   12.8526    0.0000 C   0  0  0  0  0  0
  1  2  1  0  0  0
  2  3  1  0  0  0
  3  4  2  0  0  0
  3 43  1  0  0  0
  4  5  1  0  0  0
  5  6  2  0  0  0
  6  7  1  0  0  0
  6 42  1  0  0  0
  7  8  1  0  0  0
  7 39  2  0  0  0
  8  9  1  0  0  0
  9 10  1  0  0  0
 10 11  1  0  0  0
 10 13  1  1  0  0
 11 12  1  0  0  0
 12 13  1  0  0  0
 12 28  1  1  0  0
 13 14  1  0  0  0
 14 15  2  0  0  0
 14 16  1  0  0  0
 16 17  1  0  0  0
 17 18  1  0  0  0
 17 30  1  0  0  0
 17 19  1  1  0  0
 18 19  1  0  0  0
 19 20  1  6  0  0
 20 21  2  0  0  0
 21 22  1  0  0  0
 22 23  1  0  0  0
 23 24  1  0  0  0
 24 25  1  0  0  0
 25 26  1  0  0  0
 26 27  1  0  0  0
 26 28  1  0  0  0
 28 29  2  0  0  0
 30 31  2  0  0  0
 30 32  1  0  0  0
 32 33  1  0  0  0
 33 34  2  0  0  0
 33 35  2  0  0  0
 33 36  1  0  0  0
 36 37  1  0  0  0
 36 38  1  0  0  0
 37 38  1  0  0  0
 39 40  1  0  0  0
 40 41  2  0  0  0
 40 45  1  0  0  0
 41 42  1  0  0  0
 42 43  2  0  0  0
 43 44  1  0  0  0
 45 46  2  0  0  0
 45 49  1  0  0  0
 46 47  1  0  0  0
 47 48  2  0  0  0
 47 50  1  0  0  0
 48 49  1  0  0  0
 50 51  1  0  0  0
 50 52  1  0  0  0
M  END
> <s_m_entry_id>
6694

> <s_m_entry_name>
NS3-4A.235

> <CHEMBLID>
CHEMBL3326827

> <s_m_Source_Path>
/home/liwei/Desktop/Machine/HCV/Active

> <s_m_Source_File>
NS3-4A.sdf

> <i_m_Source_File_Index>
235

$$$$
CHEMBL3326828
                    3D
 Structure written by MMmdl.
 52 58  0  0  1  0            999 V2000
   -5.1631   15.2740    0.0000 C   0  0  0  0  0  0
   -5.9612   14.0039    0.0000 O   0  0  0  0  0  0
   -5.2603   12.6777    0.0000 C   0  0  0  0  0  0
   -6.0583   11.4076    0.0000 C   0  0  0  0  0  0
   -5.3574   10.0815    0.0000 C   0  0  0  0  0  0
   -3.8585   10.0254    0.0000 C   0  0  0  0  0  0
   -3.1576    8.6992    0.0000 C   0  0  0  0  0  0
   -3.9556    7.4291    0.0000 O   0  0  0  0  0  0
   -3.2547    6.1029    0.0000 C   0  0  0  0  0  0
   -4.0528    4.8329    0.0000 C   0  0  2  0  0  0
   -5.5152    4.4991    0.0000 C   0  0  0  0  0  0
   -5.1814    3.0367    0.0000 C   0  0  2  0  0  0
   -3.7190    3.3705    0.0000 N   0  0  0  0  0  0
   -2.2566    3.0367    0.0000 C   0  0  0  0  0  0
   -1.6058    4.3881    0.0000 O   0  0  0  0  0  0
   -1.0838    2.1015    0.0000 N   0  0  0  0  0  0
   -0.4330    0.7500    0.0000 C   0  0  1  0  0  0
    0.8660    0.0000    0.0000 C   0  0  0  0  0  0
   -0.4330   -0.7500    0.0000 C   0  0  2  0  0  0
   -1.0838   -2.1015    0.0000 C   0  0  0  0  0  0
   -2.2566   -3.0367    0.0000 C   0  0  0  0  0  0
   -3.7190   -3.3705    0.0000 C   0  0  0  0  0  0
   -5.1814   -3.0367    0.0000 C   0  0  0  0  0  0
   -6.3541   -2.1015    0.0000 C   0  0  0  0  0  0
   -7.0049   -0.7500    0.0000 C   0  0  0  0  0  0
   -7.0049    0.7500    0.0000 N   0  0  0  0  0  0
   -8.4673    1.0838    0.0000 C   0  0  0  0  0  0
   -6.3541    2.1015    0.0000 C   0  0  0  0  0  0
   -7.5269    3.0367    0.0000 O   0  0  0  0  0  0
    0.6666    1.7703    0.0000 C   0  0  0  0  0  0
    0.3328    3.2327    0.0000 O   0  0  0  0  0  0
    2.0999    1.3281    0.0000 N   0  0  0  0  0  0
    3.1995    2.3484    0.0000 S   0  0  0  0  0  0
    2.1792    3.4480    0.0000 O   0  0  0  0  0  0
    4.2198    1.2488    0.0000 O   0  0  0  0  0  0
    4.2991    3.3686    0.0000 C   0  0  0  0  0  0
    4.7412    4.8020    0.0000 C   0  0  0  0  0  0
    5.7615    3.7024    0.0000 C   0  0  0  0  0  0
   -1.6586    8.6431    0.0000 C   0  0  0  0  0  0
   -0.8606    9.9132    0.0000 C   0  0  0  0  0  0
   -1.5615   11.2394    0.0000 N   0  0  0  0  0  0
   -3.0604   11.2955    0.0000 C   0  0  0  0  0  0
   -3.7613   12.6216    0.0000 C   0  0  0  0  0  0
   -2.9633   13.8917    0.0000 Cl  0  0  0  0  0  0
    0.6384    9.8571    0.0000 C   0  0  0  0  0  0
    1.5648   11.0368    0.0000 N   0  0  0  0  0  0
    2.9731   10.5203    0.0000 C   0  0  0  0  0  0
    2.9170    9.0213    0.0000 C   0  0  0  0  0  0
    1.4741    8.6115    0.0000 S   0  0  0  0  0  0
    4.2187   11.3560    0.0000 C   0  0  0  0  0  0
    5.5653   10.6951    0.0000 C   0  0  0  0  0  0
    4.1178   12.8526    0.0000 C   0  0  0  0  0  0
  1  2  1  0  0  0
  2  3  1  0  0  0
  3  4  2  0  0  0
  3 43  1  0  0  0
  4  5  1  0  0  0
  5  6  2  0  0  0
  6  7  1  0  0  0
  6 42  1  0  0  0
  7  8  1  0  0  0
  7 39  2  0  0  0
  8  9  1  0  0  0
  9 10  1  0  0  0
 10 11  1  0  0  0
 10 13  1  1  0  0
 11 12  1  0  0  0
 12 13  1  0  0  0
 12 28  1  1  0  0
 13 14  1  0  0  0
 14 15  2  0  0  0
 14 16  1  0  0  0
 16 17  1  0  0  0
 17 18  1  0  0  0
 17 30  1  0  0  0
 17 19  1  1  0  0
 18 19  1  0  0  0
 19 20  1  6  0  0
 20 21  2  0  0  0
 21 22  1  0  0  0
 22 23  1  0  0  0
 23 24  1  0  0  0
 24 25  1  0  0  0
 25 26  1  0  0  0
 26 27  1  0  0  0
 26 28  1  0  0  0
 28 29  2  0  0  0
 30 31  2  0  0  0
 30 32  1  0  0  0
 32 33  1  0  0  0
 33 34  2  0  0  0
 33 35  2  0  0  0
 33 36  1  0  0  0
 36 37  1  0  0  0
 36 38  1  0  0  0
 37 38  1  0  0  0
 39 40  1  0  0  0
 40 41  2  0  0  0
 40 45  1  0  0  0
 41 42  1  0  0  0
 42 43  2  0  0  0
 43 44  1  0  0  0
 45 46  2  0  0  0
 45 49  1  0  0  0
 46 47  1  0  0  0
 47 48  2  0  0  0
 47 50  1  0  0  0
 48 49  1  0  0  0
 50 51  1  0  0  0
 50 52  1  0  0  0
M  END
> <s_m_entry_id>
6695

> <s_m_entry_name>
NS3-4A.236

> <CHEMBLID>
CHEMBL3326828

> <s_m_Source_Path>
/home/liwei/Desktop/Machine/HCV/Active

> <s_m_Source_File>
NS3-4A.sdf

> <i_m_Source_File_Index>
236

$$$$
CHEMBL3326829
                    3D
 Structure written by MMmdl.
 53 59  0  0  1  0            999 V2000
   -5.1631   15.2740    0.0000 C   0  0  0  0  0  0
   -5.9612   14.0039    0.0000 O   0  0  0  0  0  0
   -5.2603   12.6777    0.0000 C   0  0  0  0  0  0
   -6.0583   11.4076    0.0000 C   0  0  0  0  0  0
   -5.3574   10.0815    0.0000 C   0  0  0  0  0  0
   -3.8585   10.0254    0.0000 C   0  0  0  0  0  0
   -3.1576    8.6992    0.0000 C   0  0  0  0  0  0
   -3.9556    7.4291    0.0000 O   0  0  0  0  0  0
   -3.2547    6.1029    0.0000 C   0  0  0  0  0  0
   -4.0528    4.8329    0.0000 C   0  0  2  0  0  0
   -5.5152    4.4991    0.0000 C   0  0  0  0  0  0
   -5.1814    3.0367    0.0000 C   0  0  2  0  0  0
   -3.7190    3.3705    0.0000 N   0  0  0  0  0  0
   -2.2566    3.0367    0.0000 C   0  0  0  0  0  0
   -1.6058    4.3881    0.0000 O   0  0  0  0  0  0
   -1.0838    2.1015    0.0000 N   0  0  0  0  0  0
   -0.4330    0.7500    0.0000 C   0  0  1  0  0  0
    0.8660    0.0000    0.0000 C   0  0  0  0  0  0
   -0.4330   -0.7500    0.0000 C   0  0  2  0  0  0
   -1.0838   -2.1015    0.0000 C   0  0  0  0  0  0
   -2.2566   -3.0367    0.0000 C   0  0  0  0  0  0
   -3.7190   -3.3705    0.0000 C   0  0  0  0  0  0
   -5.1814   -3.0367    0.0000 C   0  0  0  0  0  0
   -6.3541   -2.1015    0.0000 C   0  0  0  0  0  0
   -7.0049   -0.7500    0.0000 C   0  0  0  0  0  0
   -7.0049    0.7500    0.0000 N   0  0  0  0  0  0
   -8.4673    1.0838    0.0000 C   0  0  0  0  0  0
   -6.3541    2.1015    0.0000 C   0  0  0  0  0  0
   -7.5269    3.0367    0.0000 O   0  0  0  0  0  0
    0.6666    1.7703    0.0000 C   0  0  0  0  0  0
    0.3328    3.2327    0.0000 O   0  0  0  0  0  0
    2.0999    1.3281    0.0000 N   0  0  0  0  0  0
    3.1995    2.3484    0.0000 S   0  0  0  0  0  0
    2.1792    3.4480    0.0000 O   0  0  0  0  0  0
    4.2198    1.2488    0.0000 O   0  0  0  0  0  0
    4.2991    3.3686    0.0000 C   0  0  0  0  0  0
    3.4853    4.6287    0.0000 C   0  0  0  0  0  0
    5.6813    3.9513    0.0000 C   0  0  0  0  0  0
    5.4948    2.4629    0.0000 C   0  0  0  0  0  0
   -1.6586    8.6431    0.0000 C   0  0  0  0  0  0
   -0.8606    9.9132    0.0000 C   0  0  0  0  0  0
   -1.5615   11.2394    0.0000 N   0  0  0  0  0  0
   -3.0604   11.2955    0.0000 C   0  0  0  0  0  0
   -3.7613   12.6216    0.0000 C   0  0  0  0  0  0
   -2.9633   13.8917    0.0000 C   0  0  0  0  0  0
    0.6384    9.8571    0.0000 C   0  0  0  0  0  0
    1.5648   11.0368    0.0000 N   0  0  0  0  0  0
    2.9731   10.5203    0.0000 C   0  0  0  0  0  0
    2.9170    9.0213    0.0000 C   0  0  0  0  0  0
    1.4741    8.6115    0.0000 S   0  0  0  0  0  0
    4.2187   11.3560    0.0000 C   0  0  0  0  0  0
    5.5653   10.6951    0.0000 C   0  0  0  0  0  0
    4.1178   12.8526    0.0000 C   0  0  0  0  0  0
  1  2  1  0  0  0
  2  3  1  0  0  0
  3  4  2  0  0  0
  3 44  1  0  0  0
  4  5  1  0  0  0
  5  6  2  0  0  0
  6  7  1  0  0  0
  6 43  1  0  0  0
  7  8  1  0  0  0
  7 40  2  0  0  0
  8  9  1  0  0  0
  9 10  1  0  0  0
 10 11  1  0  0  0
 10 13  1  1  0  0
 11 12  1  0  0  0
 12 13  1  0  0  0
 12 28  1  1  0  0
 13 14  1  0  0  0
 14 15  2  0  0  0
 14 16  1  0  0  0
 16 17  1  0  0  0
 17 18  1  0  0  0
 17 30  1  0  0  0
 17 19  1  1  0  0
 18 19  1  0  0  0
 19 20  1  6  0  0
 20 21  2  0  0  0
 21 22  1  0  0  0
 22 23  1  0  0  0
 23 24  1  0  0  0
 24 25  1  0  0  0
 25 26  1  0  0  0
 26 27  1  0  0  0
 26 28  1  0  0  0
 28 29  2  0  0  0
 30 31  2  0  0  0
 30 32  1  0  0  0
 32 33  1  0  0  0
 33 34  2  0  0  0
 33 35  2  0  0  0
 33 36  1  0  0  0
 36 37  1  0  0  0
 36 38  1  0  0  0
 36 39  1  0  0  0
 38 39  1  0  0  0
 40 41  1  0  0  0
 41 42  2  0  0  0
 41 46  1  0  0  0
 42 43  1  0  0  0
 43 44  2  0  0  0
 44 45  1  0  0  0
 46 47  2  0  0  0
 46 50  1  0  0  0
 47 48  1  0  0  0
 48 49  2  0  0  0
 48 51  1  0  0  0
 49 50  1  0  0  0
 51 52  1  0  0  0
 51 53  1  0  0  0
M  END
> <s_m_entry_id>
6696

> <s_m_entry_name>
NS3-4A.237

> <CHEMBLID>
CHEMBL3326829

> <s_m_Source_Path>
/home/liwei/Desktop/Machine/HCV/Active

> <s_m_Source_File>
NS3-4A.sdf

> <i_m_Source_File_Index>
237

$$$$
CHEMBL3326830
                    3D
 Structure written by MMmdl.
 53 59  0  0  1  0            999 V2000
   -5.1631   15.2740    0.0000 C   0  0  0  0  0  0
   -5.9612   14.0039    0.0000 O   0  0  0  0  0  0
   -5.2603   12.6777    0.0000 C   0  0  0  0  0  0
   -6.0583   11.4076    0.0000 C   0  0  0  0  0  0
   -5.3574   10.0815    0.0000 C   0  0  0  0  0  0
   -3.8585   10.0254    0.0000 C   0  0  0  0  0  0
   -3.1576    8.6992    0.0000 C   0  0  0  0  0  0
   -3.9556    7.4291    0.0000 O   0  0  0  0  0  0
   -3.2547    6.1029    0.0000 C   0  0  0  0  0  0
   -4.0528    4.8329    0.0000 C   0  0  2  0  0  0
   -5.5152    4.4991    0.0000 C   0  0  0  0  0  0
   -5.1814    3.0367    0.0000 C   0  0  2  0  0  0
   -3.7190    3.3705    0.0000 N   0  0  0  0  0  0
   -2.2566    3.0367    0.0000 C   0  0  0  0  0  0
   -1.6058    4.3881    0.0000 O   0  0  0  0  0  0
   -1.0838    2.1015    0.0000 N   0  0  0  0  0  0
   -0.4330    0.7500    0.0000 C   0  0  1  0  0  0
    0.8660    0.0000    0.0000 C   0  0  0  0  0  0
   -0.4330   -0.7500    0.0000 C   0  0  2  0  0  0
   -1.0838   -2.1015    0.0000 C   0  0  0  0  0  0
   -2.2566   -3.0367    0.0000 C   0  0  0  0  0  0
   -3.7190   -3.3705    0.0000 C   0  0  0  0  0  0
   -5.1814   -3.0367    0.0000 C   0  0  0  0  0  0
   -6.3541   -2.1015    0.0000 C   0  0  0  0  0  0
   -7.0049   -0.7500    0.0000 C   0  0  0  0  0  0
   -7.0049    0.7500    0.0000 N   0  0  0  0  0  0
   -8.4673    1.0838    0.0000 C   0  0  0  0  0  0
   -6.3541    2.1015    0.0000 C   0  0  0  0  0  0
   -7.5269    3.0367    0.0000 O   0  0  0  0  0  0
    0.6666    1.7703    0.0000 C   0  0  0  0  0  0
    0.3328    3.2327    0.0000 O   0  0  0  0  0  0
    2.0999    1.3281    0.0000 N   0  0  0  0  0  0
    3.1995    2.3484    0.0000 S   0  0  0  0  0  0
    2.1792    3.4480    0.0000 O   0  0  0  0  0  0
    4.2198    1.2488    0.0000 O   0  0  0  0  0  0
    4.2991    3.3686    0.0000 C   0  0  0  0  0  0
    3.4853    4.6287    0.0000 C   0  0  0  0  0  0
    5.6813    3.9513    0.0000 C   0  0  0  0  0  0
    5.4948    2.4629    0.0000 C   0  0  0  0  0  0
   -1.6586    8.6431    0.0000 C   0  0  0  0  0  0
   -0.8606    9.9132    0.0000 C   0  0  0  0  0  0
   -1.5615   11.2394    0.0000 N   0  0  0  0  0  0
   -3.0604   11.2955    0.0000 C   0  0  0  0  0  0
   -3.7613   12.6216    0.0000 C   0  0  0  0  0  0
   -2.9633   13.8917    0.0000 Cl  0  0  0  0  0  0
    0.6384    9.8571    0.0000 C   0  0  0  0  0  0
    1.5648   11.0368    0.0000 N   0  0  0  0  0  0
    2.9731   10.5203    0.0000 C   0  0  0  0  0  0
    2.9170    9.0213    0.0000 C   0  0  0  0  0  0
    1.4741    8.6115    0.0000 S   0  0  0  0  0  0
    4.2187   11.3560    0.0000 C   0  0  0  0  0  0
    5.5653   10.6951    0.0000 C   0  0  0  0  0  0
    4.1178   12.8526    0.0000 C   0  0  0  0  0  0
  1  2  1  0  0  0
  2  3  1  0  0  0
  3  4  2  0  0  0
  3 44  1  0  0  0
  4  5  1  0  0  0
  5  6  2  0  0  0
  6  7  1  0  0  0
  6 43  1  0  0  0
  7  8  1  0  0  0
  7 40  2  0  0  0
  8  9  1  0  0  0
  9 10  1  0  0  0
 10 11  1  0  0  0
 10 13  1  1  0  0
 11 12  1  0  0  0
 12 13  1  0  0  0
 12 28  1  1  0  0
 13 14  1  0  0  0
 14 15  2  0  0  0
 14 16  1  0  0  0
 16 17  1  0  0  0
 17 18  1  0  0  0
 17 30  1  0  0  0
 17 19  1  1  0  0
 18 19  1  0  0  0
 19 20  1  6  0  0
 20 21  2  0  0  0
 21 22  1  0  0  0
 22 23  1  0  0  0
 23 24  1  0  0  0
 24 25  1  0  0  0
 25 26  1  0  0  0
 26 27  1  0  0  0
 26 28  1  0  0  0
 28 29  2  0  0  0
 30 31  2  0  0  0
 30 32  1  0  0  0
 32 33  1  0  0  0
 33 34  2  0  0  0
 33 35  2  0  0  0
 33 36  1  0  0  0
 36 37  1  0  0  0
 36 38  1  0  0  0
 36 39  1  0  0  0
 38 39  1  0  0  0
 40 41  1  0  0  0
 41 42  2  0  0  0
 41 46  1  0  0  0
 42 43  1  0  0  0
 43 44  2  0  0  0
 44 45  1  0  0  0
 46 47  2  0  0  0
 46 50  1  0  0  0
 47 48  1  0  0  0
 48 49  2  0  0  0
 48 51  1  0  0  0
 49 50  1  0  0  0
 51 52  1  0  0  0
 51 53  1  0  0  0
M  END
> <s_m_entry_id>
6697

> <s_m_entry_name>
NS3-4A.238

> <CHEMBLID>
CHEMBL3326830

> <s_m_Source_Path>
/home/liwei/Desktop/Machine/HCV/Active

> <s_m_Source_File>
NS3-4A.sdf

> <i_m_Source_File_Index>
238

$$$$
CHEMBL3356701
                    3D
 Structure written by MMmdl.
 49 53  0  0  1  0            999 V2000
    8.1458    3.5282    0.0000 C   0  0  0  0  0  0
    6.7755    4.1383    0.0000 C   0  0  0  0  0  0
    5.5620    3.2567    0.0000 C   0  0  0  0  0  0
    4.1917    3.8668    0.0000 C   0  0  2  0  0  0
    2.9781    2.9851    0.0000 N   0  0  0  0  0  0
    1.6078    3.5952    0.0000 C   0  0  0  0  0  0
    1.4510    5.0870    0.0000 O   0  0  0  0  0  0
    0.3943    2.7135    0.0000 C   0  0  3  0  0  0
    0.3943    1.2135    0.0000 C   0  0  1  0  0  0
    1.2760    0.0000    0.0000 C   0  0  0  0  0  0
    0.3943   -1.2135    0.0000 C   0  0  0  0  0  0
   -1.0323   -0.7500    0.0000 C   0  0  0  0  0  0
   -1.0323    0.7500    0.0000 C   0  0  1  0  0  0
   -1.9140    1.9635    0.0000 C   0  0  0  0  0  0
   -1.0323    3.1771    0.0000 N   0  0  0  0  0  0
   -1.4958    4.6036    0.0000 C   0  0  0  0  0  0
   -0.4921    5.7184    0.0000 O   0  0  0  0  0  0
   -2.9630    4.9155    0.0000 C   0  0  1  0  0  0
   -3.9667    3.8008    0.0000 N   0  0  0  0  0  0
   -5.4340    4.1127    0.0000 C   0  0  0  0  0  0
   -5.8975    5.5392    0.0000 O   0  0  0  0  0  0
   -6.4376    2.9979    0.0000 C   0  0  1  0  0  0
   -5.9741    1.5714    0.0000 N   0  0  0  0  0  0
   -6.9778    0.4566    0.0000 C   0  0  0  0  0  0
   -8.4450    0.7685    0.0000 O   0  0  0  0  0  0
   -6.5143   -0.9700    0.0000 C   0  0  0  0  0  0
   -7.5180   -2.0847    0.0000 C   0  0  0  0  0  0
   -7.0545   -3.5113    0.0000 N   0  0  0  0  0  0
   -5.5872   -3.8231    0.0000 C   0  0  0  0  0  0
   -4.5835   -2.7084    0.0000 C   0  0  0  0  0  0
   -5.0471   -1.2818    0.0000 N   0  0  0  0  0  0
   -7.9049    3.3098    0.0000 C   0  0  0  0  0  0
   -8.3684    4.7364    0.0000 C   0  0  0  0  0  0
   -9.8356    5.0483    0.0000 C   0  0  0  0  0  0
  -10.8393    3.9335    0.0000 C   0  0  0  0  0  0
  -10.3758    2.5070    0.0000 C   0  0  0  0  0  0
   -8.9086    2.1951    0.0000 C   0  0  0  0  0  0
   -3.4266    6.3421    0.0000 C   0  0  0  0  0  0
   -4.8531    5.8786    0.0000 C   0  0  0  0  0  0
   -2.0000    6.8056    0.0000 C   0  0  0  0  0  0
   -3.8901    7.7687    0.0000 C   0  0  0  0  0  0
    4.0349    5.3586    0.0000 C   0  0  0  0  0  0
    2.6646    5.9687    0.0000 O   0  0  0  0  0  0
    5.2484    6.2402    0.0000 C   0  0  0  0  0  0
    6.6187    5.6301    0.0000 O   0  0  0  0  0  0
    5.0916    7.7320    0.0000 N   0  0  0  0  0  0
    6.3051    8.6137    0.0000 C   0  0  0  0  0  0
    6.9152    9.9840    0.0000 C   0  0  0  0  0  0
    7.7969    8.7705    0.0000 C   0  0  0  0  0  0
  1  2  1  0  0  0
  2  3  1  0  0  0
  3  4  1  0  0  0
  4  5  1  0  0  0
  4 42  1  1  0  0
  5  6  1  0  0  0
  6  7  2  0  0  0
  6  8  1  0  0  0
  8  9  1  0  0  0
  8 15  1  0  0  0
  9 10  1  0  0  0
  9 13  1  6  0  0
 10 11  1  0  0  0
 11 12  1  0  0  0
 12 13  1  0  0  0
 13 14  1  1  0  0
 14 15  1  0  0  0
 15 16  1  0  0  0
 16 17  2  0  0  0
 16 18  1  0  0  0
 18 19  1  0  0  0
 18 38  1  6  0  0
 19 20  1  0  0  0
 20 21  2  0  0  0
 20 22  1  0  0  0
 22 23  1  0  0  0
 22 32  1  6  0  0
 23 24  1  0  0  0
 24 25  2  0  0  0
 24 26  1  0  0  0
 26 27  2  0  0  0
 26 31  1  0  0  0
 27 28  1  0  0  0
 28 29  2  0  0  0
 29 30  1  0  0  0
 30 31  2  0  0  0
 32 33  1  0  0  0
 32 37  1  0  0  0
 33 34  1  0  0  0
 34 35  1  0  0  0
 35 36  1  0  0  0
 36 37  1  0  0  0
 38 39  1  0  0  0
 38 40  1  0  0  0
 38 41  1  0  0  0
 42 43  2  0  0  0
 42 44  1  0  0  0
 44 45  2  0  0  0
 44 46  1  0  0  0
 46 47  1  0  0  0
 47 48  1  0  0  0
 47 49  1  0  0  0
 48 49  1  0  0  0
M  END
> <s_m_entry_id>
6698

> <s_m_entry_name>
NS3-4A.239

> <CHEMBLID>
CHEMBL3356701

> <s_m_Source_Path>
/home/liwei/Desktop/Machine/HCV/Active

> <s_m_Source_File>
NS3-4A.sdf

> <i_m_Source_File_Index>
239

$$$$
CHEMBL3356702
                    3D
 Structure written by MMmdl.
 63 68  0  0  1  0            999 V2000
    3.7500   -1.2990    0.0000 C   0  0  0  0  0  0
    3.0000    0.0000    0.0000 O   0  0  0  0  0  0
    1.5000    0.0000    0.0000 C   0  0  0  0  0  0
    0.7500   -1.2990    0.0000 C   0  0  0  0  0  0
   -0.7500   -1.2990    0.0000 C   0  0  0  0  0  0
   -1.5000    0.0000    0.0000 C   0  0  0  0  0  0
   -3.0000    0.0000    0.0000 C   0  0  0  0  0  0
   -3.7500   -1.2990    0.0000 O   0  0  0  0  0  0
   -5.2500   -1.2990    0.0000 C   0  0  0  0  0  0
   -6.0000    0.0000    0.0000 C   0  0  0  0  0  0
   -7.5000    0.0000    0.0000 C   0  0  0  0  0  0
   -8.2500   -1.2990    0.0000 C   0  0  0  0  0  0
   -7.5000   -2.5981    0.0000 C   0  0  0  0  0  0
   -6.0000   -2.5981    0.0000 C   0  0  0  0  0  0
   -9.7500   -1.2990    0.0000 C   0  0  2  0  0  0
  -10.5000   -2.5981    0.0000 N   0  0  0  0  0  0
  -12.0000   -2.5981    0.0000 C   0  0  0  0  0  0
  -12.7500   -1.2990    0.0000 O   0  0  0  0  0  0
  -12.7500   -3.8971    0.0000 C   0  0  1  0  0  0
  -12.0000   -5.1962    0.0000 N   0  0  0  0  0  0
  -12.7500   -6.4952    0.0000 C   0  0  0  0  0  0
  -14.2500   -6.4952    0.0000 O   0  0  0  0  0  0
  -12.0000   -7.7942    0.0000 O   0  0  0  0  0  0
  -12.7500   -9.0933    0.0000 C   0  0  0  0  0  0
  -11.4510   -9.8433    0.0000 C   0  0  0  0  0  0
  -14.0490   -8.3433    0.0000 C   0  0  0  0  0  0
  -13.5000  -10.3923    0.0000 C   0  0  0  0  0  0
  -14.2500   -3.8971    0.0000 C   0  0  0  0  0  0
  -14.2500   -5.3971    0.0000 C   0  0  0  0  0  0
  -14.2500   -2.3971    0.0000 C   0  0  0  0  0  0
  -15.7500   -3.8971    0.0000 C   0  0  0  0  0  0
  -10.5000    0.0000    0.0000 C   0  0  0  0  0  0
   -9.7500    1.2990    0.0000 O   0  0  0  0  0  0
  -12.0000    0.0000    0.0000 N   0  0  0  0  0  0
  -12.7500    1.2990    0.0000 C   0  0  0  0  0  0
  -12.0000    2.5981    0.0000 C   0  0  0  0  0  0
  -12.7500    3.8971    0.0000 C   0  0  0  0  0  0
  -14.2500    3.8971    0.0000 C   0  0  0  0  0  0
  -15.0000    2.5981    0.0000 C   0  0  0  0  0  0
  -14.2500    1.2990    0.0000 C   0  0  0  0  0  0
  -15.0000    0.0000    0.0000 C   0  0  0  0  0  0
  -14.2500   -1.2990    0.0000 O   0  0  0  0  0  0
  -16.5000    0.0000    0.0000 N   0  0  0  0  0  0
  -17.2500   -1.2990    0.0000 S   0  0  0  0  0  0
  -15.9510   -2.0490    0.0000 O   0  0  0  0  0  0
  -18.5490   -0.5490    0.0000 O   0  0  0  0  0  0
  -18.0000   -2.5981    0.0000 C   0  0  0  0  0  0
  -19.5000   -2.5981    0.0000 C   0  0  0  0  0  0
  -20.2500   -3.8971    0.0000 C   0  0  0  0  0  0
  -19.5000   -5.1962    0.0000 C   0  0  0  0  0  0
  -18.0000   -5.1962    0.0000 C   0  0  0  0  0  0
  -17.2500   -3.8971    0.0000 C   0  0  0  0  0  0
   -3.7500    1.2990    0.0000 C   0  0  0  0  0  0
   -3.0000    2.5981    0.0000 C   0  0  0  0  0  0
   -1.5000    2.5981    0.0000 N   0  0  0  0  0  0
   -0.7500    1.2990    0.0000 C   0  0  0  0  0  0
    0.7500    1.2990    0.0000 C   0  0  0  0  0  0
   -3.7500    3.8971    0.0000 C   0  0  0  0  0  0
   -3.0000    5.1962    0.0000 C   0  0  0  0  0  0
   -3.7500    6.4952    0.0000 C   0  0  0  0  0  0
   -5.2500    6.4952    0.0000 C   0  0  0  0  0  0
   -6.0000    5.1962    0.0000 C   0  0  0  0  0  0
   -5.2500    3.8971    0.0000 C   0  0  0  0  0  0
  1  2  1  0  0  0
  2  3  1  0  0  0
  3  4  2  0  0  0
  3 57  1  0  0  0
  4  5  1  0  0  0
  5  6  2  0  0  0
  6  7  1  0  0  0
  6 56  1  0  0  0
  7  8  1  0  0  0
  7 53  2  0  0  0
  8  9  1  0  0  0
  9 10  2  0  0  0
  9 14  1  0  0  0
 10 11  1  0  0  0
 11 12  2  0  0  0
 12 13  1  0  0  0
 12 15  1  0  0  0
 13 14  2  0  0  0
 15 16  1  0  0  0
 15 32  1  1  0  0
 16 17  1  0  0  0
 17 18  2  0  0  0
 17 19  1  0  0  0
 19 20  1  0  0  0
 19 28  1  6  0  0
 20 21  1  0  0  0
 21 22  2  0  0  0
 21 23  1  0  0  0
 23 24  1  0  0  0
 24 25  1  0  0  0
 24 26  1  0  0  0
 24 27  1  0  0  0
 28 29  1  0  0  0
 28 30  1  0  0  0
 28 31  1  0  0  0
 32 33  2  0  0  0
 32 34  1  0  0  0
 34 35  1  0  0  0
 35 36  2  0  0  0
 35 40  1  0  0  0
 36 37  1  0  0  0
 37 38  2  0  0  0
 38 39  1  0  0  0
 39 40  2  0  0  0
 40 41  1  0  0  0
 41 42  2  0  0  0
 41 43  1  0  0  0
 43 44  1  0  0  0
 44 45  2  0  0  0
 44 46  2  0  0  0
 44 47  1  0  0  0
 47 48  2  0  0  0
 47 52  1  0  0  0
 48 49  1  0  0  0
 49 50  2  0  0  0
 50 51  1  0  0  0
 51 52  2  0  0  0
 53 54  1  0  0  0
 54 55  2  0  0  0
 54 58  1  0  0  0
 55 56  1  0  0  0
 56 57  2  0  0  0
 58 59  2  0  0  0
 58 63  1  0  0  0
 59 60  1  0  0  0
 60 61  2  0  0  0
 61 62  1  0  0  0
 62 63  2  0  0  0
M  END
> <s_m_entry_id>
6699

> <s_m_entry_name>
NS3-4A.240

> <CHEMBLID>
CHEMBL3356702

> <s_m_Source_Path>
/home/liwei/Desktop/Machine/HCV/Active

> <s_m_Source_File>
NS3-4A.sdf

> <i_m_Source_File_Index>
240

$$$$
CHEMBL3356703
                    3D
 Structure written by MMmdl.
 50 53  0  0  1  0            999 V2000
   -0.7500   -7.9952    0.0000 C   0  0  0  0  0  0
   -0.7500   -6.4952    0.0000 C   0  0  0  0  0  0
   -0.7500   -4.9952    0.0000 C   0  0  0  0  0  0
   -2.2500   -6.4952    0.0000 C   0  0  0  0  0  0
    0.7500   -6.4952    0.0000 O   0  0  0  0  0  0
    1.5000   -5.1962    0.0000 C   0  0  0  0  0  0
    0.7500   -3.8971    0.0000 O   0  0  0  0  0  0
    3.0000   -5.1962    0.0000 N   0  0  0  0  0  0
    3.7500   -3.8971    0.0000 C   0  0  2  0  0  0
    3.0000   -2.5981    0.0000 C   0  0  0  0  0  0
    3.7500   -1.2990    0.0000 O   0  0  0  0  0  0
    1.5000   -2.5981    0.0000 N   0  0  0  0  0  0
    0.7500   -1.2990    0.0000 C   0  0  0  0  0  0
    1.5000    0.0000    0.0000 C   0  0  0  0  0  0
    0.7500    1.2990    0.0000 C   0  0  0  0  0  0
   -0.7500    1.2990    0.0000 C   0  0  0  0  0  0
   -1.5000    0.0000    0.0000 C   0  0  0  0  0  0
   -0.7500   -1.2990    0.0000 C   0  0  0  0  0  0
   -1.5000   -2.5981    0.0000 C   0  0  0  0  0  0
   -0.7500   -3.8971    0.0000 O   0  0  0  0  0  0
   -3.0000   -2.5981    0.0000 N   0  0  0  0  0  0
   -3.7500   -3.8971    0.0000 S   0  0  0  0  0  0
   -2.4510   -4.6471    0.0000 O   0  0  0  0  0  0
   -5.0490   -3.1471    0.0000 O   0  0  0  0  0  0
   -4.5000   -5.1962    0.0000 C   0  0  0  0  0  0
   -3.7500   -6.4952    0.0000 C   0  0  0  0  0  0
   -4.5000   -7.7942    0.0000 C   0  0  0  0  0  0
   -3.7500   -9.0933    0.0000 C   0  0  0  0  0  0
   -4.5000  -10.3923    0.0000 C   0  0  0  0  0  0
    5.2500   -3.8971    0.0000 C   0  0  0  0  0  0
    6.0000   -5.1962    0.0000 C   0  0  0  0  0  0
    7.5000   -5.1962    0.0000 C   0  0  0  0  0  0
    8.2500   -3.8971    0.0000 C   0  0  0  0  0  0
    9.7500   -3.8971    0.0000 O   0  0  0  0  0  0
   10.5000   -5.1962    0.0000 C   0  0  0  0  0  0
    9.7500   -6.4952    0.0000 C   0  0  0  0  0  0
   10.5000   -7.7942    0.0000 C   0  0  0  0  0  0
    9.7500   -9.0933    0.0000 C   0  0  0  0  0  0
    8.2500   -9.0933    0.0000 C   0  0  0  0  0  0
   12.0000   -7.7942    0.0000 N   0  0  0  0  0  0
   12.7500   -6.4952    0.0000 C   0  0  0  0  0  0
   12.0000   -5.1962    0.0000 N   0  0  0  0  0  0
   14.2500   -6.4952    0.0000 C   0  0  0  0  0  0
   15.0000   -7.7942    0.0000 C   0  0  0  0  0  0
   16.5000   -7.7942    0.0000 C   0  0  0  0  0  0
   17.2500   -6.4952    0.0000 C   0  0  0  0  0  0
   16.5000   -5.1962    0.0000 C   0  0  0  0  0  0
   15.0000   -5.1962    0.0000 C   0  0  0  0  0  0
    7.5000   -2.5981    0.0000 C   0  0  0  0  0  0
    6.0000   -2.5981    0.0000 C   0  0  0  0  0  0
  1  2  1  0  0  0
  2  3  1  0  0  0
  2  4  1  0  0  0
  2  5  1  0  0  0
  5  6  1  0  0  0
  6  7  2  0  0  0
  6  8  1  0  0  0
  8  9  1  0  0  0
  9 10  1  0  0  0
  9 30  1  1  0  0
 10 11  2  0  0  0
 10 12  1  0  0  0
 12 13  1  0  0  0
 13 14  2  0  0  0
 13 18  1  0  0  0
 14 15  1  0  0  0
 15 16  2  0  0  0
 16 17  1  0  0  0
 17 18  2  0  0  0
 18 19  1  0  0  0
 19 20  2  0  0  0
 19 21  1  0  0  0
 21 22  1  0  0  0
 22 23  2  0  0  0
 22 24  2  0  0  0
 22 25  1  0  0  0
 25 26  1  0  0  0
 26 27  1  0  0  0
 27 28  1  0  0  0
 28 29  2  0  0  0
 30 31  2  0  0  0
 30 50  1  0  0  0
 31 32  1  0  0  0
 32 33  2  0  0  0
 33 34  1  0  0  0
 33 49  1  0  0  0
 34 35  1  0  0  0
 35 36  2  0  0  0
 35 42  1  0  0  0
 36 37  1  0  0  0
 37 38  1  0  0  0
 37 40  2  0  0  0
 38 39  2  0  0  0
 40 41  1  0  0  0
 41 42  2  0  0  0
 41 43  1  0  0  0
 43 44  2  0  0  0
 43 48  1  0  0  0
 44 45  1  0  0  0
 45 46  2  0  0  0
 46 47  1  0  0  0
 47 48  2  0  0  0
 49 50  2  0  0  0
M  END
> <s_m_entry_id>
6700

> <s_m_entry_name>
NS3-4A.241

> <CHEMBLID>
CHEMBL3356703

> <s_m_Source_Path>
/home/liwei/Desktop/Machine/HCV/Active

> <s_m_Source_File>
NS3-4A.sdf

> <i_m_Source_File_Index>
241

$$$$
CHEMBL3356704
                    3D
 Structure written by MMmdl.
 50 53  0  0  1  0            999 V2000
    3.7500   -1.2990    0.0000 C   0  0  0  0  0  0
    3.0000    0.0000    0.0000 O   0  0  0  0  0  0
    1.5000    0.0000    0.0000 C   0  0  0  0  0  0
    0.7500   -1.2990    0.0000 C   0  0  0  0  0  0
   -0.7500   -1.2990    0.0000 C   0  0  0  0  0  0
   -1.5000   -2.5981    0.0000 O   0  0  0  0  0  0
   -3.0000   -2.5981    0.0000 C   0  0  0  0  0  0
   -3.7500   -1.2990    0.0000 C   0  0  0  0  0  0
   -5.2500   -1.2990    0.0000 C   0  0  0  0  0  0
   -6.0000   -2.5981    0.0000 C   0  0  0  0  0  0
   -5.2500   -3.8971    0.0000 C   0  0  0  0  0  0
   -3.7500   -3.8971    0.0000 C   0  0  0  0  0  0
   -7.5000   -2.5981    0.0000 C   0  0  2  0  0  0
   -8.2500   -3.8971    0.0000 N   0  0  0  0  0  0
   -9.7500   -3.8971    0.0000 C   0  0  0  0  0  0
  -10.5000   -2.5981    0.0000 O   0  0  0  0  0  0
  -10.5000   -5.1962    0.0000 O   0  0  0  0  0  0
  -12.0000   -5.1962    0.0000 C   0  0  0  0  0  0
  -12.0000   -6.6962    0.0000 C   0  0  0  0  0  0
  -12.0000   -3.6962    0.0000 C   0  0  0  0  0  0
  -13.5000   -5.1962    0.0000 C   0  0  0  0  0  0
   -8.2500   -1.2990    0.0000 C   0  0  0  0  0  0
   -7.5000    0.0000    0.0000 O   0  0  0  0  0  0
   -9.7500   -1.2990    0.0000 N   0  0  0  0  0  0
  -10.5000    0.0000    0.0000 C   0  0  0  0  0  0
   -9.7500    1.2990    0.0000 C   0  0  0  0  0  0
  -10.5000    2.5981    0.0000 C   0  0  0  0  0  0
  -12.0000    2.5981    0.0000 C   0  0  0  0  0  0
  -12.7500    1.2990    0.0000 C   0  0  0  0  0  0
  -12.0000    0.0000    0.0000 C   0  0  0  0  0  0
  -12.7500   -1.2990    0.0000 C   0  0  0  0  0  0
  -12.0000   -2.5981    0.0000 O   0  0  0  0  0  0
  -14.2500   -1.2990    0.0000 N   0  0  0  0  0  0
  -15.0000   -2.5981    0.0000 S   0  0  0  0  0  0
  -13.7010   -3.3481    0.0000 O   0  0  0  0  0  0
  -16.2990   -1.8481    0.0000 O   0  0  0  0  0  0
  -15.7500   -3.8971    0.0000 C   0  0  0  0  0  0
  -17.2500   -3.8971    0.0000 C   0  0  0  0  0  0
  -18.0000   -5.1962    0.0000 C   0  0  0  0  0  0
  -19.5000   -5.1962    0.0000 C   0  0  0  0  0  0
  -20.2500   -6.4952    0.0000 C   0  0  0  0  0  0
   -1.5000    0.0000    0.0000 N   0  0  0  0  0  0
   -0.7500    1.2990    0.0000 C   0  0  0  0  0  0
    0.7500    1.2990    0.0000 N   0  0  0  0  0  0
   -1.5000    2.5981    0.0000 C   0  0  0  0  0  0
   -0.7500    3.8971    0.0000 C   0  0  0  0  0  0
   -1.5000    5.1962    0.0000 C   0  0  0  0  0  0
   -3.0000    5.1962    0.0000 C   0  0  0  0  0  0
   -3.7500    3.8971    0.0000 C   0  0  0  0  0  0
   -3.0000    2.5981    0.0000 C   0  0  0  0  0  0
  1  2  1  0  0  0
  2  3  1  0  0  0
  3  4  2  0  0  0
  3 44  1  0  0  0
  4  5  1  0  0  0
  5  6  1  0  0  0
  5 42  2  0  0  0
  6  7  1  0  0  0
  7  8  2  0  0  0
  7 12  1  0  0  0
  8  9  1  0  0  0
  9 10  2  0  0  0
 10 11  1  0  0  0
 10 13  1  0  0  0
 11 12  2  0  0  0
 13 14  1  0  0  0
 13 22  1  1  0  0
 14 15  1  0  0  0
 15 16  2  0  0  0
 15 17  1  0  0  0
 17 18  1  0  0  0
 18 19  1  0  0  0
 18 20  1  0  0  0
 18 21  1  0  0  0
 22 23  2  0  0  0
 22 24  1  0  0  0
 24 25  1  0  0  0
 25 26  2  0  0  0
 25 30  1  0  0  0
 26 27  1  0  0  0
 27 28  2  0  0  0
 28 29  1  0  0  0
 29 30  2  0  0  0
 30 31  1  0  0  0
 31 32  2  0  0  0
 31 33  1  0  0  0
 33 34  1  0  0  0
 34 35  2  0  0  0
 34 36  2  0  0  0
 34 37  1  0  0  0
 37 38  1  0  0  0
 38 39  1  0  0  0
 39 40  1  0  0  0
 40 41  2  0  0  0
 42 43  1  0  0  0
 43 44  2  0  0  0
 43 45  1  0  0  0
 45 46  2  0  0  0
 45 50  1  0  0  0
 46 47  1  0  0  0
 47 48  2  0  0  0
 48 49  1  0  0  0
 49 50  2  0  0  0
M  END
> <s_m_entry_id>
6701

> <s_m_entry_name>
NS3-4A.242

> <CHEMBLID>
CHEMBL3356704

> <s_m_Source_Path>
/home/liwei/Desktop/Machine/HCV/Active

> <s_m_Source_File>
NS3-4A.sdf

> <i_m_Source_File_Index>
242

$$$$
CHEMBL3356705
                    3D
 Structure written by MMmdl.
 51 54  0  0  1  0            999 V2000
    3.7500   -1.2990    0.0000 C   0  0  0  0  0  0
    3.0000    0.0000    0.0000 O   0  0  0  0  0  0
    1.5000    0.0000    0.0000 C   0  0  0  0  0  0
    0.7500   -1.2990    0.0000 C   0  0  0  0  0  0
   -0.7500   -1.2990    0.0000 C   0  0  0  0  0  0
   -1.5000   -2.5981    0.0000 O   0  0  0  0  0  0
   -3.0000   -2.5981    0.0000 C   0  0  0  0  0  0
   -3.7500   -1.2990    0.0000 C   0  0  0  0  0  0
   -5.2500   -1.2990    0.0000 C   0  0  0  0  0  0
   -6.0000   -2.5981    0.0000 C   0  0  0  0  0  0
   -5.2500   -3.8971    0.0000 C   0  0  0  0  0  0
   -3.7500   -3.8971    0.0000 C   0  0  0  0  0  0
   -3.0000   -5.1962    0.0000 C   0  0  0  0  0  0
   -3.7500   -6.4952    0.0000 C   0  0  0  0  0  0
   -7.5000   -2.5981    0.0000 C   0  0  2  0  0  0
   -8.2500   -3.8971    0.0000 N   0  0  0  0  0  0
   -9.7500   -3.8971    0.0000 C   0  0  0  0  0  0
  -10.5000   -2.5981    0.0000 O   0  0  0  0  0  0
  -10.5000   -5.1962    0.0000 O   0  0  0  0  0  0
  -12.0000   -5.1962    0.0000 C   0  0  0  0  0  0
  -12.0000   -6.6962    0.0000 C   0  0  0  0  0  0
  -12.0000   -3.6962    0.0000 C   0  0  0  0  0  0
  -13.5000   -5.1962    0.0000 C   0  0  0  0  0  0
   -8.2500   -1.2990    0.0000 C   0  0  0  0  0  0
   -7.5000    0.0000    0.0000 O   0  0  0  0  0  0
   -9.7500   -1.2990    0.0000 N   0  0  0  0  0  0
  -10.5000    0.0000    0.0000 C   0  0  0  0  0  0
   -9.7500    1.2990    0.0000 C   0  0  0  0  0  0
  -10.5000    2.5981    0.0000 C   0  0  0  0  0  0
  -12.0000    2.5981    0.0000 C   0  0  0  0  0  0
  -12.7500    1.2990    0.0000 C   0  0  0  0  0  0
  -12.0000    0.0000    0.0000 C   0  0  0  0  0  0
  -12.7500   -1.2990    0.0000 C   0  0  0  0  0  0
  -12.0000   -2.5981    0.0000 O   0  0  0  0  0  0
  -14.2500   -1.2990    0.0000 N   0  0  0  0  0  0
  -15.0000   -2.5981    0.0000 S   0  0  0  0  0  0
  -13.7010   -3.3481    0.0000 O   0  0  0  0  0  0
  -16.2990   -1.8481    0.0000 O   0  0  0  0  0  0
  -15.7500   -3.8971    0.0000 C   0  0  0  0  0  0
  -17.2500   -3.8971    0.0000 C   0  0  0  0  0  0
  -18.0000   -5.1962    0.0000 C   0  0  0  0  0  0
  -19.5000   -5.1962    0.0000 C   0  0  0  0  0  0
   -1.5000    0.0000    0.0000 N   0  0  0  0  0  0
   -0.7500    1.2990    0.0000 C   0  0  0  0  0  0
    0.7500    1.2990    0.0000 N   0  0  0  0  0  0
   -1.5000    2.5981    0.0000 C   0  0  0  0  0  0
   -0.7500    3.8971    0.0000 C   0  0  0  0  0  0
   -1.5000    5.1962    0.0000 C   0  0  0  0  0  0
   -3.0000    5.1962    0.0000 C   0  0  0  0  0  0
   -3.7500    3.8971    0.0000 C   0  0  0  0  0  0
   -3.0000    2.5981    0.0000 C   0  0  0  0  0  0
  1  2  1  0  0  0
  2  3  1  0  0  0
  3  4  2  0  0  0
  3 45  1  0  0  0
  4  5  1  0  0  0
  5  6  1  0  0  0
  5 43  2  0  0  0
  6  7  1  0  0  0
  7  8  2  0  0  0
  7 12  1  0  0  0
  8  9  1  0  0  0
  9 10  2  0  0  0
 10 11  1  0  0  0
 10 15  1  0  0  0
 11 12  2  0  0  0
 12 13  1  0  0  0
 13 14  2  0  0  0
 15 16  1  0  0  0
 15 24  1  1  0  0
 16 17  1  0  0  0
 17 18  2  0  0  0
 17 19  1  0  0  0
 19 20  1  0  0  0
 20 21  1  0  0  0
 20 22  1  0  0  0
 20 23  1  0  0  0
 24 25  2  0  0  0
 24 26  1  0  0  0
 26 27  1  0  0  0
 27 28  2  0  0  0
 27 32  1  0  0  0
 28 29  1  0  0  0
 29 30  2  0  0  0
 30 31  1  0  0  0
 31 32  2  0  0  0
 32 33  1  0  0  0
 33 34  2  0  0  0
 33 35  1  0  0  0
 35 36  1  0  0  0
 36 37  2  0  0  0
 36 38  2  0  0  0
 36 39  1  0  0  0
 39 40  1  0  0  0
 40 41  1  0  0  0
 41 42  2  0  0  0
 43 44  1  0  0  0
 44 45  2  0  0  0
 44 46  1  0  0  0
 46 47  2  0  0  0
 46 51  1  0  0  0
 47 48  1  0  0  0
 48 49  2  0  0  0
 49 50  1  0  0  0
 50 51  2  0  0  0
M  END
> <s_m_entry_id>
6702

> <s_m_entry_name>
NS3-4A.243

> <CHEMBLID>
CHEMBL3356705

> <s_m_Source_Path>
/home/liwei/Desktop/Machine/HCV/Active

> <s_m_Source_File>
NS3-4A.sdf

> <i_m_Source_File_Index>
243

$$$$
CHEMBL3356706
                    3D
 Structure written by MMmdl.
 58 61  0  0  1  0            999 V2000
   -0.7500   -7.9952    0.0000 C   0  0  0  0  0  0
   -0.7500   -6.4952    0.0000 C   0  0  0  0  0  0
   -0.7500   -4.9952    0.0000 C   0  0  0  0  0  0
   -2.2500   -6.4952    0.0000 C   0  0  0  0  0  0
    0.7500   -6.4952    0.0000 C   0  0  2  0  0  0
    1.5000   -7.7942    0.0000 N   0  0  0  0  0  0
    0.7500   -9.0933    0.0000 C   0  0  0  0  0  0
   -0.7500   -9.0933    0.0000 O   0  0  0  0  0  0
    1.5000  -10.3923    0.0000 O   0  0  0  0  0  0
    0.7500  -11.6913    0.0000 C   0  0  0  0  0  0
    1.5000  -12.9904    0.0000 C   0  0  0  0  0  0
    0.7500  -14.2894    0.0000 C   0  0  0  0  0  0
    1.5000  -15.5885    0.0000 C   0  0  0  0  0  0
    1.5000   -5.1962    0.0000 C   0  0  0  0  0  0
    0.7500   -3.8971    0.0000 O   0  0  0  0  0  0
    3.0000   -5.1962    0.0000 N   0  0  0  0  0  0
    3.7500   -3.8971    0.0000 C   0  0  2  0  0  0
    3.0000   -2.5981    0.0000 C   0  0  0  0  0  0
    3.7500   -1.2990    0.0000 O   0  0  0  0  0  0
    1.5000   -2.5981    0.0000 N   0  0  0  0  0  0
    0.7500   -1.2990    0.0000 C   0  0  0  0  0  0
    1.5000    0.0000    0.0000 C   0  0  0  0  0  0
    0.7500    1.2990    0.0000 C   0  0  0  0  0  0
   -0.7500    1.2990    0.0000 C   0  0  0  0  0  0
   -1.5000    0.0000    0.0000 C   0  0  0  0  0  0
   -0.7500   -1.2990    0.0000 C   0  0  0  0  0  0
   -1.5000   -2.5981    0.0000 C   0  0  0  0  0  0
   -0.7500   -3.8971    0.0000 O   0  0  0  0  0  0
   -3.0000   -2.5981    0.0000 N   0  0  0  0  0  0
   -3.7500   -3.8971    0.0000 S   0  0  0  0  0  0
   -2.4510   -4.6471    0.0000 O   0  0  0  0  0  0
   -5.0490   -3.1471    0.0000 O   0  0  0  0  0  0
   -4.5000   -5.1962    0.0000 C   0  0  0  0  0  0
   -3.7500   -6.4952    0.0000 C   0  0  0  0  0  0
   -4.5000   -7.7942    0.0000 C   0  0  0  0  0  0
   -3.7500   -9.0933    0.0000 C   0  0  0  0  0  0
   -4.5000  -10.3923    0.0000 C   0  0  0  0  0  0
    5.2500   -3.8971    0.0000 C   0  0  0  0  0  0
    6.0000   -5.1962    0.0000 C   0  0  0  0  0  0
    7.5000   -5.1962    0.0000 C   0  0  0  0  0  0
    8.2500   -3.8971    0.0000 C   0  0  0  0  0  0
    9.7500   -3.8971    0.0000 O   0  0  0  0  0  0
   10.5000   -5.1962    0.0000 C   0  0  0  0  0  0
    9.7500   -6.4952    0.0000 C   0  0  0  0  0  0
   10.5000   -7.7942    0.0000 C   0  0  0  0  0  0
    9.7500   -9.0933    0.0000 C   0  0  0  0  0  0
    8.2500   -9.0933    0.0000 C   0  0  0  0  0  0
   12.0000   -7.7942    0.0000 N   0  0  0  0  0  0
   12.7500   -6.4952    0.0000 C   0  0  0  0  0  0
   12.0000   -5.1962    0.0000 N   0  0  0  0  0  0
   14.2500   -6.4952    0.0000 C   0  0  0  0  0  0
   15.0000   -7.7942    0.0000 C   0  0  0  0  0  0
   16.5000   -7.7942    0.0000 C   0  0  0  0  0  0
   17.2500   -6.4952    0.0000 C   0  0  0  0  0  0
   16.5000   -5.1962    0.0000 C   0  0  0  0  0  0
   15.0000   -5.1962    0.0000 C   0  0  0  0  0  0
    7.5000   -2.5981    0.0000 C   0  0  0  0  0  0
    6.0000   -2.5981    0.0000 C   0  0  0  0  0  0
  1  2  1  0  0  0
  2  3  1  0  0  0
  2  4  1  0  0  0
  2  5  1  0  0  0
  5  6  1  0  0  0
  5 14  1  1  0  0
  6  7  1  0  0  0
  7  8  2  0  0  0
  7  9  1  0  0  0
  9 10  1  0  0  0
 10 11  1  0  0  0
 11 12  1  0  0  0
 12 13  2  0  0  0
 14 15  2  0  0  0
 14 16  1  0  0  0
 16 17  1  0  0  0
 17 18  1  0  0  0
 17 38  1  1  0  0
 18 19  2  0  0  0
 18 20  1  0  0  0
 20 21  1  0  0  0
 21 22  2  0  0  0
 21 26  1  0  0  0
 22 23  1  0  0  0
 23 24  2  0  0  0
 24 25  1  0  0  0
 25 26  2  0  0  0
 26 27  1  0  0  0
 27 28  2  0  0  0
 27 29  1  0  0  0
 29 30  1  0  0  0
 30 31  2  0  0  0
 30 32  2  0  0  0
 30 33  1  0  0  0
 33 34  1  0  0  0
 34 35  1  0  0  0
 35 36  1  0  0  0
 36 37  2  0  0  0
 38 39  2  0  0  0
 38 58  1  0  0  0
 39 40  1  0  0  0
 40 41  2  0  0  0
 41 42  1  0  0  0
 41 57  1  0  0  0
 42 43  1  0  0  0
 43 44  2  0  0  0
 43 50  1  0  0  0
 44 45  1  0  0  0
 45 46  1  0  0  0
 45 48  2  0  0  0
 46 47  2  0  0  0
 48 49  1  0  0  0
 49 50  2  0  0  0
 49 51  1  0  0  0
 51 52  2  0  0  0
 51 56  1  0  0  0
 52 53  1  0  0  0
 53 54  2  0  0  0
 54 55  1  0  0  0
 55 56  2  0  0  0
 57 58  2  0  0  0
M  END
> <s_m_entry_id>
6703

> <s_m_entry_name>
NS3-4A.244

> <CHEMBLID>
CHEMBL3356706

> <s_m_Source_Path>
/home/liwei/Desktop/Machine/HCV/Active

> <s_m_Source_File>
NS3-4A.sdf

> <i_m_Source_File_Index>
244

$$$$
CHEMBL3356707
                    3D
 Structure written by MMmdl.
 61 64  0  0  1  0            999 V2000
    3.7500   -1.2990    0.0000 C   0  0  0  0  0  0
    3.0000    0.0000    0.0000 O   0  0  0  0  0  0
    1.5000    0.0000    0.0000 C   0  0  0  0  0  0
    0.7500   -1.2990    0.0000 C   0  0  0  0  0  0
   -0.7500   -1.2990    0.0000 C   0  0  0  0  0  0
   -1.5000   -2.5981    0.0000 O   0  0  0  0  0  0
   -3.0000   -2.5981    0.0000 C   0  0  0  0  0  0
   -3.7500   -1.2990    0.0000 C   0  0  0  0  0  0
   -5.2500   -1.2990    0.0000 C   0  0  0  0  0  0
   -6.0000   -2.5981    0.0000 C   0  0  0  0  0  0
   -5.2500   -3.8971    0.0000 C   0  0  0  0  0  0
   -3.7500   -3.8971    0.0000 C   0  0  0  0  0  0
   -7.5000   -2.5981    0.0000 C   0  0  2  0  0  0
   -8.2500   -3.8971    0.0000 N   0  0  0  0  0  0
   -9.7500   -3.8971    0.0000 C   0  0  0  0  0  0
  -10.5000   -2.5981    0.0000 O   0  0  0  0  0  0
  -10.5000   -5.1962    0.0000 C   0  0  2  0  0  0
  -12.0000   -5.1962    0.0000 C   0  0  0  0  0  0
  -12.7500   -6.4952    0.0000 C   0  0  0  0  0  0
  -14.2500   -6.4952    0.0000 C   0  0  0  0  0  0
  -15.0000   -7.7942    0.0000 C   0  0  0  0  0  0
  -16.5000   -7.7942    0.0000 C   0  0  0  0  0  0
  -17.2500   -9.0933    0.0000 C   0  0  0  0  0  0
  -18.7500   -9.0933    0.0000 C   0  0  0  0  0  0
   -9.7500   -6.4952    0.0000 N   0  0  0  0  0  0
  -10.5000   -7.7942    0.0000 C   0  0  0  0  0  0
  -12.0000   -7.7942    0.0000 O   0  0  0  0  0  0
   -9.7500   -9.0933    0.0000 O   0  0  0  0  0  0
  -10.5000  -10.3923    0.0000 C   0  0  0  0  0  0
   -9.2010  -11.1423    0.0000 C   0  0  0  0  0  0
  -11.7990   -9.6423    0.0000 C   0  0  0  0  0  0
  -11.2500  -11.6913    0.0000 C   0  0  0  0  0  0
   -8.2500   -1.2990    0.0000 C   0  0  0  0  0  0
   -7.5000    0.0000    0.0000 O   0  0  0  0  0  0
   -9.7500   -1.2990    0.0000 N   0  0  0  0  0  0
  -10.5000    0.0000    0.0000 C   0  0  0  0  0  0
   -9.7500    1.2990    0.0000 C   0  0  0  0  0  0
  -10.5000    2.5981    0.0000 C   0  0  0  0  0  0
  -12.0000    2.5981    0.0000 C   0  0  0  0  0  0
  -12.7500    1.2990    0.0000 C   0  0  0  0  0  0
  -12.0000    0.0000    0.0000 C   0  0  0  0  0  0
  -12.7500   -1.2990    0.0000 C   0  0  0  0  0  0
  -12.0000   -2.5981    0.0000 O   0  0  0  0  0  0
  -14.2500   -1.2990    0.0000 N   0  0  0  0  0  0
  -15.0000   -2.5981    0.0000 S   0  0  0  0  0  0
  -13.7010   -3.3481    0.0000 O   0  0  0  0  0  0
  -16.2990   -1.8481    0.0000 O   0  0  0  0  0  0
  -15.7500   -3.8971    0.0000 C   0  0  0  0  0  0
  -17.2500   -3.8971    0.0000 C   0  0  0  0  0  0
  -18.0000   -5.1962    0.0000 C   0  0  0  0  0  0
  -19.5000   -5.1962    0.0000 C   0  0  0  0  0  0
  -20.2500   -6.4952    0.0000 C   0  0  0  0  0  0
   -1.5000    0.0000    0.0000 N   0  0  0  0  0  0
   -0.7500    1.2990    0.0000 C   0  0  0  0  0  0
    0.7500    1.2990    0.0000 N   0  0  0  0  0  0
   -1.5000    2.5981    0.0000 C   0  0  0  0  0  0
   -0.7500    3.8971    0.0000 C   0  0  0  0  0  0
   -1.5000    5.1962    0.0000 C   0  0  0  0  0  0
   -3.0000    5.1962    0.0000 C   0  0  0  0  0  0
   -3.7500    3.8971    0.0000 C   0  0  0  0  0  0
   -3.0000    2.5981    0.0000 C   0  0  0  0  0  0
  1  2  1  0  0  0
  2  3  1  0  0  0
  3  4  2  0  0  0
  3 55  1  0  0  0
  4  5  1  0  0  0
  5  6  1  0  0  0
  5 53  2  0  0  0
  6  7  1  0  0  0
  7  8  2  0  0  0
  7 12  1  0  0  0
  8  9  1  0  0  0
  9 10  2  0  0  0
 10 11  1  0  0  0
 10 13  1  0  0  0
 11 12  2  0  0  0
 13 14  1  0  0  0
 13 33  1  1  0  0
 14 15  1  0  0  0
 15 16  2  0  0  0
 15 17  1  0  0  0
 17 18  1  0  0  0
 17 25  1  1  0  0
 18 19  1  0  0  0
 19 20  1  0  0  0
 20 21  1  0  0  0
 21 22  1  0  0  0
 22 23  1  0  0  0
 23 24  2  0  0  0
 25 26  1  0  0  0
 26 27  2  0  0  0
 26 28  1  0  0  0
 28 29  1  0  0  0
 29 30  1  0  0  0
 29 31  1  0  0  0
 29 32  1  0  0  0
 33 34  2  0  0  0
 33 35  1  0  0  0
 35 36  1  0  0  0
 36 37  2  0  0  0
 36 41  1  0  0  0
 37 38  1  0  0  0
 38 39  2  0  0  0
 39 40  1  0  0  0
 40 41  2  0  0  0
 41 42  1  0  0  0
 42 43  2  0  0  0
 42 44  1  0  0  0
 44 45  1  0  0  0
 45 46  2  0  0  0
 45 47  2  0  0  0
 45 48  1  0  0  0
 48 49  1  0  0  0
 49 50  1  0  0  0
 50 51  1  0  0  0
 51 52  2  0  0  0
 53 54  1  0  0  0
 54 55  2  0  0  0
 54 56  1  0  0  0
 56 57  2  0  0  0
 56 61  1  0  0  0
 57 58  1  0  0  0
 58 59  2  0  0  0
 59 60  1  0  0  0
 60 61  2  0  0  0
M  END
> <s_m_entry_id>
6704

> <s_m_entry_name>
NS3-4A.245

> <CHEMBLID>
CHEMBL3356707

> <s_m_Source_Path>
/home/liwei/Desktop/Machine/HCV/Active

> <s_m_Source_File>
NS3-4A.sdf

> <i_m_Source_File_Index>
245

$$$$
CHEMBL3356708
                    3D
 Structure written by MMmdl.
 58 61  0  0  1  0            999 V2000
    3.7500   -1.2990    0.0000 C   0  0  0  0  0  0
    3.0000    0.0000    0.0000 O   0  0  0  0  0  0
    1.5000    0.0000    0.0000 C   0  0  0  0  0  0
    0.7500   -1.2990    0.0000 C   0  0  0  0  0  0
   -0.7500   -1.2990    0.0000 C   0  0  0  0  0  0
   -1.5000   -2.5981    0.0000 O   0  0  0  0  0  0
   -3.0000   -2.5981    0.0000 C   0  0  0  0  0  0
   -3.7500   -1.2990    0.0000 C   0  0  0  0  0  0
   -5.2500   -1.2990    0.0000 C   0  0  0  0  0  0
   -6.0000   -2.5981    0.0000 C   0  0  0  0  0  0
   -5.2500   -3.8971    0.0000 C   0  0  0  0  0  0
   -3.7500   -3.8971    0.0000 C   0  0  0  0  0  0
   -7.5000   -2.5981    0.0000 C   0  0  2  0  0  0
   -8.2500   -3.8971    0.0000 N   0  0  0  0  0  0
   -9.7500   -3.8971    0.0000 C   0  0  0  0  0  0
  -10.5000   -2.5981    0.0000 O   0  0  0  0  0  0
  -10.5000   -5.1962    0.0000 C   0  0  1  0  0  0
   -9.7500   -6.4952    0.0000 N   0  0  0  0  0  0
  -10.5000   -7.7942    0.0000 C   0  0  0  0  0  0
  -12.0000   -7.7942    0.0000 O   0  0  0  0  0  0
   -9.7500   -9.0933    0.0000 O   0  0  0  0  0  0
  -10.5000  -10.3923    0.0000 C   0  0  0  0  0  0
   -9.2010  -11.1423    0.0000 C   0  0  0  0  0  0
  -11.7990   -9.6423    0.0000 C   0  0  0  0  0  0
  -11.2500  -11.6913    0.0000 C   0  0  0  0  0  0
  -12.0000   -5.1962    0.0000 C   0  0  0  0  0  0
  -12.0000   -6.6962    0.0000 C   0  0  0  0  0  0
  -12.0000   -3.6962    0.0000 C   0  0  0  0  0  0
  -13.5000   -5.1962    0.0000 C   0  0  0  0  0  0
   -8.2500   -1.2990    0.0000 C   0  0  0  0  0  0
   -7.5000    0.0000    0.0000 O   0  0  0  0  0  0
   -9.7500   -1.2990    0.0000 N   0  0  0  0  0  0
  -10.5000    0.0000    0.0000 C   0  0  0  0  0  0
   -9.7500    1.2990    0.0000 C   0  0  0  0  0  0
  -10.5000    2.5981    0.0000 C   0  0  0  0  0  0
  -12.0000    2.5981    0.0000 C   0  0  0  0  0  0
  -12.7500    1.2990    0.0000 C   0  0  0  0  0  0
  -12.0000    0.0000    0.0000 C   0  0  0  0  0  0
  -12.7500   -1.2990    0.0000 C   0  0  0  0  0  0
  -12.0000   -2.5981    0.0000 O   0  0  0  0  0  0
  -14.2500   -1.2990    0.0000 N   0  0  0  0  0  0
  -15.0000   -2.5981    0.0000 S   0  0  0  0  0  0
  -13.7010   -3.3481    0.0000 O   0  0  0  0  0  0
  -16.2990   -1.8481    0.0000 O   0  0  0  0  0  0
  -15.7500   -3.8971    0.0000 C   0  0  0  0  0  0
  -17.2500   -3.8971    0.0000 C   0  0  0  0  0  0
  -18.0000   -5.1962    0.0000 C   0  0  0  0  0  0
  -19.5000   -5.1962    0.0000 C   0  0  0  0  0  0
  -20.2500   -6.4952    0.0000 C   0  0  0  0  0  0
   -1.5000    0.0000    0.0000 N   0  0  0  0  0  0
   -0.7500    1.2990    0.0000 C   0  0  0  0  0  0
    0.7500    1.2990    0.0000 N   0  0  0  0  0  0
   -1.5000    2.5981    0.0000 C   0  0  0  0  0  0
   -0.7500    3.8971    0.0000 C   0  0  0  0  0  0
   -1.5000    5.1962    0.0000 C   0  0  0  0  0  0
   -3.0000    5.1962    0.0000 C   0  0  0  0  0  0
   -3.7500    3.8971    0.0000 C   0  0  0  0  0  0
   -3.0000    2.5981    0.0000 C   0  0  0  0  0  0
  1  2  1  0  0  0
  2  3  1  0  0  0
  3  4  2  0  0  0
  3 52  1  0  0  0
  4  5  1  0  0  0
  5  6  1  0  0  0
  5 50  2  0  0  0
  6  7  1  0  0  0
  7  8  2  0  0  0
  7 12  1  0  0  0
  8  9  1  0  0  0
  9 10  2  0  0  0
 10 11  1  0  0  0
 10 13  1  0  0  0
 11 12  2  0  0  0
 13 14  1  0  0  0
 13 30  1  1  0  0
 14 15  1  0  0  0
 15 16  2  0  0  0
 15 17  1  0  0  0
 17 18  1  0  0  0
 17 26  1  6  0  0
 18 19  1  0  0  0
 19 20  2  0  0  0
 19 21  1  0  0  0
 21 22  1  0  0  0
 22 23  1  0  0  0
 22 24  1  0  0  0
 22 25  1  0  0  0
 26 27  1  0  0  0
 26 28  1  0  0  0
 26 29  1  0  0  0
 30 31  2  0  0  0
 30 32  1  0  0  0
 32 33  1  0  0  0
 33 34  2  0  0  0
 33 38  1  0  0  0
 34 35  1  0  0  0
 35 36  2  0  0  0
 36 37  1  0  0  0
 37 38  2  0  0  0
 38 39  1  0  0  0
 39 40  2  0  0  0
 39 41  1  0  0  0
 41 42  1  0  0  0
 42 43  2  0  0  0
 42 44  2  0  0  0
 42 45  1  0  0  0
 45 46  1  0  0  0
 46 47  1  0  0  0
 47 48  1  0  0  0
 48 49  2  0  0  0
 50 51  1  0  0  0
 51 52  2  0  0  0
 51 53  1  0  0  0
 53 54  2  0  0  0
 53 58  1  0  0  0
 54 55  1  0  0  0
 55 56  2  0  0  0
 56 57  1  0  0  0
 57 58  2  0  0  0
M  END
> <s_m_entry_id>
6705

> <s_m_entry_name>
NS3-4A.246

> <CHEMBLID>
CHEMBL3356708

> <s_m_Source_Path>
/home/liwei/Desktop/Machine/HCV/Active

> <s_m_Source_File>
NS3-4A.sdf

> <i_m_Source_File_Index>
246

$$$$
CHEMBL3356709
                    3D
 Structure written by MMmdl.
 58 60  0  0  1  0            999 V2000
    9.7500   -3.8971    0.0000 C   0  0  0  0  0  0
    8.2500   -3.8971    0.0000 C   0  0  0  0  0  0
    7.5000   -2.5981    0.0000 C   0  0  0  0  0  0
    6.0000   -2.5981    0.0000 C   0  0  2  0  0  0
    5.2500   -1.2990    0.0000 N   0  0  0  0  0  0
    3.7500   -1.2990    0.0000 C   0  0  0  0  0  0
    3.0000   -2.5981    0.0000 O   0  0  0  0  0  0
    3.0000    0.0000    0.0000 C   0  0  3  0  0  0
    3.7500    1.2990    0.0000 N   0  0  0  0  0  0
    5.2500    1.2990    0.0000 C   0  0  0  0  0  0
    6.0000   -0.0000    0.0000 O   0  0  0  0  0  0
    6.0000    2.5981    0.0000 C   0  0  1  0  0  0
    5.2500    3.8971    0.0000 N   0  0  0  0  0  0
    6.0000    5.1962    0.0000 C   0  0  0  0  0  0
    7.5000    5.1962    0.0000 O   0  0  0  0  0  0
    5.2500    6.4952    0.0000 O   0  0  0  0  0  0
    6.0000    7.7942    0.0000 C   0  0  0  0  0  0
    5.2500    9.0933    0.0000 C   0  0  0  0  0  0
    6.0000   10.3923    0.0000 C   0  0  0  0  0  0
    5.2500   11.6913    0.0000 C   0  0  0  0  0  0
    7.5000    2.5981    0.0000 C   0  0  0  0  0  0
    7.5000    4.0981    0.0000 C   0  0  0  0  0  0
    7.5000    1.0981    0.0000 C   0  0  0  0  0  0
    9.0000    2.5981    0.0000 C   0  0  0  0  0  0
    1.5000    0.0000    0.0000 C   0  0  0  0  0  0
    0.7500   -1.2990    0.0000 C   0  0  0  0  0  0
   -0.7500   -1.2990    0.0000 C   0  0  0  0  0  0
   -1.5000    0.0000    0.0000 C   0  0  0  0  0  0
   -3.0000    0.0000    0.0000 O   0  0  0  0  0  0
   -3.7500   -1.2990    0.0000 C   0  0  0  0  0  0
   -5.2500   -1.2990    0.0000 C   0  0  0  0  0  0
   -6.0000   -2.5981    0.0000 C   0  0  0  0  0  0
   -7.5000   -2.5981    0.0000 O   0  0  0  0  0  0
   -8.2500   -1.2990    0.0000 C   0  0  0  0  0  0
   -5.2500   -3.8971    0.0000 N   0  0  0  0  0  0
   -3.7500   -3.8971    0.0000 C   0  0  0  0  0  0
   -3.0000   -2.5981    0.0000 N   0  0  0  0  0  0
   -3.0000   -5.1962    0.0000 C   0  0  0  0  0  0
   -3.7500   -6.4952    0.0000 C   0  0  0  0  0  0
   -3.0000   -7.7942    0.0000 C   0  0  0  0  0  0
   -1.5000   -7.7942    0.0000 C   0  0  0  0  0  0
   -0.7500   -6.4952    0.0000 C   0  0  0  0  0  0
   -1.5000   -5.1962    0.0000 C   0  0  0  0  0  0
   -0.7500    1.2990    0.0000 C   0  0  0  0  0  0
   -1.5000    2.5981    0.0000 C   0  0  0  0  0  0
   -0.7500    3.8971    0.0000 C   0  0  0  0  0  0
    0.7500    1.2990    0.0000 C   0  0  0  0  0  0
    5.2500   -3.8971    0.0000 C   0  0  0  0  0  0
    3.7500   -3.8971    0.0000 O   0  0  0  0  0  0
    6.0000   -5.1962    0.0000 N   0  0  0  0  0  0
    5.2500   -6.4952    0.0000 S   0  0  0  0  0  0
    3.9510   -5.7452    0.0000 O   0  0  0  0  0  0
    6.5490   -7.2452    0.0000 O   0  0  0  0  0  0
    4.5000   -7.7942    0.0000 C   0  0  0  0  0  0
    3.0000   -7.7942    0.0000 C   0  0  0  0  0  0
    2.2500   -9.0933    0.0000 C   0  0  0  0  0  0
    0.7500   -9.0933    0.0000 C   0  0  0  0  0  0
    0.0000  -10.3923    0.0000 C   0  0  0  0  0  0
  1  2  1  0  0  0
  2  3  1  0  0  0
  3  4  1  0  0  0
  4  5  1  0  0  0
  4 48  1  1  0  0
  5  6  1  0  0  0
  6  7  2  0  0  0
  6  8  1  0  0  0
  8  9  1  0  0  0
  8 25  1  0  0  0
  9 10  1  0  0  0
 10 11  2  0  0  0
 10 12  1  0  0  0
 12 13  1  0  0  0
 12 21  1  6  0  0
 13 14  1  0  0  0
 14 15  2  0  0  0
 14 16  1  0  0  0
 16 17  1  0  0  0
 17 18  1  0  0  0
 18 19  1  0  0  0
 19 20  2  0  0  0
 21 22  1  0  0  0
 21 23  1  0  0  0
 21 24  1  0  0  0
 25 26  2  0  0  0
 25 47  1  0  0  0
 26 27  1  0  0  0
 27 28  2  0  0  0
 28 29  1  0  0  0
 28 44  1  0  0  0
 29 30  1  0  0  0
 30 31  2  0  0  0
 30 37  1  0  0  0
 31 32  1  0  0  0
 32 33  1  0  0  0
 32 35  2  0  0  0
 33 34  1  0  0  0
 35 36  1  0  0  0
 36 37  2  0  0  0
 36 38  1  0  0  0
 38 39  2  0  0  0
 38 43  1  0  0  0
 39 40  1  0  0  0
 40 41  2  0  0  0
 41 42  1  0  0  0
 42 43  2  0  0  0
 44 45  1  0  0  0
 44 47  2  0  0  0
 45 46  2  0  0  0
 48 49  2  0  0  0
 48 50  1  0  0  0
 50 51  1  0  0  0
 51 52  2  0  0  0
 51 53  2  0  0  0
 51 54  1  0  0  0
 54 55  1  0  0  0
 55 56  1  0  0  0
 56 57  1  0  0  0
 57 58  2  0  0  0
M  END
> <s_m_entry_id>
6706

> <s_m_entry_name>
NS3-4A.247

> <CHEMBLID>
CHEMBL3356709

> <s_m_Source_Path>
/home/liwei/Desktop/Machine/HCV/Active

> <s_m_Source_File>
NS3-4A.sdf

> <i_m_Source_File_Index>
247

$$$$
CHEMBL3356710
                    3D
 Structure written by MMmdl.
 54 57  0  0  1  0            999 V2000
    8.4054   -5.9078    0.0000 C   0  0  0  0  0  0
    7.4614   -4.7420    0.0000 C   0  0  0  0  0  0
    7.9989   -3.3417    0.0000 C   0  0  0  0  0  0
    7.0549   -2.1759    0.0000 C   0  0  2  0  0  0
    5.7559   -2.9259    0.0000 N   0  0  0  0  0  0
    4.2887   -3.2378    0.0000 C   0  0  0  0  0  0
    4.3672   -4.7358    0.0000 O   0  0  0  0  0  0
    2.7969   -3.0810    0.0000 C   0  0  1  0  0  0
    2.4087   -4.5299    0.0000 N   0  0  0  0  0  0
    0.9598   -4.9181    0.0000 C   0  0  0  0  0  0
   -0.1009   -3.8575    0.0000 O   0  0  0  0  0  0
    0.5716   -6.3670    0.0000 C   0  0  1  0  0  0
    1.6322   -7.4277    0.0000 N   0  0  0  0  0  0
    1.2440   -8.8766    0.0000 C   0  0  0  0  0  0
   -0.2049   -9.2648    0.0000 O   0  0  0  0  0  0
    2.3046   -9.9372    0.0000 O   0  0  0  0  0  0
    1.9164  -11.3861    0.0000 C   0  0  0  0  0  0
    3.3653  -11.7744    0.0000 C   0  0  0  0  0  0
    0.4675  -10.9979    0.0000 C   0  0  0  0  0  0
    1.5282  -12.8350    0.0000 C   0  0  0  0  0  0
   -0.8773   -6.7553    0.0000 C   0  0  0  0  0  0
   -0.4891   -8.2041    0.0000 C   0  0  0  0  0  0
   -1.2656   -5.3064    0.0000 C   0  0  0  0  0  0
   -2.3262   -7.1435    0.0000 C   0  0  0  0  0  0
    0.7500   -1.2990    0.0000 C   0  0  0  0  0  0
    1.5000    0.0000    0.0000 C   0  0  0  0  0  0
    0.7500    1.2990    0.0000 C   0  0  0  0  0  0
   -0.7500    1.2990    0.0000 C   0  0  0  0  0  0
   -0.5932    2.7908    0.0000 O   0  0  0  0  0  0
    0.0169    4.1611    0.0000 C   0  0  0  0  0  0
    1.0206    5.2759    0.0000 C   0  0  0  0  0  0
    2.3196    6.0259    0.0000 C   0  0  0  0  0  0
    3.7869    6.3377    0.0000 C   0  0  0  0  0  0
    5.2786    6.1809    0.0000 C   0  0  0  0  0  0
    6.6490    5.5708    0.0000 C   0  0  0  0  0  0
    7.7637    4.5671    0.0000 C   0  0  0  0  0  0
    8.5137    3.2681    0.0000 C   0  0  0  0  0  0
    8.8255    1.8009    0.0000 S   0  0  0  0  0  0
   10.0391    2.6825    0.0000 O   0  0  0  0  0  0
   10.1246    1.0509    0.0000 O   0  0  0  0  0  0
    8.6687    0.3091    0.0000 N   0  0  0  0  0  0
    8.0586   -1.0612    0.0000 C   0  0  0  0  0  0
    9.3166   -1.8782    0.0000 O   0  0  0  0  0  0
    1.0920    6.9619    0.0000 N   0  0  0  0  0  0
   -0.3895    6.7272    0.0000 C   0  0  0  0  0  0
   -0.9271    5.3269    0.0000 N   0  0  0  0  0  0
   -1.3335    7.8929    0.0000 C   0  0  0  0  0  0
   -0.7960    9.2933    0.0000 C   0  0  0  0  0  0
   -1.7399   10.4590    0.0000 C   0  0  0  0  0  0
   -3.2215   10.2244    0.0000 C   0  0  0  0  0  0
   -3.7590    8.8240    0.0000 C   0  0  0  0  0  0
   -2.8150    7.6583    0.0000 C   0  0  0  0  0  0
   -1.5000    0.0000    0.0000 C   0  0  0  0  0  0
   -0.7500   -1.2990    0.0000 C   0  0  0  0  0  0
  1  2  1  0  0  0
  2  3  1  0  0  0
  3  4  1  0  0  0
  4  5  1  0  0  0
  4 42  1  1  0  0
  5  6  1  0  0  0
  6  7  2  0  0  0
  6  8  1  0  0  0
  8  9  1  0  0  0
  8 25  1  6  0  0
  9 10  1  0  0  0
 10 11  2  0  0  0
 10 12  1  0  0  0
 12 13  1  0  0  0
 12 21  1  6  0  0
 13 14  1  0  0  0
 14 15  2  0  0  0
 14 16  1  0  0  0
 16 17  1  0  0  0
 17 18  1  0  0  0
 17 19  1  0  0  0
 17 20  1  0  0  0
 21 22  1  0  0  0
 21 23  1  0  0  0
 21 24  1  0  0  0
 25 26  2  0  0  0
 25 54  1  0  0  0
 26 27  1  0  0  0
 27 28  2  0  0  0
 28 29  1  0  0  0
 28 53  1  0  0  0
 29 30  1  0  0  0
 30 31  1  0  0  0
 30 46  2  0  0  0
 31 32  2  0  0  0
 32 33  1  0  0  0
 32 44  1  0  0  0
 33 34  2  0  0  0
 34 35  1  0  0  0
 35 36  1  0  0  0
 36 37  1  0  0  0
 37 38  1  0  0  0
 38 39  2  0  0  0
 38 40  2  0  0  0
 38 41  1  0  0  0
 41 42  1  0  0  0
 42 43  2  0  0  0
 44 45  2  0  0  0
 45 46  1  0  0  0
 45 47  1  0  0  0
 47 48  2  0  0  0
 47 52  1  0  0  0
 48 49  1  0  0  0
 49 50  2  0  0  0
 50 51  1  0  0  0
 51 52  2  0  0  0
 53 54  2  0  0  0
M  END
> <s_m_entry_id>
6707

> <s_m_entry_name>
NS3-4A.248

> <CHEMBLID>
CHEMBL3356710

> <s_m_Source_Path>
/home/liwei/Desktop/Machine/HCV/Active

> <s_m_Source_File>
NS3-4A.sdf

> <i_m_Source_File_Index>
248

$$$$
CHEMBL3356711
                    3D
 Structure written by MMmdl.
 56 60  0  0  1  0            999 V2000
   10.1031    2.7901    0.0000 C   0  0  0  0  0  0
   10.8531    1.4911    0.0000 C   0  0  0  0  0  0
   11.6031    0.1921    0.0000 C   0  0  0  0  0  0
   12.1522    2.2411    0.0000 C   0  0  0  0  0  0
    9.5541    0.7411    0.0000 O   0  0  0  0  0  0
    9.5541   -0.7589    0.0000 C   0  0  0  0  0  0
   10.8531   -1.5089    0.0000 O   0  0  0  0  0  0
    8.2551   -1.5089    0.0000 N   0  0  0  0  0  0
    8.2551   -3.0089    0.0000 C   0  0  2  0  0  0
    6.9560   -3.7589    0.0000 C   0  0  0  0  0  0
    6.9560   -5.2589    0.0000 O   0  0  0  0  0  0
    5.6570   -3.0089    0.0000 N   0  0  0  0  0  0
    4.3580   -3.7589    0.0000 C   0  0  2  0  0  0
    3.4227   -2.5862    0.0000 C   0  0  0  0  0  0
    4.4430   -1.4866    0.0000 O   0  0  0  0  0  0
    2.1834   -1.7412    0.0000 N   0  0  0  0  0  0
    0.7500   -1.2990    0.0000 C   0  0  0  0  0  0
    1.5000    0.0000    0.0000 C   0  0  0  0  0  0
    0.7500    1.2990    0.0000 C   0  0  0  0  0  0
   -0.7500    1.2990    0.0000 C   0  0  0  0  0  0
   -1.5000    0.0000    0.0000 C   0  0  0  0  0  0
   -0.7500   -1.2990    0.0000 C   0  0  0  0  0  0
   -2.1834   -1.7412    0.0000 C   0  0  0  0  0  0
   -2.8342   -0.3897    0.0000 O   0  0  0  0  0  0
   -3.4227   -2.5862    0.0000 N   0  0  0  0  0  0
   -4.3580   -3.7589    0.0000 S   0  0  0  0  0  0
   -5.8561   -3.8337    0.0000 O   0  0  0  0  0  0
   -5.0423   -2.4241    0.0000 O   0  0  0  0  0  0
   -4.9060   -5.1552    0.0000 C   0  0  0  0  0  0
   -5.0181   -6.6510    0.0000 C   0  0  0  0  0  0
   -4.6843   -8.1134    0.0000 C   0  0  0  0  0  0
   -3.9343   -9.4124    0.0000 C   0  0  0  0  0  0
   -2.8347  -10.4327    0.0000 C   0  0  0  0  0  0
   -1.4832  -11.0835    0.0000 C   0  0  0  0  0  0
   -0.0000  -11.3071    0.0000 C   0  0  0  0  0  0
    1.4832  -11.0835    0.0000 C   0  0  0  0  0  0
    2.8347  -10.4327    0.0000 O   0  0  0  0  0  0
    3.9343   -9.4124    0.0000 C   0  0  0  0  0  0
    4.6843   -8.1134    0.0000 C   0  0  0  0  0  0
    5.0181   -6.6510    0.0000 C   0  0  0  0  0  0
    4.9060   -5.1552    0.0000 C   0  0  0  0  0  0
    4.1560   -6.4542    0.0000 C   0  0  0  0  0  0
    3.8222   -7.9166    0.0000 C   0  0  0  0  0  0
    1.1148  -12.5835    0.0000 N   0  0  0  0  0  0
   -0.1842  -13.3335    0.0000 C   0  0  0  0  0  0
   -1.4832  -12.5835    0.0000 N   0  0  0  0  0  0
   -0.1842  -14.8335    0.0000 C   0  0  0  0  0  0
   -1.4832  -15.5835    0.0000 C   0  0  0  0  0  0
   -1.4832  -17.0835    0.0000 C   0  0  0  0  0  0
   -0.1842  -17.8335    0.0000 C   0  0  0  0  0  0
    1.1148  -17.0835    0.0000 C   0  0  0  0  0  0
    1.1148  -15.5835    0.0000 C   0  0  0  0  0  0
    9.5541   -3.7589    0.0000 C   0  0  0  0  0  0
   10.3041   -2.4599    0.0000 C   0  0  0  0  0  0
    8.8041   -5.0579    0.0000 C   0  0  0  0  0  0
   10.8531   -4.5089    0.0000 C   0  0  0  0  0  0
  1  2  1  0  0  0
  2  3  1  0  0  0
  2  4  1  0  0  0
  2  5  1  0  0  0
  5  6  1  0  0  0
  6  7  2  0  0  0
  6  8  1  0  0  0
  8  9  1  0  0  0
  9 10  1  0  0  0
  9 53  1  1  0  0
 10 11  2  0  0  0
 10 12  1  0  0  0
 12 13  1  0  0  0
 13 14  1  0  0  0
 13 41  1  1  0  0
 14 15  2  0  0  0
 14 16  1  0  0  0
 16 17  1  0  0  0
 17 18  2  0  0  0
 17 22  1  0  0  0
 18 19  1  0  0  0
 19 20  2  0  0  0
 20 21  1  0  0  0
 21 22  2  0  0  0
 22 23  1  0  0  0
 23 24  2  0  0  0
 23 25  1  0  0  0
 25 26  1  0  0  0
 26 27  2  0  0  0
 26 28  2  0  0  0
 26 29  1  0  0  0
 29 30  1  0  0  0
 30 31  1  0  0  0
 31 32  1  0  0  0
 32 33  2  0  0  0
 33 34  1  0  0  0
 34 35  2  0  0  0
 34 46  1  0  0  0
 35 36  1  0  0  0
 36 37  1  0  0  0
 36 44  2  0  0  0
 37 38  1  0  0  0
 38 39  2  0  0  0
 38 43  1  0  0  0
 39 40  1  0  0  0
 40 41  2  0  0  0
 41 42  1  0  0  0
 42 43  2  0  0  0
 44 45  1  0  0  0
 45 46  2  0  0  0
 45 47  1  0  0  0
 47 48  2  0  0  0
 47 52  1  0  0  0
 48 49  1  0  0  0
 49 50  2  0  0  0
 50 51  1  0  0  0
 51 52  2  0  0  0
 53 54  1  0  0  0
 53 55  1  0  0  0
 53 56  1  0  0  0
M  END
> <s_m_entry_id>
6708

> <s_m_entry_name>
NS3-4A.249

> <CHEMBLID>
CHEMBL3356711

> <s_m_Source_Path>
/home/liwei/Desktop/Machine/HCV/Active

> <s_m_Source_File>
NS3-4A.sdf

> <i_m_Source_File_Index>
249

$$$$
CHEMBL3356712
                    3D
 Structure written by MMmdl.
 49 53  0  0  1  0            999 V2000
   -7.8896   -9.9570    0.0000 C   0  0  0  0  0  0
   -7.5777  -11.4242    0.0000 O   0  0  0  0  0  0
   -6.1512  -11.8878    0.0000 C   0  0  0  0  0  0
   -5.0364  -10.8841    0.0000 C   0  0  0  0  0  0
   -3.6099  -11.3476    0.0000 C   0  0  0  0  0  0
   -2.4951  -10.3439    0.0000 O   0  0  0  0  0  0
   -2.8070   -8.8767    0.0000 C   0  0  0  0  0  0
   -4.2336   -8.4131    0.0000 C   0  0  0  0  0  0
   -4.5455   -6.9459    0.0000 C   0  0  0  0  0  0
   -3.4307   -5.9422    0.0000 C   0  0  0  0  0  0
   -2.6807   -7.2413    0.0000 C   0  0  0  0  0  0
   -1.4672   -8.1229    0.0000 C   0  0  0  0  0  0
    0.0000   -8.4348    0.0000 C   0  0  0  0  0  0
    1.4672   -8.1229    0.0000 C   0  0  0  0  0  0
    2.6807   -7.2413    0.0000 C   0  0  0  0  0  0
    3.4307   -5.9422    0.0000 C   0  0  0  0  0  0
    3.5875   -4.4504    0.0000 S   0  0  0  0  0  0
    4.9120   -5.1547    0.0000 O   0  0  0  0  0  0
    4.7366   -3.4863    0.0000 O   0  0  0  0  0  0
    3.1240   -3.0239    0.0000 N   0  0  0  0  0  0
    2.1203   -1.9091    0.0000 C   0  0  0  0  0  0
    3.0020   -0.6956    0.0000 O   0  0  0  0  0  0
    0.7500   -1.2990    0.0000 C   0  0  0  0  0  0
    1.5000    0.0000    0.0000 C   0  0  0  0  0  0
    0.7500    1.2990    0.0000 C   0  0  0  0  0  0
   -0.7500    1.2990    0.0000 C   0  0  0  0  0  0
   -1.5000    0.0000    0.0000 C   0  0  0  0  0  0
   -0.7500   -1.2990    0.0000 C   0  0  0  0  0  0
   -2.1203   -1.9091    0.0000 N   0  0  0  0  0  0
   -3.1240   -3.0239    0.0000 C   0  0  0  0  0  0
   -4.4231   -2.2739    0.0000 O   0  0  0  0  0  0
   -3.5875   -4.4504    0.0000 C   0  0  1  0  0  0
   -5.0793   -4.2937    0.0000 N   0  0  0  0  0  0
   -5.9610   -5.5072    0.0000 C   0  0  0  0  0  0
   -5.3509   -6.8775    0.0000 O   0  0  0  0  0  0
   -7.4528   -5.3504    0.0000 O   0  0  0  0  0  0
   -8.3345   -6.5639    0.0000 C   0  0  0  0  0  0
   -9.5480   -5.6822    0.0000 C   0  0  0  0  0  0
   -7.1209   -7.4456    0.0000 C   0  0  0  0  0  0
   -9.2161   -7.7774    0.0000 C   0  0  0  0  0  0
   -3.2980  -12.8148    0.0000 N   0  0  0  0  0  0
   -4.4127  -13.8185    0.0000 C   0  0  0  0  0  0
   -5.8393  -13.3550    0.0000 N   0  0  0  0  0  0
   -4.1008  -15.2857    0.0000 C   0  0  0  0  0  0
   -5.2156  -16.2894    0.0000 C   0  0  0  0  0  0
   -4.9037  -17.7566    0.0000 C   0  0  0  0  0  0
   -3.4771  -18.2202    0.0000 C   0  0  0  0  0  0
   -2.3624  -17.2165    0.0000 C   0  0  0  0  0  0
   -2.6743  -15.7493    0.0000 C   0  0  0  0  0  0
  1  2  1  0  0  0
  2  3  1  0  0  0
  3  4  2  0  0  0
  3 43  1  0  0  0
  4  5  1  0  0  0
  5  6  1  0  0  0
  5 41  2  0  0  0
  6  7  1  0  0  0
  7  8  2  0  0  0
  7 12  1  0  0  0
  8  9  1  0  0  0
  9 10  2  0  0  0
 10 11  1  0  0  0
 10 32  1  0  0  0
 11 12  2  0  0  0
 12 13  1  0  0  0
 13 14  2  0  0  0
 14 15  1  0  0  0
 15 16  1  0  0  0
 16 17  1  0  0  0
 17 18  2  0  0  0
 17 19  2  0  0  0
 17 20  1  0  0  0
 20 21  1  0  0  0
 21 22  2  0  0  0
 21 23  1  0  0  0
 23 24  2  0  0  0
 23 28  1  0  0  0
 24 25  1  0  0  0
 25 26  2  0  0  0
 26 27  1  0  0  0
 27 28  2  0  0  0
 28 29  1  0  0  0
 29 30  1  0  0  0
 30 31  2  0  0  0
 30 32  1  0  0  0
 32 33  1  6  0  0
 33 34  1  0  0  0
 34 35  2  0  0  0
 34 36  1  0  0  0
 36 37  1  0  0  0
 37 38  1  0  0  0
 37 39  1  0  0  0
 37 40  1  0  0  0
 41 42  1  0  0  0
 42 43  2  0  0  0
 42 44  1  0  0  0
 44 45  2  0  0  0
 44 49  1  0  0  0
 45 46  1  0  0  0
 46 47  2  0  0  0
 47 48  1  0  0  0
 48 49  2  0  0  0
M  END
> <s_m_entry_id>
6709

> <s_m_entry_name>
NS3-4A.250

> <CHEMBLID>
CHEMBL3356712

> <s_m_Source_Path>
/home/liwei/Desktop/Machine/HCV/Active

> <s_m_Source_File>
NS3-4A.sdf

> <i_m_Source_File_Index>
250

$$$$
CHEMBL3356713
                    3D
 Structure written by MMmdl.
 57 61  0  0  1  0            999 V2000
   -7.8896   -9.9570    0.0000 C   0  0  0  0  0  0
   -7.5777  -11.4242    0.0000 O   0  0  0  0  0  0
   -6.1512  -11.8878    0.0000 C   0  0  0  0  0  0
   -5.0364  -10.8841    0.0000 C   0  0  0  0  0  0
   -3.6099  -11.3476    0.0000 C   0  0  0  0  0  0
   -2.4951  -10.3439    0.0000 O   0  0  0  0  0  0
   -2.8070   -8.8767    0.0000 C   0  0  0  0  0  0
   -4.2336   -8.4131    0.0000 C   0  0  0  0  0  0
   -4.5455   -6.9459    0.0000 C   0  0  0  0  0  0
   -3.4307   -5.9422    0.0000 C   0  0  0  0  0  0
   -2.6807   -7.2413    0.0000 C   0  0  0  0  0  0
   -1.4672   -8.1229    0.0000 C   0  0  0  0  0  0
    0.0000   -8.4348    0.0000 C   0  0  0  0  0  0
    1.4672   -8.1229    0.0000 C   0  0  0  0  0  0
    2.6807   -7.2413    0.0000 C   0  0  0  0  0  0
    3.4307   -5.9422    0.0000 C   0  0  0  0  0  0
    3.5875   -4.4504    0.0000 S   0  0  0  0  0  0
    4.9120   -5.1547    0.0000 O   0  0  0  0  0  0
    4.7366   -3.4863    0.0000 O   0  0  0  0  0  0
    3.1240   -3.0239    0.0000 N   0  0  0  0  0  0
    2.1203   -1.9091    0.0000 C   0  0  0  0  0  0
    3.0020   -0.6956    0.0000 O   0  0  0  0  0  0
    0.7500   -1.2990    0.0000 C   0  0  0  0  0  0
    1.5000    0.0000    0.0000 C   0  0  0  0  0  0
    0.7500    1.2990    0.0000 C   0  0  0  0  0  0
   -0.7500    1.2990    0.0000 C   0  0  0  0  0  0
   -1.5000    0.0000    0.0000 C   0  0  0  0  0  0
   -0.7500   -1.2990    0.0000 C   0  0  0  0  0  0
   -2.1203   -1.9091    0.0000 N   0  0  0  0  0  0
   -3.1240   -3.0239    0.0000 C   0  0  0  0  0  0
   -4.4231   -2.2739    0.0000 O   0  0  0  0  0  0
   -3.5875   -4.4504    0.0000 C   0  0  1  0  0  0
   -5.0793   -4.2937    0.0000 N   0  0  0  0  0  0
   -5.9610   -5.5072    0.0000 C   0  0  0  0  0  0
   -5.3509   -6.8775    0.0000 O   0  0  0  0  0  0
   -7.4528   -5.3504    0.0000 C   0  0  1  0  0  0
   -8.0629   -3.9801    0.0000 N   0  0  0  0  0  0
   -9.5547   -3.8233    0.0000 C   0  0  0  0  0  0
  -10.4363   -5.0368    0.0000 O   0  0  0  0  0  0
  -10.1648   -2.4530    0.0000 O   0  0  0  0  0  0
  -11.6566   -2.2962    0.0000 C   0  0  0  0  0  0
  -11.4998   -0.8044    0.0000 C   0  0  0  0  0  0
  -11.8134   -3.7879    0.0000 C   0  0  0  0  0  0
  -13.1483   -2.1394    0.0000 C   0  0  0  0  0  0
   -8.3345   -6.5639    0.0000 C   0  0  0  0  0  0
   -9.5480   -5.6822    0.0000 C   0  0  0  0  0  0
   -7.1209   -7.4456    0.0000 C   0  0  0  0  0  0
   -9.2161   -7.7774    0.0000 C   0  0  0  0  0  0
   -3.2980  -12.8148    0.0000 N   0  0  0  0  0  0
   -4.4127  -13.8185    0.0000 C   0  0  0  0  0  0
   -5.8393  -13.3550    0.0000 N   0  0  0  0  0  0
   -4.1008  -15.2857    0.0000 C   0  0  0  0  0  0
   -5.2156  -16.2894    0.0000 C   0  0  0  0  0  0
   -4.9037  -17.7566    0.0000 C   0  0  0  0  0  0
   -3.4771  -18.2202    0.0000 C   0  0  0  0  0  0
   -2.3624  -17.2165    0.0000 C   0  0  0  0  0  0
   -2.6743  -15.7493    0.0000 C   0  0  0  0  0  0
  1  2  1  0  0  0
  2  3  1  0  0  0
  3  4  2  0  0  0
  3 51  1  0  0  0
  4  5  1  0  0  0
  5  6  1  0  0  0
  5 49  2  0  0  0
  6  7  1  0  0  0
  7  8  2  0  0  0
  7 12  1  0  0  0
  8  9  1  0  0  0
  9 10  2  0  0  0
 10 11  1  0  0  0
 10 32  1  0  0  0
 11 12  2  0  0  0
 12 13  1  0  0  0
 13 14  2  0  0  0
 14 15  1  0  0  0
 15 16  1  0  0  0
 16 17  1  0  0  0
 17 18  2  0  0  0
 17 19  2  0  0  0
 17 20  1  0  0  0
 20 21  1  0  0  0
 21 22  2  0  0  0
 21 23  1  0  0  0
 23 24  2  0  0  0
 23 28  1  0  0  0
 24 25  1  0  0  0
 25 26  2  0  0  0
 26 27  1  0  0  0
 27 28  2  0  0  0
 28 29  1  0  0  0
 29 30  1  0  0  0
 30 31  2  0  0  0
 30 32  1  0  0  0
 32 33  1  6  0  0
 33 34  1  0  0  0
 34 35  2  0  0  0
 34 36  1  0  0  0
 36 37  1  0  0  0
 36 45  1  6  0  0
 37 38  1  0  0  0
 38 39  2  0  0  0
 38 40  1  0  0  0
 40 41  1  0  0  0
 41 42  1  0  0  0
 41 43  1  0  0  0
 41 44  1  0  0  0
 45 46  1  0  0  0
 45 47  1  0  0  0
 45 48  1  0  0  0
 49 50  1  0  0  0
 50 51  2  0  0  0
 50 52  1  0  0  0
 52 53  2  0  0  0
 52 57  1  0  0  0
 53 54  1  0  0  0
 54 55  2  0  0  0
 55 56  1  0  0  0
 56 57  2  0  0  0
M  END
> <s_m_entry_id>
6710

> <s_m_entry_name>
NS3-4A.251

> <CHEMBLID>
CHEMBL3356713

> <s_m_Source_Path>
/home/liwei/Desktop/Machine/HCV/Active

> <s_m_Source_File>
NS3-4A.sdf

> <i_m_Source_File_Index>
251

$$$$
CHEMBL3356714
                    3D
 Structure written by MMmdl.
 59 63  0  0  1  0            999 V2000
   -5.6570    2.9911    0.0000 C   0  0  0  0  0  0
   -6.9560    3.7411    0.0000 O   0  0  0  0  0  0
   -8.2551    2.9911    0.0000 C   0  0  0  0  0  0
   -8.2551    1.4911    0.0000 C   0  0  0  0  0  0
   -9.5541    0.7411    0.0000 C   0  0  0  0  0  0
   -9.5541   -0.7589    0.0000 O   0  0  0  0  0  0
   -8.2551   -1.5089    0.0000 C   0  0  0  0  0  0
   -8.2551   -3.0089    0.0000 C   0  0  0  0  0  0
   -6.9560   -3.7589    0.0000 C   0  0  0  0  0  0
   -5.6570   -3.0089    0.0000 C   0  0  0  0  0  0
   -5.6570   -1.5089    0.0000 C   0  0  0  0  0  0
   -6.9560   -0.7589    0.0000 C   0  0  0  0  0  0
   -4.3580   -3.7589    0.0000 C   0  0  3  0  0  0
   -4.9060   -5.1552    0.0000 N   0  0  0  0  0  0
   -5.0181   -6.6510    0.0000 C   0  0  0  0  0  0
   -6.5139   -6.7631    0.0000 O   0  0  0  0  0  0
   -4.6843   -8.1134    0.0000 C   0  0  1  0  0  0
   -3.9343   -9.4124    0.0000 C   0  0  0  0  0  0
   -2.8347  -10.4327    0.0000 C   0  0  0  0  0  0
   -1.4832  -11.0835    0.0000 C   0  0  0  0  0  0
    0.0000  -11.3071    0.0000 C   0  0  0  0  0  0
    1.4832  -11.0835    0.0000 C   0  0  0  0  0  0
    2.8347  -10.4327    0.0000 C   0  0  0  0  0  0
    3.9343   -9.4124    0.0000 C   0  0  0  0  0  0
    4.6843   -8.1134    0.0000 C   0  0  0  0  0  0
    5.0181   -6.6510    0.0000 C   0  0  0  0  0  0
    4.9060   -5.1552    0.0000 C   0  0  0  0  0  0
    4.3580   -3.7589    0.0000 S   0  0  0  0  0  0
    5.8561   -3.8337    0.0000 O   0  0  0  0  0  0
    5.0423   -2.4241    0.0000 O   0  0  0  0  0  0
    3.4227   -2.5862    0.0000 N   0  0  0  0  0  0
    2.1834   -1.7412    0.0000 C   0  0  0  0  0  0
    2.8342   -0.3897    0.0000 O   0  0  0  0  0  0
    0.7500   -1.2990    0.0000 C   0  0  0  0  0  0
    1.5000    0.0000    0.0000 C   0  0  0  0  0  0
    0.7500    1.2990    0.0000 C   0  0  0  0  0  0
   -0.7500    1.2990    0.0000 C   0  0  0  0  0  0
   -1.5000    0.0000    0.0000 C   0  0  0  0  0  0
   -0.7500   -1.2990    0.0000 C   0  0  0  0  0  0
   -2.1834   -1.7412    0.0000 N   0  0  0  0  0  0
   -3.4227   -2.5862    0.0000 C   0  0  0  0  0  0
   -4.4430   -1.4866    0.0000 O   0  0  0  0  0  0
   -6.0806   -8.6614    0.0000 N   0  0  0  0  0  0
   -6.3042  -10.1447    0.0000 C   0  0  0  0  0  0
   -5.1314  -11.0799    0.0000 O   0  0  0  0  0  0
   -7.7005  -10.6927    0.0000 O   0  0  0  0  0  0
   -7.9240  -12.1759    0.0000 C   0  0  0  0  0  0
   -9.4073  -11.9524    0.0000 C   0  0  0  0  0  0
   -6.4408  -12.3995    0.0000 C   0  0  0  0  0  0
   -8.1476  -13.6592    0.0000 C   0  0  0  0  0  0
  -10.8531    1.4911    0.0000 N   0  0  0  0  0  0
  -10.8531    2.9911    0.0000 C   0  0  0  0  0  0
   -9.5541    3.7411    0.0000 N   0  0  0  0  0  0
  -12.1522    3.7411    0.0000 C   0  0  0  0  0  0
  -12.1522    5.2411    0.0000 C   0  0  0  0  0  0
  -13.4512    5.9911    0.0000 C   0  0  0  0  0  0
  -14.7503    5.2411    0.0000 C   0  0  0  0  0  0
  -14.7503    3.7411    0.0000 C   0  0  0  0  0  0
  -13.4512    2.9911    0.0000 C   0  0  0  0  0  0
  1  2  1  0  0  0
  2  3  1  0  0  0
  3  4  2  0  0  0
  3 53  1  0  0  0
  4  5  1  0  0  0
  5  6  1  0  0  0
  5 51  2  0  0  0
  6  7  1  0  0  0
  7  8  2  0  0  0
  7 12  1  0  0  0
  8  9  1  0  0  0
  9 10  2  0  0  0
 10 11  1  0  0  0
 10 13  1  0  0  0
 11 12  2  0  0  0
 13 14  1  0  0  0
 13 41  1  0  0  0
 14 15  1  0  0  0
 15 16  2  0  0  0
 15 17  1  0  0  0
 17 18  1  0  0  0
 17 43  1  1  0  0
 18 19  1  0  0  0
 19 20  1  0  0  0
 20 21  1  0  0  0
 21 22  1  0  0  0
 22 23  1  0  0  0
 23 24  2  0  0  0
 24 25  1  0  0  0
 25 26  1  0  0  0
 26 27  1  0  0  0
 27 28  1  0  0  0
 28 29  2  0  0  0
 28 30  2  0  0  0
 28 31  1  0  0  0
 31 32  1  0  0  0
 32 33  2  0  0  0
 32 34  1  0  0  0
 34 35  2  0  0  0
 34 39  1  0  0  0
 35 36  1  0  0  0
 36 37  2  0  0  0
 37 38  1  0  0  0
 38 39  2  0  0  0
 39 40  1  0  0  0
 40 41  1  0  0  0
 41 42  2  0  0  0
 43 44  1  0  0  0
 44 45  2  0  0  0
 44 46  1  0  0  0
 46 47  1  0  0  0
 47 48  1  0  0  0
 47 49  1  0  0  0
 47 50  1  0  0  0
 51 52  1  0  0  0
 52 53  2  0  0  0
 52 54  1  0  0  0
 54 55  2  0  0  0
 54 59  1  0  0  0
 55 56  1  0  0  0
 56 57  2  0  0  0
 57 58  1  0  0  0
 58 59  2  0  0  0
M  END
> <s_m_entry_id>
6711

> <s_m_entry_name>
NS3-4A.252

> <CHEMBLID>
CHEMBL3356714

> <s_m_Source_Path>
/home/liwei/Desktop/Machine/HCV/Active

> <s_m_Source_File>
NS3-4A.sdf

> <i_m_Source_File_Index>
252

$$$$
CHEMBL3356715
                    3D
 Structure written by MMmdl.
 58 62  0  0  1  0            999 V2000
   -5.9223    2.8150    0.0000 C   0  0  0  0  0  0
   -7.2588    3.4960    0.0000 O   0  0  0  0  0  0
   -8.5168    2.6790    0.0000 C   0  0  0  0  0  0
   -8.4383    1.1811    0.0000 C   0  0  0  0  0  0
   -9.6963    0.3641    0.0000 C   0  0  0  0  0  0
   -9.6178   -1.1338    0.0000 O   0  0  0  0  0  0
   -8.2813   -1.8148    0.0000 C   0  0  0  0  0  0
   -8.2028   -3.3128    0.0000 C   0  0  0  0  0  0
   -6.8663   -3.9937    0.0000 C   0  0  0  0  0  0
   -5.6083   -3.1768    0.0000 C   0  0  0  0  0  0
   -5.6868   -1.6788    0.0000 C   0  0  0  0  0  0
   -7.0233   -0.9979    0.0000 C   0  0  0  0  0  0
   -4.2718   -3.8578    0.0000 C   0  0  3  0  0  0
   -4.7353   -5.2844    0.0000 N   0  0  0  0  0  0
   -4.7353   -6.7844    0.0000 C   0  0  0  0  0  0
   -6.2168   -7.0190    0.0000 O   0  0  0  0  0  0
   -4.2718   -8.2109    0.0000 C   0  0  1  0  0  0
   -3.3901   -9.4245    0.0000 C   0  0  0  0  0  0
   -2.1766  -10.3061    0.0000 C   0  0  0  0  0  0
   -0.7500  -10.7697    0.0000 C   0  0  0  0  0  0
    0.7500  -10.7697    0.0000 C   0  0  0  0  0  0
    2.1766  -10.3061    0.0000 C   0  0  0  0  0  0
    3.3901   -9.4245    0.0000 C   0  0  0  0  0  0
    4.2718   -8.2109    0.0000 C   0  0  0  0  0  0
    4.7353   -6.7844    0.0000 C   0  0  0  0  0  0
    4.7353   -5.2844    0.0000 C   0  0  0  0  0  0
    4.2718   -3.8578    0.0000 S   0  0  0  0  0  0
    5.0218   -2.5587    0.0000 O   0  0  0  0  0  0
    5.7636   -4.0146    0.0000 O   0  0  0  0  0  0
    3.3901   -2.6442    0.0000 N   0  0  0  0  0  0
    2.1766   -1.7626    0.0000 C   0  0  0  0  0  0
    2.8576   -0.4261    0.0000 O   0  0  0  0  0  0
    0.7500   -1.2990    0.0000 C   0  0  0  0  0  0
    1.5000    0.0000    0.0000 C   0  0  0  0  0  0
    0.7500    1.2990    0.0000 C   0  0  0  0  0  0
   -0.7500    1.2990    0.0000 C   0  0  0  0  0  0
   -1.5000    0.0000    0.0000 C   0  0  0  0  0  0
   -0.7500   -1.2990    0.0000 C   0  0  0  0  0  0
   -2.1766   -1.7626    0.0000 N   0  0  0  0  0  0
   -3.3901   -2.6442    0.0000 C   0  0  0  0  0  0
   -4.4508   -1.5836    0.0000 O   0  0  0  0  0  0
   -5.6083   -8.8919    0.0000 N   0  0  0  0  0  0
   -5.6868  -10.3899    0.0000 C   0  0  0  0  0  0
   -4.4288  -11.2068    0.0000 O   0  0  0  0  0  0
   -7.0233  -11.0709    0.0000 O   0  0  0  0  0  0
   -7.1018  -12.5688    0.0000 C   0  0  0  0  0  0
   -8.5998  -12.4903    0.0000 C   0  0  0  0  0  0
   -5.6039  -12.6473    0.0000 C   0  0  0  0  0  0
   -7.1803  -14.0667    0.0000 C   0  0  0  0  0  0
  -11.0328    1.0451    0.0000 N   0  0  0  0  0  0
  -11.1113    2.5431    0.0000 C   0  0  0  0  0  0
   -9.8533    3.3600    0.0000 N   0  0  0  0  0  0
  -12.4479    3.2240    0.0000 C   0  0  0  0  0  0
  -12.5264    4.7220    0.0000 C   0  0  0  0  0  0
  -13.8629    5.4030    0.0000 C   0  0  0  0  0  0
  -15.1209    4.5860    0.0000 C   0  0  0  0  0  0
  -15.0424    3.0881    0.0000 C   0  0  0  0  0  0
  -13.7059    2.4071    0.0000 C   0  0  0  0  0  0
  1  2  1  0  0  0
  2  3  1  0  0  0
  3  4  2  0  0  0
  3 52  1  0  0  0
  4  5  1  0  0  0
  5  6  1  0  0  0
  5 50  2  0  0  0
  6  7  1  0  0  0
  7  8  2  0  0  0
  7 12  1  0  0  0
  8  9  1  0  0  0
  9 10  2  0  0  0
 10 11  1  0  0  0
 10 13  1  0  0  0
 11 12  2  0  0  0
 13 14  1  0  0  0
 13 40  1  0  0  0
 14 15  1  0  0  0
 15 16  2  0  0  0
 15 17  1  0  0  0
 17 18  1  0  0  0
 17 42  1  1  0  0
 18 19  1  0  0  0
 19 20  1  0  0  0
 20 21  1  0  0  0
 21 22  1  0  0  0
 22 23  1  0  0  0
 23 24  2  0  0  0
 24 25  1  0  0  0
 25 26  1  0  0  0
 26 27  1  0  0  0
 27 28  2  0  0  0
 27 29  2  0  0  0
 27 30  1  0  0  0
 30 31  1  0  0  0
 31 32  2  0  0  0
 31 33  1  0  0  0
 33 34  2  0  0  0
 33 38  1  0  0  0
 34 35  1  0  0  0
 35 36  2  0  0  0
 36 37  1  0  0  0
 37 38  2  0  0  0
 38 39  1  0  0  0
 39 40  1  0  0  0
 40 41  2  0  0  0
 42 43  1  0  0  0
 43 44  2  0  0  0
 43 45  1  0  0  0
 45 46  1  0  0  0
 46 47  1  0  0  0
 46 48  1  0  0  0
 46 49  1  0  0  0
 50 51  1  0  0  0
 51 52  2  0  0  0
 51 53  1  0  0  0
 53 54  2  0  0  0
 53 58  1  0  0  0
 54 55  1  0  0  0
 55 56  2  0  0  0
 56 57  1  0  0  0
 57 58  2  0  0  0
M  END
> <s_m_entry_id>
6712

> <s_m_entry_name>
NS3-4A.253

> <CHEMBLID>
CHEMBL3356715

> <s_m_Source_Path>
/home/liwei/Desktop/Machine/HCV/Active

> <s_m_Source_File>
NS3-4A.sdf

> <i_m_Source_File_Index>
253

$$$$
CHEMBL3356716
                    3D
 Structure written by MMmdl.
 59 63  0  0  1  0            999 V2000
   -5.6570    2.9911    0.0000 C   0  0  0  0  0  0
   -6.9560    3.7411    0.0000 O   0  0  0  0  0  0
   -8.2551    2.9911    0.0000 C   0  0  0  0  0  0
   -8.2551    1.4911    0.0000 C   0  0  0  0  0  0
   -9.5541    0.7411    0.0000 C   0  0  0  0  0  0
   -9.5541   -0.7589    0.0000 O   0  0  0  0  0  0
   -8.2551   -1.5089    0.0000 C   0  0  0  0  0  0
   -8.2551   -3.0089    0.0000 C   0  0  0  0  0  0
   -6.9560   -3.7589    0.0000 C   0  0  0  0  0  0
   -5.6570   -3.0089    0.0000 C   0  0  0  0  0  0
   -5.6570   -1.5089    0.0000 C   0  0  0  0  0  0
   -6.9560   -0.7589    0.0000 C   0  0  0  0  0  0
   -4.3580   -3.7589    0.0000 C   0  0  3  0  0  0
   -4.9060   -5.1552    0.0000 N   0  0  0  0  0  0
   -5.0181   -6.6510    0.0000 C   0  0  0  0  0  0
   -6.5139   -6.7631    0.0000 O   0  0  0  0  0  0
   -4.6843   -8.1134    0.0000 C   0  0  1  0  0  0
   -3.9343   -9.4124    0.0000 C   0  0  0  0  0  0
   -2.8347  -10.4327    0.0000 C   0  0  0  0  0  0
   -1.4832  -11.0835    0.0000 C   0  0  0  0  0  0
    0.0000  -11.3071    0.0000 C   0  0  0  0  0  0
    1.4832  -11.0835    0.0000 C   0  0  0  0  0  0
    2.8347  -10.4327    0.0000 C   0  0  0  0  0  0
    3.9343   -9.4124    0.0000 C   0  0  0  0  0  0
    4.6843   -8.1134    0.0000 C   0  0  0  0  0  0
    5.0181   -6.6510    0.0000 C   0  0  0  0  0  0
    4.9060   -5.1552    0.0000 C   0  0  0  0  0  0
    4.3580   -3.7589    0.0000 S   0  0  0  0  0  0
    5.8561   -3.8337    0.0000 O   0  0  0  0  0  0
    5.0423   -2.4241    0.0000 O   0  0  0  0  0  0
    3.4227   -2.5862    0.0000 N   0  0  0  0  0  0
    2.1834   -1.7412    0.0000 C   0  0  0  0  0  0
    2.8342   -0.3897    0.0000 O   0  0  0  0  0  0
    0.7500   -1.2990    0.0000 C   0  0  0  0  0  0
    1.5000    0.0000    0.0000 C   0  0  0  0  0  0
    0.7500    1.2990    0.0000 C   0  0  0  0  0  0
   -0.7500    1.2990    0.0000 C   0  0  0  0  0  0
   -1.5000    0.0000    0.0000 C   0  0  0  0  0  0
   -0.7500   -1.2990    0.0000 C   0  0  0  0  0  0
   -2.1834   -1.7412    0.0000 N   0  0  0  0  0  0
   -3.4227   -2.5862    0.0000 C   0  0  0  0  0  0
   -4.4430   -1.4866    0.0000 O   0  0  0  0  0  0
   -6.0806   -8.6614    0.0000 N   0  0  0  0  0  0
   -6.3042  -10.1447    0.0000 C   0  0  0  0  0  0
   -5.1314  -11.0799    0.0000 O   0  0  0  0  0  0
   -7.7005  -10.6927    0.0000 O   0  0  0  0  0  0
   -7.9240  -12.1759    0.0000 C   0  0  0  0  0  0
   -9.4073  -11.9524    0.0000 C   0  0  0  0  0  0
   -6.4408  -12.3995    0.0000 C   0  0  0  0  0  0
   -8.1476  -13.6592    0.0000 C   0  0  0  0  0  0
  -10.8531    1.4911    0.0000 N   0  0  0  0  0  0
  -10.8531    2.9911    0.0000 C   0  0  0  0  0  0
   -9.5541    3.7411    0.0000 N   0  0  0  0  0  0
  -12.1522    3.7411    0.0000 C   0  0  0  0  0  0
  -12.1522    5.2411    0.0000 C   0  0  0  0  0  0
  -13.4512    5.9911    0.0000 C   0  0  0  0  0  0
  -14.7503    5.2411    0.0000 C   0  0  0  0  0  0
  -14.7503    3.7411    0.0000 C   0  0  0  0  0  0
  -13.4512    2.9911    0.0000 C   0  0  0  0  0  0
  1  2  1  0  0  0
  2  3  1  0  0  0
  3  4  2  0  0  0
  3 53  1  0  0  0
  4  5  1  0  0  0
  5  6  1  0  0  0
  5 51  2  0  0  0
  6  7  1  0  0  0
  7  8  2  0  0  0
  7 12  1  0  0  0
  8  9  1  0  0  0
  9 10  2  0  0  0
 10 11  1  0  0  0
 10 13  1  0  0  0
 11 12  2  0  0  0
 13 14  1  0  0  0
 13 41  1  0  0  0
 14 15  1  0  0  0
 15 16  2  0  0  0
 15 17  1  0  0  0
 17 18  1  0  0  0
 17 43  1  1  0  0
 18 19  1  0  0  0
 19 20  1  0  0  0
 20 21  1  0  0  0
 21 22  1  0  0  0
 22 23  1  0  0  0
 23 24  1  0  0  0
 24 25  1  0  0  0
 25 26  1  0  0  0
 26 27  1  0  0  0
 27 28  1  0  0  0
 28 29  2  0  0  0
 28 30  2  0  0  0
 28 31  1  0  0  0
 31 32  1  0  0  0
 32 33  2  0  0  0
 32 34  1  0  0  0
 34 35  2  0  0  0
 34 39  1  0  0  0
 35 36  1  0  0  0
 36 37  2  0  0  0
 37 38  1  0  0  0
 38 39  2  0  0  0
 39 40  1  0  0  0
 40 41  1  0  0  0
 41 42  2  0  0  0
 43 44  1  0  0  0
 44 45  2  0  0  0
 44 46  1  0  0  0
 46 47  1  0  0  0
 47 48  1  0  0  0
 47 49  1  0  0  0
 47 50  1  0  0  0
 51 52  1  0  0  0
 52 53  2  0  0  0
 52 54  1  0  0  0
 54 55  2  0  0  0
 54 59  1  0  0  0
 55 56  1  0  0  0
 56 57  2  0  0  0
 57 58  1  0  0  0
 58 59  2  0  0  0
M  END
> <s_m_entry_id>
6713

> <s_m_entry_name>
NS3-4A.254

> <CHEMBLID>
CHEMBL3356716

> <s_m_Source_Path>
/home/liwei/Desktop/Machine/HCV/Active

> <s_m_Source_File>
NS3-4A.sdf

> <i_m_Source_File_Index>
254

$$$$
CHEMBL3356717
                    3D
 Structure written by MMmdl.
 58 62  0  0  1  0            999 V2000
   -5.9223    2.8150    0.0000 C   0  0  0  0  0  0
   -7.2588    3.4960    0.0000 O   0  0  0  0  0  0
   -8.5168    2.6790    0.0000 C   0  0  0  0  0  0
   -8.4383    1.1811    0.0000 C   0  0  0  0  0  0
   -9.6963    0.3641    0.0000 C   0  0  0  0  0  0
   -9.6178   -1.1338    0.0000 O   0  0  0  0  0  0
   -8.2813   -1.8148    0.0000 C   0  0  0  0  0  0
   -8.2028   -3.3128    0.0000 C   0  0  0  0  0  0
   -6.8663   -3.9937    0.0000 C   0  0  0  0  0  0
   -5.6083   -3.1768    0.0000 C   0  0  0  0  0  0
   -5.6868   -1.6788    0.0000 C   0  0  0  0  0  0
   -7.0233   -0.9979    0.0000 C   0  0  0  0  0  0
   -4.2718   -3.8578    0.0000 C   0  0  3  0  0  0
   -4.7353   -5.2844    0.0000 N   0  0  0  0  0  0
   -4.7353   -6.7844    0.0000 C   0  0  0  0  0  0
   -6.2168   -7.0190    0.0000 O   0  0  0  0  0  0
   -4.2718   -8.2109    0.0000 C   0  0  1  0  0  0
   -3.3901   -9.4245    0.0000 C   0  0  0  0  0  0
   -2.1766  -10.3061    0.0000 C   0  0  0  0  0  0
   -0.7500  -10.7697    0.0000 C   0  0  0  0  0  0
    0.7500  -10.7697    0.0000 C   0  0  0  0  0  0
    2.1766  -10.3061    0.0000 C   0  0  0  0  0  0
    3.3901   -9.4245    0.0000 C   0  0  0  0  0  0
    4.2718   -8.2109    0.0000 C   0  0  0  0  0  0
    4.7353   -6.7844    0.0000 C   0  0  0  0  0  0
    4.7353   -5.2844    0.0000 C   0  0  0  0  0  0
    4.2718   -3.8578    0.0000 S   0  0  0  0  0  0
    5.0218   -2.5587    0.0000 O   0  0  0  0  0  0
    5.7636   -4.0146    0.0000 O   0  0  0  0  0  0
    3.3901   -2.6442    0.0000 N   0  0  0  0  0  0
    2.1766   -1.7626    0.0000 C   0  0  0  0  0  0
    2.8576   -0.4261    0.0000 O   0  0  0  0  0  0
    0.7500   -1.2990    0.0000 C   0  0  0  0  0  0
    1.5000    0.0000    0.0000 C   0  0  0  0  0  0
    0.7500    1.2990    0.0000 C   0  0  0  0  0  0
   -0.7500    1.2990    0.0000 C   0  0  0  0  0  0
   -1.5000    0.0000    0.0000 C   0  0  0  0  0  0
   -0.7500   -1.2990    0.0000 C   0  0  0  0  0  0
   -2.1766   -1.7626    0.0000 N   0  0  0  0  0  0
   -3.3901   -2.6442    0.0000 C   0  0  0  0  0  0
   -4.4508   -1.5836    0.0000 O   0  0  0  0  0  0
   -5.6083   -8.8919    0.0000 N   0  0  0  0  0  0
   -5.6868  -10.3899    0.0000 C   0  0  0  0  0  0
   -4.4288  -11.2068    0.0000 O   0  0  0  0  0  0
   -7.0233  -11.0709    0.0000 O   0  0  0  0  0  0
   -7.1018  -12.5688    0.0000 C   0  0  0  0  0  0
   -8.5998  -12.4903    0.0000 C   0  0  0  0  0  0
   -5.6039  -12.6473    0.0000 C   0  0  0  0  0  0
   -7.1803  -14.0667    0.0000 C   0  0  0  0  0  0
  -11.0328    1.0451    0.0000 N   0  0  0  0  0  0
  -11.1113    2.5431    0.0000 C   0  0  0  0  0  0
   -9.8533    3.3600    0.0000 N   0  0  0  0  0  0
  -12.4479    3.2240    0.0000 C   0  0  0  0  0  0
  -12.5264    4.7220    0.0000 C   0  0  0  0  0  0
  -13.8629    5.4030    0.0000 C   0  0  0  0  0  0
  -15.1209    4.5860    0.0000 C   0  0  0  0  0  0
  -15.0424    3.0881    0.0000 C   0  0  0  0  0  0
  -13.7059    2.4071    0.0000 C   0  0  0  0  0  0
  1  2  1  0  0  0
  2  3  1  0  0  0
  3  4  2  0  0  0
  3 52  1  0  0  0
  4  5  1  0  0  0
  5  6  1  0  0  0
  5 50  2  0  0  0
  6  7  1  0  0  0
  7  8  2  0  0  0
  7 12  1  0  0  0
  8  9  1  0  0  0
  9 10  2  0  0  0
 10 11  1  0  0  0
 10 13  1  0  0  0
 11 12  2  0  0  0
 13 14  1  0  0  0
 13 40  1  0  0  0
 14 15  1  0  0  0
 15 16  2  0  0  0
 15 17  1  0  0  0
 17 18  1  0  0  0
 17 42  1  1  0  0
 18 19  1  0  0  0
 19 20  1  0  0  0
 20 21  1  0  0  0
 21 22  1  0  0  0
 22 23  1  0  0  0
 23 24  1  0  0  0
 24 25  1  0  0  0
 25 26  1  0  0  0
 26 27  1  0  0  0
 27 28  2  0  0  0
 27 29  2  0  0  0
 27 30  1  0  0  0
 30 31  1  0  0  0
 31 32  2  0  0  0
 31 33  1  0  0  0
 33 34  2  0  0  0
 33 38  1  0  0  0
 34 35  1  0  0  0
 35 36  2  0  0  0
 36 37  1  0  0  0
 37 38  2  0  0  0
 38 39  1  0  0  0
 39 40  1  0  0  0
 40 41  2  0  0  0
 42 43  1  0  0  0
 43 44  2  0  0  0
 43 45  1  0  0  0
 45 46  1  0  0  0
 46 47  1  0  0  0
 46 48  1  0  0  0
 46 49  1  0  0  0
 50 51  1  0  0  0
 51 52  2  0  0  0
 51 53  1  0  0  0
 53 54  2  0  0  0
 53 58  1  0  0  0
 54 55  1  0  0  0
 55 56  2  0  0  0
 56 57  1  0  0  0
 57 58  2  0  0  0
M  END
> <s_m_entry_id>
6714

> <s_m_entry_name>
NS3-4A.255

> <CHEMBLID>
CHEMBL3356717

> <s_m_Source_Path>
/home/liwei/Desktop/Machine/HCV/Active

> <s_m_Source_File>
NS3-4A.sdf

> <i_m_Source_File_Index>
255

$$$$
CHEMBL3356718
                    3D
 Structure written by MMmdl.
 56 60  0  0  1  0            999 V2000
   -7.0885    4.0859    0.0000 C   0  0  0  0  0  0
   -8.0282    2.9167    0.0000 C   0  0  0  0  0  0
   -9.1034    1.8708    0.0000 C   0  0  0  0  0  0
   -9.0741    3.9919    0.0000 C   0  0  0  0  0  0
   -6.9823    1.8415    0.0000 C   0  0  2  0  0  0
   -7.8706    0.6329    0.0000 N   0  0  0  0  0  0
   -8.3184   -0.7987    0.0000 C   0  0  0  0  0  0
   -9.8042   -0.5927    0.0000 O   0  0  0  0  0  0
   -8.2771   -2.2982    0.0000 O   0  0  0  0  0  0
   -7.7511   -3.7029    0.0000 C   0  0  0  0  0  0
   -6.7975   -4.8608    0.0000 C   0  0  0  0  0  0
   -5.5196   -5.6463    0.0000 C   0  0  0  0  0  0
   -4.0559   -5.9743    0.0000 C   0  0  0  0  0  0
   -2.5650   -5.8093    0.0000 C   0  0  0  0  0  0
   -1.2085   -5.1691    0.0000 C   0  0  0  0  0  0
   -0.1333   -4.1232    0.0000 C   0  0  0  0  0  0
    0.5440   -2.7848    0.0000 O   0  0  0  0  0  0
    0.7500   -1.2990    0.0000 C   0  0  0  0  0  0
    1.5000    0.0000    0.0000 C   0  0  0  0  0  0
    0.7500    1.2990    0.0000 C   0  0  0  0  0  0
   -0.7500    1.2990    0.0000 C   0  0  0  0  0  0
   -1.5000    0.0000    0.0000 C   0  0  0  0  0  0
   -0.7500   -1.2990    0.0000 C   0  0  0  0  0  0
   -2.8085    3.0218    0.0000 C   0  0  2  0  0  0
   -4.3062    3.1044    0.0000 N   0  0  0  0  0  0
   -5.7496    2.6962    0.0000 C   0  0  0  0  0  0
   -6.2196    4.1207    0.0000 O   0  0  0  0  0  0
   -2.4804    4.4855    0.0000 C   0  0  0  0  0  0
   -3.2804    5.0588    0.0000 O   0  0  0  0  0  0
   -1.0488    4.9332    0.0000 N   0  0  0  0  0  0
   -0.7208    6.3969    0.0000 C   0  0  0  0  0  0
    0.7108    6.8447    0.0000 C   0  0  0  0  0  0
    1.0388    8.3084    0.0000 C   0  0  0  0  0  0
   -0.0648    9.3243    0.0000 C   0  0  0  0  0  0
   -1.4964    8.8765    0.0000 C   0  0  0  0  0  0
   -1.8244    7.4129    0.0000 C   0  0  0  0  0  0
   -3.2560    6.9651    0.0000 C   0  0  0  0  0  0
   -3.5867    6.0381    0.0000 O   0  0  0  0  0  0
   -4.3596    7.9810    0.0000 N   0  0  0  0  0  0
   -5.7912    7.5332    0.0000 S   0  0  0  0  0  0
   -5.3434    6.1016    0.0000 O   0  0  0  0  0  0
   -6.2390    8.9648    0.0000 O   0  0  0  0  0  0
   -7.2228    7.0855    0.0000 C   0  0  0  0  0  0
   -8.3264    8.1014    0.0000 C   0  0  0  0  0  0
   -9.7580    7.6536    0.0000 C   0  0  0  0  0  0
  -10.8616    8.6695    0.0000 C   0  0  0  0  0  0
  -12.2932    8.2218    0.0000 C   0  0  0  0  0  0
    0.4247   -5.5616    0.0000 N   0  0  0  0  0  0
   -0.2155   -6.9181    0.0000 C   0  0  0  0  0  0
   -1.7103   -7.0420    0.0000 N   0  0  0  0  0  0
    0.6393   -8.1508    0.0000 C   0  0  0  0  0  0
   -0.0009   -9.5073    0.0000 C   0  0  0  0  0  0
    0.8538  -10.7400    0.0000 C   0  0  0  0  0  0
    2.3487  -10.6161    0.0000 C   0  0  0  0  0  0
    2.9888   -9.2596    0.0000 C   0  0  0  0  0  0
    2.1341   -8.0269    0.0000 C   0  0  0  0  0  0
  1  2  1  0  0  0
  2  3  1  0  0  0
  2  4  1  0  0  0
  2  5  1  0  0  0
  5  6  1  0  0  0
  5 26  1  1  0  0
  6  7  1  0  0  0
  7  8  2  0  0  0
  7  9  1  0  0  0
  9 10  1  0  0  0
 10 11  1  0  0  0
 11 12  1  0  0  0
 12 13  2  0  0  0
 13 14  1  0  0  0
 14 15  2  0  0  0
 14 50  1  0  0  0
 15 16  1  0  0  0
 16 17  1  0  0  0
 16 48  2  0  0  0
 17 18  1  0  0  0
 18 19  2  0  0  0
 18 23  1  0  0  0
 19 20  1  0  0  0
 20 21  2  0  0  0
 21 22  1  0  0  0
 21 24  1  0  0  0
 22 23  2  0  0  0
 24 25  1  0  0  0
 24 28  1  1  0  0
 25 26  1  0  0  0
 26 27  2  0  0  0
 28 29  2  0  0  0
 28 30  1  0  0  0
 30 31  1  0  0  0
 31 32  2  0  0  0
 31 36  1  0  0  0
 32 33  1  0  0  0
 33 34  2  0  0  0
 34 35  1  0  0  0
 35 36  2  0  0  0
 36 37  1  0  0  0
 37 38  2  0  0  0
 37 39  1  0  0  0
 39 40  1  0  0  0
 40 41  2  0  0  0
 40 42  2  0  0  0
 40 43  1  0  0  0
 43 44  1  0  0  0
 44 45  1  0  0  0
 45 46  1  0  0  0
 46 47  2  0  0  0
 48 49  1  0  0  0
 49 50  2  0  0  0
 49 51  1  0  0  0
 51 52  2  0  0  0
 51 56  1  0  0  0
 52 53  1  0  0  0
 53 54  2  0  0  0
 54 55  1  0  0  0
 55 56  2  0  0  0
M  END
> <s_m_entry_id>
6715

> <s_m_entry_name>
NS3-4A.256

> <CHEMBLID>
CHEMBL3356718

> <s_m_Source_Path>
/home/liwei/Desktop/Machine/HCV/Active

> <s_m_Source_File>
NS3-4A.sdf

> <i_m_Source_File_Index>
256

$$$$
CHEMBL3356719
                    3D
 Structure written by MMmdl.
 54 57  0  0  1  0            999 V2000
    2.4704    8.7562    0.0000 C   0  0  0  0  0  0
    1.0388    8.3084    0.0000 C   0  0  0  0  0  0
    0.7108    6.8447    0.0000 C   0  0  0  0  0  0
   -0.7208    6.3969    0.0000 C   0  0  2  0  0  0
   -1.0488    4.9332    0.0000 N   0  0  0  0  0  0
   -2.4804    4.4855    0.0000 C   0  0  0  0  0  0
   -3.5840    5.5014    0.0000 O   0  0  0  0  0  0
   -2.8085    3.0218    0.0000 C   0  0  1  0  0  0
   -4.3062    3.1044    0.0000 N   0  0  0  0  0  0
   -5.7496    2.6962    0.0000 C   0  0  0  0  0  0
   -6.2196    4.1207    0.0000 O   0  0  0  0  0  0
   -6.9823    1.8415    0.0000 C   0  0  1  0  0  0
   -7.8706    0.6329    0.0000 N   0  0  0  0  0  0
   -8.3184   -0.7987    0.0000 C   0  0  0  0  0  0
   -9.8042   -0.5927    0.0000 O   0  0  0  0  0  0
   -8.2771   -2.2982    0.0000 O   0  0  0  0  0  0
   -7.7511   -3.7029    0.0000 C   0  0  0  0  0  0
   -6.7975   -4.8608    0.0000 C   0  0  0  0  0  0
   -5.5196   -5.6463    0.0000 C   0  0  0  0  0  0
   -4.0559   -5.9743    0.0000 C   0  0  0  0  0  0
   -2.5650   -5.8093    0.0000 C   0  0  0  0  0  0
   -1.2085   -5.1691    0.0000 C   0  0  0  0  0  0
   -0.1333   -4.1232    0.0000 C   0  0  0  0  0  0
    0.5440   -2.7848    0.0000 O   0  0  0  0  0  0
    0.7500   -1.2990    0.0000 C   0  0  0  0  0  0
    1.5000    0.0000    0.0000 C   0  0  0  0  0  0
    0.7500    1.2990    0.0000 C   0  0  0  0  0  0
   -0.7500    1.2990    0.0000 C   0  0  0  0  0  0
   -1.5000    0.0000    0.0000 C   0  0  0  0  0  0
   -0.7500   -1.2990    0.0000 C   0  0  0  0  0  0
    0.4247   -5.5616    0.0000 N   0  0  0  0  0  0
   -0.2155   -6.9181    0.0000 C   0  0  0  0  0  0
   -1.7103   -7.0420    0.0000 N   0  0  0  0  0  0
    0.6393   -8.1508    0.0000 C   0  0  0  0  0  0
   -0.0009   -9.5073    0.0000 C   0  0  0  0  0  0
    0.8538  -10.7400    0.0000 C   0  0  0  0  0  0
    2.3487  -10.6161    0.0000 C   0  0  0  0  0  0
    2.9888   -9.2596    0.0000 C   0  0  0  0  0  0
    2.1341   -8.0269    0.0000 C   0  0  0  0  0  0
   -8.0282    2.9167    0.0000 C   0  0  0  0  0  0
   -9.1034    1.8708    0.0000 C   0  0  0  0  0  0
   -7.0885    4.0859    0.0000 C   0  0  0  0  0  0
   -9.0741    3.9919    0.0000 C   0  0  0  0  0  0
   -1.8244    7.4129    0.0000 C   0  0  0  0  0  0
   -3.2560    6.9651    0.0000 O   0  0  0  0  0  0
   -1.4964    8.8765    0.0000 N   0  0  0  0  0  0
   -2.6000    9.8925    0.0000 S   0  0  0  0  0  0
   -3.6159    8.7889    0.0000 O   0  0  0  0  0  0
   -1.5840   10.9961    0.0000 O   0  0  0  0  0  0
   -3.7036   10.9084    0.0000 C   0  0  0  0  0  0
   -5.1352   10.4606    0.0000 C   0  0  0  0  0  0
   -6.2387   11.4765    0.0000 C   0  0  0  0  0  0
   -7.6704   11.0288    0.0000 C   0  0  0  0  0  0
   -8.7739   12.0447    0.0000 C   0  0  0  0  0  0
  1  2  1  0  0  0
  2  3  1  0  0  0
  3  4  1  0  0  0
  4  5  1  0  0  0
  4 44  1  1  0  0
  5  6  1  0  0  0
  6  7  2  0  0  0
  6  8  1  0  0  0
  8  9  1  0  0  0
  8 28  1  6  0  0
  9 10  1  0  0  0
 10 11  2  0  0  0
 10 12  1  0  0  0
 12 13  1  0  0  0
 12 40  1  6  0  0
 13 14  1  0  0  0
 14 15  2  0  0  0
 14 16  1  0  0  0
 16 17  1  0  0  0
 17 18  1  0  0  0
 18 19  1  0  0  0
 19 20  2  0  0  0
 20 21  1  0  0  0
 21 22  2  0  0  0
 21 33  1  0  0  0
 22 23  1  0  0  0
 23 24  1  0  0  0
 23 31  2  0  0  0
 24 25  1  0  0  0
 25 26  2  0  0  0
 25 30  1  0  0  0
 26 27  1  0  0  0
 27 28  2  0  0  0
 28 29  1  0  0  0
 29 30  2  0  0  0
 31 32  1  0  0  0
 32 33  2  0  0  0
 32 34  1  0  0  0
 34 35  2  0  0  0
 34 39  1  0  0  0
 35 36  1  0  0  0
 36 37  2  0  0  0
 37 38  1  0  0  0
 38 39  2  0  0  0
 40 41  1  0  0  0
 40 42  1  0  0  0
 40 43  1  0  0  0
 44 45  2  0  0  0
 44 46  1  0  0  0
 46 47  1  0  0  0
 47 48  2  0  0  0
 47 49  2  0  0  0
 47 50  1  0  0  0
 50 51  1  0  0  0
 51 52  1  0  0  0
 52 53  1  0  0  0
 53 54  2  0  0  0
M  END
> <s_m_entry_id>
6716

> <s_m_entry_name>
NS3-4A.257

> <CHEMBLID>
CHEMBL3356719

> <s_m_Source_Path>
/home/liwei/Desktop/Machine/HCV/Active

> <s_m_Source_File>
NS3-4A.sdf

> <i_m_Source_File_Index>
257

$$$$
CHEMBL3639445
                    3D
 Structure written by MMmdl.
 64 71  0  0  1  0            999 V2000
    2.1595   -1.8467    0.0000 C   0  0  0  0  0  0
    0.7500   -2.3597    0.0000 C   0  0  0  0  0  0
    1.0105   -3.8369    0.0000 C   0  0  0  0  0  0
   -0.0000   -1.0607    0.0000 C   0  0  0  0  0  0
    1.0607    0.0000    0.0000 C   0  0  0  0  0  0
    0.0000    1.0607    0.0000 C   0  0  0  0  0  0
   -1.0607    0.0000    0.0000 C   0  0  0  0  0  0
   -0.7500   -2.3597    0.0000 C   0  0  2  0  0  0
   -0.9068   -3.8515    0.0000 C   0  0  0  0  0  0
   -2.3740   -4.1633    0.0000 C   0  0  2  0  0  0
   -3.1240   -2.8643    0.0000 N   0  0  0  0  0  0
   -2.1203   -1.7496    0.0000 C   0  0  0  0  0  0
   -4.6158   -2.7075    0.0000 C   0  0  0  0  0  0
   -5.4975   -3.9210    0.0000 O   0  0  0  0  0  0
   -5.2259   -1.3372    0.0000 C   0  0  1  0  0  0
   -4.3442   -0.1237    0.0000 N   0  0  0  0  0  0
   -4.9543    1.2466    0.0000 C   0  0  0  0  0  0
   -6.4461    1.4034    0.0000 O   0  0  0  0  0  0
   -4.0727    2.4602    0.0000 C   0  0  3  0  0  0
   -2.5809    2.3034    0.0000 N   0  0  0  0  0  0
   -1.6992    3.5169    0.0000 C   0  0  0  0  0  0
   -2.3093    4.8872    0.0000 O   0  0  0  0  0  0
   -0.2074    3.3601    0.0000 C   0  0  2  0  0  0
    0.5426    2.0611    0.0000 C   0  0  0  0  0  0
    2.0098    2.3729    0.0000 C   0  0  0  0  0  0
    2.1666    3.8647    0.0000 C   0  0  0  0  0  0
    0.7963    4.4748    0.0000 N   0  0  0  0  0  0
    0.4844    5.9420    0.0000 C   0  0  0  0  0  0
    1.5991    6.9457    0.0000 O   0  0  0  0  0  0
   -0.9422    6.4056    0.0000 O   0  0  0  0  0  0
   -1.2540    7.8728    0.0000 C   0  0  0  0  0  0
   -2.6806    8.3363    0.0000 C   0  0  0  0  0  0
   -2.9925    9.8035    0.0000 F   0  0  0  0  0  0
   -4.6828    3.8305    0.0000 C   0  0  0  0  0  0
   -3.8011    5.0440    0.0000 C   0  0  0  0  0  0
   -4.4112    6.4143    0.0000 C   0  0  0  0  0  0
   -5.9030    6.5711    0.0000 C   0  0  0  0  0  0
   -6.7846    5.3576    0.0000 C   0  0  0  0  0  0
   -6.1745    3.9873    0.0000 C   0  0  0  0  0  0
   -6.7177   -1.1804    0.0000 C   0  0  0  0  0  0
   -7.3278    0.1899    0.0000 C   0  0  0  0  0  0
   -8.8196    0.3467    0.0000 C   0  0  0  0  0  0
   -9.7013   -0.8668    0.0000 O   0  0  0  0  0  0
   -9.0911   -2.2371    0.0000 C   0  0  0  0  0  0
   -7.5994   -2.3939    0.0000 C   0  0  0  0  0  0
   -2.9841   -5.5337    0.0000 C   0  0  0  0  0  0
   -2.1024   -6.7472    0.0000 O   0  0  0  0  0  0
   -4.4759   -5.6905    0.0000 N   0  0  0  0  0  0
   -5.0860   -7.0608    0.0000 C   0  0  1  0  0  0
   -5.1906   -8.5571    0.0000 C   0  0  0  0  0  0
   -3.8425   -7.8996    0.0000 C   0  0  1  0  0  0
   -2.3461   -8.0042    0.0000 C   0  0  0  0  0  0
   -1.6885   -9.3524    0.0000 C   0  0  0  0  0  0
   -6.5415   -6.6979    0.0000 C   0  0  0  0  0  0
   -6.9549   -5.2560    0.0000 O   0  0  0  0  0  0
   -7.5834   -7.7769    0.0000 N   0  0  0  0  0  0
   -9.0389   -7.4140    0.0000 S   0  0  0  0  0  0
   -9.4018   -8.8695    0.0000 O   0  0  0  0  0  0
   -8.6760   -5.9586    0.0000 O   0  0  0  0  0  0
  -10.4943   -7.0511    0.0000 N   0  0  0  0  0  0
  -11.0562   -5.6604    0.0000 C   0  0  0  0  0  0
  -12.5526   -5.7650    0.0000 C   0  0  0  0  0  0
  -12.9155   -7.2204    0.0000 C   0  0  0  0  0  0
  -11.6434   -8.0153    0.0000 C   0  0  0  0  0  0
  1  2  1  0  0  0
  2  3  1  0  0  0
  2  4  1  0  0  0
  2  8  1  0  0  0
  4  5  1  0  0  0
  4  8  1  0  0  0
  4  7  1  0  0  0
  5  6  1  0  0  0
  6  7  1  0  0  0
  8  9  1  0  0  0
  8 12  1  6  0  0
  9 10  1  0  0  0
 10 11  1  0  0  0
 10 46  1  1  0  0
 11 12  1  0  0  0
 11 13  1  0  0  0
 13 14  2  0  0  0
 13 15  1  0  0  0
 15 16  1  0  0  0
 15 40  1  6  0  0
 16 17  1  0  0  0
 17 18  2  0  0  0
 17 19  1  0  0  0
 19 20  1  0  0  0
 19 34  1  0  0  0
 20 21  1  0  0  0
 21 22  2  0  0  0
 21 23  1  0  0  0
 23 24  1  0  0  0
 23 27  1  1  0  0
 24 25  1  0  0  0
 25 26  1  0  0  0
 26 27  1  0  0  0
 27 28  1  0  0  0
 28 29  2  0  0  0
 28 30  1  0  0  0
 30 31  1  0  0  0
 31 32  1  0  0  0
 32 33  1  0  0  0
 34 35  1  0  0  0
 34 39  1  0  0  0
 35 36  1  0  0  0
 36 37  1  0  0  0
 37 38  1  0  0  0
 38 39  1  0  0  0
 40 41  1  0  0  0
 40 45  1  0  0  0
 41 42  1  0  0  0
 42 43  1  0  0  0
 43 44  1  0  0  0
 44 45  1  0  0  0
 46 47  2  0  0  0
 46 48  1  0  0  0
 48 49  1  0  0  0
 49 50  1  0  0  0
 49 54  1  0  0  0
 49 51  1  1  0  0
 50 51  1  0  0  0
 51 52  1  6  0  0
 52 53  2  0  0  0
 54 55  2  0  0  0
 54 56  1  0  0  0
 56 57  1  0  0  0
 57 58  2  0  0  0
 57 59  2  0  0  0
 57 60  1  0  0  0
 60 61  1  0  0  0
 60 64  1  0  0  0
 61 62  1  0  0  0
 62 63  1  0  0  0
 63 64  1  0  0  0
M  END
> <s_m_entry_id>
6717

> <s_m_entry_name>
NS3-4A.258

> <CHEMBLID>
CHEMBL3639445

> <s_m_Source_Path>
/home/liwei/Desktop/Machine/HCV/Active

> <s_m_Source_File>
NS3-4A.sdf

> <i_m_Source_File_Index>
258

$$$$
CHEMBL3639446
                    3D
 Structure written by MMmdl.
 59 65  0  0  1  0            999 V2000
   -8.3400   -5.6496    0.0000 C   0  0  0  0  0  0
   -6.8483   -5.8064    0.0000 N   0  0  0  0  0  0
   -5.9666   -4.5929    0.0000 C   0  0  0  0  0  0
   -6.5767   -3.2226    0.0000 C   0  0  0  0  0  0
   -5.6950   -2.0091    0.0000 C   0  0  0  0  0  0
   -4.2032   -2.1659    0.0000 C   0  0  0  0  0  0
   -3.5931   -3.5362    0.0000 C   0  0  0  0  0  0
   -4.4748   -4.7497    0.0000 C   0  0  0  0  0  0
   -3.8647   -6.1200    0.0000 C   0  0  0  0  0  0
   -4.7464   -7.3335    0.0000 O   0  0  0  0  0  0
   -2.3729   -6.2768    0.0000 N   0  0  0  0  0  0
   -1.7628   -7.6471    0.0000 C   0  0  1  0  0  0
   -2.6445   -8.8607    0.0000 C   0  0  0  0  0  0
   -4.1363   -8.7039    0.0000 C   0  0  0  0  0  0
   -5.0179   -9.9174    0.0000 C   0  0  0  0  0  0
   -4.4078  -11.2877    0.0000 C   0  0  0  0  0  0
   -2.9161  -11.4445    0.0000 C   0  0  0  0  0  0
   -2.0344  -10.2310    0.0000 C   0  0  0  0  0  0
   -0.2710   -7.8039    0.0000 C   0  0  0  0  0  0
    0.3391   -9.1742    0.0000 O   0  0  0  0  0  0
    0.6107   -6.5904    0.0000 N   0  0  0  0  0  0
    2.1024   -6.7472    0.0000 C   0  0  2  0  0  0
    2.9841   -5.5337    0.0000 C   0  0  0  0  0  0
    4.4759   -5.6905    0.0000 O   0  0  0  0  0  0
    2.3740   -4.1633    0.0000 N   0  0  0  0  0  0
    0.9068   -3.8515    0.0000 C   0  0  0  0  0  0
    0.7500   -2.3597    0.0000 C   0  0  1  0  0  0
    2.1203   -1.7496    0.0000 C   0  0  0  0  0  0
    3.1240   -2.8643    0.0000 C   0  0  1  0  0  0
    4.6158   -2.7075    0.0000 C   0  0  0  0  0  0
    5.2259   -1.3372    0.0000 O   0  0  0  0  0  0
    5.4975   -3.9210    0.0000 N   0  0  0  0  0  0
    6.9893   -3.7643    0.0000 C   0  0  1  0  0  0
    8.3374   -3.1067    0.0000 C   0  0  0  0  0  0
    7.0939   -2.2679    0.0000 C   0  0  1  0  0  0
    6.4363   -0.9197    0.0000 C   0  0  0  0  0  0
    7.2751    0.3238    0.0000 C   0  0  0  0  0  0
    7.4027   -5.2061    0.0000 C   0  0  0  0  0  0
    6.3607   -6.2852    0.0000 O   0  0  0  0  0  0
    8.8582   -5.5690    0.0000 N   0  0  0  0  0  0
    9.2716   -7.0109    0.0000 S   0  0  0  0  0  0
   10.7135   -6.5975    0.0000 O   0  0  0  0  0  0
    7.8297   -7.4244    0.0000 O   0  0  0  0  0  0
    9.6851   -8.4528    0.0000 N   0  0  0  0  0  0
    8.7616   -9.6348    0.0000 C   0  0  0  0  0  0
    9.6004  -10.8784    0.0000 C   0  0  0  0  0  0
   11.0423  -10.4649    0.0000 C   0  0  0  0  0  0
   11.0946   -8.9658    0.0000 C   0  0  0  0  0  0
   -0.7500   -2.3597    0.0000 C   0  0  0  0  0  0
   -1.0105   -3.8369    0.0000 C   0  0  0  0  0  0
   -2.1595   -1.8467    0.0000 C   0  0  0  0  0  0
   -0.0000   -1.0607    0.0000 C   0  0  0  0  0  0
    1.0607    0.0000    0.0000 C   0  0  0  0  0  0
    0.0000    1.0607    0.0000 C   0  0  0  0  0  0
   -1.0607    0.0000    0.0000 C   0  0  0  0  0  0
    2.7125   -8.1175    0.0000 C   0  0  0  0  0  0
    1.3422   -8.7276    0.0000 C   0  0  0  0  0  0
    4.0829   -7.5074    0.0000 C   0  0  0  0  0  0
    3.3227   -9.4878    0.0000 C   0  0  0  0  0  0
  1  2  1  0  0  0
  2  3  1  0  0  0
  3  4  2  0  0  0
  3  8  1  0  0  0
  4  5  1  0  0  0
  5  6  2  0  0  0
  6  7  1  0  0  0
  7  8  2  0  0  0
  8  9  1  0  0  0
  9 10  2  0  0  0
  9 11  1  0  0  0
 11 12  1  0  0  0
 12 13  1  0  0  0
 12 19  1  6  0  0
 13 14  1  0  0  0
 13 18  1  0  0  0
 14 15  1  0  0  0
 15 16  1  0  0  0
 16 17  1  0  0  0
 17 18  1  0  0  0
 19 20  2  0  0  0
 19 21  1  0  0  0
 21 22  1  0  0  0
 22 23  1  0  0  0
 22 56  1  1  0  0
 23 24  2  0  0  0
 23 25  1  0  0  0
 25 26  1  0  0  0
 25 29  1  0  0  0
 26 27  1  0  0  0
 27 28  1  0  0  0
 27 49  1  0  0  0
 27 52  1  1  0  0
 28 29  1  0  0  0
 29 30  1  6  0  0
 30 31  2  0  0  0
 30 32  1  0  0  0
 32 33  1  0  0  0
 33 34  1  0  0  0
 33 38  1  0  0  0
 33 35  1  1  0  0
 34 35  1  0  0  0
 35 36  1  6  0  0
 36 37  2  0  0  0
 38 39  2  0  0  0
 38 40  1  0  0  0
 40 41  1  0  0  0
 41 42  2  0  0  0
 41 43  2  0  0  0
 41 44  1  0  0  0
 44 45  1  0  0  0
 44 48  1  0  0  0
 45 46  1  0  0  0
 46 47  1  0  0  0
 47 48  1  0  0  0
 49 50  1  0  0  0
 49 51  1  0  0  0
 49 52  1  0  0  0
 52 53  1  0  0  0
 52 55  1  0  0  0
 53 54  1  0  0  0
 54 55  1  0  0  0
 56 57  1  0  0  0
 56 58  1  0  0  0
 56 59  1  0  0  0
M  END
> <s_m_entry_id>
6718

> <s_m_entry_name>
NS3-4A.259

> <CHEMBLID>
CHEMBL3639446

> <s_m_Source_Path>
/home/liwei/Desktop/Machine/HCV/Active

> <s_m_Source_File>
NS3-4A.sdf

> <i_m_Source_File_Index>
259

$$$$
CHEMBL3645575
                    3D
 Structure written by MMmdl.
 46 50  0  0  1  0            999 V2000
    3.3124    4.4406    0.0000 C   0  0  0  0  0  0
    4.6828    3.8305    0.0000 C   0  0  0  0  0  0
    6.0531    3.2204    0.0000 C   0  0  0  0  0  0
    5.2929    5.2008    0.0000 C   0  0  0  0  0  0
    4.0727    2.4602    0.0000 O   0  0  0  0  0  0
    4.9543    1.2466    0.0000 C   0  0  0  0  0  0
    6.4461    1.4034    0.0000 O   0  0  0  0  0  0
    4.3442   -0.1237    0.0000 N   0  0  0  0  0  0
    5.2259   -1.3372    0.0000 C   0  0  2  0  0  0
    4.6158   -2.7075    0.0000 C   0  0  0  0  0  0
    5.4975   -3.9210    0.0000 O   0  0  0  0  0  0
    3.1240   -2.8643    0.0000 N   0  0  0  0  0  0
    2.1203   -1.7496    0.0000 C   0  0  0  0  0  0
    0.7500   -2.3597    0.0000 C   0  0  1  0  0  0
    0.9068   -3.8515    0.0000 C   0  0  0  0  0  0
    2.3740   -4.1633    0.0000 C   0  0  1  0  0  0
    2.9841   -5.5337    0.0000 C   0  0  0  0  0  0
    4.4759   -5.6905    0.0000 O   0  0  0  0  0  0
    2.1024   -6.7472    0.0000 N   0  0  0  0  0  0
    2.7125   -8.1175    0.0000 C   0  0  1  0  0  0
    3.7545   -9.1965    0.0000 C   0  0  0  0  0  0
    4.1680   -7.7546    0.0000 C   0  0  1  0  0  0
    5.2470   -6.7126    0.0000 C   0  0  0  0  0  0
    6.6889   -7.1261    0.0000 C   0  0  0  0  0  0
    1.4690   -8.9563    0.0000 C   0  0  0  0  0  0
    0.1208   -8.2987    0.0000 O   0  0  0  0  0  0
    1.5736  -10.4526    0.0000 N   0  0  0  0  0  0
    0.3301  -11.2914    0.0000 S   0  0  0  0  0  0
    1.1689  -12.5350    0.0000 O   0  0  0  0  0  0
   -0.5087  -10.0479    0.0000 O   0  0  0  0  0  0
   -0.9135  -12.1302    0.0000 N   0  0  0  0  0  0
   -2.3230  -11.6172    0.0000 C   0  0  0  0  0  0
   -3.2465  -12.7992    0.0000 C   0  0  0  0  0  0
   -2.4077  -14.0428    0.0000 C   0  0  0  0  0  0
   -0.9658  -13.6293    0.0000 C   0  0  0  0  0  0
   -0.7500   -2.3597    0.0000 C   0  0  0  0  0  0
   -1.0105   -3.8369    0.0000 C   0  0  0  0  0  0
   -2.1595   -1.8467    0.0000 C   0  0  0  0  0  0
   -0.0000   -1.0607    0.0000 C   0  0  0  0  0  0
    1.0607    0.0000    0.0000 C   0  0  0  0  0  0
    0.0000    1.0607    0.0000 C   0  0  0  0  0  0
   -1.0607    0.0000    0.0000 C   0  0  0  0  0  0
    6.7177   -1.1804    0.0000 C   0  0  0  0  0  0
    6.5609    0.3114    0.0000 C   0  0  0  0  0  0
    6.8745   -2.6722    0.0000 C   0  0  0  0  0  0
    8.2095   -1.0236    0.0000 C   0  0  0  0  0  0
  1  2  1  0  0  0
  2  3  1  0  0  0
  2  4  1  0  0  0
  2  5  1  0  0  0
  5  6  1  0  0  0
  6  7  2  0  0  0
  6  8  1  0  0  0
  8  9  1  0  0  0
  9 10  1  0  0  0
  9 43  1  1  0  0
 10 11  2  0  0  0
 10 12  1  0  0  0
 12 13  1  0  0  0
 12 16  1  0  0  0
 13 14  1  0  0  0
 14 15  1  0  0  0
 14 36  1  0  0  0
 14 39  1  1  0  0
 15 16  1  0  0  0
 16 17  1  6  0  0
 17 18  2  0  0  0
 17 19  1  0  0  0
 19 20  1  0  0  0
 20 21  1  0  0  0
 20 25  1  0  0  0
 20 22  1  1  0  0
 21 22  1  0  0  0
 22 23  1  6  0  0
 23 24  2  0  0  0
 25 26  2  0  0  0
 25 27  1  0  0  0
 27 28  1  0  0  0
 28 29  2  0  0  0
 28 30  2  0  0  0
 28 31  1  0  0  0
 31 32  1  0  0  0
 31 35  1  0  0  0
 32 33  1  0  0  0
 33 34  1  0  0  0
 34 35  1  0  0  0
 36 37  1  0  0  0
 36 38  1  0  0  0
 36 39  1  0  0  0
 39 40  1  0  0  0
 39 42  1  0  0  0
 40 41  1  0  0  0
 41 42  1  0  0  0
 43 44  1  0  0  0
 43 45  1  0  0  0
 43 46  1  0  0  0
M  END
> <s_m_entry_id>
6719

> <s_m_entry_name>
NS3-4A.260

> <CHEMBLID>
CHEMBL3645575

> <s_m_Source_Path>
/home/liwei/Desktop/Machine/HCV/Active

> <s_m_Source_File>
NS3-4A.sdf

> <i_m_Source_File_Index>
260

$$$$
CHEMBL3645576
                    3D
 Structure written by MMmdl.
 54 58  0  0  1  0            999 V2000
   -1.8878    3.6920    0.0000 C   0  0  0  0  0  0
   -0.6743    4.5736    0.0000 C   0  0  0  0  0  0
    0.5393    5.4553    0.0000 C   0  0  0  0  0  0
   -1.5559    5.7872    0.0000 C   0  0  0  0  0  0
    0.2074    3.3601    0.0000 O   0  0  0  0  0  0
    1.6992    3.5169    0.0000 C   0  0  0  0  0  0
    2.3093    4.8872    0.0000 O   0  0  0  0  0  0
    2.5809    2.3034    0.0000 N   0  0  0  0  0  0
    4.0727    2.4602    0.0000 C   0  0  2  0  0  0
    4.9543    1.2466    0.0000 C   0  0  0  0  0  0
    6.4461    1.4034    0.0000 O   0  0  0  0  0  0
    4.3442   -0.1237    0.0000 N   0  0  0  0  0  0
    5.2259   -1.3372    0.0000 C   0  0  2  0  0  0
    4.6158   -2.7075    0.0000 C   0  0  0  0  0  0
    5.4975   -3.9210    0.0000 O   0  0  0  0  0  0
    3.1240   -2.8643    0.0000 N   0  0  0  0  0  0
    2.1203   -1.7496    0.0000 C   0  0  0  0  0  0
    0.7500   -2.3597    0.0000 C   0  0  1  0  0  0
    0.9068   -3.8515    0.0000 C   0  0  0  0  0  0
    2.3740   -4.1633    0.0000 C   0  0  1  0  0  0
    2.9841   -5.5337    0.0000 C   0  0  0  0  0  0
    4.4759   -5.6905    0.0000 O   0  0  0  0  0  0
    2.1024   -6.7472    0.0000 N   0  0  0  0  0  0
    2.7125   -8.1175    0.0000 C   0  0  1  0  0  0
    3.7545   -9.1965    0.0000 C   0  0  0  0  0  0
    4.1680   -7.7546    0.0000 C   0  0  1  0  0  0
    5.2470   -6.7126    0.0000 C   0  0  0  0  0  0
    6.6889   -7.1261    0.0000 C   0  0  0  0  0  0
    1.4690   -8.9563    0.0000 C   0  0  0  0  0  0
    0.1208   -8.2987    0.0000 O   0  0  0  0  0  0
    1.5736  -10.4526    0.0000 N   0  0  0  0  0  0
    0.3301  -11.2914    0.0000 S   0  0  0  0  0  0
    1.1689  -12.5350    0.0000 O   0  0  0  0  0  0
   -0.5087  -10.0479    0.0000 O   0  0  0  0  0  0
   -0.9135  -12.1302    0.0000 N   0  0  0  0  0  0
   -2.3230  -11.6172    0.0000 C   0  0  0  0  0  0
   -3.2465  -12.7992    0.0000 C   0  0  0  0  0  0
   -2.4077  -14.0428    0.0000 C   0  0  0  0  0  0
   -0.9658  -13.6293    0.0000 C   0  0  0  0  0  0
   -0.7500   -2.3597    0.0000 C   0  0  0  0  0  0
   -1.0105   -3.8369    0.0000 C   0  0  0  0  0  0
   -2.1595   -1.8467    0.0000 C   0  0  0  0  0  0
   -0.0000   -1.0607    0.0000 C   0  0  0  0  0  0
    1.0607    0.0000    0.0000 C   0  0  0  0  0  0
    0.0000    1.0607    0.0000 C   0  0  0  0  0  0
   -1.0607    0.0000    0.0000 C   0  0  0  0  0  0
    6.7177   -1.1804    0.0000 C   0  0  0  0  0  0
    6.5609    0.3114    0.0000 C   0  0  0  0  0  0
    6.8745   -2.6722    0.0000 C   0  0  0  0  0  0
    8.2095   -1.0236    0.0000 C   0  0  0  0  0  0
    4.6828    3.8305    0.0000 C   0  0  0  0  0  0
    3.3124    4.4406    0.0000 C   0  0  0  0  0  0
    6.0531    3.2204    0.0000 C   0  0  0  0  0  0
    5.2929    5.2008    0.0000 C   0  0  0  0  0  0
  1  2  1  0  0  0
  2  3  1  0  0  0
  2  4  1  0  0  0
  2  5  1  0  0  0
  5  6  1  0  0  0
  6  7  2  0  0  0
  6  8  1  0  0  0
  8  9  1  0  0  0
  9 10  1  0  0  0
  9 51  1  1  0  0
 10 11  2  0  0  0
 10 12  1  0  0  0
 12 13  1  0  0  0
 13 14  1  0  0  0
 13 47  1  1  0  0
 14 15  2  0  0  0
 14 16  1  0  0  0
 16 17  1  0  0  0
 16 20  1  0  0  0
 17 18  1  0  0  0
 18 19  1  0  0  0
 18 40  1  0  0  0
 18 43  1  1  0  0
 19 20  1  0  0  0
 20 21  1  6  0  0
 21 22  2  0  0  0
 21 23  1  0  0  0
 23 24  1  0  0  0
 24 25  1  0  0  0
 24 29  1  0  0  0
 24 26  1  1  0  0
 25 26  1  0  0  0
 26 27  1  6  0  0
 27 28  2  0  0  0
 29 30  2  0  0  0
 29 31  1  0  0  0
 31 32  1  0  0  0
 32 33  2  0  0  0
 32 34  2  0  0  0
 32 35  1  0  0  0
 35 36  1  0  0  0
 35 39  1  0  0  0
 36 37  1  0  0  0
 37 38  1  0  0  0
 38 39  1  0  0  0
 40 41  1  0  0  0
 40 42  1  0  0  0
 40 43  1  0  0  0
 43 44  1  0  0  0
 43 46  1  0  0  0
 44 45  1  0  0  0
 45 46  1  0  0  0
 47 48  1  0  0  0
 47 49  1  0  0  0
 47 50  1  0  0  0
 51 52  1  0  0  0
 51 53  1  0  0  0
 51 54  1  0  0  0
M  END
> <s_m_entry_id>
6720

> <s_m_entry_name>
NS3-4A.261

> <CHEMBLID>
CHEMBL3645576

> <s_m_Source_Path>
/home/liwei/Desktop/Machine/HCV/Active

> <s_m_Source_File>
NS3-4A.sdf

> <i_m_Source_File_Index>
261

$$$$
CHEMBL3645577
                    3D
 Structure written by MMmdl.
 58 63  0  0  1  0            999 V2000
   -8.3400   -5.6496    0.0000 C   0  0  0  0  0  0
   -6.8483   -5.8064    0.0000 C   0  0  0  0  0  0
   -6.2382   -7.1768    0.0000 C   0  0  0  0  0  0
   -5.9666   -4.5929    0.0000 N   0  0  0  0  0  0
   -6.5767   -3.2226    0.0000 C   0  0  0  0  0  0
   -5.6950   -2.0091    0.0000 C   0  0  0  0  0  0
   -4.2032   -2.1659    0.0000 C   0  0  0  0  0  0
   -3.5931   -3.5362    0.0000 C   0  0  0  0  0  0
   -4.4748   -4.7497    0.0000 C   0  0  1  0  0  0
   -3.8647   -6.1200    0.0000 C   0  0  0  0  0  0
   -4.7464   -7.3335    0.0000 O   0  0  0  0  0  0
   -2.3729   -6.2768    0.0000 N   0  0  0  0  0  0
   -1.7628   -7.6471    0.0000 C   0  0  2  0  0  0
   -0.2710   -7.8039    0.0000 C   0  0  0  0  0  0
    0.3391   -9.1742    0.0000 O   0  0  0  0  0  0
    0.6107   -6.5904    0.0000 N   0  0  0  0  0  0
    2.1024   -6.7472    0.0000 C   0  0  2  0  0  0
    2.9841   -5.5337    0.0000 C   0  0  0  0  0  0
    4.4759   -5.6905    0.0000 O   0  0  0  0  0  0
    2.3740   -4.1633    0.0000 N   0  0  0  0  0  0
    0.9068   -3.8515    0.0000 C   0  0  0  0  0  0
    0.7500   -2.3597    0.0000 C   0  0  1  0  0  0
    2.1203   -1.7496    0.0000 C   0  0  0  0  0  0
    3.1240   -2.8643    0.0000 C   0  0  1  0  0  0
    4.6158   -2.7075    0.0000 C   0  0  0  0  0  0
    5.2259   -1.3372    0.0000 O   0  0  0  0  0  0
    5.4975   -3.9210    0.0000 N   0  0  0  0  0  0
    6.9893   -3.7643    0.0000 C   0  0  1  0  0  0
    8.3374   -3.1067    0.0000 C   0  0  0  0  0  0
    7.0939   -2.2679    0.0000 C   0  0  1  0  0  0
    6.4363   -0.9197    0.0000 C   0  0  0  0  0  0
    7.2751    0.3238    0.0000 C   0  0  0  0  0  0
    7.4027   -5.2061    0.0000 C   0  0  0  0  0  0
    6.3607   -6.2852    0.0000 O   0  0  0  0  0  0
    8.8582   -5.5690    0.0000 N   0  0  0  0  0  0
    9.2716   -7.0109    0.0000 S   0  0  0  0  0  0
   10.7135   -6.5975    0.0000 O   0  0  0  0  0  0
    7.8297   -7.4244    0.0000 O   0  0  0  0  0  0
    9.6851   -8.4528    0.0000 N   0  0  0  0  0  0
    8.7616   -9.6348    0.0000 C   0  0  0  0  0  0
    9.6004  -10.8784    0.0000 C   0  0  0  0  0  0
   11.0423  -10.4649    0.0000 C   0  0  0  0  0  0
   11.0946   -8.9658    0.0000 C   0  0  0  0  0  0
   -0.7500   -2.3597    0.0000 C   0  0  0  0  0  0
   -1.0105   -3.8369    0.0000 C   0  0  0  0  0  0
   -2.1595   -1.8467    0.0000 C   0  0  0  0  0  0
   -0.0000   -1.0607    0.0000 C   0  0  0  0  0  0
    1.0607    0.0000    0.0000 C   0  0  0  0  0  0
    0.0000    1.0607    0.0000 C   0  0  0  0  0  0
   -1.0607    0.0000    0.0000 C   0  0  0  0  0  0
    2.7125   -8.1175    0.0000 C   0  0  0  0  0  0
    1.3422   -8.7276    0.0000 C   0  0  0  0  0  0
    4.0829   -7.5074    0.0000 C   0  0  0  0  0  0
    3.3227   -9.4878    0.0000 C   0  0  0  0  0  0
   -2.6445   -8.8607    0.0000 C   0  0  0  0  0  0
   -3.8580   -7.9790    0.0000 C   0  0  0  0  0  0
   -1.4310   -9.7423    0.0000 C   0  0  0  0  0  0
   -3.5262  -10.0742    0.0000 C   0  0  0  0  0  0
  1  2  1  0  0  0
  2  3  1  0  0  0
  2  4  1  0  0  0
  4  5  1  0  0  0
  4  9  1  0  0  0
  5  6  1  0  0  0
  6  7  1  0  0  0
  7  8  1  0  0  0
  8  9  1  0  0  0
  9 10  1  6  0  0
 10 11  2  0  0  0
 10 12  1  0  0  0
 12 13  1  0  0  0
 13 14  1  0  0  0
 13 55  1  1  0  0
 14 15  2  0  0  0
 14 16  1  0  0  0
 16 17  1  0  0  0
 17 18  1  0  0  0
 17 51  1  1  0  0
 18 19  2  0  0  0
 18 20  1  0  0  0
 20 21  1  0  0  0
 20 24  1  0  0  0
 21 22  1  0  0  0
 22 23  1  0  0  0
 22 44  1  0  0  0
 22 47  1  1  0  0
 23 24  1  0  0  0
 24 25  1  6  0  0
 25 26  2  0  0  0
 25 27  1  0  0  0
 27 28  1  0  0  0
 28 29  1  0  0  0
 28 33  1  0  0  0
 28 30  1  1  0  0
 29 30  1  0  0  0
 30 31  1  6  0  0
 31 32  2  0  0  0
 33 34  2  0  0  0
 33 35  1  0  0  0
 35 36  1  0  0  0
 36 37  2  0  0  0
 36 38  2  0  0  0
 36 39  1  0  0  0
 39 40  1  0  0  0
 39 43  1  0  0  0
 40 41  1  0  0  0
 41 42  1  0  0  0
 42 43  1  0  0  0
 44 45  1  0  0  0
 44 46  1  0  0  0
 44 47  1  0  0  0
 47 48  1  0  0  0
 47 50  1  0  0  0
 48 49  1  0  0  0
 49 50  1  0  0  0
 51 52  1  0  0  0
 51 53  1  0  0  0
 51 54  1  0  0  0
 55 56  1  0  0  0
 55 57  1  0  0  0
 55 58  1  0  0  0
M  END
> <s_m_entry_id>
6721

> <s_m_entry_name>
NS3-4A.262

> <CHEMBLID>
CHEMBL3645577

> <s_m_Source_Path>
/home/liwei/Desktop/Machine/HCV/Active

> <s_m_Source_File>
NS3-4A.sdf

> <i_m_Source_File_Index>
262

$$$$
CHEMBL3645578
                    3D
 Structure written by MMmdl.
 57 62  0  0  1  0            999 V2000
   -8.6786   -1.6955    0.0000 C   0  0  0  0  0  0
   -8.0685   -3.0658    0.0000 C   0  0  0  0  0  0
   -6.5767   -3.2226    0.0000 N   0  0  0  0  0  0
   -5.6950   -2.0091    0.0000 C   0  0  0  0  0  0
   -4.2032   -2.1659    0.0000 C   0  0  0  0  0  0
   -3.5931   -3.5362    0.0000 C   0  0  0  0  0  0
   -4.4748   -4.7497    0.0000 C   0  0  2  0  0  0
   -5.9666   -4.5929    0.0000 C   0  0  0  0  0  0
   -3.8647   -6.1200    0.0000 C   0  0  0  0  0  0
   -4.7464   -7.3335    0.0000 O   0  0  0  0  0  0
   -2.3729   -6.2768    0.0000 N   0  0  0  0  0  0
   -1.7628   -7.6471    0.0000 C   0  0  2  0  0  0
   -0.2710   -7.8039    0.0000 C   0  0  0  0  0  0
    0.3391   -9.1742    0.0000 O   0  0  0  0  0  0
    0.6107   -6.5904    0.0000 N   0  0  0  0  0  0
    2.1024   -6.7472    0.0000 C   0  0  2  0  0  0
    2.9841   -5.5337    0.0000 C   0  0  0  0  0  0
    4.4759   -5.6905    0.0000 O   0  0  0  0  0  0
    2.3740   -4.1633    0.0000 N   0  0  0  0  0  0
    0.9068   -3.8515    0.0000 C   0  0  0  0  0  0
    0.7500   -2.3597    0.0000 C   0  0  1  0  0  0
    2.1203   -1.7496    0.0000 C   0  0  0  0  0  0
    3.1240   -2.8643    0.0000 C   0  0  1  0  0  0
    4.6158   -2.7075    0.0000 C   0  0  0  0  0  0
    5.2259   -1.3372    0.0000 O   0  0  0  0  0  0
    5.4975   -3.9210    0.0000 N   0  0  0  0  0  0
    6.9893   -3.7643    0.0000 C   0  0  1  0  0  0
    8.3374   -3.1067    0.0000 C   0  0  0  0  0  0
    7.0939   -2.2679    0.0000 C   0  0  1  0  0  0
    6.4363   -0.9197    0.0000 C   0  0  0  0  0  0
    7.2751    0.3238    0.0000 C   0  0  0  0  0  0
    7.4027   -5.2061    0.0000 C   0  0  0  0  0  0
    6.3607   -6.2852    0.0000 O   0  0  0  0  0  0
    8.8582   -5.5690    0.0000 N   0  0  0  0  0  0
    9.2716   -7.0109    0.0000 S   0  0  0  0  0  0
   10.7135   -6.5975    0.0000 O   0  0  0  0  0  0
    7.8297   -7.4244    0.0000 O   0  0  0  0  0  0
    9.6851   -8.4528    0.0000 N   0  0  0  0  0  0
    8.7616   -9.6348    0.0000 C   0  0  0  0  0  0
    9.6004  -10.8784    0.0000 C   0  0  0  0  0  0
   11.0423  -10.4649    0.0000 C   0  0  0  0  0  0
   11.0946   -8.9658    0.0000 C   0  0  0  0  0  0
   -0.7500   -2.3597    0.0000 C   0  0  0  0  0  0
   -1.0105   -3.8369    0.0000 C   0  0  0  0  0  0
   -2.1595   -1.8467    0.0000 C   0  0  0  0  0  0
   -0.0000   -1.0607    0.0000 C   0  0  0  0  0  0
    1.0607    0.0000    0.0000 C   0  0  0  0  0  0
    0.0000    1.0607    0.0000 C   0  0  0  0  0  0
   -1.0607    0.0000    0.0000 C   0  0  0  0  0  0
    2.7125   -8.1175    0.0000 C   0  0  0  0  0  0
    1.3422   -8.7276    0.0000 C   0  0  0  0  0  0
    4.0829   -7.5074    0.0000 C   0  0  0  0  0  0
    3.3227   -9.4878    0.0000 C   0  0  0  0  0  0
   -2.6445   -8.8607    0.0000 C   0  0  0  0  0  0
   -3.8580   -7.9790    0.0000 C   0  0  0  0  0  0
   -1.4310   -9.7423    0.0000 C   0  0  0  0  0  0
   -3.5262  -10.0742    0.0000 C   0  0  0  0  0  0
  1  2  1  0  0  0
  2  3  1  0  0  0
  3  4  1  0  0  0
  3  8  1  0  0  0
  4  5  1  0  0  0
  5  6  1  0  0  0
  6  7  1  0  0  0
  7  8  1  0  0  0
  7  9  1  6  0  0
  9 10  2  0  0  0
  9 11  1  0  0  0
 11 12  1  0  0  0
 12 13  1  0  0  0
 12 54  1  1  0  0
 13 14  2  0  0  0
 13 15  1  0  0  0
 15 16  1  0  0  0
 16 17  1  0  0  0
 16 50  1  1  0  0
 17 18  2  0  0  0
 17 19  1  0  0  0
 19 20  1  0  0  0
 19 23  1  0  0  0
 20 21  1  0  0  0
 21 22  1  0  0  0
 21 43  1  0  0  0
 21 46  1  1  0  0
 22 23  1  0  0  0
 23 24  1  6  0  0
 24 25  2  0  0  0
 24 26  1  0  0  0
 26 27  1  0  0  0
 27 28  1  0  0  0
 27 32  1  0  0  0
 27 29  1  1  0  0
 28 29  1  0  0  0
 29 30  1  6  0  0
 30 31  2  0  0  0
 32 33  2  0  0  0
 32 34  1  0  0  0
 34 35  1  0  0  0
 35 36  2  0  0  0
 35 37  2  0  0  0
 35 38  1  0  0  0
 38 39  1  0  0  0
 38 42  1  0  0  0
 39 40  1  0  0  0
 40 41  1  0  0  0
 41 42  1  0  0  0
 43 44  1  0  0  0
 43 45  1  0  0  0
 43 46  1  0  0  0
 46 47  1  0  0  0
 46 49  1  0  0  0
 47 48  1  0  0  0
 48 49  1  0  0  0
 50 51  1  0  0  0
 50 52  1  0  0  0
 50 53  1  0  0  0
 54 55  1  0  0  0
 54 56  1  0  0  0
 54 57  1  0  0  0
M  END
> <s_m_entry_id>
6722

> <s_m_entry_name>
NS3-4A.263

> <CHEMBLID>
CHEMBL3645578

> <s_m_Source_Path>
/home/liwei/Desktop/Machine/HCV/Active

> <s_m_Source_File>
NS3-4A.sdf

> <i_m_Source_File_Index>
263

$$$$
CHEMBL3645579
                    3D
 Structure written by MMmdl.
 55 59  0  0  1  0            999 V2000
   -1.8878    3.6920    0.0000 C   0  0  0  0  0  0
   -0.6743    4.5736    0.0000 C   0  0  0  0  0  0
    0.5393    5.4553    0.0000 C   0  0  0  0  0  0
   -1.5559    5.7872    0.0000 C   0  0  0  0  0  0
    0.2074    3.3601    0.0000 O   0  0  0  0  0  0
    1.6992    3.5169    0.0000 C   0  0  0  0  0  0
    2.3093    4.8872    0.0000 O   0  0  0  0  0  0
    2.5809    2.3034    0.0000 N   0  0  0  0  0  0
    4.0727    2.4602    0.0000 C   0  0  2  0  0  0
    4.9543    1.2466    0.0000 C   0  0  0  0  0  0
    6.4461    1.4034    0.0000 O   0  0  0  0  0  0
    4.3442   -0.1237    0.0000 N   0  0  0  0  0  0
    5.2259   -1.3372    0.0000 C   0  0  2  0  0  0
    4.6158   -2.7075    0.0000 C   0  0  0  0  0  0
    5.4975   -3.9210    0.0000 O   0  0  0  0  0  0
    3.1240   -2.8643    0.0000 N   0  0  0  0  0  0
    2.1203   -1.7496    0.0000 C   0  0  0  0  0  0
    0.7500   -2.3597    0.0000 C   0  0  1  0  0  0
    0.9068   -3.8515    0.0000 C   0  0  0  0  0  0
    2.3740   -4.1633    0.0000 C   0  0  1  0  0  0
    2.9841   -5.5337    0.0000 C   0  0  0  0  0  0
    4.4759   -5.6905    0.0000 O   0  0  0  0  0  0
    2.1024   -6.7472    0.0000 N   0  0  0  0  0  0
    2.7125   -8.1175    0.0000 C   0  0  1  0  0  0
    3.7545   -9.1965    0.0000 C   0  0  0  0  0  0
    4.1680   -7.7546    0.0000 C   0  0  1  0  0  0
    5.2470   -6.7126    0.0000 C   0  0  0  0  0  0
    6.6889   -7.1261    0.0000 C   0  0  0  0  0  0
    1.4690   -8.9563    0.0000 C   0  0  0  0  0  0
    0.1208   -8.2987    0.0000 O   0  0  0  0  0  0
    1.5736  -10.4526    0.0000 N   0  0  0  0  0  0
    0.3301  -11.2914    0.0000 S   0  0  0  0  0  0
    1.1689  -12.5350    0.0000 O   0  0  0  0  0  0
   -0.5087  -10.0479    0.0000 O   0  0  0  0  0  0
   -0.9135  -12.1302    0.0000 N   0  0  0  0  0  0
   -0.8089  -13.6266    0.0000 C   0  0  0  0  0  0
   -2.0524  -14.4654    0.0000 C   0  0  0  0  0  0
   -3.4006  -13.8078    0.0000 O   0  0  0  0  0  0
   -3.5052  -12.3115    0.0000 C   0  0  0  0  0  0
   -2.2617  -11.4727    0.0000 C   0  0  0  0  0  0
   -0.7500   -2.3597    0.0000 C   0  0  0  0  0  0
   -1.0105   -3.8369    0.0000 C   0  0  0  0  0  0
   -2.1595   -1.8467    0.0000 C   0  0  0  0  0  0
   -0.0000   -1.0607    0.0000 C   0  0  0  0  0  0
    1.0607    0.0000    0.0000 C   0  0  0  0  0  0
    0.0000    1.0607    0.0000 C   0  0  0  0  0  0
   -1.0607    0.0000    0.0000 C   0  0  0  0  0  0
    6.7177   -1.1804    0.0000 C   0  0  0  0  0  0
    6.5609    0.3114    0.0000 C   0  0  0  0  0  0
    6.8745   -2.6722    0.0000 C   0  0  0  0  0  0
    8.2095   -1.0236    0.0000 C   0  0  0  0  0  0
    4.6828    3.8305    0.0000 C   0  0  0  0  0  0
    3.3124    4.4406    0.0000 C   0  0  0  0  0  0
    6.0531    3.2204    0.0000 C   0  0  0  0  0  0
    5.2929    5.2008    0.0000 C   0  0  0  0  0  0
  1  2  1  0  0  0
  2  3  1  0  0  0
  2  4  1  0  0  0
  2  5  1  0  0  0
  5  6  1  0  0  0
  6  7  2  0  0  0
  6  8  1  0  0  0
  8  9  1  0  0  0
  9 10  1  0  0  0
  9 52  1  1  0  0
 10 11  2  0  0  0
 10 12  1  0  0  0
 12 13  1  0  0  0
 13 14  1  0  0  0
 13 48  1  1  0  0
 14 15  2  0  0  0
 14 16  1  0  0  0
 16 17  1  0  0  0
 16 20  1  0  0  0
 17 18  1  0  0  0
 18 19  1  0  0  0
 18 41  1  0  0  0
 18 44  1  1  0  0
 19 20  1  0  0  0
 20 21  1  6  0  0
 21 22  2  0  0  0
 21 23  1  0  0  0
 23 24  1  0  0  0
 24 25  1  0  0  0
 24 29  1  0  0  0
 24 26  1  1  0  0
 25 26  1  0  0  0
 26 27  1  6  0  0
 27 28  2  0  0  0
 29 30  2  0  0  0
 29 31  1  0  0  0
 31 32  1  0  0  0
 32 33  2  0  0  0
 32 34  2  0  0  0
 32 35  1  0  0  0
 35 36  1  0  0  0
 35 40  1  0  0  0
 36 37  1  0  0  0
 37 38  1  0  0  0
 38 39  1  0  0  0
 39 40  1  0  0  0
 41 42  1  0  0  0
 41 43  1  0  0  0
 41 44  1  0  0  0
 44 45  1  0  0  0
 44 47  1  0  0  0
 45 46  1  0  0  0
 46 47  1  0  0  0
 48 49  1  0  0  0
 48 50  1  0  0  0
 48 51  1  0  0  0
 52 53  1  0  0  0
 52 54  1  0  0  0
 52 55  1  0  0  0
M  END
> <s_m_entry_id>
6723

> <s_m_entry_name>
NS3-4A.264

> <CHEMBLID>
CHEMBL3645579

> <s_m_Source_Path>
/home/liwei/Desktop/Machine/HCV/Active

> <s_m_Source_File>
NS3-4A.sdf

> <i_m_Source_File_Index>
264

$$$$
CHEMBL3645580
                    3D
 Structure written by MMmdl.
 59 64  0  0  1  0            999 V2000
   -8.3400   -5.6496    0.0000 C   0  0  0  0  0  0
   -6.8483   -5.8064    0.0000 C   0  0  0  0  0  0
   -6.2382   -7.1768    0.0000 C   0  0  0  0  0  0
   -5.9666   -4.5929    0.0000 N   0  0  0  0  0  0
   -6.5767   -3.2226    0.0000 C   0  0  0  0  0  0
   -5.6950   -2.0091    0.0000 C   0  0  0  0  0  0
   -4.2032   -2.1659    0.0000 C   0  0  0  0  0  0
   -3.5931   -3.5362    0.0000 C   0  0  0  0  0  0
   -4.4748   -4.7497    0.0000 C   0  0  1  0  0  0
   -3.8647   -6.1200    0.0000 C   0  0  0  0  0  0
   -4.7464   -7.3335    0.0000 O   0  0  0  0  0  0
   -2.3729   -6.2768    0.0000 N   0  0  0  0  0  0
   -1.7628   -7.6471    0.0000 C   0  0  2  0  0  0
   -0.2710   -7.8039    0.0000 C   0  0  0  0  0  0
    0.3391   -9.1742    0.0000 O   0  0  0  0  0  0
    0.6107   -6.5904    0.0000 N   0  0  0  0  0  0
    2.1024   -6.7472    0.0000 C   0  0  2  0  0  0
    2.9841   -5.5337    0.0000 C   0  0  0  0  0  0
    4.4759   -5.6905    0.0000 O   0  0  0  0  0  0
    2.3740   -4.1633    0.0000 N   0  0  0  0  0  0
    0.9068   -3.8515    0.0000 C   0  0  0  0  0  0
    0.7500   -2.3597    0.0000 C   0  0  1  0  0  0
    2.1203   -1.7496    0.0000 C   0  0  0  0  0  0
    3.1240   -2.8643    0.0000 C   0  0  1  0  0  0
    4.6158   -2.7075    0.0000 C   0  0  0  0  0  0
    5.2259   -1.3372    0.0000 O   0  0  0  0  0  0
    5.4975   -3.9210    0.0000 N   0  0  0  0  0  0
    6.9893   -3.7643    0.0000 C   0  0  1  0  0  0
    8.3374   -3.1067    0.0000 C   0  0  0  0  0  0
    7.0939   -2.2679    0.0000 C   0  0  1  0  0  0
    6.4363   -0.9197    0.0000 C   0  0  0  0  0  0
    7.2751    0.3238    0.0000 C   0  0  0  0  0  0
    7.4027   -5.2061    0.0000 C   0  0  0  0  0  0
    6.3607   -6.2852    0.0000 O   0  0  0  0  0  0
    8.8582   -5.5690    0.0000 N   0  0  0  0  0  0
    9.2716   -7.0109    0.0000 S   0  0  0  0  0  0
   10.7135   -6.5975    0.0000 O   0  0  0  0  0  0
    7.8297   -7.4244    0.0000 O   0  0  0  0  0  0
    9.6851   -8.4528    0.0000 N   0  0  0  0  0  0
   11.1405   -8.8157    0.0000 C   0  0  0  0  0  0
   11.5540  -10.2576    0.0000 C   0  0  0  0  0  0
   10.5120  -11.3366    0.0000 O   0  0  0  0  0  0
    9.0565  -10.9737    0.0000 C   0  0  0  0  0  0
    8.6431   -9.5318    0.0000 C   0  0  0  0  0  0
   -0.7500   -2.3597    0.0000 C   0  0  0  0  0  0
   -1.0105   -3.8369    0.0000 C   0  0  0  0  0  0
   -2.1595   -1.8467    0.0000 C   0  0  0  0  0  0
   -0.0000   -1.0607    0.0000 C   0  0  0  0  0  0
    1.0607    0.0000    0.0000 C   0  0  0  0  0  0
    0.0000    1.0607    0.0000 C   0  0  0  0  0  0
   -1.0607    0.0000    0.0000 C   0  0  0  0  0  0
    2.7125   -8.1175    0.0000 C   0  0  0  0  0  0
    1.3422   -8.7276    0.0000 C   0  0  0  0  0  0
    4.0829   -7.5074    0.0000 C   0  0  0  0  0  0
    3.3227   -9.4878    0.0000 C   0  0  0  0  0  0
   -2.6445   -8.8607    0.0000 C   0  0  0  0  0  0
   -3.8580   -7.9790    0.0000 C   0  0  0  0  0  0
   -1.4310   -9.7423    0.0000 C   0  0  0  0  0  0
   -3.5262  -10.0742    0.0000 C   0  0  0  0  0  0
  1  2  1  0  0  0
  2  3  1  0  0  0
  2  4  1  0  0  0
  4  5  1  0  0  0
  4  9  1  0  0  0
  5  6  1  0  0  0
  6  7  1  0  0  0
  7  8  1  0  0  0
  8  9  1  0  0  0
  9 10  1  6  0  0
 10 11  2  0  0  0
 10 12  1  0  0  0
 12 13  1  0  0  0
 13 14  1  0  0  0
 13 56  1  1  0  0
 14 15  2  0  0  0
 14 16  1  0  0  0
 16 17  1  0  0  0
 17 18  1  0  0  0
 17 52  1  1  0  0
 18 19  2  0  0  0
 18 20  1  0  0  0
 20 21  1  0  0  0
 20 24  1  0  0  0
 21 22  1  0  0  0
 22 23  1  0  0  0
 22 45  1  0  0  0
 22 48  1  1  0  0
 23 24  1  0  0  0
 24 25  1  6  0  0
 25 26  2  0  0  0
 25 27  1  0  0  0
 27 28  1  0  0  0
 28 29  1  0  0  0
 28 33  1  0  0  0
 28 30  1  1  0  0
 29 30  1  0  0  0
 30 31  1  6  0  0
 31 32  2  0  0  0
 33 34  2  0  0  0
 33 35  1  0  0  0
 35 36  1  0  0  0
 36 37  2  0  0  0
 36 38  2  0  0  0
 36 39  1  0  0  0
 39 40  1  0  0  0
 39 44  1  0  0  0
 40 41  1  0  0  0
 41 42  1  0  0  0
 42 43  1  0  0  0
 43 44  1  0  0  0
 45 46  1  0  0  0
 45 47  1  0  0  0
 45 48  1  0  0  0
 48 49  1  0  0  0
 48 51  1  0  0  0
 49 50  1  0  0  0
 50 51  1  0  0  0
 52 53  1  0  0  0
 52 54  1  0  0  0
 52 55  1  0  0  0
 56 57  1  0  0  0
 56 58  1  0  0  0
 56 59  1  0  0  0
M  END
> <s_m_entry_id>
6724

> <s_m_entry_name>
NS3-4A.265

> <CHEMBLID>
CHEMBL3645580

> <s_m_Source_Path>
/home/liwei/Desktop/Machine/HCV/Active

> <s_m_Source_File>
NS3-4A.sdf

> <i_m_Source_File_Index>
265

$$$$
CHEMBL3645581
                    3D
 Structure written by MMmdl.
 58 63  0  0  1  0            999 V2000
   -8.6786   -1.6955    0.0000 C   0  0  0  0  0  0
   -8.0685   -3.0658    0.0000 C   0  0  0  0  0  0
   -6.5767   -3.2226    0.0000 N   0  0  0  0  0  0
   -5.6950   -2.0091    0.0000 C   0  0  0  0  0  0
   -4.2032   -2.1659    0.0000 C   0  0  0  0  0  0
   -3.5931   -3.5362    0.0000 C   0  0  0  0  0  0
   -4.4748   -4.7497    0.0000 C   0  0  2  0  0  0
   -5.9666   -4.5929    0.0000 C   0  0  0  0  0  0
   -3.8647   -6.1200    0.0000 C   0  0  0  0  0  0
   -4.7464   -7.3335    0.0000 O   0  0  0  0  0  0
   -2.3729   -6.2768    0.0000 N   0  0  0  0  0  0
   -1.7628   -7.6471    0.0000 C   0  0  2  0  0  0
   -0.2710   -7.8039    0.0000 C   0  0  0  0  0  0
    0.3391   -9.1742    0.0000 O   0  0  0  0  0  0
    0.6107   -6.5904    0.0000 N   0  0  0  0  0  0
    2.1024   -6.7472    0.0000 C   0  0  2  0  0  0
    2.9841   -5.5337    0.0000 C   0  0  0  0  0  0
    4.4759   -5.6905    0.0000 O   0  0  0  0  0  0
    2.3740   -4.1633    0.0000 N   0  0  0  0  0  0
    0.9068   -3.8515    0.0000 C   0  0  0  0  0  0
    0.7500   -2.3597    0.0000 C   0  0  1  0  0  0
    2.1203   -1.7496    0.0000 C   0  0  0  0  0  0
    3.1240   -2.8643    0.0000 C   0  0  1  0  0  0
    4.6158   -2.7075    0.0000 C   0  0  0  0  0  0
    5.2259   -1.3372    0.0000 O   0  0  0  0  0  0
    5.4975   -3.9210    0.0000 N   0  0  0  0  0  0
    6.9893   -3.7643    0.0000 C   0  0  1  0  0  0
    8.3374   -3.1067    0.0000 C   0  0  0  0  0  0
    7.0939   -2.2679    0.0000 C   0  0  1  0  0  0
    6.4363   -0.9197    0.0000 C   0  0  0  0  0  0
    7.2751    0.3238    0.0000 C   0  0  0  0  0  0
    7.4027   -5.2061    0.0000 C   0  0  0  0  0  0
    6.3607   -6.2852    0.0000 O   0  0  0  0  0  0
    8.8582   -5.5690    0.0000 N   0  0  0  0  0  0
    9.2716   -7.0109    0.0000 S   0  0  0  0  0  0
   10.7135   -6.5975    0.0000 O   0  0  0  0  0  0
    7.8297   -7.4244    0.0000 O   0  0  0  0  0  0
    9.6851   -8.4528    0.0000 N   0  0  0  0  0  0
   11.1405   -8.8157    0.0000 C   0  0  0  0  0  0
   11.5540  -10.2576    0.0000 C   0  0  0  0  0  0
   10.5120  -11.3366    0.0000 O   0  0  0  0  0  0
    9.0565  -10.9737    0.0000 C   0  0  0  0  0  0
    8.6431   -9.5318    0.0000 C   0  0  0  0  0  0
   -0.7500   -2.3597    0.0000 C   0  0  0  0  0  0
   -1.0105   -3.8369    0.0000 C   0  0  0  0  0  0
   -2.1595   -1.8467    0.0000 C   0  0  0  0  0  0
   -0.0000   -1.0607    0.0000 C   0  0  0  0  0  0
    1.0607    0.0000    0.0000 C   0  0  0  0  0  0
    0.0000    1.0607    0.0000 C   0  0  0  0  0  0
   -1.0607    0.0000    0.0000 C   0  0  0  0  0  0
    2.7125   -8.1175    0.0000 C   0  0  0  0  0  0
    1.3422   -8.7276    0.0000 C   0  0  0  0  0  0
    4.0829   -7.5074    0.0000 C   0  0  0  0  0  0
    3.3227   -9.4878    0.0000 C   0  0  0  0  0  0
   -2.6445   -8.8607    0.0000 C   0  0  0  0  0  0
   -3.8580   -7.9790    0.0000 C   0  0  0  0  0  0
   -1.4310   -9.7423    0.0000 C   0  0  0  0  0  0
   -3.5262  -10.0742    0.0000 C   0  0  0  0  0  0
  1  2  1  0  0  0
  2  3  1  0  0  0
  3  4  1  0  0  0
  3  8  1  0  0  0
  4  5  1  0  0  0
  5  6  1  0  0  0
  6  7  1  0  0  0
  7  8  1  0  0  0
  7  9  1  6  0  0
  9 10  2  0  0  0
  9 11  1  0  0  0
 11 12  1  0  0  0
 12 13  1  0  0  0
 12 55  1  1  0  0
 13 14  2  0  0  0
 13 15  1  0  0  0
 15 16  1  0  0  0
 16 17  1  0  0  0
 16 51  1  1  0  0
 17 18  2  0  0  0
 17 19  1  0  0  0
 19 20  1  0  0  0
 19 23  1  0  0  0
 20 21  1  0  0  0
 21 22  1  0  0  0
 21 44  1  0  0  0
 21 47  1  1  0  0
 22 23  1  0  0  0
 23 24  1  6  0  0
 24 25  2  0  0  0
 24 26  1  0  0  0
 26 27  1  0  0  0
 27 28  1  0  0  0
 27 32  1  0  0  0
 27 29  1  1  0  0
 28 29  1  0  0  0
 29 30  1  6  0  0
 30 31  2  0  0  0
 32 33  2  0  0  0
 32 34  1  0  0  0
 34 35  1  0  0  0
 35 36  2  0  0  0
 35 37  2  0  0  0
 35 38  1  0  0  0
 38 39  1  0  0  0
 38 43  1  0  0  0
 39 40  1  0  0  0
 40 41  1  0  0  0
 41 42  1  0  0  0
 42 43  1  0  0  0
 44 45  1  0  0  0
 44 46  1  0  0  0
 44 47  1  0  0  0
 47 48  1  0  0  0
 47 50  1  0  0  0
 48 49  1  0  0  0
 49 50  1  0  0  0
 51 52  1  0  0  0
 51 53  1  0  0  0
 51 54  1  0  0  0
 55 56  1  0  0  0
 55 57  1  0  0  0
 55 58  1  0  0  0
M  END
> <s_m_entry_id>
6725

> <s_m_entry_name>
NS3-4A.266

> <CHEMBLID>
CHEMBL3645581

> <s_m_Source_Path>
/home/liwei/Desktop/Machine/HCV/Active

> <s_m_Source_File>
NS3-4A.sdf

> <i_m_Source_File_Index>
266

$$$$
CHEMBL3645582
                    3D
 Structure written by MMmdl.
 59 64  0  0  1  0            999 V2000
   -3.8580   -7.9790    0.0000 C   0  0  0  0  0  0
   -2.6445   -8.8607    0.0000 C   0  0  0  0  0  0
   -1.4310   -9.7423    0.0000 C   0  0  0  0  0  0
   -3.5262  -10.0742    0.0000 C   0  0  0  0  0  0
   -1.7628   -7.6471    0.0000 C   0  0  2  0  0  0
   -2.3729   -6.2768    0.0000 N   0  0  0  0  0  0
   -3.8647   -6.1200    0.0000 C   0  0  0  0  0  0
   -4.7464   -7.3335    0.0000 O   0  0  0  0  0  0
   -4.4748   -4.7497    0.0000 C   0  0  2  0  0  0
   -3.5931   -3.5362    0.0000 C   0  0  0  0  0  0
   -4.2032   -2.1659    0.0000 C   0  0  0  0  0  0
   -5.6950   -2.0091    0.0000 C   0  0  0  0  0  0
   -6.5767   -3.2226    0.0000 C   0  0  0  0  0  0
   -5.9666   -4.5929    0.0000 N   0  0  0  0  0  0
   -6.8483   -5.8064    0.0000 C   0  0  0  0  0  0
   -8.3400   -5.6496    0.0000 C   0  0  0  0  0  0
   -9.2217   -6.8632    0.0000 F   0  0  0  0  0  0
   -0.2710   -7.8039    0.0000 C   0  0  0  0  0  0
    0.3391   -9.1742    0.0000 O   0  0  0  0  0  0
    0.6107   -6.5904    0.0000 N   0  0  0  0  0  0
    2.1024   -6.7472    0.0000 C   0  0  2  0  0  0
    2.9841   -5.5337    0.0000 C   0  0  0  0  0  0
    4.4759   -5.6905    0.0000 O   0  0  0  0  0  0
    2.3740   -4.1633    0.0000 N   0  0  0  0  0  0
    0.9068   -3.8515    0.0000 C   0  0  0  0  0  0
    0.7500   -2.3597    0.0000 C   0  0  1  0  0  0
    2.1203   -1.7496    0.0000 C   0  0  0  0  0  0
    3.1240   -2.8643    0.0000 C   0  0  1  0  0  0
    4.6158   -2.7075    0.0000 C   0  0  0  0  0  0
    5.2259   -1.3372    0.0000 O   0  0  0  0  0  0
    5.4975   -3.9210    0.0000 N   0  0  0  0  0  0
    6.9893   -3.7643    0.0000 C   0  0  1  0  0  0
    8.3374   -3.1067    0.0000 C   0  0  0  0  0  0
    7.0939   -2.2679    0.0000 C   0  0  1  0  0  0
    6.4363   -0.9197    0.0000 C   0  0  0  0  0  0
    7.2751    0.3238    0.0000 C   0  0  0  0  0  0
    7.4027   -5.2061    0.0000 C   0  0  0  0  0  0
    6.3607   -6.2852    0.0000 O   0  0  0  0  0  0
    8.8582   -5.5690    0.0000 N   0  0  0  0  0  0
    9.2716   -7.0109    0.0000 S   0  0  0  0  0  0
   10.7135   -6.5975    0.0000 O   0  0  0  0  0  0
    7.8297   -7.4244    0.0000 O   0  0  0  0  0  0
    9.6851   -8.4528    0.0000 N   0  0  0  0  0  0
   11.1405   -8.8157    0.0000 C   0  0  0  0  0  0
   11.5540  -10.2576    0.0000 C   0  0  0  0  0  0
   10.5120  -11.3366    0.0000 O   0  0  0  0  0  0
    9.0565  -10.9737    0.0000 C   0  0  0  0  0  0
    8.6431   -9.5318    0.0000 C   0  0  0  0  0  0
   -0.7500   -2.3597    0.0000 C   0  0  0  0  0  0
   -1.0105   -3.8369    0.0000 C   0  0  0  0  0  0
   -2.1595   -1.8467    0.0000 C   0  0  0  0  0  0
   -0.0000   -1.0607    0.0000 C   0  0  0  0  0  0
    1.0607    0.0000    0.0000 C   0  0  0  0  0  0
    0.0000    1.0607    0.0000 C   0  0  0  0  0  0
   -1.0607    0.0000    0.0000 C   0  0  0  0  0  0
    2.7125   -8.1175    0.0000 C   0  0  0  0  0  0
    1.3422   -8.7276    0.0000 C   0  0  0  0  0  0
    4.0829   -7.5074    0.0000 C   0  0  0  0  0  0
    3.3227   -9.4878    0.0000 C   0  0  0  0  0  0
  1  2  1  0  0  0
  2  3  1  0  0  0
  2  4  1  0  0  0
  2  5  1  0  0  0
  5  6  1  0  0  0
  5 18  1  1  0  0
  6  7  1  0  0  0
  7  8  2  0  0  0
  7  9  1  0  0  0
  9 10  1  0  0  0
  9 14  1  1  0  0
 10 11  1  0  0  0
 11 12  1  0  0  0
 12 13  1  0  0  0
 13 14  1  0  0  0
 14 15  1  0  0  0
 15 16  1  0  0  0
 16 17  1  0  0  0
 18 19  2  0  0  0
 18 20  1  0  0  0
 20 21  1  0  0  0
 21 22  1  0  0  0
 21 56  1  1  0  0
 22 23  2  0  0  0
 22 24  1  0  0  0
 24 25  1  0  0  0
 24 28  1  0  0  0
 25 26  1  0  0  0
 26 27  1  0  0  0
 26 49  1  0  0  0
 26 52  1  1  0  0
 27 28  1  0  0  0
 28 29  1  6  0  0
 29 30  2  0  0  0
 29 31  1  0  0  0
 31 32  1  0  0  0
 32 33  1  0  0  0
 32 37  1  0  0  0
 32 34  1  1  0  0
 33 34  1  0  0  0
 34 35  1  6  0  0
 35 36  2  0  0  0
 37 38  2  0  0  0
 37 39  1  0  0  0
 39 40  1  0  0  0
 40 41  2  0  0  0
 40 42  2  0  0  0
 40 43  1  0  0  0
 43 44  1  0  0  0
 43 48  1  0  0  0
 44 45  1  0  0  0
 45 46  1  0  0  0
 46 47  1  0  0  0
 47 48  1  0  0  0
 49 50  1  0  0  0
 49 51  1  0  0  0
 49 52  1  0  0  0
 52 53  1  0  0  0
 52 55  1  0  0  0
 53 54  1  0  0  0
 54 55  1  0  0  0
 56 57  1  0  0  0
 56 58  1  0  0  0
 56 59  1  0  0  0
M  END
> <s_m_entry_id>
6726

> <s_m_entry_name>
NS3-4A.267

> <CHEMBLID>
CHEMBL3645582

> <s_m_Source_Path>
/home/liwei/Desktop/Machine/HCV/Active

> <s_m_Source_File>
NS3-4A.sdf

> <i_m_Source_File_Index>
267

$$$$
CHEMBL3645583
                    3D
 Structure written by MMmdl.
 52 57  0  0  1  0            999 V2000
    1.3422   -8.7276    0.0000 C   0  0  0  0  0  0
    2.7125   -8.1175    0.0000 C   0  0  0  0  0  0
    4.0829   -7.5074    0.0000 C   0  0  0  0  0  0
    3.3227   -9.4878    0.0000 C   0  0  0  0  0  0
    2.1024   -6.7472    0.0000 C   0  0  2  0  0  0
    0.6107   -6.5904    0.0000 N   0  0  0  0  0  0
   -0.2710   -7.8039    0.0000 C   0  0  0  0  0  0
    0.3391   -9.1742    0.0000 O   0  0  0  0  0  0
   -1.7628   -7.6471    0.0000 C   0  0  1  0  0  0
   -2.3729   -6.2768    0.0000 N   0  0  0  0  0  0
   -3.8401   -5.9649    0.0000 C   0  0  0  0  0  0
   -3.9969   -4.4732    0.0000 C   0  0  0  0  0  0
   -2.6266   -3.8631    0.0000 C   0  0  0  0  0  0
   -1.6229   -4.9778    0.0000 C   0  0  0  0  0  0
   -0.1311   -4.8210    0.0000 O   0  0  0  0  0  0
   -2.6445   -8.8607    0.0000 C   0  0  0  0  0  0
   -3.8580   -7.9790    0.0000 C   0  0  0  0  0  0
   -1.4310   -9.7423    0.0000 C   0  0  0  0  0  0
   -3.5262  -10.0742    0.0000 C   0  0  0  0  0  0
    2.9841   -5.5337    0.0000 C   0  0  0  0  0  0
    4.4759   -5.6905    0.0000 O   0  0  0  0  0  0
    2.3740   -4.1633    0.0000 N   0  0  0  0  0  0
    0.9068   -3.8515    0.0000 C   0  0  0  0  0  0
    0.7500   -2.3597    0.0000 C   0  0  1  0  0  0
    2.1203   -1.7496    0.0000 C   0  0  0  0  0  0
    3.1240   -2.8643    0.0000 C   0  0  1  0  0  0
    4.6158   -2.7075    0.0000 C   0  0  0  0  0  0
    5.2259   -1.3372    0.0000 O   0  0  0  0  0  0
    5.4975   -3.9210    0.0000 N   0  0  0  0  0  0
    6.9893   -3.7643    0.0000 C   0  0  1  0  0  0
    8.3374   -3.1067    0.0000 C   0  0  0  0  0  0
    7.0939   -2.2679    0.0000 C   0  0  1  0  0  0
    6.4363   -0.9197    0.0000 C   0  0  0  0  0  0
    7.2751    0.3238    0.0000 C   0  0  0  0  0  0
    7.4027   -5.2061    0.0000 C   0  0  0  0  0  0
    6.3607   -6.2852    0.0000 O   0  0  0  0  0  0
    8.8582   -5.5690    0.0000 N   0  0  0  0  0  0
    9.2716   -7.0109    0.0000 S   0  0  0  0  0  0
   10.7135   -6.5975    0.0000 O   0  0  0  0  0  0
    7.8297   -7.4244    0.0000 O   0  0  0  0  0  0
    9.6851   -8.4528    0.0000 N   0  0  0  0  0  0
    8.7616   -9.6348    0.0000 C   0  0  0  0  0  0
    9.6004  -10.8784    0.0000 C   0  0  0  0  0  0
   11.0423  -10.4649    0.0000 C   0  0  0  0  0  0
   11.0946   -8.9658    0.0000 C   0  0  0  0  0  0
   -0.7500   -2.3597    0.0000 C   0  0  0  0  0  0
   -1.0105   -3.8369    0.0000 C   0  0  0  0  0  0
   -2.1595   -1.8467    0.0000 C   0  0  0  0  0  0
   -0.0000   -1.0607    0.0000 C   0  0  0  0  0  0
    1.0607    0.0000    0.0000 C   0  0  0  0  0  0
    0.0000    1.0607    0.0000 C   0  0  0  0  0  0
   -1.0607    0.0000    0.0000 C   0  0  0  0  0  0
  1  2  1  0  0  0
  2  3  1  0  0  0
  2  4  1  0  0  0
  2  5  1  0  0  0
  5  6  1  0  0  0
  5 20  1  1  0  0
  6  7  1  0  0  0
  7  8  2  0  0  0
  7  9  1  0  0  0
  9 10  1  0  0  0
  9 16  1  6  0  0
 10 11  1  0  0  0
 10 14  1  0  0  0
 11 12  1  0  0  0
 12 13  1  0  0  0
 13 14  1  0  0  0
 14 15  2  0  0  0
 16 17  1  0  0  0
 16 18  1  0  0  0
 16 19  1  0  0  0
 20 21  2  0  0  0
 20 22  1  0  0  0
 22 23  1  0  0  0
 22 26  1  0  0  0
 23 24  1  0  0  0
 24 25  1  0  0  0
 24 46  1  0  0  0
 24 49  1  1  0  0
 25 26  1  0  0  0
 26 27  1  6  0  0
 27 28  2  0  0  0
 27 29  1  0  0  0
 29 30  1  0  0  0
 30 31  1  0  0  0
 30 35  1  0  0  0
 30 32  1  1  0  0
 31 32  1  0  0  0
 32 33  1  6  0  0
 33 34  2  0  0  0
 35 36  2  0  0  0
 35 37  1  0  0  0
 37 38  1  0  0  0
 38 39  2  0  0  0
 38 40  2  0  0  0
 38 41  1  0  0  0
 41 42  1  0  0  0
 41 45  1  0  0  0
 42 43  1  0  0  0
 43 44  1  0  0  0
 44 45  1  0  0  0
 46 47  1  0  0  0
 46 48  1  0  0  0
 46 49  1  0  0  0
 49 50  1  0  0  0
 49 52  1  0  0  0
 50 51  1  0  0  0
 51 52  1  0  0  0
M  END
> <s_m_entry_id>
6727

> <s_m_entry_name>
NS3-4A.268

> <CHEMBLID>
CHEMBL3645583

> <s_m_Source_Path>
/home/liwei/Desktop/Machine/HCV/Active

> <s_m_Source_File>
NS3-4A.sdf

> <i_m_Source_File_Index>
268

$$$$
CHEMBL3645584
                    3D
 Structure written by MMmdl.
 57 62  0  0  1  0            999 V2000
   -3.8580   -7.9790    0.0000 C   0  0  0  0  0  0
   -2.6445   -8.8607    0.0000 C   0  0  0  0  0  0
   -1.4310   -9.7423    0.0000 C   0  0  0  0  0  0
   -3.5262  -10.0742    0.0000 C   0  0  0  0  0  0
   -1.7628   -7.6471    0.0000 C   0  0  2  0  0  0
   -2.3729   -6.2768    0.0000 N   0  0  0  0  0  0
   -3.8647   -6.1200    0.0000 C   0  0  0  0  0  0
   -4.7464   -7.3335    0.0000 O   0  0  0  0  0  0
   -4.4748   -4.7497    0.0000 C   0  0  0  0  0  0
   -3.1045   -4.1396    0.0000 C   0  0  0  0  0  0
   -5.8451   -5.3598    0.0000 C   0  0  0  0  0  0
   -5.0849   -3.3794    0.0000 N   0  0  0  0  0  0
   -6.5521   -3.0675    0.0000 C   0  0  0  0  0  0
   -6.7089   -1.5757    0.0000 C   0  0  0  0  0  0
   -5.3386   -0.9656    0.0000 C   0  0  0  0  0  0
   -4.3349   -2.0803    0.0000 C   0  0  0  0  0  0
   -0.2710   -7.8039    0.0000 C   0  0  0  0  0  0
    0.3391   -9.1742    0.0000 O   0  0  0  0  0  0
    0.6107   -6.5904    0.0000 N   0  0  0  0  0  0
    2.1024   -6.7472    0.0000 C   0  0  2  0  0  0
    2.9841   -5.5337    0.0000 C   0  0  0  0  0  0
    4.4759   -5.6905    0.0000 O   0  0  0  0  0  0
    2.3740   -4.1633    0.0000 N   0  0  0  0  0  0
    0.9068   -3.8515    0.0000 C   0  0  0  0  0  0
    0.7500   -2.3597    0.0000 C   0  0  1  0  0  0
    2.1203   -1.7496    0.0000 C   0  0  0  0  0  0
    3.1240   -2.8643    0.0000 C   0  0  1  0  0  0
    4.6158   -2.7075    0.0000 C   0  0  0  0  0  0
    5.2259   -1.3372    0.0000 O   0  0  0  0  0  0
    5.4975   -3.9210    0.0000 N   0  0  0  0  0  0
    6.9893   -3.7643    0.0000 C   0  0  1  0  0  0
    8.3374   -3.1067    0.0000 C   0  0  0  0  0  0
    7.0939   -2.2679    0.0000 C   0  0  1  0  0  0
    6.4363   -0.9197    0.0000 C   0  0  0  0  0  0
    7.2751    0.3238    0.0000 C   0  0  0  0  0  0
    7.4027   -5.2061    0.0000 C   0  0  0  0  0  0
    6.3607   -6.2852    0.0000 O   0  0  0  0  0  0
    8.8582   -5.5690    0.0000 N   0  0  0  0  0  0
    9.2716   -7.0109    0.0000 S   0  0  0  0  0  0
   10.7135   -6.5975    0.0000 O   0  0  0  0  0  0
    7.8297   -7.4244    0.0000 O   0  0  0  0  0  0
    9.6851   -8.4528    0.0000 N   0  0  0  0  0  0
    8.7616   -9.6348    0.0000 C   0  0  0  0  0  0
    9.6004  -10.8784    0.0000 C   0  0  0  0  0  0
   11.0423  -10.4649    0.0000 C   0  0  0  0  0  0
   11.0946   -8.9658    0.0000 C   0  0  0  0  0  0
   -0.7500   -2.3597    0.0000 C   0  0  0  0  0  0
   -1.0105   -3.8369    0.0000 C   0  0  0  0  0  0
   -2.1595   -1.8467    0.0000 C   0  0  0  0  0  0
   -0.0000   -1.0607    0.0000 C   0  0  0  0  0  0
    1.0607    0.0000    0.0000 C   0  0  0  0  0  0
    0.0000    1.0607    0.0000 C   0  0  0  0  0  0
   -1.0607    0.0000    0.0000 C   0  0  0  0  0  0
    2.7125   -8.1175    0.0000 C   0  0  0  0  0  0
    1.3422   -8.7276    0.0000 C   0  0  0  0  0  0
    4.0829   -7.5074    0.0000 C   0  0  0  0  0  0
    3.3227   -9.4878    0.0000 C   0  0  0  0  0  0
  1  2  1  0  0  0
  2  3  1  0  0  0
  2  4  1  0  0  0
  2  5  1  0  0  0
  5  6  1  0  0  0
  5 17  1  1  0  0
  6  7  1  0  0  0
  7  8  2  0  0  0
  7  9  1  0  0  0
  9 10  1  0  0  0
  9 11  1  0  0  0
  9 12  1  0  0  0
 12 13  1  0  0  0
 12 16  1  0  0  0
 13 14  1  0  0  0
 14 15  1  0  0  0
 15 16  1  0  0  0
 17 18  2  0  0  0
 17 19  1  0  0  0
 19 20  1  0  0  0
 20 21  1  0  0  0
 20 54  1  1  0  0
 21 22  2  0  0  0
 21 23  1  0  0  0
 23 24  1  0  0  0
 23 27  1  0  0  0
 24 25  1  0  0  0
 25 26  1  0  0  0
 25 47  1  0  0  0
 25 50  1  1  0  0
 26 27  1  0  0  0
 27 28  1  6  0  0
 28 29  2  0  0  0
 28 30  1  0  0  0
 30 31  1  0  0  0
 31 32  1  0  0  0
 31 36  1  0  0  0
 31 33  1  1  0  0
 32 33  1  0  0  0
 33 34  1  6  0  0
 34 35  2  0  0  0
 36 37  2  0  0  0
 36 38  1  0  0  0
 38 39  1  0  0  0
 39 40  2  0  0  0
 39 41  2  0  0  0
 39 42  1  0  0  0
 42 43  1  0  0  0
 42 46  1  0  0  0
 43 44  1  0  0  0
 44 45  1  0  0  0
 45 46  1  0  0  0
 47 48  1  0  0  0
 47 49  1  0  0  0
 47 50  1  0  0  0
 50 51  1  0  0  0
 50 53  1  0  0  0
 51 52  1  0  0  0
 52 53  1  0  0  0
 54 55  1  0  0  0
 54 56  1  0  0  0
 54 57  1  0  0  0
M  END
> <s_m_entry_id>
6728

> <s_m_entry_name>
NS3-4A.269

> <CHEMBLID>
CHEMBL3645584

> <s_m_Source_Path>
/home/liwei/Desktop/Machine/HCV/Active

> <s_m_Source_File>
NS3-4A.sdf

> <i_m_Source_File_Index>
269

$$$$
CHEMBL3645585
                    3D
 Structure written by MMmdl.
 57 62  0  0  1  0            999 V2000
    5.2999   -9.3398    0.0000 C   0  0  0  0  0  0
    6.7265   -9.8033    0.0000 C   0  0  0  0  0  0
    7.8412   -8.7996    0.0000 C   0  0  0  0  0  0
    7.0383  -11.2705    0.0000 N   0  0  0  0  0  0
    8.4087  -11.8806    0.0000 C   0  0  0  0  0  0
    8.2519  -13.3724    0.0000 C   0  0  0  0  0  0
    6.7846  -13.6843    0.0000 C   0  0  0  0  0  0
    6.0346  -12.3853    0.0000 C   0  0  1  0  0  0
    4.5429  -12.2285    0.0000 C   0  0  0  0  0  0
    3.6612  -13.4420    0.0000 O   0  0  0  0  0  0
    3.9328  -10.8581    0.0000 N   0  0  0  0  0  0
    2.4410  -10.7014    0.0000 C   0  0  2  0  0  0
    1.8309   -9.3310    0.0000 C   0  0  0  0  0  0
    0.3391   -9.1742    0.0000 O   0  0  0  0  0  0
    2.7125   -8.1175    0.0000 N   0  0  0  0  0  0
    2.1024   -6.7472    0.0000 C   0  0  2  0  0  0
    2.9841   -5.5337    0.0000 C   0  0  0  0  0  0
    4.4759   -5.6905    0.0000 O   0  0  0  0  0  0
    2.3740   -4.1633    0.0000 N   0  0  0  0  0  0
    0.9068   -3.8515    0.0000 C   0  0  0  0  0  0
    0.7500   -2.3597    0.0000 C   0  0  1  0  0  0
    2.1203   -1.7496    0.0000 C   0  0  0  0  0  0
    3.1240   -2.8643    0.0000 C   0  0  1  0  0  0
    4.6158   -2.7075    0.0000 C   0  0  0  0  0  0
    5.2259   -1.3372    0.0000 O   0  0  0  0  0  0
    5.4975   -3.9210    0.0000 N   0  0  0  0  0  0
    6.9893   -3.7643    0.0000 C   0  0  1  0  0  0
    8.3374   -3.1067    0.0000 C   0  0  0  0  0  0
    7.0939   -2.2679    0.0000 C   0  0  1  0  0  0
    6.4363   -0.9197    0.0000 C   0  0  0  0  0  0
    7.2751    0.3238    0.0000 C   0  0  0  0  0  0
    7.4027   -5.2061    0.0000 C   0  0  0  0  0  0
    6.3607   -6.2852    0.0000 O   0  0  0  0  0  0
    8.8582   -5.5690    0.0000 N   0  0  0  0  0  0
    9.2716   -7.0109    0.0000 S   0  0  0  0  0  0
   10.7135   -6.5975    0.0000 O   0  0  0  0  0  0
    7.8297   -7.4244    0.0000 O   0  0  0  0  0  0
    9.6851   -8.4528    0.0000 N   0  0  0  0  0  0
    8.7616   -9.6348    0.0000 C   0  0  0  0  0  0
    9.6004  -10.8784    0.0000 C   0  0  0  0  0  0
   11.0423  -10.4649    0.0000 C   0  0  0  0  0  0
   11.0946   -8.9658    0.0000 C   0  0  0  0  0  0
   -0.7500   -2.3597    0.0000 C   0  0  0  0  0  0
   -1.0105   -3.8369    0.0000 C   0  0  0  0  0  0
   -2.1595   -1.8467    0.0000 C   0  0  0  0  0  0
   -0.0000   -1.0607    0.0000 C   0  0  0  0  0  0
    1.0607    0.0000    0.0000 C   0  0  0  0  0  0
    0.0000    1.0607    0.0000 C   0  0  0  0  0  0
   -1.0607    0.0000    0.0000 C   0  0  0  0  0  0
    0.6107   -6.5904    0.0000 C   0  0  0  0  0  0
    0.4539   -8.0822    0.0000 C   0  0  0  0  0  0
    0.7675   -5.0986    0.0000 C   0  0  0  0  0  0
   -0.8811   -6.4336    0.0000 C   0  0  0  0  0  0
    1.5593  -11.9149    0.0000 C   0  0  0  0  0  0
    2.7728  -12.7966    0.0000 C   0  0  0  0  0  0
    0.3458  -11.0332    0.0000 C   0  0  0  0  0  0
    0.6776  -13.1284    0.0000 C   0  0  0  0  0  0
  1  2  1  0  0  0
  2  3  1  0  0  0
  2  4  1  0  0  0
  4  5  1  0  0  0
  4  8  1  0  0  0
  5  6  1  0  0  0
  6  7  1  0  0  0
  7  8  1  0  0  0
  8  9  1  6  0  0
  9 10  2  0  0  0
  9 11  1  0  0  0
 11 12  1  0  0  0
 12 13  1  0  0  0
 12 54  1  1  0  0
 13 14  2  0  0  0
 13 15  1  0  0  0
 15 16  1  0  0  0
 16 17  1  0  0  0
 16 50  1  1  0  0
 17 18  2  0  0  0
 17 19  1  0  0  0
 19 20  1  0  0  0
 19 23  1  0  0  0
 20 21  1  0  0  0
 21 22  1  0  0  0
 21 43  1  0  0  0
 21 46  1  1  0  0
 22 23  1  0  0  0
 23 24  1  6  0  0
 24 25  2  0  0  0
 24 26  1  0  0  0
 26 27  1  0  0  0
 27 28  1  0  0  0
 27 32  1  0  0  0
 27 29  1  1  0  0
 28 29  1  0  0  0
 29 30  1  6  0  0
 30 31  2  0  0  0
 32 33  2  0  0  0
 32 34  1  0  0  0
 34 35  1  0  0  0
 35 36  2  0  0  0
 35 37  2  0  0  0
 35 38  1  0  0  0
 38 39  1  0  0  0
 38 42  1  0  0  0
 39 40  1  0  0  0
 40 41  1  0  0  0
 41 42  1  0  0  0
 43 44  1  0  0  0
 43 45  1  0  0  0
 43 46  1  0  0  0
 46 47  1  0  0  0
 46 49  1  0  0  0
 47 48  1  0  0  0
 48 49  1  0  0  0
 50 51  1  0  0  0
 50 52  1  0  0  0
 50 53  1  0  0  0
 54 55  1  0  0  0
 54 56  1  0  0  0
 54 57  1  0  0  0
M  END
> <s_m_entry_id>
6729

> <s_m_entry_name>
NS3-4A.270

> <CHEMBLID>
CHEMBL3645585

> <s_m_Source_Path>
/home/liwei/Desktop/Machine/HCV/Active

> <s_m_Source_File>
NS3-4A.sdf

> <i_m_Source_File_Index>
270

$$$$
CHEMBL3645586
                    3D
 Structure written by MMmdl.
 56 61  0  0  1  0            999 V2000
   -8.4590   -3.9406    0.0000 C   0  0  0  0  0  0
   -7.2455   -4.8223    0.0000 C   0  0  0  0  0  0
   -7.4023   -6.3140    0.0000 C   0  0  0  0  0  0
   -5.8752   -4.2122    0.0000 N   0  0  0  0  0  0
   -5.3376   -2.8118    0.0000 C   0  0  0  0  0  0
   -3.9372   -3.3493    0.0000 C   0  0  0  0  0  0
   -4.4748   -4.7497    0.0000 C   0  0  1  0  0  0
   -3.8647   -6.1200    0.0000 C   0  0  0  0  0  0
   -4.7464   -7.3335    0.0000 O   0  0  0  0  0  0
   -2.3729   -6.2768    0.0000 N   0  0  0  0  0  0
   -1.7628   -7.6471    0.0000 C   0  0  2  0  0  0
   -0.2710   -7.8039    0.0000 C   0  0  0  0  0  0
    0.3391   -9.1742    0.0000 O   0  0  0  0  0  0
    0.6107   -6.5904    0.0000 N   0  0  0  0  0  0
    2.1024   -6.7472    0.0000 C   0  0  2  0  0  0
    2.9841   -5.5337    0.0000 C   0  0  0  0  0  0
    4.4759   -5.6905    0.0000 O   0  0  0  0  0  0
    2.3740   -4.1633    0.0000 N   0  0  0  0  0  0
    0.9068   -3.8515    0.0000 C   0  0  0  0  0  0
    0.7500   -2.3597    0.0000 C   0  0  1  0  0  0
    2.1203   -1.7496    0.0000 C   0  0  0  0  0  0
    3.1240   -2.8643    0.0000 C   0  0  1  0  0  0
    4.6158   -2.7075    0.0000 C   0  0  0  0  0  0
    5.2259   -1.3372    0.0000 O   0  0  0  0  0  0
    5.4975   -3.9210    0.0000 N   0  0  0  0  0  0
    6.9893   -3.7643    0.0000 C   0  0  1  0  0  0
    8.3374   -3.1067    0.0000 C   0  0  0  0  0  0
    7.0939   -2.2679    0.0000 C   0  0  1  0  0  0
    6.4363   -0.9197    0.0000 C   0  0  0  0  0  0
    7.2751    0.3238    0.0000 C   0  0  0  0  0  0
    7.4027   -5.2061    0.0000 C   0  0  0  0  0  0
    6.3607   -6.2852    0.0000 O   0  0  0  0  0  0
    8.8582   -5.5690    0.0000 N   0  0  0  0  0  0
    9.2716   -7.0109    0.0000 S   0  0  0  0  0  0
   10.7135   -6.5975    0.0000 O   0  0  0  0  0  0
    7.8297   -7.4244    0.0000 O   0  0  0  0  0  0
    9.6851   -8.4528    0.0000 N   0  0  0  0  0  0
    8.7616   -9.6348    0.0000 C   0  0  0  0  0  0
    9.6004  -10.8784    0.0000 C   0  0  0  0  0  0
   11.0423  -10.4649    0.0000 C   0  0  0  0  0  0
   11.0946   -8.9658    0.0000 C   0  0  0  0  0  0
   -0.7500   -2.3597    0.0000 C   0  0  0  0  0  0
   -1.0105   -3.8369    0.0000 C   0  0  0  0  0  0
   -2.1595   -1.8467    0.0000 C   0  0  0  0  0  0
   -0.0000   -1.0607    0.0000 C   0  0  0  0  0  0
    1.0607    0.0000    0.0000 C   0  0  0  0  0  0
    0.0000    1.0607    0.0000 C   0  0  0  0  0  0
   -1.0607    0.0000    0.0000 C   0  0  0  0  0  0
    2.7125   -8.1175    0.0000 C   0  0  0  0  0  0
    1.3422   -8.7276    0.0000 C   0  0  0  0  0  0
    4.0829   -7.5074    0.0000 C   0  0  0  0  0  0
    3.3227   -9.4878    0.0000 C   0  0  0  0  0  0
   -2.6445   -8.8607    0.0000 C   0  0  0  0  0  0
   -3.8580   -7.9790    0.0000 C   0  0  0  0  0  0
   -1.4310   -9.7423    0.0000 C   0  0  0  0  0  0
   -3.5262  -10.0742    0.0000 C   0  0  0  0  0  0
  1  2  1  0  0  0
  2  3  1  0  0  0
  2  4  1  0  0  0
  4  5  1  0  0  0
  4  7  1  0  0  0
  5  6  1  0  0  0
  6  7  1  0  0  0
  7  8  1  6  0  0
  8  9  2  0  0  0
  8 10  1  0  0  0
 10 11  1  0  0  0
 11 12  1  0  0  0
 11 53  1  1  0  0
 12 13  2  0  0  0
 12 14  1  0  0  0
 14 15  1  0  0  0
 15 16  1  0  0  0
 15 49  1  1  0  0
 16 17  2  0  0  0
 16 18  1  0  0  0
 18 19  1  0  0  0
 18 22  1  0  0  0
 19 20  1  0  0  0
 20 21  1  0  0  0
 20 42  1  0  0  0
 20 45  1  1  0  0
 21 22  1  0  0  0
 22 23  1  6  0  0
 23 24  2  0  0  0
 23 25  1  0  0  0
 25 26  1  0  0  0
 26 27  1  0  0  0
 26 31  1  0  0  0
 26 28  1  1  0  0
 27 28  1  0  0  0
 28 29  1  6  0  0
 29 30  2  0  0  0
 31 32  2  0  0  0
 31 33  1  0  0  0
 33 34  1  0  0  0
 34 35  2  0  0  0
 34 36  2  0  0  0
 34 37  1  0  0  0
 37 38  1  0  0  0
 37 41  1  0  0  0
 38 39  1  0  0  0
 39 40  1  0  0  0
 40 41  1  0  0  0
 42 43  1  0  0  0
 42 44  1  0  0  0
 42 45  1  0  0  0
 45 46  1  0  0  0
 45 48  1  0  0  0
 46 47  1  0  0  0
 47 48  1  0  0  0
 49 50  1  0  0  0
 49 51  1  0  0  0
 49 52  1  0  0  0
 53 54  1  0  0  0
 53 55  1  0  0  0
 53 56  1  0  0  0
M  END
> <s_m_entry_id>
6730

> <s_m_entry_name>
NS3-4A.271

> <CHEMBLID>
CHEMBL3645586

> <s_m_Source_Path>
/home/liwei/Desktop/Machine/HCV/Active

> <s_m_Source_File>
NS3-4A.sdf

> <i_m_Source_File_Index>
271

$$$$
CHEMBL3645587
                    3D
 Structure written by MMmdl.
 60 66  0  0  1  0            999 V2000
   -8.3400   -5.6496    0.0000 C   0  0  0  0  0  0
   -6.8483   -5.8064    0.0000 C   0  0  0  0  0  0
   -6.2382   -7.1768    0.0000 C   0  0  0  0  0  0
   -5.9666   -4.5929    0.0000 N   0  0  0  0  0  0
   -6.5767   -3.2226    0.0000 C   0  0  0  0  0  0
   -5.6950   -2.0091    0.0000 C   0  0  0  0  0  0
   -4.2032   -2.1659    0.0000 C   0  0  0  0  0  0
   -3.5931   -3.5362    0.0000 C   0  0  0  0  0  0
   -4.4748   -4.7497    0.0000 C   0  0  1  0  0  0
   -3.8647   -6.1200    0.0000 C   0  0  0  0  0  0
   -4.7464   -7.3335    0.0000 O   0  0  0  0  0  0
   -2.3729   -6.2768    0.0000 N   0  0  0  0  0  0
   -1.7628   -7.6471    0.0000 C   0  0  1  0  0  0
   -2.6445   -8.8607    0.0000 C   0  0  0  0  0  0
   -4.1363   -8.7039    0.0000 C   0  0  0  0  0  0
   -5.0179   -9.9174    0.0000 C   0  0  0  0  0  0
   -4.4078  -11.2877    0.0000 C   0  0  0  0  0  0
   -2.9161  -11.4445    0.0000 C   0  0  0  0  0  0
   -2.0344  -10.2310    0.0000 C   0  0  0  0  0  0
   -0.2710   -7.8039    0.0000 C   0  0  0  0  0  0
    0.3391   -9.1742    0.0000 O   0  0  0  0  0  0
    0.6107   -6.5904    0.0000 N   0  0  0  0  0  0
    2.1024   -6.7472    0.0000 C   0  0  2  0  0  0
    2.9841   -5.5337    0.0000 C   0  0  0  0  0  0
    4.4759   -5.6905    0.0000 O   0  0  0  0  0  0
    2.3740   -4.1633    0.0000 N   0  0  0  0  0  0
    0.9068   -3.8515    0.0000 C   0  0  0  0  0  0
    0.7500   -2.3597    0.0000 C   0  0  1  0  0  0
    2.1203   -1.7496    0.0000 C   0  0  0  0  0  0
    3.1240   -2.8643    0.0000 C   0  0  1  0  0  0
    4.6158   -2.7075    0.0000 C   0  0  0  0  0  0
    5.2259   -1.3372    0.0000 O   0  0  0  0  0  0
    5.4975   -3.9210    0.0000 N   0  0  0  0  0  0
    6.9893   -3.7643    0.0000 C   0  0  1  0  0  0
    8.3374   -3.1067    0.0000 C   0  0  0  0  0  0
    7.0939   -2.2679    0.0000 C   0  0  1  0  0  0
    6.4363   -0.9197    0.0000 C   0  0  0  0  0  0
    7.2751    0.3238    0.0000 C   0  0  0  0  0  0
    7.4027   -5.2061    0.0000 C   0  0  0  0  0  0
    6.3607   -6.2852    0.0000 O   0  0  0  0  0  0
    8.8582   -5.5690    0.0000 N   0  0  0  0  0  0
    9.2716   -7.0109    0.0000 S   0  0  0  0  0  0
   10.7135   -6.5975    0.0000 O   0  0  0  0  0  0
    7.8297   -7.4244    0.0000 O   0  0  0  0  0  0
    9.6851   -8.4528    0.0000 N   0  0  0  0  0  0
    8.7616   -9.6348    0.0000 C   0  0  0  0  0  0
    9.6004  -10.8784    0.0000 C   0  0  0  0  0  0
   11.0423  -10.4649    0.0000 C   0  0  0  0  0  0
   11.0946   -8.9658    0.0000 C   0  0  0  0  0  0
   -0.7500   -2.3597    0.0000 C   0  0  0  0  0  0
   -1.0105   -3.8369    0.0000 C   0  0  0  0  0  0
   -2.1595   -1.8467    0.0000 C   0  0  0  0  0  0
   -0.0000   -1.0607    0.0000 C   0  0  0  0  0  0
    1.0607    0.0000    0.0000 C   0  0  0  0  0  0
    0.0000    1.0607    0.0000 C   0  0  0  0  0  0
   -1.0607    0.0000    0.0000 C   0  0  0  0  0  0
    2.7125   -8.1175    0.0000 C   0  0  0  0  0  0
    1.3422   -8.7276    0.0000 C   0  0  0  0  0  0
    4.0829   -7.5074    0.0000 C   0  0  0  0  0  0
    3.3227   -9.4878    0.0000 C   0  0  0  0  0  0
  1  2  1  0  0  0
  2  3  1  0  0  0
  2  4  1  0  0  0
  4  5  1  0  0  0
  4  9  1  0  0  0
  5  6  1  0  0  0
  6  7  1  0  0  0
  7  8  1  0  0  0
  8  9  1  0  0  0
  9 10  1  6  0  0
 10 11  2  0  0  0
 10 12  1  0  0  0
 12 13  1  0  0  0
 13 14  1  0  0  0
 13 20  1  6  0  0
 14 15  1  0  0  0
 14 19  1  0  0  0
 15 16  1  0  0  0
 16 17  1  0  0  0
 17 18  1  0  0  0
 18 19  1  0  0  0
 20 21  2  0  0  0
 20 22  1  0  0  0
 22 23  1  0  0  0
 23 24  1  0  0  0
 23 57  1  1  0  0
 24 25  2  0  0  0
 24 26  1  0  0  0
 26 27  1  0  0  0
 26 30  1  0  0  0
 27 28  1  0  0  0
 28 29  1  0  0  0
 28 50  1  0  0  0
 28 53  1  1  0  0
 29 30  1  0  0  0
 30 31  1  6  0  0
 31 32  2  0  0  0
 31 33  1  0  0  0
 33 34  1  0  0  0
 34 35  1  0  0  0
 34 39  1  0  0  0
 34 36  1  1  0  0
 35 36  1  0  0  0
 36 37  1  6  0  0
 37 38  2  0  0  0
 39 40  2  0  0  0
 39 41  1  0  0  0
 41 42  1  0  0  0
 42 43  2  0  0  0
 42 44  2  0  0  0
 42 45  1  0  0  0
 45 46  1  0  0  0
 45 49  1  0  0  0
 46 47  1  0  0  0
 47 48  1  0  0  0
 48 49  1  0  0  0
 50 51  1  0  0  0
 50 52  1  0  0  0
 50 53  1  0  0  0
 53 54  1  0  0  0
 53 56  1  0  0  0
 54 55  1  0  0  0
 55 56  1  0  0  0
 57 58  1  0  0  0
 57 59  1  0  0  0
 57 60  1  0  0  0
M  END
> <s_m_entry_id>
6731

> <s_m_entry_name>
NS3-4A.272

> <CHEMBLID>
CHEMBL3645587

> <s_m_Source_Path>
/home/liwei/Desktop/Machine/HCV/Active

> <s_m_Source_File>
NS3-4A.sdf

> <i_m_Source_File_Index>
272

$$$$
CHEMBL3645588
                    3D
 Structure written by MMmdl.
 59 65  0  0  1  0            999 V2000
    1.3422   -8.7276    0.0000 C   0  0  0  0  0  0
    2.7125   -8.1175    0.0000 C   0  0  0  0  0  0
    4.0829   -7.5074    0.0000 C   0  0  0  0  0  0
    3.3227   -9.4878    0.0000 C   0  0  0  0  0  0
    2.1024   -6.7472    0.0000 C   0  0  2  0  0  0
    0.6107   -6.5904    0.0000 N   0  0  0  0  0  0
   -0.2710   -7.8039    0.0000 C   0  0  0  0  0  0
    0.3391   -9.1742    0.0000 O   0  0  0  0  0  0
   -1.7628   -7.6471    0.0000 C   0  0  1  0  0  0
   -2.3729   -6.2768    0.0000 N   0  0  0  0  0  0
   -3.8647   -6.1200    0.0000 C   0  0  0  0  0  0
   -4.7464   -7.3335    0.0000 O   0  0  0  0  0  0
   -4.4748   -4.7497    0.0000 C   0  0  0  0  0  0
   -3.1045   -4.1396    0.0000 C   0  0  0  0  0  0
   -5.8451   -5.3598    0.0000 C   0  0  0  0  0  0
   -5.0849   -3.3794    0.0000 N   0  0  0  0  0  0
   -6.5521   -3.0675    0.0000 C   0  0  0  0  0  0
   -6.7089   -1.5757    0.0000 C   0  0  0  0  0  0
   -5.3386   -0.9656    0.0000 C   0  0  0  0  0  0
   -4.3349   -2.0803    0.0000 C   0  0  0  0  0  0
   -2.6445   -8.8607    0.0000 C   0  0  0  0  0  0
   -4.1363   -8.7039    0.0000 C   0  0  0  0  0  0
   -5.0179   -9.9174    0.0000 C   0  0  0  0  0  0
   -4.4078  -11.2877    0.0000 C   0  0  0  0  0  0
   -2.9161  -11.4445    0.0000 C   0  0  0  0  0  0
   -2.0344  -10.2310    0.0000 C   0  0  0  0  0  0
    2.9841   -5.5337    0.0000 C   0  0  0  0  0  0
    4.4759   -5.6905    0.0000 O   0  0  0  0  0  0
    2.3740   -4.1633    0.0000 N   0  0  0  0  0  0
    0.9068   -3.8515    0.0000 C   0  0  0  0  0  0
    0.7500   -2.3597    0.0000 C   0  0  1  0  0  0
    2.1203   -1.7496    0.0000 C   0  0  0  0  0  0
    3.1240   -2.8643    0.0000 C   0  0  1  0  0  0
    4.6158   -2.7075    0.0000 C   0  0  0  0  0  0
    5.2259   -1.3372    0.0000 O   0  0  0  0  0  0
    5.4975   -3.9210    0.0000 N   0  0  0  0  0  0
    6.9893   -3.7643    0.0000 C   0  0  1  0  0  0
    8.3374   -3.1067    0.0000 C   0  0  0  0  0  0
    7.0939   -2.2679    0.0000 C   0  0  1  0  0  0
    6.4363   -0.9197    0.0000 C   0  0  0  0  0  0
    7.2751    0.3238    0.0000 C   0  0  0  0  0  0
    7.4027   -5.2061    0.0000 C   0  0  0  0  0  0
    6.3607   -6.2852    0.0000 O   0  0  0  0  0  0
    8.8582   -5.5690    0.0000 N   0  0  0  0  0  0
    9.2716   -7.0109    0.0000 S   0  0  0  0  0  0
   10.7135   -6.5975    0.0000 O   0  0  0  0  0  0
    7.8297   -7.4244    0.0000 O   0  0  0  0  0  0
    9.6851   -8.4528    0.0000 N   0  0  0  0  0  0
    8.7616   -9.6348    0.0000 C   0  0  0  0  0  0
    9.6004  -10.8784    0.0000 C   0  0  0  0  0  0
   11.0423  -10.4649    0.0000 C   0  0  0  0  0  0
   11.0946   -8.9658    0.0000 C   0  0  0  0  0  0
   -0.7500   -2.3597    0.0000 C   0  0  0  0  0  0
   -1.0105   -3.8369    0.0000 C   0  0  0  0  0  0
   -2.1595   -1.8467    0.0000 C   0  0  0  0  0  0
   -0.0000   -1.0607    0.0000 C   0  0  0  0  0  0
    1.0607    0.0000    0.0000 C   0  0  0  0  0  0
    0.0000    1.0607    0.0000 C   0  0  0  0  0  0
   -1.0607    0.0000    0.0000 C   0  0  0  0  0  0
  1  2  1  0  0  0
  2  3  1  0  0  0
  2  4  1  0  0  0
  2  5  1  0  0  0
  5  6  1  0  0  0
  5 27  1  1  0  0
  6  7  1  0  0  0
  7  8  2  0  0  0
  7  9  1  0  0  0
  9 10  1  0  0  0
  9 21  1  6  0  0
 10 11  1  0  0  0
 11 12  2  0  0  0
 11 13  1  0  0  0
 13 14  1  0  0  0
 13 15  1  0  0  0
 13 16  1  0  0  0
 16 17  1  0  0  0
 16 20  1  0  0  0
 17 18  1  0  0  0
 18 19  1  0  0  0
 19 20  1  0  0  0
 21 22  1  0  0  0
 21 26  1  0  0  0
 22 23  1  0  0  0
 23 24  1  0  0  0
 24 25  1  0  0  0
 25 26  1  0  0  0
 27 28  2  0  0  0
 27 29  1  0  0  0
 29 30  1  0  0  0
 29 33  1  0  0  0
 30 31  1  0  0  0
 31 32  1  0  0  0
 31 53  1  0  0  0
 31 56  1  1  0  0
 32 33  1  0  0  0
 33 34  1  6  0  0
 34 35  2  0  0  0
 34 36  1  0  0  0
 36 37  1  0  0  0
 37 38  1  0  0  0
 37 42  1  0  0  0
 37 39  1  1  0  0
 38 39  1  0  0  0
 39 40  1  6  0  0
 40 41  2  0  0  0
 42 43  2  0  0  0
 42 44  1  0  0  0
 44 45  1  0  0  0
 45 46  2  0  0  0
 45 47  2  0  0  0
 45 48  1  0  0  0
 48 49  1  0  0  0
 48 52  1  0  0  0
 49 50  1  0  0  0
 50 51  1  0  0  0
 51 52  1  0  0  0
 53 54  1  0  0  0
 53 55  1  0  0  0
 53 56  1  0  0  0
 56 57  1  0  0  0
 56 59  1  0  0  0
 57 58  1  0  0  0
 58 59  1  0  0  0
M  END
> <s_m_entry_id>
6732

> <s_m_entry_name>
NS3-4A.273

> <CHEMBLID>
CHEMBL3645588

> <s_m_Source_Path>
/home/liwei/Desktop/Machine/HCV/Active

> <s_m_Source_File>
NS3-4A.sdf

> <i_m_Source_File_Index>
273

$$$$
CHEMBL3645589
                    3D
 Structure written by MMmdl.
 59 65  0  0  1  0            999 V2000
    5.2999   -9.3398    0.0000 C   0  0  0  0  0  0
    6.7265   -9.8033    0.0000 C   0  0  0  0  0  0
    7.8412   -8.7996    0.0000 C   0  0  0  0  0  0
    7.0383  -11.2705    0.0000 N   0  0  0  0  0  0
    8.4087  -11.8806    0.0000 C   0  0  0  0  0  0
    8.2519  -13.3724    0.0000 C   0  0  0  0  0  0
    6.7846  -13.6843    0.0000 C   0  0  0  0  0  0
    6.0346  -12.3853    0.0000 C   0  0  1  0  0  0
    4.5429  -12.2285    0.0000 C   0  0  0  0  0  0
    3.6612  -13.4420    0.0000 O   0  0  0  0  0  0
    3.9328  -10.8581    0.0000 N   0  0  0  0  0  0
    2.4410  -10.7014    0.0000 C   0  0  1  0  0  0
    1.5593  -11.9149    0.0000 C   0  0  0  0  0  0
    2.1694  -13.2852    0.0000 C   0  0  0  0  0  0
    1.2877  -14.4987    0.0000 C   0  0  0  0  0  0
   -0.2041  -14.3419    0.0000 C   0  0  0  0  0  0
   -0.8142  -12.9716    0.0000 C   0  0  0  0  0  0
    0.0675  -11.7581    0.0000 C   0  0  0  0  0  0
    1.8309   -9.3310    0.0000 C   0  0  0  0  0  0
    0.3391   -9.1742    0.0000 O   0  0  0  0  0  0
    2.7125   -8.1175    0.0000 N   0  0  0  0  0  0
    2.1024   -6.7472    0.0000 C   0  0  2  0  0  0
    2.9841   -5.5337    0.0000 C   0  0  0  0  0  0
    4.4759   -5.6905    0.0000 O   0  0  0  0  0  0
    2.3740   -4.1633    0.0000 N   0  0  0  0  0  0
    0.9068   -3.8515    0.0000 C   0  0  0  0  0  0
    0.7500   -2.3597    0.0000 C   0  0  1  0  0  0
    2.1203   -1.7496    0.0000 C   0  0  0  0  0  0
    3.1240   -2.8643    0.0000 C   0  0  1  0  0  0
    4.6158   -2.7075    0.0000 C   0  0  0  0  0  0
    5.2259   -1.3372    0.0000 O   0  0  0  0  0  0
    5.4975   -3.9210    0.0000 N   0  0  0  0  0  0
    6.9893   -3.7643    0.0000 C   0  0  1  0  0  0
    8.3374   -3.1067    0.0000 C   0  0  0  0  0  0
    7.0939   -2.2679    0.0000 C   0  0  1  0  0  0
    6.4363   -0.9197    0.0000 C   0  0  0  0  0  0
    7.2751    0.3238    0.0000 C   0  0  0  0  0  0
    7.4027   -5.2061    0.0000 C   0  0  0  0  0  0
    6.3607   -6.2852    0.0000 O   0  0  0  0  0  0
    8.8582   -5.5690    0.0000 N   0  0  0  0  0  0
    9.2716   -7.0109    0.0000 S   0  0  0  0  0  0
   10.7135   -6.5975    0.0000 O   0  0  0  0  0  0
    7.8297   -7.4244    0.0000 O   0  0  0  0  0  0
    9.6851   -8.4528    0.0000 N   0  0  0  0  0  0
    8.7616   -9.6348    0.0000 C   0  0  0  0  0  0
    9.6004  -10.8784    0.0000 C   0  0  0  0  0  0
   11.0423  -10.4649    0.0000 C   0  0  0  0  0  0
   11.0946   -8.9658    0.0000 C   0  0  0  0  0  0
   -0.7500   -2.3597    0.0000 C   0  0  0  0  0  0
   -1.0105   -3.8369    0.0000 C   0  0  0  0  0  0
   -2.1595   -1.8467    0.0000 C   0  0  0  0  0  0
   -0.0000   -1.0607    0.0000 C   0  0  0  0  0  0
    1.0607    0.0000    0.0000 C   0  0  0  0  0  0
    0.0000    1.0607    0.0000 C   0  0  0  0  0  0
   -1.0607    0.0000    0.0000 C   0  0  0  0  0  0
    0.6107   -6.5904    0.0000 C   0  0  0  0  0  0
    0.4539   -8.0822    0.0000 C   0  0  0  0  0  0
    0.7675   -5.0986    0.0000 C   0  0  0  0  0  0
   -0.8811   -6.4336    0.0000 C   0  0  0  0  0  0
  1  2  1  0  0  0
  2  3  1  0  0  0
  2  4  1  0  0  0
  4  5  1  0  0  0
  4  8  1  0  0  0
  5  6  1  0  0  0
  6  7  1  0  0  0
  7  8  1  0  0  0
  8  9  1  6  0  0
  9 10  2  0  0  0
  9 11  1  0  0  0
 11 12  1  0  0  0
 12 13  1  0  0  0
 12 19  1  6  0  0
 13 14  1  0  0  0
 13 18  1  0  0  0
 14 15  1  0  0  0
 15 16  1  0  0  0
 16 17  1  0  0  0
 17 18  1  0  0  0
 19 20  2  0  0  0
 19 21  1  0  0  0
 21 22  1  0  0  0
 22 23  1  0  0  0
 22 56  1  1  0  0
 23 24  2  0  0  0
 23 25  1  0  0  0
 25 26  1  0  0  0
 25 29  1  0  0  0
 26 27  1  0  0  0
 27 28  1  0  0  0
 27 49  1  0  0  0
 27 52  1  1  0  0
 28 29  1  0  0  0
 29 30  1  6  0  0
 30 31  2  0  0  0
 30 32  1  0  0  0
 32 33  1  0  0  0
 33 34  1  0  0  0
 33 38  1  0  0  0
 33 35  1  1  0  0
 34 35  1  0  0  0
 35 36  1  6  0  0
 36 37  2  0  0  0
 38 39  2  0  0  0
 38 40  1  0  0  0
 40 41  1  0  0  0
 41 42  2  0  0  0
 41 43  2  0  0  0
 41 44  1  0  0  0
 44 45  1  0  0  0
 44 48  1  0  0  0
 45 46  1  0  0  0
 46 47  1  0  0  0
 47 48  1  0  0  0
 49 50  1  0  0  0
 49 51  1  0  0  0
 49 52  1  0  0  0
 52 53  1  0  0  0
 52 55  1  0  0  0
 53 54  1  0  0  0
 54 55  1  0  0  0
 56 57  1  0  0  0
 56 58  1  0  0  0
 56 59  1  0  0  0
M  END
> <s_m_entry_id>
6733

> <s_m_entry_name>
NS3-4A.274

> <CHEMBLID>
CHEMBL3645589

> <s_m_Source_Path>
/home/liwei/Desktop/Machine/HCV/Active

> <s_m_Source_File>
NS3-4A.sdf

> <i_m_Source_File_Index>
274

$$$$
CHEMBL3645590
                    3D
 Structure written by MMmdl.
 59 65  0  0  1  0            999 V2000
    5.2999   -9.3398    0.0000 C   0  0  0  0  0  0
    6.7265   -9.8033    0.0000 C   0  0  0  0  0  0
    7.8412   -8.7996    0.0000 C   0  0  0  0  0  0
    7.0383  -11.2705    0.0000 N   0  0  0  0  0  0
    8.4087  -11.8806    0.0000 C   0  0  0  0  0  0
    8.2519  -13.3724    0.0000 C   0  0  0  0  0  0
    6.7846  -13.6843    0.0000 C   0  0  0  0  0  0
    6.0346  -12.3853    0.0000 C   0  0  2  0  0  0
    4.5429  -12.2285    0.0000 C   0  0  0  0  0  0
    3.6612  -13.4420    0.0000 O   0  0  0  0  0  0
    3.9328  -10.8581    0.0000 N   0  0  0  0  0  0
    2.4410  -10.7014    0.0000 C   0  0  1  0  0  0
    1.5593  -11.9149    0.0000 C   0  0  0  0  0  0
    2.1694  -13.2852    0.0000 C   0  0  0  0  0  0
    1.2877  -14.4987    0.0000 C   0  0  0  0  0  0
   -0.2041  -14.3419    0.0000 C   0  0  0  0  0  0
   -0.8142  -12.9716    0.0000 C   0  0  0  0  0  0
    0.0675  -11.7581    0.0000 C   0  0  0  0  0  0
    1.8309   -9.3310    0.0000 C   0  0  0  0  0  0
    0.3391   -9.1742    0.0000 O   0  0  0  0  0  0
    2.7125   -8.1175    0.0000 N   0  0  0  0  0  0
    2.1024   -6.7472    0.0000 C   0  0  2  0  0  0
    2.9841   -5.5337    0.0000 C   0  0  0  0  0  0
    4.4759   -5.6905    0.0000 O   0  0  0  0  0  0
    2.3740   -4.1633    0.0000 N   0  0  0  0  0  0
    0.9068   -3.8515    0.0000 C   0  0  0  0  0  0
    0.7500   -2.3597    0.0000 C   0  0  1  0  0  0
    2.1203   -1.7496    0.0000 C   0  0  0  0  0  0
    3.1240   -2.8643    0.0000 C   0  0  1  0  0  0
    4.6158   -2.7075    0.0000 C   0  0  0  0  0  0
    5.2259   -1.3372    0.0000 O   0  0  0  0  0  0
    5.4975   -3.9210    0.0000 N   0  0  0  0  0  0
    6.9893   -3.7643    0.0000 C   0  0  1  0  0  0
    8.3374   -3.1067    0.0000 C   0  0  0  0  0  0
    7.0939   -2.2679    0.0000 C   0  0  1  0  0  0
    6.4363   -0.9197    0.0000 C   0  0  0  0  0  0
    7.2751    0.3238    0.0000 C   0  0  0  0  0  0
    7.4027   -5.2061    0.0000 C   0  0  0  0  0  0
    6.3607   -6.2852    0.0000 O   0  0  0  0  0  0
    8.8582   -5.5690    0.0000 N   0  0  0  0  0  0
    9.2716   -7.0109    0.0000 S   0  0  0  0  0  0
   10.7135   -6.5975    0.0000 O   0  0  0  0  0  0
    7.8297   -7.4244    0.0000 O   0  0  0  0  0  0
    9.6851   -8.4528    0.0000 N   0  0  0  0  0  0
    8.7616   -9.6348    0.0000 C   0  0  0  0  0  0
    9.6004  -10.8784    0.0000 C   0  0  0  0  0  0
   11.0423  -10.4649    0.0000 C   0  0  0  0  0  0
   11.0946   -8.9658    0.0000 C   0  0  0  0  0  0
   -0.7500   -2.3597    0.0000 C   0  0  0  0  0  0
   -1.0105   -3.8369    0.0000 C   0  0  0  0  0  0
   -2.1595   -1.8467    0.0000 C   0  0  0  0  0  0
   -0.0000   -1.0607    0.0000 C   0  0  0  0  0  0
    1.0607    0.0000    0.0000 C   0  0  0  0  0  0
    0.0000    1.0607    0.0000 C   0  0  0  0  0  0
   -1.0607    0.0000    0.0000 C   0  0  0  0  0  0
    0.6107   -6.5904    0.0000 C   0  0  0  0  0  0
    0.4539   -8.0822    0.0000 C   0  0  0  0  0  0
    0.7675   -5.0986    0.0000 C   0  0  0  0  0  0
   -0.8811   -6.4336    0.0000 C   0  0  0  0  0  0
  1  2  1  0  0  0
  2  3  1  0  0  0
  2  4  1  0  0  0
  4  5  1  0  0  0
  4  8  1  0  0  0
  5  6  1  0  0  0
  6  7  1  0  0  0
  7  8  1  0  0  0
  8  9  1  6  0  0
  9 10  2  0  0  0
  9 11  1  0  0  0
 11 12  1  0  0  0
 12 13  1  0  0  0
 12 19  1  6  0  0
 13 14  1  0  0  0
 13 18  1  0  0  0
 14 15  1  0  0  0
 15 16  1  0  0  0
 16 17  1  0  0  0
 17 18  1  0  0  0
 19 20  2  0  0  0
 19 21  1  0  0  0
 21 22  1  0  0  0
 22 23  1  0  0  0
 22 56  1  1  0  0
 23 24  2  0  0  0
 23 25  1  0  0  0
 25 26  1  0  0  0
 25 29  1  0  0  0
 26 27  1  0  0  0
 27 28  1  0  0  0
 27 49  1  0  0  0
 27 52  1  1  0  0
 28 29  1  0  0  0
 29 30  1  6  0  0
 30 31  2  0  0  0
 30 32  1  0  0  0
 32 33  1  0  0  0
 33 34  1  0  0  0
 33 38  1  0  0  0
 33 35  1  1  0  0
 34 35  1  0  0  0
 35 36  1  6  0  0
 36 37  2  0  0  0
 38 39  2  0  0  0
 38 40  1  0  0  0
 40 41  1  0  0  0
 41 42  2  0  0  0
 41 43  2  0  0  0
 41 44  1  0  0  0
 44 45  1  0  0  0
 44 48  1  0  0  0
 45 46  1  0  0  0
 46 47  1  0  0  0
 47 48  1  0  0  0
 49 50  1  0  0  0
 49 51  1  0  0  0
 49 52  1  0  0  0
 52 53  1  0  0  0
 52 55  1  0  0  0
 53 54  1  0  0  0
 54 55  1  0  0  0
 56 57  1  0  0  0
 56 58  1  0  0  0
 56 59  1  0  0  0
M  END
> <s_m_entry_id>
6734

> <s_m_entry_name>
NS3-4A.275

> <CHEMBLID>
CHEMBL3645590

> <s_m_Source_Path>
/home/liwei/Desktop/Machine/HCV/Active

> <s_m_Source_File>
NS3-4A.sdf

> <i_m_Source_File_Index>
275

$$$$
CHEMBL3645591
                    3D
 Structure written by MMmdl.
 58 64  0  0  1  0            999 V2000
   -8.4590   -3.9406    0.0000 C   0  0  0  0  0  0
   -7.2455   -4.8223    0.0000 C   0  0  0  0  0  0
   -7.4023   -6.3140    0.0000 C   0  0  0  0  0  0
   -5.8752   -4.2122    0.0000 N   0  0  0  0  0  0
   -5.3376   -2.8118    0.0000 C   0  0  0  0  0  0
   -3.9372   -3.3493    0.0000 C   0  0  0  0  0  0
   -4.4748   -4.7497    0.0000 C   0  0  1  0  0  0
   -3.8647   -6.1200    0.0000 C   0  0  0  0  0  0
   -4.7464   -7.3335    0.0000 O   0  0  0  0  0  0
   -2.3729   -6.2768    0.0000 N   0  0  0  0  0  0
   -1.7628   -7.6471    0.0000 C   0  0  1  0  0  0
   -2.6445   -8.8607    0.0000 C   0  0  0  0  0  0
   -4.1363   -8.7039    0.0000 C   0  0  0  0  0  0
   -5.0179   -9.9174    0.0000 C   0  0  0  0  0  0
   -4.4078  -11.2877    0.0000 C   0  0  0  0  0  0
   -2.9161  -11.4445    0.0000 C   0  0  0  0  0  0
   -2.0344  -10.2310    0.0000 C   0  0  0  0  0  0
   -0.2710   -7.8039    0.0000 C   0  0  0  0  0  0
    0.3391   -9.1742    0.0000 O   0  0  0  0  0  0
    0.6107   -6.5904    0.0000 N   0  0  0  0  0  0
    2.1024   -6.7472    0.0000 C   0  0  2  0  0  0
    2.9841   -5.5337    0.0000 C   0  0  0  0  0  0
    4.4759   -5.6905    0.0000 O   0  0  0  0  0  0
    2.3740   -4.1633    0.0000 N   0  0  0  0  0  0
    0.9068   -3.8515    0.0000 C   0  0  0  0  0  0
    0.7500   -2.3597    0.0000 C   0  0  1  0  0  0
    2.1203   -1.7496    0.0000 C   0  0  0  0  0  0
    3.1240   -2.8643    0.0000 C   0  0  1  0  0  0
    4.6158   -2.7075    0.0000 C   0  0  0  0  0  0
    5.2259   -1.3372    0.0000 O   0  0  0  0  0  0
    5.4975   -3.9210    0.0000 N   0  0  0  0  0  0
    6.9893   -3.7643    0.0000 C   0  0  1  0  0  0
    8.3374   -3.1067    0.0000 C   0  0  0  0  0  0
    7.0939   -2.2679    0.0000 C   0  0  1  0  0  0
    6.4363   -0.9197    0.0000 C   0  0  0  0  0  0
    7.2751    0.3238    0.0000 C   0  0  0  0  0  0
    7.4027   -5.2061    0.0000 C   0  0  0  0  0  0
    6.3607   -6.2852    0.0000 O   0  0  0  0  0  0
    8.8582   -5.5690    0.0000 N   0  0  0  0  0  0
    9.2716   -7.0109    0.0000 S   0  0  0  0  0  0
   10.7135   -6.5975    0.0000 O   0  0  0  0  0  0
    7.8297   -7.4244    0.0000 O   0  0  0  0  0  0
    9.6851   -8.4528    0.0000 N   0  0  0  0  0  0
    8.7616   -9.6348    0.0000 C   0  0  0  0  0  0
    9.6004  -10.8784    0.0000 C   0  0  0  0  0  0
   11.0423  -10.4649    0.0000 C   0  0  0  0  0  0
   11.0946   -8.9658    0.0000 C   0  0  0  0  0  0
   -0.7500   -2.3597    0.0000 C   0  0  0  0  0  0
   -1.0105   -3.8369    0.0000 C   0  0  0  0  0  0
   -2.1595   -1.8467    0.0000 C   0  0  0  0  0  0
   -0.0000   -1.0607    0.0000 C   0  0  0  0  0  0
    1.0607    0.0000    0.0000 C   0  0  0  0  0  0
    0.0000    1.0607    0.0000 C   0  0  0  0  0  0
   -1.0607    0.0000    0.0000 C   0  0  0  0  0  0
    2.7125   -8.1175    0.0000 C   0  0  0  0  0  0
    1.3422   -8.7276    0.0000 C   0  0  0  0  0  0
    4.0829   -7.5074    0.0000 C   0  0  0  0  0  0
    3.3227   -9.4878    0.0000 C   0  0  0  0  0  0
  1  2  1  0  0  0
  2  3  1  0  0  0
  2  4  1  0  0  0
  4  5  1  0  0  0
  4  7  1  0  0  0
  5  6  1  0  0  0
  6  7  1  0  0  0
  7  8  1  6  0  0
  8  9  2  0  0  0
  8 10  1  0  0  0
 10 11  1  0  0  0
 11 12  1  0  0  0
 11 18  1  6  0  0
 12 13  1  0  0  0
 12 17  1  0  0  0
 13 14  1  0  0  0
 14 15  1  0  0  0
 15 16  1  0  0  0
 16 17  1  0  0  0
 18 19  2  0  0  0
 18 20  1  0  0  0
 20 21  1  0  0  0
 21 22  1  0  0  0
 21 55  1  1  0  0
 22 23  2  0  0  0
 22 24  1  0  0  0
 24 25  1  0  0  0
 24 28  1  0  0  0
 25 26  1  0  0  0
 26 27  1  0  0  0
 26 48  1  0  0  0
 26 51  1  1  0  0
 27 28  1  0  0  0
 28 29  1  6  0  0
 29 30  2  0  0  0
 29 31  1  0  0  0
 31 32  1  0  0  0
 32 33  1  0  0  0
 32 37  1  0  0  0
 32 34  1  1  0  0
 33 34  1  0  0  0
 34 35  1  6  0  0
 35 36  2  0  0  0
 37 38  2  0  0  0
 37 39  1  0  0  0
 39 40  1  0  0  0
 40 41  2  0  0  0
 40 42  2  0  0  0
 40 43  1  0  0  0
 43 44  1  0  0  0
 43 47  1  0  0  0
 44 45  1  0  0  0
 45 46  1  0  0  0
 46 47  1  0  0  0
 48 49  1  0  0  0
 48 50  1  0  0  0
 48 51  1  0  0  0
 51 52  1  0  0  0
 51 54  1  0  0  0
 52 53  1  0  0  0
 53 54  1  0  0  0
 55 56  1  0  0  0
 55 57  1  0  0  0
 55 58  1  0  0  0
M  END
> <s_m_entry_id>
6735

> <s_m_entry_name>
NS3-4A.276

> <CHEMBLID>
CHEMBL3645591

> <s_m_Source_Path>
/home/liwei/Desktop/Machine/HCV/Active

> <s_m_Source_File>
NS3-4A.sdf

> <i_m_Source_File_Index>
276

$$$$
CHEMBL3645592
                    3D
 Structure written by MMmdl.
 58 64  0  0  1  0            999 V2000
   -8.4590   -3.9406    0.0000 C   0  0  0  0  0  0
   -7.2455   -4.8223    0.0000 C   0  0  0  0  0  0
   -7.4023   -6.3140    0.0000 C   0  0  0  0  0  0
   -5.8752   -4.2122    0.0000 N   0  0  0  0  0  0
   -5.3376   -2.8118    0.0000 C   0  0  0  0  0  0
   -3.9372   -3.3493    0.0000 C   0  0  0  0  0  0
   -4.4748   -4.7497    0.0000 C   0  0  2  0  0  0
   -3.8647   -6.1200    0.0000 C   0  0  0  0  0  0
   -4.7464   -7.3335    0.0000 O   0  0  0  0  0  0
   -2.3729   -6.2768    0.0000 N   0  0  0  0  0  0
   -1.7628   -7.6471    0.0000 C   0  0  1  0  0  0
   -2.6445   -8.8607    0.0000 C   0  0  0  0  0  0
   -4.1363   -8.7039    0.0000 C   0  0  0  0  0  0
   -5.0179   -9.9174    0.0000 C   0  0  0  0  0  0
   -4.4078  -11.2877    0.0000 C   0  0  0  0  0  0
   -2.9161  -11.4445    0.0000 C   0  0  0  0  0  0
   -2.0344  -10.2310    0.0000 C   0  0  0  0  0  0
   -0.2710   -7.8039    0.0000 C   0  0  0  0  0  0
    0.3391   -9.1742    0.0000 O   0  0  0  0  0  0
    0.6107   -6.5904    0.0000 N   0  0  0  0  0  0
    2.1024   -6.7472    0.0000 C   0  0  2  0  0  0
    2.9841   -5.5337    0.0000 C   0  0  0  0  0  0
    4.4759   -5.6905    0.0000 O   0  0  0  0  0  0
    2.3740   -4.1633    0.0000 N   0  0  0  0  0  0
    0.9068   -3.8515    0.0000 C   0  0  0  0  0  0
    0.7500   -2.3597    0.0000 C   0  0  1  0  0  0
    2.1203   -1.7496    0.0000 C   0  0  0  0  0  0
    3.1240   -2.8643    0.0000 C   0  0  1  0  0  0
    4.6158   -2.7075    0.0000 C   0  0  0  0  0  0
    5.2259   -1.3372    0.0000 O   0  0  0  0  0  0
    5.4975   -3.9210    0.0000 N   0  0  0  0  0  0
    6.9893   -3.7643    0.0000 C   0  0  1  0  0  0
    8.3374   -3.1067    0.0000 C   0  0  0  0  0  0
    7.0939   -2.2679    0.0000 C   0  0  1  0  0  0
    6.4363   -0.9197    0.0000 C   0  0  0  0  0  0
    7.2751    0.3238    0.0000 C   0  0  0  0  0  0
    7.4027   -5.2061    0.0000 C   0  0  0  0  0  0
    6.3607   -6.2852    0.0000 O   0  0  0  0  0  0
    8.8582   -5.5690    0.0000 N   0  0  0  0  0  0
    9.2716   -7.0109    0.0000 S   0  0  0  0  0  0
   10.7135   -6.5975    0.0000 O   0  0  0  0  0  0
    7.8297   -7.4244    0.0000 O   0  0  0  0  0  0
    9.6851   -8.4528    0.0000 N   0  0  0  0  0  0
    8.7616   -9.6348    0.0000 C   0  0  0  0  0  0
    9.6004  -10.8784    0.0000 C   0  0  0  0  0  0
   11.0423  -10.4649    0.0000 C   0  0  0  0  0  0
   11.0946   -8.9658    0.0000 C   0  0  0  0  0  0
   -0.7500   -2.3597    0.0000 C   0  0  0  0  0  0
   -1.0105   -3.8369    0.0000 C   0  0  0  0  0  0
   -2.1595   -1.8467    0.0000 C   0  0  0  0  0  0
   -0.0000   -1.0607    0.0000 C   0  0  0  0  0  0
    1.0607    0.0000    0.0000 C   0  0  0  0  0  0
    0.0000    1.0607    0.0000 C   0  0  0  0  0  0
   -1.0607    0.0000    0.0000 C   0  0  0  0  0  0
    2.7125   -8.1175    0.0000 C   0  0  0  0  0  0
    1.3422   -8.7276    0.0000 C   0  0  0  0  0  0
    4.0829   -7.5074    0.0000 C   0  0  0  0  0  0
    3.3227   -9.4878    0.0000 C   0  0  0  0  0  0
  1  2  1  0  0  0
  2  3  1  0  0  0
  2  4  1  0  0  0
  4  5  1  0  0  0
  4  7  1  0  0  0
  5  6  1  0  0  0
  6  7  1  0  0  0
  7  8  1  6  0  0
  8  9  2  0  0  0
  8 10  1  0  0  0
 10 11  1  0  0  0
 11 12  1  0  0  0
 11 18  1  6  0  0
 12 13  1  0  0  0
 12 17  1  0  0  0
 13 14  1  0  0  0
 14 15  1  0  0  0
 15 16  1  0  0  0
 16 17  1  0  0  0
 18 19  2  0  0  0
 18 20  1  0  0  0
 20 21  1  0  0  0
 21 22  1  0  0  0
 21 55  1  1  0  0
 22 23  2  0  0  0
 22 24  1  0  0  0
 24 25  1  0  0  0
 24 28  1  0  0  0
 25 26  1  0  0  0
 26 27  1  0  0  0
 26 48  1  0  0  0
 26 51  1  1  0  0
 27 28  1  0  0  0
 28 29  1  6  0  0
 29 30  2  0  0  0
 29 31  1  0  0  0
 31 32  1  0  0  0
 32 33  1  0  0  0
 32 37  1  0  0  0
 32 34  1  1  0  0
 33 34  1  0  0  0
 34 35  1  6  0  0
 35 36  2  0  0  0
 37 38  2  0  0  0
 37 39  1  0  0  0
 39 40  1  0  0  0
 40 41  2  0  0  0
 40 42  2  0  0  0
 40 43  1  0  0  0
 43 44  1  0  0  0
 43 47  1  0  0  0
 44 45  1  0  0  0
 45 46  1  0  0  0
 46 47  1  0  0  0
 48 49  1  0  0  0
 48 50  1  0  0  0
 48 51  1  0  0  0
 51 52  1  0  0  0
 51 54  1  0  0  0
 52 53  1  0  0  0
 53 54  1  0  0  0
 55 56  1  0  0  0
 55 57  1  0  0  0
 55 58  1  0  0  0
M  END
> <s_m_entry_id>
6736

> <s_m_entry_name>
NS3-4A.277

> <CHEMBLID>
CHEMBL3645592

> <s_m_Source_Path>
/home/liwei/Desktop/Machine/HCV/Active

> <s_m_Source_File>
NS3-4A.sdf

> <i_m_Source_File_Index>
277

$$$$
CHEMBL3645593
                    3D
 Structure written by MMmdl.
 58 64  0  0  1  0            999 V2000
   -5.0660   -0.2279    0.0000 C   0  0  0  0  0  0
   -5.9477   -1.4415    0.0000 C   0  0  0  0  0  0
   -7.4395   -1.2847    0.0000 C   0  0  0  0  0  0
   -5.3376   -2.8118    0.0000 N   0  0  0  0  0  0
   -3.9372   -3.3493    0.0000 C   0  0  0  0  0  0
   -4.4748   -4.7497    0.0000 C   0  0  0  0  0  0
   -5.8752   -4.2122    0.0000 C   0  0  0  0  0  0
   -3.8647   -6.1200    0.0000 C   0  0  0  0  0  0
   -4.7464   -7.3335    0.0000 O   0  0  0  0  0  0
   -2.3729   -6.2768    0.0000 N   0  0  0  0  0  0
   -1.7628   -7.6471    0.0000 C   0  0  1  0  0  0
   -2.6445   -8.8607    0.0000 C   0  0  0  0  0  0
   -4.1363   -8.7039    0.0000 C   0  0  0  0  0  0
   -5.0179   -9.9174    0.0000 C   0  0  0  0  0  0
   -4.4078  -11.2877    0.0000 C   0  0  0  0  0  0
   -2.9161  -11.4445    0.0000 C   0  0  0  0  0  0
   -2.0344  -10.2310    0.0000 C   0  0  0  0  0  0
   -0.2710   -7.8039    0.0000 C   0  0  0  0  0  0
    0.3391   -9.1742    0.0000 O   0  0  0  0  0  0
    0.6107   -6.5904    0.0000 N   0  0  0  0  0  0
    2.1024   -6.7472    0.0000 C   0  0  2  0  0  0
    2.9841   -5.5337    0.0000 C   0  0  0  0  0  0
    4.4759   -5.6905    0.0000 O   0  0  0  0  0  0
    2.3740   -4.1633    0.0000 N   0  0  0  0  0  0
    0.9068   -3.8515    0.0000 C   0  0  0  0  0  0
    0.7500   -2.3597    0.0000 C   0  0  1  0  0  0
    2.1203   -1.7496    0.0000 C   0  0  0  0  0  0
    3.1240   -2.8643    0.0000 C   0  0  1  0  0  0
    4.6158   -2.7075    0.0000 C   0  0  0  0  0  0
    5.2259   -1.3372    0.0000 O   0  0  0  0  0  0
    5.4975   -3.9210    0.0000 N   0  0  0  0  0  0
    6.9893   -3.7643    0.0000 C   0  0  1  0  0  0
    8.3374   -3.1067    0.0000 C   0  0  0  0  0  0
    7.0939   -2.2679    0.0000 C   0  0  1  0  0  0
    6.4363   -0.9197    0.0000 C   0  0  0  0  0  0
    7.2751    0.3238    0.0000 C   0  0  0  0  0  0
    7.4027   -5.2061    0.0000 C   0  0  0  0  0  0
    6.3607   -6.2852    0.0000 O   0  0  0  0  0  0
    8.8582   -5.5690    0.0000 N   0  0  0  0  0  0
    9.2716   -7.0109    0.0000 S   0  0  0  0  0  0
   10.7135   -6.5975    0.0000 O   0  0  0  0  0  0
    7.8297   -7.4244    0.0000 O   0  0  0  0  0  0
    9.6851   -8.4528    0.0000 N   0  0  0  0  0  0
    8.7616   -9.6348    0.0000 C   0  0  0  0  0  0
    9.6004  -10.8784    0.0000 C   0  0  0  0  0  0
   11.0423  -10.4649    0.0000 C   0  0  0  0  0  0
   11.0946   -8.9658    0.0000 C   0  0  0  0  0  0
   -0.7500   -2.3597    0.0000 C   0  0  0  0  0  0
   -1.0105   -3.8369    0.0000 C   0  0  0  0  0  0
   -2.1595   -1.8467    0.0000 C   0  0  0  0  0  0
   -0.0000   -1.0607    0.0000 C   0  0  0  0  0  0
    1.0607    0.0000    0.0000 C   0  0  0  0  0  0
    0.0000    1.0607    0.0000 C   0  0  0  0  0  0
   -1.0607    0.0000    0.0000 C   0  0  0  0  0  0
    2.7125   -8.1175    0.0000 C   0  0  0  0  0  0
    1.3422   -8.7276    0.0000 C   0  0  0  0  0  0
    4.0829   -7.5074    0.0000 C   0  0  0  0  0  0
    3.3227   -9.4878    0.0000 C   0  0  0  0  0  0
  1  2  1  0  0  0
  2  3  1  0  0  0
  2  4  1  0  0  0
  4  5  1  0  0  0
  4  7  1  0  0  0
  5  6  1  0  0  0
  6  7  1  0  0  0
  6  8  1  0  0  0
  8  9  2  0  0  0
  8 10  1  0  0  0
 10 11  1  0  0  0
 11 12  1  0  0  0
 11 18  1  6  0  0
 12 13  1  0  0  0
 12 17  1  0  0  0
 13 14  1  0  0  0
 14 15  1  0  0  0
 15 16  1  0  0  0
 16 17  1  0  0  0
 18 19  2  0  0  0
 18 20  1  0  0  0
 20 21  1  0  0  0
 21 22  1  0  0  0
 21 55  1  1  0  0
 22 23  2  0  0  0
 22 24  1  0  0  0
 24 25  1  0  0  0
 24 28  1  0  0  0
 25 26  1  0  0  0
 26 27  1  0  0  0
 26 48  1  0  0  0
 26 51  1  1  0  0
 27 28  1  0  0  0
 28 29  1  6  0  0
 29 30  2  0  0  0
 29 31  1  0  0  0
 31 32  1  0  0  0
 32 33  1  0  0  0
 32 37  1  0  0  0
 32 34  1  1  0  0
 33 34  1  0  0  0
 34 35  1  6  0  0
 35 36  2  0  0  0
 37 38  2  0  0  0
 37 39  1  0  0  0
 39 40  1  0  0  0
 40 41  2  0  0  0
 40 42  2  0  0  0
 40 43  1  0  0  0
 43 44  1  0  0  0
 43 47  1  0  0  0
 44 45  1  0  0  0
 45 46  1  0  0  0
 46 47  1  0  0  0
 48 49  1  0  0  0
 48 50  1  0  0  0
 48 51  1  0  0  0
 51 52  1  0  0  0
 51 54  1  0  0  0
 52 53  1  0  0  0
 53 54  1  0  0  0
 55 56  1  0  0  0
 55 57  1  0  0  0
 55 58  1  0  0  0
M  END
> <s_m_entry_id>
6737

> <s_m_entry_name>
NS3-4A.278

> <CHEMBLID>
CHEMBL3645593

> <s_m_Source_Path>
/home/liwei/Desktop/Machine/HCV/Active

> <s_m_Source_File>
NS3-4A.sdf

> <i_m_Source_File_Index>
278

$$$$
CHEMBL3645594
                    3D
 Structure written by MMmdl.
 58 63  0  0  1  0            999 V2000
   -3.8580   -7.9790    0.0000 C   0  0  0  0  0  0
   -2.6445   -8.8607    0.0000 C   0  0  0  0  0  0
   -1.4310   -9.7423    0.0000 C   0  0  0  0  0  0
   -3.5262  -10.0742    0.0000 C   0  0  0  0  0  0
   -1.7628   -7.6471    0.0000 C   0  0  2  0  0  0
   -2.3729   -6.2768    0.0000 N   0  0  0  0  0  0
   -3.8647   -6.1200    0.0000 C   0  0  0  0  0  0
   -4.7464   -7.3335    0.0000 O   0  0  0  0  0  0
   -4.4748   -4.7497    0.0000 C   0  0  2  0  0  0
   -3.5931   -3.5362    0.0000 C   0  0  0  0  0  0
   -4.2032   -2.1659    0.0000 C   0  0  0  0  0  0
   -5.6950   -2.0091    0.0000 C   0  0  0  0  0  0
   -6.5767   -3.2226    0.0000 C   0  0  0  0  0  0
   -5.9666   -4.5929    0.0000 N   0  0  0  0  0  0
   -6.8483   -5.8064    0.0000 C   0  0  0  0  0  0
   -8.3400   -5.6496    0.0000 C   0  0  0  0  0  0
   -9.2217   -6.8632    0.0000 F   0  0  0  0  0  0
   -0.2710   -7.8039    0.0000 C   0  0  0  0  0  0
    0.3391   -9.1742    0.0000 O   0  0  0  0  0  0
    0.6107   -6.5904    0.0000 N   0  0  0  0  0  0
    2.1024   -6.7472    0.0000 C   0  0  2  0  0  0
    2.9841   -5.5337    0.0000 C   0  0  0  0  0  0
    4.4759   -5.6905    0.0000 O   0  0  0  0  0  0
    2.3740   -4.1633    0.0000 N   0  0  0  0  0  0
    0.9068   -3.8515    0.0000 C   0  0  0  0  0  0
    0.7500   -2.3597    0.0000 C   0  0  1  0  0  0
    2.1203   -1.7496    0.0000 C   0  0  0  0  0  0
    3.1240   -2.8643    0.0000 C   0  0  1  0  0  0
    4.6158   -2.7075    0.0000 C   0  0  0  0  0  0
    5.2259   -1.3372    0.0000 O   0  0  0  0  0  0
    5.4975   -3.9210    0.0000 N   0  0  0  0  0  0
    6.9893   -3.7643    0.0000 C   0  0  1  0  0  0
    8.3374   -3.1067    0.0000 C   0  0  0  0  0  0
    7.0939   -2.2679    0.0000 C   0  0  1  0  0  0
    6.4363   -0.9197    0.0000 C   0  0  0  0  0  0
    7.2751    0.3238    0.0000 C   0  0  0  0  0  0
    7.4027   -5.2061    0.0000 C   0  0  0  0  0  0
    6.3607   -6.2852    0.0000 O   0  0  0  0  0  0
    8.8582   -5.5690    0.0000 N   0  0  0  0  0  0
    9.2716   -7.0109    0.0000 S   0  0  0  0  0  0
   10.7135   -6.5975    0.0000 O   0  0  0  0  0  0
    7.8297   -7.4244    0.0000 O   0  0  0  0  0  0
    9.6851   -8.4528    0.0000 N   0  0  0  0  0  0
    8.7616   -9.6348    0.0000 C   0  0  0  0  0  0
    9.6004  -10.8784    0.0000 C   0  0  0  0  0  0
   11.0423  -10.4649    0.0000 C   0  0  0  0  0  0
   11.0946   -8.9658    0.0000 C   0  0  0  0  0  0
   -0.7500   -2.3597    0.0000 C   0  0  0  0  0  0
   -1.0105   -3.8369    0.0000 C   0  0  0  0  0  0
   -2.1595   -1.8467    0.0000 C   0  0  0  0  0  0
   -0.0000   -1.0607    0.0000 C   0  0  0  0  0  0
    1.0607    0.0000    0.0000 C   0  0  0  0  0  0
    0.0000    1.0607    0.0000 C   0  0  0  0  0  0
   -1.0607    0.0000    0.0000 C   0  0  0  0  0  0
    2.7125   -8.1175    0.0000 C   0  0  0  0  0  0
    1.3422   -8.7276    0.0000 C   0  0  0  0  0  0
    4.0829   -7.5074    0.0000 C   0  0  0  0  0  0
    3.3227   -9.4878    0.0000 C   0  0  0  0  0  0
  1  2  1  0  0  0
  2  3  1  0  0  0
  2  4  1  0  0  0
  2  5  1  0  0  0
  5  6  1  0  0  0
  5 18  1  1  0  0
  6  7  1  0  0  0
  7  8  2  0  0  0
  7  9  1  0  0  0
  9 10  1  0  0  0
  9 14  1  1  0  0
 10 11  1  0  0  0
 11 12  1  0  0  0
 12 13  1  0  0  0
 13 14  1  0  0  0
 14 15  1  0  0  0
 15 16  1  0  0  0
 16 17  1  0  0  0
 18 19  2  0  0  0
 18 20  1  0  0  0
 20 21  1  0  0  0
 21 22  1  0  0  0
 21 55  1  1  0  0
 22 23  2  0  0  0
 22 24  1  0  0  0
 24 25  1  0  0  0
 24 28  1  0  0  0
 25 26  1  0  0  0
 26 27  1  0  0  0
 26 48  1  0  0  0
 26 51  1  1  0  0
 27 28  1  0  0  0
 28 29  1  6  0  0
 29 30  2  0  0  0
 29 31  1  0  0  0
 31 32  1  0  0  0
 32 33  1  0  0  0
 32 37  1  0  0  0
 32 34  1  1  0  0
 33 34  1  0  0  0
 34 35  1  6  0  0
 35 36  2  0  0  0
 37 38  2  0  0  0
 37 39  1  0  0  0
 39 40  1  0  0  0
 40 41  2  0  0  0
 40 42  2  0  0  0
 40 43  1  0  0  0
 43 44  1  0  0  0
 43 47  1  0  0  0
 44 45  1  0  0  0
 45 46  1  0  0  0
 46 47  1  0  0  0
 48 49  1  0  0  0
 48 50  1  0  0  0
 48 51  1  0  0  0
 51 52  1  0  0  0
 51 54  1  0  0  0
 52 53  1  0  0  0
 53 54  1  0  0  0
 55 56  1  0  0  0
 55 57  1  0  0  0
 55 58  1  0  0  0
M  END
> <s_m_entry_id>
6738

> <s_m_entry_name>
NS3-4A.279

> <CHEMBLID>
CHEMBL3645594

> <s_m_Source_Path>
/home/liwei/Desktop/Machine/HCV/Active

> <s_m_Source_File>
NS3-4A.sdf

> <i_m_Source_File_Index>
279

$$$$
CHEMBL3645595
                    3D
 Structure written by MMmdl.
 57 62  0  0  1  0            999 V2000
    5.2999   -9.3398    0.0000 C   0  0  0  0  0  0
    6.7265   -9.8033    0.0000 C   0  0  0  0  0  0
    7.8412   -8.7996    0.0000 C   0  0  0  0  0  0
    7.0383  -11.2705    0.0000 N   0  0  0  0  0  0
    8.4087  -11.8806    0.0000 C   0  0  0  0  0  0
    8.2519  -13.3724    0.0000 C   0  0  0  0  0  0
    6.7846  -13.6843    0.0000 C   0  0  0  0  0  0
    6.0346  -12.3853    0.0000 C   0  0  2  0  0  0
    4.5429  -12.2285    0.0000 C   0  0  0  0  0  0
    3.6612  -13.4420    0.0000 O   0  0  0  0  0  0
    3.9328  -10.8581    0.0000 N   0  0  0  0  0  0
    2.4410  -10.7014    0.0000 C   0  0  2  0  0  0
    1.8309   -9.3310    0.0000 C   0  0  0  0  0  0
    0.3391   -9.1742    0.0000 O   0  0  0  0  0  0
    2.7125   -8.1175    0.0000 N   0  0  0  0  0  0
    2.1024   -6.7472    0.0000 C   0  0  2  0  0  0
    2.9841   -5.5337    0.0000 C   0  0  0  0  0  0
    4.4759   -5.6905    0.0000 O   0  0  0  0  0  0
    2.3740   -4.1633    0.0000 N   0  0  0  0  0  0
    0.9068   -3.8515    0.0000 C   0  0  0  0  0  0
    0.7500   -2.3597    0.0000 C   0  0  1  0  0  0
    2.1203   -1.7496    0.0000 C   0  0  0  0  0  0
    3.1240   -2.8643    0.0000 C   0  0  1  0  0  0
    4.6158   -2.7075    0.0000 C   0  0  0  0  0  0
    5.2259   -1.3372    0.0000 O   0  0  0  0  0  0
    5.4975   -3.9210    0.0000 N   0  0  0  0  0  0
    6.9893   -3.7643    0.0000 C   0  0  1  0  0  0
    8.3374   -3.1067    0.0000 C   0  0  0  0  0  0
    7.0939   -2.2679    0.0000 C   0  0  1  0  0  0
    6.4363   -0.9197    0.0000 C   0  0  0  0  0  0
    7.2751    0.3238    0.0000 C   0  0  0  0  0  0
    7.4027   -5.2061    0.0000 C   0  0  0  0  0  0
    6.3607   -6.2852    0.0000 O   0  0  0  0  0  0
    8.8582   -5.5690    0.0000 N   0  0  0  0  0  0
    9.2716   -7.0109    0.0000 S   0  0  0  0  0  0
   10.7135   -6.5975    0.0000 O   0  0  0  0  0  0
    7.8297   -7.4244    0.0000 O   0  0  0  0  0  0
    9.6851   -8.4528    0.0000 N   0  0  0  0  0  0
    8.7616   -9.6348    0.0000 C   0  0  0  0  0  0
    9.6004  -10.8784    0.0000 C   0  0  0  0  0  0
   11.0423  -10.4649    0.0000 C   0  0  0  0  0  0
   11.0946   -8.9658    0.0000 C   0  0  0  0  0  0
   -0.7500   -2.3597    0.0000 C   0  0  0  0  0  0
   -1.0105   -3.8369    0.0000 C   0  0  0  0  0  0
   -2.1595   -1.8467    0.0000 C   0  0  0  0  0  0
   -0.0000   -1.0607    0.0000 C   0  0  0  0  0  0
    1.0607    0.0000    0.0000 C   0  0  0  0  0  0
    0.0000    1.0607    0.0000 C   0  0  0  0  0  0
   -1.0607    0.0000    0.0000 C   0  0  0  0  0  0
    0.6107   -6.5904    0.0000 C   0  0  0  0  0  0
    0.4539   -8.0822    0.0000 C   0  0  0  0  0  0
    0.7675   -5.0986    0.0000 C   0  0  0  0  0  0
   -0.8811   -6.4336    0.0000 C   0  0  0  0  0  0
    1.5593  -11.9149    0.0000 C   0  0  0  0  0  0
    2.7728  -12.7966    0.0000 C   0  0  0  0  0  0
    0.3458  -11.0332    0.0000 C   0  0  0  0  0  0
    0.6776  -13.1284    0.0000 C   0  0  0  0  0  0
  1  2  1  0  0  0
  2  3  1  0  0  0
  2  4  1  0  0  0
  4  5  1  0  0  0
  4  8  1  0  0  0
  5  6  1  0  0  0
  6  7  1  0  0  0
  7  8  1  0  0  0
  8  9  1  6  0  0
  9 10  2  0  0  0
  9 11  1  0  0  0
 11 12  1  0  0  0
 12 13  1  0  0  0
 12 54  1  1  0  0
 13 14  2  0  0  0
 13 15  1  0  0  0
 15 16  1  0  0  0
 16 17  1  0  0  0
 16 50  1  1  0  0
 17 18  2  0  0  0
 17 19  1  0  0  0
 19 20  1  0  0  0
 19 23  1  0  0  0
 20 21  1  0  0  0
 21 22  1  0  0  0
 21 43  1  0  0  0
 21 46  1  1  0  0
 22 23  1  0  0  0
 23 24  1  6  0  0
 24 25  2  0  0  0
 24 26  1  0  0  0
 26 27  1  0  0  0
 27 28  1  0  0  0
 27 32  1  0  0  0
 27 29  1  1  0  0
 28 29  1  0  0  0
 29 30  1  6  0  0
 30 31  2  0  0  0
 32 33  2  0  0  0
 32 34  1  0  0  0
 34 35  1  0  0  0
 35 36  2  0  0  0
 35 37  2  0  0  0
 35 38  1  0  0  0
 38 39  1  0  0  0
 38 42  1  0  0  0
 39 40  1  0  0  0
 40 41  1  0  0  0
 41 42  1  0  0  0
 43 44  1  0  0  0
 43 45  1  0  0  0
 43 46  1  0  0  0
 46 47  1  0  0  0
 46 49  1  0  0  0
 47 48  1  0  0  0
 48 49  1  0  0  0
 50 51  1  0  0  0
 50 52  1  0  0  0
 50 53  1  0  0  0
 54 55  1  0  0  0
 54 56  1  0  0  0
 54 57  1  0  0  0
M  END
> <s_m_entry_id>
6739

> <s_m_entry_name>
NS3-4A.280

> <CHEMBLID>
CHEMBL3645595

> <s_m_Source_Path>
/home/liwei/Desktop/Machine/HCV/Active

> <s_m_Source_File>
NS3-4A.sdf

> <i_m_Source_File_Index>
280

$$$$
CHEMBL3645596
                    3D
 Structure written by MMmdl.
 56 61  0  0  1  0            999 V2000
   -8.4590   -3.9406    0.0000 C   0  0  0  0  0  0
   -7.2455   -4.8223    0.0000 C   0  0  0  0  0  0
   -7.4023   -6.3140    0.0000 C   0  0  0  0  0  0
   -5.8752   -4.2122    0.0000 N   0  0  0  0  0  0
   -5.3376   -2.8118    0.0000 C   0  0  0  0  0  0
   -3.9372   -3.3493    0.0000 C   0  0  0  0  0  0
   -4.4748   -4.7497    0.0000 C   0  0  2  0  0  0
   -3.8647   -6.1200    0.0000 C   0  0  0  0  0  0
   -4.7464   -7.3335    0.0000 O   0  0  0  0  0  0
   -2.3729   -6.2768    0.0000 N   0  0  0  0  0  0
   -1.7628   -7.6471    0.0000 C   0  0  2  0  0  0
   -0.2710   -7.8039    0.0000 C   0  0  0  0  0  0
    0.3391   -9.1742    0.0000 O   0  0  0  0  0  0
    0.6107   -6.5904    0.0000 N   0  0  0  0  0  0
    2.1024   -6.7472    0.0000 C   0  0  2  0  0  0
    2.9841   -5.5337    0.0000 C   0  0  0  0  0  0
    4.4759   -5.6905    0.0000 O   0  0  0  0  0  0
    2.3740   -4.1633    0.0000 N   0  0  0  0  0  0
    0.9068   -3.8515    0.0000 C   0  0  0  0  0  0
    0.7500   -2.3597    0.0000 C   0  0  1  0  0  0
    2.1203   -1.7496    0.0000 C   0  0  0  0  0  0
    3.1240   -2.8643    0.0000 C   0  0  1  0  0  0
    4.6158   -2.7075    0.0000 C   0  0  0  0  0  0
    5.2259   -1.3372    0.0000 O   0  0  0  0  0  0
    5.4975   -3.9210    0.0000 N   0  0  0  0  0  0
    6.9893   -3.7643    0.0000 C   0  0  1  0  0  0
    8.3374   -3.1067    0.0000 C   0  0  0  0  0  0
    7.0939   -2.2679    0.0000 C   0  0  1  0  0  0
    6.4363   -0.9197    0.0000 C   0  0  0  0  0  0
    7.2751    0.3238    0.0000 C   0  0  0  0  0  0
    7.4027   -5.2061    0.0000 C   0  0  0  0  0  0
    6.3607   -6.2852    0.0000 O   0  0  0  0  0  0
    8.8582   -5.5690    0.0000 N   0  0  0  0  0  0
    9.2716   -7.0109    0.0000 S   0  0  0  0  0  0
   10.7135   -6.5975    0.0000 O   0  0  0  0  0  0
    7.8297   -7.4244    0.0000 O   0  0  0  0  0  0
    9.6851   -8.4528    0.0000 N   0  0  0  0  0  0
    8.7616   -9.6348    0.0000 C   0  0  0  0  0  0
    9.6004  -10.8784    0.0000 C   0  0  0  0  0  0
   11.0423  -10.4649    0.0000 C   0  0  0  0  0  0
   11.0946   -8.9658    0.0000 C   0  0  0  0  0  0
   -0.7500   -2.3597    0.0000 C   0  0  0  0  0  0
   -1.0105   -3.8369    0.0000 C   0  0  0  0  0  0
   -2.1595   -1.8467    0.0000 C   0  0  0  0  0  0
   -0.0000   -1.0607    0.0000 C   0  0  0  0  0  0
    1.0607    0.0000    0.0000 C   0  0  0  0  0  0
    0.0000    1.0607    0.0000 C   0  0  0  0  0  0
   -1.0607    0.0000    0.0000 C   0  0  0  0  0  0
    2.7125   -8.1175    0.0000 C   0  0  0  0  0  0
    1.3422   -8.7276    0.0000 C   0  0  0  0  0  0
    4.0829   -7.5074    0.0000 C   0  0  0  0  0  0
    3.3227   -9.4878    0.0000 C   0  0  0  0  0  0
   -2.6445   -8.8607    0.0000 C   0  0  0  0  0  0
   -3.8580   -7.9790    0.0000 C   0  0  0  0  0  0
   -1.4310   -9.7423    0.0000 C   0  0  0  0  0  0
   -3.5262  -10.0742    0.0000 C   0  0  0  0  0  0
  1  2  1  0  0  0
  2  3  1  0  0  0
  2  4  1  0  0  0
  4  5  1  0  0  0
  4  7  1  0  0  0
  5  6  1  0  0  0
  6  7  1  0  0  0
  7  8  1  6  0  0
  8  9  2  0  0  0
  8 10  1  0  0  0
 10 11  1  0  0  0
 11 12  1  0  0  0
 11 53  1  1  0  0
 12 13  2  0  0  0
 12 14  1  0  0  0
 14 15  1  0  0  0
 15 16  1  0  0  0
 15 49  1  1  0  0
 16 17  2  0  0  0
 16 18  1  0  0  0
 18 19  1  0  0  0
 18 22  1  0  0  0
 19 20  1  0  0  0
 20 21  1  0  0  0
 20 42  1  0  0  0
 20 45  1  1  0  0
 21 22  1  0  0  0
 22 23  1  6  0  0
 23 24  2  0  0  0
 23 25  1  0  0  0
 25 26  1  0  0  0
 26 27  1  0  0  0
 26 31  1  0  0  0
 26 28  1  1  0  0
 27 28  1  0  0  0
 28 29  1  6  0  0
 29 30  2  0  0  0
 31 32  2  0  0  0
 31 33  1  0  0  0
 33 34  1  0  0  0
 34 35  2  0  0  0
 34 36  2  0  0  0
 34 37  1  0  0  0
 37 38  1  0  0  0
 37 41  1  0  0  0
 38 39  1  0  0  0
 39 40  1  0  0  0
 40 41  1  0  0  0
 42 43  1  0  0  0
 42 44  1  0  0  0
 42 45  1  0  0  0
 45 46  1  0  0  0
 45 48  1  0  0  0
 46 47  1  0  0  0
 47 48  1  0  0  0
 49 50  1  0  0  0
 49 51  1  0  0  0
 49 52  1  0  0  0
 53 54  1  0  0  0
 53 55  1  0  0  0
 53 56  1  0  0  0
M  END
> <s_m_entry_id>
6740

> <s_m_entry_name>
NS3-4A.281

> <CHEMBLID>
CHEMBL3645596

> <s_m_Source_Path>
/home/liwei/Desktop/Machine/HCV/Active

> <s_m_Source_File>
NS3-4A.sdf

> <i_m_Source_File_Index>
281

$$$$
CHEMBL3645597
                    3D
 Structure written by MMmdl.
 56 61  0  0  1  0            999 V2000
   -5.0660   -0.2279    0.0000 C   0  0  0  0  0  0
   -5.9477   -1.4415    0.0000 C   0  0  0  0  0  0
   -7.4395   -1.2847    0.0000 C   0  0  0  0  0  0
   -5.3376   -2.8118    0.0000 N   0  0  0  0  0  0
   -3.9372   -3.3493    0.0000 C   0  0  0  0  0  0
   -4.4748   -4.7497    0.0000 C   0  0  0  0  0  0
   -5.8752   -4.2122    0.0000 C   0  0  0  0  0  0
   -3.8647   -6.1200    0.0000 C   0  0  0  0  0  0
   -4.7464   -7.3335    0.0000 O   0  0  0  0  0  0
   -2.3729   -6.2768    0.0000 N   0  0  0  0  0  0
   -1.7628   -7.6471    0.0000 C   0  0  2  0  0  0
   -0.2710   -7.8039    0.0000 C   0  0  0  0  0  0
    0.3391   -9.1742    0.0000 O   0  0  0  0  0  0
    0.6107   -6.5904    0.0000 N   0  0  0  0  0  0
    2.1024   -6.7472    0.0000 C   0  0  2  0  0  0
    2.9841   -5.5337    0.0000 C   0  0  0  0  0  0
    4.4759   -5.6905    0.0000 O   0  0  0  0  0  0
    2.3740   -4.1633    0.0000 N   0  0  0  0  0  0
    0.9068   -3.8515    0.0000 C   0  0  0  0  0  0
    0.7500   -2.3597    0.0000 C   0  0  1  0  0  0
    2.1203   -1.7496    0.0000 C   0  0  0  0  0  0
    3.1240   -2.8643    0.0000 C   0  0  1  0  0  0
    4.6158   -2.7075    0.0000 C   0  0  0  0  0  0
    5.2259   -1.3372    0.0000 O   0  0  0  0  0  0
    5.4975   -3.9210    0.0000 N   0  0  0  0  0  0
    6.9893   -3.7643    0.0000 C   0  0  1  0  0  0
    8.3374   -3.1067    0.0000 C   0  0  0  0  0  0
    7.0939   -2.2679    0.0000 C   0  0  1  0  0  0
    6.4363   -0.9197    0.0000 C   0  0  0  0  0  0
    7.2751    0.3238    0.0000 C   0  0  0  0  0  0
    7.4027   -5.2061    0.0000 C   0  0  0  0  0  0
    6.3607   -6.2852    0.0000 O   0  0  0  0  0  0
    8.8582   -5.5690    0.0000 N   0  0  0  0  0  0
    9.2716   -7.0109    0.0000 S   0  0  0  0  0  0
   10.7135   -6.5975    0.0000 O   0  0  0  0  0  0
    7.8297   -7.4244    0.0000 O   0  0  0  0  0  0
    9.6851   -8.4528    0.0000 N   0  0  0  0  0  0
    8.7616   -9.6348    0.0000 C   0  0  0  0  0  0
    9.6004  -10.8784    0.0000 C   0  0  0  0  0  0
   11.0423  -10.4649    0.0000 C   0  0  0  0  0  0
   11.0946   -8.9658    0.0000 C   0  0  0  0  0  0
   -0.7500   -2.3597    0.0000 C   0  0  0  0  0  0
   -1.0105   -3.8369    0.0000 C   0  0  0  0  0  0
   -2.1595   -1.8467    0.0000 C   0  0  0  0  0  0
   -0.0000   -1.0607    0.0000 C   0  0  0  0  0  0
    1.0607    0.0000    0.0000 C   0  0  0  0  0  0
    0.0000    1.0607    0.0000 C   0  0  0  0  0  0
   -1.0607    0.0000    0.0000 C   0  0  0  0  0  0
    2.7125   -8.1175    0.0000 C   0  0  0  0  0  0
    1.3422   -8.7276    0.0000 C   0  0  0  0  0  0
    4.0829   -7.5074    0.0000 C   0  0  0  0  0  0
    3.3227   -9.4878    0.0000 C   0  0  0  0  0  0
   -2.6445   -8.8607    0.0000 C   0  0  0  0  0  0
   -3.8580   -7.9790    0.0000 C   0  0  0  0  0  0
   -1.4310   -9.7423    0.0000 C   0  0  0  0  0  0
   -3.5262  -10.0742    0.0000 C   0  0  0  0  0  0
  1  2  1  0  0  0
  2  3  1  0  0  0
  2  4  1  0  0  0
  4  5  1  0  0  0
  4  7  1  0  0  0
  5  6  1  0  0  0
  6  7  1  0  0  0
  6  8  1  0  0  0
  8  9  2  0  0  0
  8 10  1  0  0  0
 10 11  1  0  0  0
 11 12  1  0  0  0
 11 53  1  1  0  0
 12 13  2  0  0  0
 12 14  1  0  0  0
 14 15  1  0  0  0
 15 16  1  0  0  0
 15 49  1  1  0  0
 16 17  2  0  0  0
 16 18  1  0  0  0
 18 19  1  0  0  0
 18 22  1  0  0  0
 19 20  1  0  0  0
 20 21  1  0  0  0
 20 42  1  0  0  0
 20 45  1  1  0  0
 21 22  1  0  0  0
 22 23  1  6  0  0
 23 24  2  0  0  0
 23 25  1  0  0  0
 25 26  1  0  0  0
 26 27  1  0  0  0
 26 31  1  0  0  0
 26 28  1  1  0  0
 27 28  1  0  0  0
 28 29  1  6  0  0
 29 30  2  0  0  0
 31 32  2  0  0  0
 31 33  1  0  0  0
 33 34  1  0  0  0
 34 35  2  0  0  0
 34 36  2  0  0  0
 34 37  1  0  0  0
 37 38  1  0  0  0
 37 41  1  0  0  0
 38 39  1  0  0  0
 39 40  1  0  0  0
 40 41  1  0  0  0
 42 43  1  0  0  0
 42 44  1  0  0  0
 42 45  1  0  0  0
 45 46  1  0  0  0
 45 48  1  0  0  0
 46 47  1  0  0  0
 47 48  1  0  0  0
 49 50  1  0  0  0
 49 51  1  0  0  0
 49 52  1  0  0  0
 53 54  1  0  0  0
 53 55  1  0  0  0
 53 56  1  0  0  0
M  END
> <s_m_entry_id>
6741

> <s_m_entry_name>
NS3-4A.282

> <CHEMBLID>
CHEMBL3645597

> <s_m_Source_Path>
/home/liwei/Desktop/Machine/HCV/Active

> <s_m_Source_File>
NS3-4A.sdf

> <i_m_Source_File_Index>
282

$$$$
CHEMBL3645598
                    3D
 Structure written by MMmdl.
 58 63  0  0  1  0            999 V2000
   -3.8580   -7.9790    0.0000 C   0  0  0  0  0  0
   -2.6445   -8.8607    0.0000 C   0  0  0  0  0  0
   -1.4310   -9.7423    0.0000 C   0  0  0  0  0  0
   -3.5262  -10.0742    0.0000 C   0  0  0  0  0  0
   -1.7628   -7.6471    0.0000 C   0  0  2  0  0  0
   -2.3729   -6.2768    0.0000 N   0  0  0  0  0  0
   -3.8647   -6.1200    0.0000 C   0  0  0  0  0  0
   -4.7464   -7.3335    0.0000 O   0  0  0  0  0  0
   -4.4748   -4.7497    0.0000 C   0  0  0  0  0  0
   -3.1045   -4.1396    0.0000 C   0  0  0  0  0  0
   -5.8451   -5.3598    0.0000 C   0  0  0  0  0  0
   -5.0849   -3.3794    0.0000 N   0  0  0  0  0  0
   -4.2032   -2.1659    0.0000 C   0  0  0  0  0  0
   -4.8133   -0.7955    0.0000 C   0  0  0  0  0  0
   -6.3051   -0.6387    0.0000 C   0  0  0  0  0  0
   -7.1868   -1.8523    0.0000 C   0  0  0  0  0  0
   -6.5767   -3.2226    0.0000 C   0  0  0  0  0  0
   -0.2710   -7.8039    0.0000 C   0  0  0  0  0  0
    0.3391   -9.1742    0.0000 O   0  0  0  0  0  0
    0.6107   -6.5904    0.0000 N   0  0  0  0  0  0
    2.1024   -6.7472    0.0000 C   0  0  2  0  0  0
    2.9841   -5.5337    0.0000 C   0  0  0  0  0  0
    4.4759   -5.6905    0.0000 O   0  0  0  0  0  0
    2.3740   -4.1633    0.0000 N   0  0  0  0  0  0
    0.9068   -3.8515    0.0000 C   0  0  0  0  0  0
    0.7500   -2.3597    0.0000 C   0  0  1  0  0  0
    2.1203   -1.7496    0.0000 C   0  0  0  0  0  0
    3.1240   -2.8643    0.0000 C   0  0  1  0  0  0
    4.6158   -2.7075    0.0000 C   0  0  0  0  0  0
    5.2259   -1.3372    0.0000 O   0  0  0  0  0  0
    5.4975   -3.9210    0.0000 N   0  0  0  0  0  0
    6.9893   -3.7643    0.0000 C   0  0  1  0  0  0
    8.3374   -3.1067    0.0000 C   0  0  0  0  0  0
    7.0939   -2.2679    0.0000 C   0  0  1  0  0  0
    6.4363   -0.9197    0.0000 C   0  0  0  0  0  0
    7.2751    0.3238    0.0000 C   0  0  0  0  0  0
    7.4027   -5.2061    0.0000 C   0  0  0  0  0  0
    6.3607   -6.2852    0.0000 O   0  0  0  0  0  0
    8.8582   -5.5690    0.0000 N   0  0  0  0  0  0
    9.2716   -7.0109    0.0000 S   0  0  0  0  0  0
   10.7135   -6.5975    0.0000 O   0  0  0  0  0  0
    7.8297   -7.4244    0.0000 O   0  0  0  0  0  0
    9.6851   -8.4528    0.0000 N   0  0  0  0  0  0
    8.7616   -9.6348    0.0000 C   0  0  0  0  0  0
    9.6004  -10.8784    0.0000 C   0  0  0  0  0  0
   11.0423  -10.4649    0.0000 C   0  0  0  0  0  0
   11.0946   -8.9658    0.0000 C   0  0  0  0  0  0
   -0.7500   -2.3597    0.0000 C   0  0  0  0  0  0
   -1.0105   -3.8369    0.0000 C   0  0  0  0  0  0
   -2.1595   -1.8467    0.0000 C   0  0  0  0  0  0
   -0.0000   -1.0607    0.0000 C   0  0  0  0  0  0
    1.0607    0.0000    0.0000 C   0  0  0  0  0  0
    0.0000    1.0607    0.0000 C   0  0  0  0  0  0
   -1.0607    0.0000    0.0000 C   0  0  0  0  0  0
    2.7125   -8.1175    0.0000 C   0  0  0  0  0  0
    1.3422   -8.7276    0.0000 C   0  0  0  0  0  0
    4.0829   -7.5074    0.0000 C   0  0  0  0  0  0
    3.3227   -9.4878    0.0000 C   0  0  0  0  0  0
  1  2  1  0  0  0
  2  3  1  0  0  0
  2  4  1  0  0  0
  2  5  1  0  0  0
  5  6  1  0  0  0
  5 18  1  1  0  0
  6  7  1  0  0  0
  7  8  2  0  0  0
  7  9  1  0  0  0
  9 10  1  0  0  0
  9 11  1  0  0  0
  9 12  1  0  0  0
 12 13  1  0  0  0
 12 17  1  0  0  0
 13 14  1  0  0  0
 14 15  1  0  0  0
 15 16  1  0  0  0
 16 17  1  0  0  0
 18 19  2  0  0  0
 18 20  1  0  0  0
 20 21  1  0  0  0
 21 22  1  0  0  0
 21 55  1  1  0  0
 22 23  2  0  0  0
 22 24  1  0  0  0
 24 25  1  0  0  0
 24 28  1  0  0  0
 25 26  1  0  0  0
 26 27  1  0  0  0
 26 48  1  0  0  0
 26 51  1  1  0  0
 27 28  1  0  0  0
 28 29  1  6  0  0
 29 30  2  0  0  0
 29 31  1  0  0  0
 31 32  1  0  0  0
 32 33  1  0  0  0
 32 37  1  0  0  0
 32 34  1  1  0  0
 33 34  1  0  0  0
 34 35  1  6  0  0
 35 36  2  0  0  0
 37 38  2  0  0  0
 37 39  1  0  0  0
 39 40  1  0  0  0
 40 41  2  0  0  0
 40 42  2  0  0  0
 40 43  1  0  0  0
 43 44  1  0  0  0
 43 47  1  0  0  0
 44 45  1  0  0  0
 45 46  1  0  0  0
 46 47  1  0  0  0
 48 49  1  0  0  0
 48 50  1  0  0  0
 48 51  1  0  0  0
 51 52  1  0  0  0
 51 54  1  0  0  0
 52 53  1  0  0  0
 53 54  1  0  0  0
 55 56  1  0  0  0
 55 57  1  0  0  0
 55 58  1  0  0  0
M  END
> <s_m_entry_id>
6742

> <s_m_entry_name>
NS3-4A.283

> <CHEMBLID>
CHEMBL3645598

> <s_m_Source_Path>
/home/liwei/Desktop/Machine/HCV/Active

> <s_m_Source_File>
NS3-4A.sdf

> <i_m_Source_File_Index>
283

$$$$
CHEMBL3645599
                    3D
 Structure written by MMmdl.
 60 66  0  0  1  0            999 V2000
    1.3422   -8.7276    0.0000 C   0  0  0  0  0  0
    2.7125   -8.1175    0.0000 C   0  0  0  0  0  0
    4.0829   -7.5074    0.0000 C   0  0  0  0  0  0
    3.3227   -9.4878    0.0000 C   0  0  0  0  0  0
    2.1024   -6.7472    0.0000 C   0  0  2  0  0  0
    0.6107   -6.5904    0.0000 N   0  0  0  0  0  0
   -0.2710   -7.8039    0.0000 C   0  0  0  0  0  0
    0.3391   -9.1742    0.0000 O   0  0  0  0  0  0
   -1.7628   -7.6471    0.0000 C   0  0  1  0  0  0
   -2.3729   -6.2768    0.0000 N   0  0  0  0  0  0
   -3.8647   -6.1200    0.0000 C   0  0  0  0  0  0
   -4.7464   -7.3335    0.0000 O   0  0  0  0  0  0
   -4.4748   -4.7497    0.0000 C   0  0  0  0  0  0
   -3.1045   -4.1396    0.0000 C   0  0  0  0  0  0
   -5.8451   -5.3598    0.0000 C   0  0  0  0  0  0
   -5.0849   -3.3794    0.0000 N   0  0  0  0  0  0
   -4.2032   -2.1659    0.0000 C   0  0  0  0  0  0
   -4.8133   -0.7955    0.0000 C   0  0  0  0  0  0
   -6.3051   -0.6387    0.0000 C   0  0  0  0  0  0
   -7.1868   -1.8523    0.0000 C   0  0  0  0  0  0
   -6.5767   -3.2226    0.0000 C   0  0  0  0  0  0
   -2.6445   -8.8607    0.0000 C   0  0  0  0  0  0
   -4.1363   -8.7039    0.0000 C   0  0  0  0  0  0
   -5.0179   -9.9174    0.0000 C   0  0  0  0  0  0
   -4.4078  -11.2877    0.0000 C   0  0  0  0  0  0
   -2.9161  -11.4445    0.0000 C   0  0  0  0  0  0
   -2.0344  -10.2310    0.0000 C   0  0  0  0  0  0
    2.9841   -5.5337    0.0000 C   0  0  0  0  0  0
    4.4759   -5.6905    0.0000 O   0  0  0  0  0  0
    2.3740   -4.1633    0.0000 N   0  0  0  0  0  0
    0.9068   -3.8515    0.0000 C   0  0  0  0  0  0
    0.7500   -2.3597    0.0000 C   0  0  1  0  0  0
    2.1203   -1.7496    0.0000 C   0  0  0  0  0  0
    3.1240   -2.8643    0.0000 C   0  0  1  0  0  0
    4.6158   -2.7075    0.0000 C   0  0  0  0  0  0
    5.2259   -1.3372    0.0000 O   0  0  0  0  0  0
    5.4975   -3.9210    0.0000 N   0  0  0  0  0  0
    6.9893   -3.7643    0.0000 C   0  0  1  0  0  0
    8.3374   -3.1067    0.0000 C   0  0  0  0  0  0
    7.0939   -2.2679    0.0000 C   0  0  1  0  0  0
    6.4363   -0.9197    0.0000 C   0  0  0  0  0  0
    7.2751    0.3238    0.0000 C   0  0  0  0  0  0
    7.4027   -5.2061    0.0000 C   0  0  0  0  0  0
    6.3607   -6.2852    0.0000 O   0  0  0  0  0  0
    8.8582   -5.5690    0.0000 N   0  0  0  0  0  0
    9.2716   -7.0109    0.0000 S   0  0  0  0  0  0
   10.7135   -6.5975    0.0000 O   0  0  0  0  0  0
    7.8297   -7.4244    0.0000 O   0  0  0  0  0  0
    9.6851   -8.4528    0.0000 N   0  0  0  0  0  0
    8.7616   -9.6348    0.0000 C   0  0  0  0  0  0
    9.6004  -10.8784    0.0000 C   0  0  0  0  0  0
   11.0423  -10.4649    0.0000 C   0  0  0  0  0  0
   11.0946   -8.9658    0.0000 C   0  0  0  0  0  0
   -0.7500   -2.3597    0.0000 C   0  0  0  0  0  0
   -1.0105   -3.8369    0.0000 C   0  0  0  0  0  0
   -2.1595   -1.8467    0.0000 C   0  0  0  0  0  0
   -0.0000   -1.0607    0.0000 C   0  0  0  0  0  0
    1.0607    0.0000    0.0000 C   0  0  0  0  0  0
    0.0000    1.0607    0.0000 C   0  0  0  0  0  0
   -1.0607    0.0000    0.0000 C   0  0  0  0  0  0
  1  2  1  0  0  0
  2  3  1  0  0  0
  2  4  1  0  0  0
  2  5  1  0  0  0
  5  6  1  0  0  0
  5 28  1  1  0  0
  6  7  1  0  0  0
  7  8  2  0  0  0
  7  9  1  0  0  0
  9 10  1  0  0  0
  9 22  1  6  0  0
 10 11  1  0  0  0
 11 12  2  0  0  0
 11 13  1  0  0  0
 13 14  1  0  0  0
 13 15  1  0  0  0
 13 16  1  0  0  0
 16 17  1  0  0  0
 16 21  1  0  0  0
 17 18  1  0  0  0
 18 19  1  0  0  0
 19 20  1  0  0  0
 20 21  1  0  0  0
 22 23  1  0  0  0
 22 27  1  0  0  0
 23 24  1  0  0  0
 24 25  1  0  0  0
 25 26  1  0  0  0
 26 27  1  0  0  0
 28 29  2  0  0  0
 28 30  1  0  0  0
 30 31  1  0  0  0
 30 34  1  0  0  0
 31 32  1  0  0  0
 32 33  1  0  0  0
 32 54  1  0  0  0
 32 57  1  1  0  0
 33 34  1  0  0  0
 34 35  1  6  0  0
 35 36  2  0  0  0
 35 37  1  0  0  0
 37 38  1  0  0  0
 38 39  1  0  0  0
 38 43  1  0  0  0
 38 40  1  1  0  0
 39 40  1  0  0  0
 40 41  1  6  0  0
 41 42  2  0  0  0
 43 44  2  0  0  0
 43 45  1  0  0  0
 45 46  1  0  0  0
 46 47  2  0  0  0
 46 48  2  0  0  0
 46 49  1  0  0  0
 49 50  1  0  0  0
 49 53  1  0  0  0
 50 51  1  0  0  0
 51 52  1  0  0  0
 52 53  1  0  0  0
 54 55  1  0  0  0
 54 56  1  0  0  0
 54 57  1  0  0  0
 57 58  1  0  0  0
 57 60  1  0  0  0
 58 59  1  0  0  0
 59 60  1  0  0  0
M  END
> <s_m_entry_id>
6743

> <s_m_entry_name>
NS3-4A.284

> <CHEMBLID>
CHEMBL3645599

> <s_m_Source_Path>
/home/liwei/Desktop/Machine/HCV/Active

> <s_m_Source_File>
NS3-4A.sdf

> <i_m_Source_File_Index>
284

$$$$
CHEMBL3645600
                    3D
 Structure written by MMmdl.
 60 66  0  0  1  0            999 V2000
    1.3422   -8.7276    0.0000 C   0  0  0  0  0  0
    2.7125   -8.1175    0.0000 C   0  0  0  0  0  0
    4.0829   -7.5074    0.0000 C   0  0  0  0  0  0
    3.3227   -9.4878    0.0000 C   0  0  0  0  0  0
    2.1024   -6.7472    0.0000 C   0  0  2  0  0  0
    0.6107   -6.5904    0.0000 N   0  0  0  0  0  0
   -0.2710   -7.8039    0.0000 C   0  0  0  0  0  0
    0.3391   -9.1742    0.0000 O   0  0  0  0  0  0
   -1.7628   -7.6471    0.0000 C   0  0  1  0  0  0
   -2.3729   -6.2768    0.0000 N   0  0  0  0  0  0
   -3.8647   -6.1200    0.0000 C   0  0  0  0  0  0
   -4.7464   -7.3335    0.0000 O   0  0  0  0  0  0
   -4.4748   -4.7497    0.0000 C   0  0  2  0  0  0
   -3.5931   -3.5362    0.0000 C   0  0  0  0  0  0
   -4.2032   -2.1659    0.0000 C   0  0  0  0  0  0
   -5.6950   -2.0091    0.0000 C   0  0  0  0  0  0
   -6.5767   -3.2226    0.0000 C   0  0  0  0  0  0
   -5.9666   -4.5929    0.0000 N   0  0  0  0  0  0
   -6.8483   -5.8064    0.0000 C   0  0  0  0  0  0
   -8.3400   -5.6496    0.0000 C   0  0  0  0  0  0
   -9.2217   -6.8632    0.0000 F   0  0  0  0  0  0
   -2.6445   -8.8607    0.0000 C   0  0  0  0  0  0
   -4.1363   -8.7039    0.0000 C   0  0  0  0  0  0
   -5.0179   -9.9174    0.0000 C   0  0  0  0  0  0
   -4.4078  -11.2877    0.0000 C   0  0  0  0  0  0
   -2.9161  -11.4445    0.0000 C   0  0  0  0  0  0
   -2.0344  -10.2310    0.0000 C   0  0  0  0  0  0
    2.9841   -5.5337    0.0000 C   0  0  0  0  0  0
    4.4759   -5.6905    0.0000 O   0  0  0  0  0  0
    2.3740   -4.1633    0.0000 N   0  0  0  0  0  0
    0.9068   -3.8515    0.0000 C   0  0  0  0  0  0
    0.7500   -2.3597    0.0000 C   0  0  1  0  0  0
    2.1203   -1.7496    0.0000 C   0  0  0  0  0  0
    3.1240   -2.8643    0.0000 C   0  0  1  0  0  0
    4.6158   -2.7075    0.0000 C   0  0  0  0  0  0
    5.2259   -1.3372    0.0000 O   0  0  0  0  0  0
    5.4975   -3.9210    0.0000 N   0  0  0  0  0  0
    6.9893   -3.7643    0.0000 C   0  0  1  0  0  0
    8.3374   -3.1067    0.0000 C   0  0  0  0  0  0
    7.0939   -2.2679    0.0000 C   0  0  1  0  0  0
    6.4363   -0.9197    0.0000 C   0  0  0  0  0  0
    7.2751    0.3238    0.0000 C   0  0  0  0  0  0
    7.4027   -5.2061    0.0000 C   0  0  0  0  0  0
    6.3607   -6.2852    0.0000 O   0  0  0  0  0  0
    8.8582   -5.5690    0.0000 N   0  0  0  0  0  0
    9.2716   -7.0109    0.0000 S   0  0  0  0  0  0
   10.7135   -6.5975    0.0000 O   0  0  0  0  0  0
    7.8297   -7.4244    0.0000 O   0  0  0  0  0  0
    9.6851   -8.4528    0.0000 N   0  0  0  0  0  0
    8.7616   -9.6348    0.0000 C   0  0  0  0  0  0
    9.6004  -10.8784    0.0000 C   0  0  0  0  0  0
   11.0423  -10.4649    0.0000 C   0  0  0  0  0  0
   11.0946   -8.9658    0.0000 C   0  0  0  0  0  0
   -0.7500   -2.3597    0.0000 C   0  0  0  0  0  0
   -1.0105   -3.8369    0.0000 C   0  0  0  0  0  0
   -2.1595   -1.8467    0.0000 C   0  0  0  0  0  0
   -0.0000   -1.0607    0.0000 C   0  0  0  0  0  0
    1.0607    0.0000    0.0000 C   0  0  0  0  0  0
    0.0000    1.0607    0.0000 C   0  0  0  0  0  0
   -1.0607    0.0000    0.0000 C   0  0  0  0  0  0
  1  2  1  0  0  0
  2  3  1  0  0  0
  2  4  1  0  0  0
  2  5  1  0  0  0
  5  6  1  0  0  0
  5 28  1  1  0  0
  6  7  1  0  0  0
  7  8  2  0  0  0
  7  9  1  0  0  0
  9 10  1  0  0  0
  9 22  1  6  0  0
 10 11  1  0  0  0
 11 12  2  0  0  0
 11 13  1  0  0  0
 13 14  1  0  0  0
 13 18  1  1  0  0
 14 15  1  0  0  0
 15 16  1  0  0  0
 16 17  1  0  0  0
 17 18  1  0  0  0
 18 19  1  0  0  0
 19 20  1  0  0  0
 20 21  1  0  0  0
 22 23  1  0  0  0
 22 27  1  0  0  0
 23 24  1  0  0  0
 24 25  1  0  0  0
 25 26  1  0  0  0
 26 27  1  0  0  0
 28 29  2  0  0  0
 28 30  1  0  0  0
 30 31  1  0  0  0
 30 34  1  0  0  0
 31 32  1  0  0  0
 32 33  1  0  0  0
 32 54  1  0  0  0
 32 57  1  1  0  0
 33 34  1  0  0  0
 34 35  1  6  0  0
 35 36  2  0  0  0
 35 37  1  0  0  0
 37 38  1  0  0  0
 38 39  1  0  0  0
 38 43  1  0  0  0
 38 40  1  1  0  0
 39 40  1  0  0  0
 40 41  1  6  0  0
 41 42  2  0  0  0
 43 44  2  0  0  0
 43 45  1  0  0  0
 45 46  1  0  0  0
 46 47  2  0  0  0
 46 48  2  0  0  0
 46 49  1  0  0  0
 49 50  1  0  0  0
 49 53  1  0  0  0
 50 51  1  0  0  0
 51 52  1  0  0  0
 52 53  1  0  0  0
 54 55  1  0  0  0
 54 56  1  0  0  0
 54 57  1  0  0  0
 57 58  1  0  0  0
 57 60  1  0  0  0
 58 59  1  0  0  0
 59 60  1  0  0  0
M  END
> <s_m_entry_id>
6744

> <s_m_entry_name>
NS3-4A.285

> <CHEMBLID>
CHEMBL3645600

> <s_m_Source_Path>
/home/liwei/Desktop/Machine/HCV/Active

> <s_m_Source_File>
NS3-4A.sdf

> <i_m_Source_File_Index>
285

$$$$
CHEMBL3645601
                    3D
 Structure written by MMmdl.
 59 65  0  0  1  0            999 V2000
    2.7728  -12.7966    0.0000 C   0  0  0  0  0  0
    1.5593  -11.9149    0.0000 C   0  0  0  0  0  0
    0.3458  -11.0332    0.0000 C   0  0  0  0  0  0
    0.6776  -13.1284    0.0000 C   0  0  0  0  0  0
    2.4410  -10.7014    0.0000 C   0  0  2  0  0  0
    3.9328  -10.8581    0.0000 N   0  0  0  0  0  0
    4.5429  -12.2285    0.0000 C   0  0  0  0  0  0
    3.6612  -13.4420    0.0000 O   0  0  0  0  0  0
    6.0346  -12.3853    0.0000 C   0  0  3  0  0  0
    6.7846  -13.6843    0.0000 C   0  0  0  0  0  0
    8.2519  -13.3724    0.0000 C   0  0  0  0  0  0
    8.4087  -11.8806    0.0000 C   0  0  0  0  0  0
    7.0383  -11.2705    0.0000 N   0  0  0  0  0  0
    6.7265   -9.8033    0.0000 C   0  0  0  0  0  0
    7.7302   -8.6886    0.0000 C   0  0  0  0  0  0
    6.9802   -7.3896    0.0000 C   0  0  0  0  0  0
    5.5129   -7.7014    0.0000 C   0  0  0  0  0  0
    5.3562   -9.1932    0.0000 C   0  0  0  0  0  0
    1.8309   -9.3310    0.0000 C   0  0  0  0  0  0
    0.3391   -9.1742    0.0000 O   0  0  0  0  0  0
    2.7125   -8.1175    0.0000 N   0  0  0  0  0  0
    2.1024   -6.7472    0.0000 C   0  0  2  0  0  0
    2.9841   -5.5337    0.0000 C   0  0  0  0  0  0
    4.4759   -5.6905    0.0000 O   0  0  0  0  0  0
    2.3740   -4.1633    0.0000 N   0  0  0  0  0  0
    0.9068   -3.8515    0.0000 C   0  0  0  0  0  0
    0.7500   -2.3597    0.0000 C   0  0  1  0  0  0
    2.1203   -1.7496    0.0000 C   0  0  0  0  0  0
    3.1240   -2.8643    0.0000 C   0  0  1  0  0  0
    4.6158   -2.7075    0.0000 C   0  0  0  0  0  0
    5.2259   -1.3372    0.0000 O   0  0  0  0  0  0
    5.4975   -3.9210    0.0000 N   0  0  0  0  0  0
    6.9893   -3.7643    0.0000 C   0  0  1  0  0  0
    8.3374   -3.1067    0.0000 C   0  0  0  0  0  0
    7.0939   -2.2679    0.0000 C   0  0  1  0  0  0
    6.4363   -0.9197    0.0000 C   0  0  0  0  0  0
    7.2751    0.3238    0.0000 C   0  0  0  0  0  0
    7.4027   -5.2061    0.0000 C   0  0  0  0  0  0
    6.3607   -6.2852    0.0000 O   0  0  0  0  0  0
    8.8582   -5.5690    0.0000 N   0  0  0  0  0  0
    9.2716   -7.0109    0.0000 S   0  0  0  0  0  0
   10.7135   -6.5975    0.0000 O   0  0  0  0  0  0
    7.8297   -7.4244    0.0000 O   0  0  0  0  0  0
    9.6851   -8.4528    0.0000 N   0  0  0  0  0  0
    8.7616   -9.6348    0.0000 C   0  0  0  0  0  0
    9.6004  -10.8784    0.0000 C   0  0  0  0  0  0
   11.0423  -10.4649    0.0000 C   0  0  0  0  0  0
   11.0946   -8.9658    0.0000 C   0  0  0  0  0  0
   -0.7500   -2.3597    0.0000 C   0  0  0  0  0  0
   -1.0105   -3.8369    0.0000 C   0  0  0  0  0  0
   -2.1595   -1.8467    0.0000 C   0  0  0  0  0  0
   -0.0000   -1.0607    0.0000 C   0  0  0  0  0  0
    1.0607    0.0000    0.0000 C   0  0  0  0  0  0
    0.0000    1.0607    0.0000 C   0  0  0  0  0  0
   -1.0607    0.0000    0.0000 C   0  0  0  0  0  0
    0.6107   -6.5904    0.0000 C   0  0  0  0  0  0
    0.4539   -8.0822    0.0000 C   0  0  0  0  0  0
    0.7675   -5.0986    0.0000 C   0  0  0  0  0  0
   -0.8811   -6.4336    0.0000 C   0  0  0  0  0  0
  1  2  1  0  0  0
  2  3  1  0  0  0
  2  4  1  0  0  0
  2  5  1  0  0  0
  5  6  1  0  0  0
  5 19  1  1  0  0
  6  7  1  0  0  0
  7  8  2  0  0  0
  7  9  1  0  0  0
  9 10  1  0  0  0
  9 13  1  0  0  0
 10 11  1  0  0  0
 11 12  1  0  0  0
 12 13  1  0  0  0
 13 14  1  0  0  0
 14 15  1  0  0  0
 14 18  1  0  0  0
 15 16  1  0  0  0
 16 17  1  0  0  0
 17 18  1  0  0  0
 19 20  2  0  0  0
 19 21  1  0  0  0
 21 22  1  0  0  0
 22 23  1  0  0  0
 22 56  1  1  0  0
 23 24  2  0  0  0
 23 25  1  0  0  0
 25 26  1  0  0  0
 25 29  1  0  0  0
 26 27  1  0  0  0
 27 28  1  0  0  0
 27 49  1  0  0  0
 27 52  1  1  0  0
 28 29  1  0  0  0
 29 30  1  6  0  0
 30 31  2  0  0  0
 30 32  1  0  0  0
 32 33  1  0  0  0
 33 34  1  0  0  0
 33 38  1  0  0  0
 33 35  1  1  0  0
 34 35  1  0  0  0
 35 36  1  6  0  0
 36 37  2  0  0  0
 38 39  2  0  0  0
 38 40  1  0  0  0
 40 41  1  0  0  0
 41 42  2  0  0  0
 41 43  2  0  0  0
 41 44  1  0  0  0
 44 45  1  0  0  0
 44 48  1  0  0  0
 45 46  1  0  0  0
 46 47  1  0  0  0
 47 48  1  0  0  0
 49 50  1  0  0  0
 49 51  1  0  0  0
 49 52  1  0  0  0
 52 53  1  0  0  0
 52 55  1  0  0  0
 53 54  1  0  0  0
 54 55  1  0  0  0
 56 57  1  0  0  0
 56 58  1  0  0  0
 56 59  1  0  0  0
M  END
> <s_m_entry_id>
6745

> <s_m_entry_name>
NS3-4A.286

> <CHEMBLID>
CHEMBL3645601

> <s_m_Source_Path>
/home/liwei/Desktop/Machine/HCV/Active

> <s_m_Source_File>
NS3-4A.sdf

> <i_m_Source_File_Index>
286

$$$$
CHEMBL3645602
                    3D
 Structure written by MMmdl.
 61 68  0  0  1  0            999 V2000
    0.4539   -8.0822    0.0000 C   0  0  0  0  0  0
    0.6107   -6.5904    0.0000 C   0  0  0  0  0  0
    0.7675   -5.0986    0.0000 C   0  0  0  0  0  0
   -0.8811   -6.4336    0.0000 C   0  0  0  0  0  0
    2.1024   -6.7472    0.0000 C   0  0  2  0  0  0
    2.7125   -8.1175    0.0000 N   0  0  0  0  0  0
    1.8309   -9.3310    0.0000 C   0  0  0  0  0  0
    0.3391   -9.1742    0.0000 O   0  0  0  0  0  0
    2.4410  -10.7014    0.0000 C   0  0  1  0  0  0
    3.9328  -10.8581    0.0000 N   0  0  0  0  0  0
    4.5429  -12.2285    0.0000 C   0  0  0  0  0  0
    3.6612  -13.4420    0.0000 O   0  0  0  0  0  0
    6.0346  -12.3853    0.0000 C   0  0  2  0  0  0
    6.7846  -13.6843    0.0000 C   0  0  0  0  0  0
    8.2519  -13.3724    0.0000 C   0  0  0  0  0  0
    8.4087  -11.8806    0.0000 C   0  0  0  0  0  0
    7.0383  -11.2705    0.0000 N   0  0  0  0  0  0
    6.7265   -9.8033    0.0000 C   0  0  0  0  0  0
    7.7302   -8.6886    0.0000 C   0  0  0  0  0  0
    6.9802   -7.3896    0.0000 C   0  0  0  0  0  0
    5.5129   -7.7014    0.0000 C   0  0  0  0  0  0
    5.3562   -9.1932    0.0000 C   0  0  0  0  0  0
    1.5593  -11.9149    0.0000 C   0  0  0  0  0  0
    2.1694  -13.2852    0.0000 C   0  0  0  0  0  0
    1.2877  -14.4987    0.0000 C   0  0  0  0  0  0
   -0.2041  -14.3419    0.0000 C   0  0  0  0  0  0
   -0.8142  -12.9716    0.0000 C   0  0  0  0  0  0
    0.0675  -11.7581    0.0000 C   0  0  0  0  0  0
    2.9841   -5.5337    0.0000 C   0  0  0  0  0  0
    4.4759   -5.6905    0.0000 O   0  0  0  0  0  0
    2.3740   -4.1633    0.0000 N   0  0  0  0  0  0
    0.9068   -3.8515    0.0000 C   0  0  0  0  0  0
    0.7500   -2.3597    0.0000 C   0  0  1  0  0  0
    2.1203   -1.7496    0.0000 C   0  0  0  0  0  0
    3.1240   -2.8643    0.0000 C   0  0  1  0  0  0
    4.6158   -2.7075    0.0000 C   0  0  0  0  0  0
    5.2259   -1.3372    0.0000 O   0  0  0  0  0  0
    5.4975   -3.9210    0.0000 N   0  0  0  0  0  0
    6.9893   -3.7643    0.0000 C   0  0  1  0  0  0
    8.3374   -3.1067    0.0000 C   0  0  0  0  0  0
    7.0939   -2.2679    0.0000 C   0  0  1  0  0  0
    6.4363   -0.9197    0.0000 C   0  0  0  0  0  0
    7.2751    0.3238    0.0000 C   0  0  0  0  0  0
    7.4027   -5.2061    0.0000 C   0  0  0  0  0  0
    6.3607   -6.2852    0.0000 O   0  0  0  0  0  0
    8.8582   -5.5690    0.0000 N   0  0  0  0  0  0
    9.2716   -7.0109    0.0000 S   0  0  0  0  0  0
   10.7135   -6.5975    0.0000 O   0  0  0  0  0  0
    7.8297   -7.4244    0.0000 O   0  0  0  0  0  0
    9.6851   -8.4528    0.0000 N   0  0  0  0  0  0
    8.7616   -9.6348    0.0000 C   0  0  0  0  0  0
    9.6004  -10.8784    0.0000 C   0  0  0  0  0  0
   11.0423  -10.4649    0.0000 C   0  0  0  0  0  0
   11.0946   -8.9658    0.0000 C   0  0  0  0  0  0
   -0.7500   -2.3597    0.0000 C   0  0  0  0  0  0
   -1.0105   -3.8369    0.0000 C   0  0  0  0  0  0
   -2.1595   -1.8467    0.0000 C   0  0  0  0  0  0
   -0.0000   -1.0607    0.0000 C   0  0  0  0  0  0
    1.0607    0.0000    0.0000 C   0  0  0  0  0  0
    0.0000    1.0607    0.0000 C   0  0  0  0  0  0
   -1.0607    0.0000    0.0000 C   0  0  0  0  0  0
  1  2  1  0  0  0
  2  3  1  0  0  0
  2  4  1  0  0  0
  2  5  1  0  0  0
  5  6  1  0  0  0
  5 29  1  1  0  0
  6  7  1  0  0  0
  7  8  2  0  0  0
  7  9  1  0  0  0
  9 10  1  0  0  0
  9 23  1  6  0  0
 10 11  1  0  0  0
 11 12  2  0  0  0
 11 13  1  0  0  0
 13 14  1  0  0  0
 13 17  1  1  0  0
 14 15  1  0  0  0
 15 16  1  0  0  0
 16 17  1  0  0  0
 17 18  1  0  0  0
 18 19  1  0  0  0
 18 22  1  0  0  0
 19 20  1  0  0  0
 20 21  1  0  0  0
 21 22  1  0  0  0
 23 24  1  0  0  0
 23 28  1  0  0  0
 24 25  1  0  0  0
 25 26  1  0  0  0
 26 27  1  0  0  0
 27 28  1  0  0  0
 29 30  2  0  0  0
 29 31  1  0  0  0
 31 32  1  0  0  0
 31 35  1  0  0  0
 32 33  1  0  0  0
 33 34  1  0  0  0
 33 55  1  0  0  0
 33 58  1  1  0  0
 34 35  1  0  0  0
 35 36  1  6  0  0
 36 37  2  0  0  0
 36 38  1  0  0  0
 38 39  1  0  0  0
 39 40  1  0  0  0
 39 44  1  0  0  0
 39 41  1  1  0  0
 40 41  1  0  0  0
 41 42  1  6  0  0
 42 43  2  0  0  0
 44 45  2  0  0  0
 44 46  1  0  0  0
 46 47  1  0  0  0
 47 48  2  0  0  0
 47 49  2  0  0  0
 47 50  1  0  0  0
 50 51  1  0  0  0
 50 54  1  0  0  0
 51 52  1  0  0  0
 52 53  1  0  0  0
 53 54  1  0  0  0
 55 56  1  0  0  0
 55 57  1  0  0  0
 55 58  1  0  0  0
 58 59  1  0  0  0
 58 61  1  0  0  0
 59 60  1  0  0  0
 60 61  1  0  0  0
M  END
> <s_m_entry_id>
6746

> <s_m_entry_name>
NS3-4A.287

> <CHEMBLID>
CHEMBL3645602

> <s_m_Source_Path>
/home/liwei/Desktop/Machine/HCV/Active

> <s_m_Source_File>
NS3-4A.sdf

> <i_m_Source_File_Index>
287

$$$$
CHEMBL3645603
                    3D
 Structure written by MMmdl.
 58 64  0  0  1  0            999 V2000
   -3.8580   -7.9790    0.0000 C   0  0  0  0  0  0
   -2.6445   -8.8607    0.0000 C   0  0  0  0  0  0
   -1.4310   -9.7423    0.0000 C   0  0  0  0  0  0
   -3.5262  -10.0742    0.0000 C   0  0  0  0  0  0
   -1.7628   -7.6471    0.0000 C   0  0  2  0  0  0
   -2.3729   -6.2768    0.0000 N   0  0  0  0  0  0
   -3.8647   -6.1200    0.0000 C   0  0  0  0  0  0
   -4.7464   -7.3335    0.0000 O   0  0  0  0  0  0
   -4.4748   -4.7497    0.0000 C   0  0  3  0  0  0
   -5.9666   -4.5929    0.0000 C   0  0  0  0  0  0
   -6.5767   -3.2226    0.0000 C   0  0  0  0  0  0
   -8.0033   -2.7591    0.0000 N   0  0  0  0  0  0
   -8.0033   -1.2591    0.0000 C   0  0  0  0  0  0
   -6.5767   -0.7955    0.0000 N   0  0  0  0  0  0
   -5.6950   -2.0091    0.0000 C   0  0  0  0  0  0
   -4.2032   -2.1659    0.0000 C   0  0  0  0  0  0
   -3.5931   -3.5362    0.0000 N   0  0  0  0  0  0
   -0.2710   -7.8039    0.0000 C   0  0  0  0  0  0
    0.3391   -9.1742    0.0000 O   0  0  0  0  0  0
    0.6107   -6.5904    0.0000 N   0  0  0  0  0  0
    2.1024   -6.7472    0.0000 C   0  0  2  0  0  0
    2.9841   -5.5337    0.0000 C   0  0  0  0  0  0
    4.4759   -5.6905    0.0000 O   0  0  0  0  0  0
    2.3740   -4.1633    0.0000 N   0  0  0  0  0  0
    0.9068   -3.8515    0.0000 C   0  0  0  0  0  0
    0.7500   -2.3597    0.0000 C   0  0  1  0  0  0
    2.1203   -1.7496    0.0000 C   0  0  0  0  0  0
    3.1240   -2.8643    0.0000 C   0  0  1  0  0  0
    4.6158   -2.7075    0.0000 C   0  0  0  0  0  0
    5.2259   -1.3372    0.0000 O   0  0  0  0  0  0
    5.4975   -3.9210    0.0000 N   0  0  0  0  0  0
    6.9893   -3.7643    0.0000 C   0  0  1  0  0  0
    8.3374   -3.1067    0.0000 C   0  0  0  0  0  0
    7.0939   -2.2679    0.0000 C   0  0  1  0  0  0
    6.4363   -0.9197    0.0000 C   0  0  0  0  0  0
    7.2751    0.3238    0.0000 C   0  0  0  0  0  0
    7.4027   -5.2061    0.0000 C   0  0  0  0  0  0
    6.3607   -6.2852    0.0000 O   0  0  0  0  0  0
    8.8582   -5.5690    0.0000 N   0  0  0  0  0  0
    9.2716   -7.0109    0.0000 S   0  0  0  0  0  0
   10.7135   -6.5975    0.0000 O   0  0  0  0  0  0
    7.8297   -7.4244    0.0000 O   0  0  0  0  0  0
    9.6851   -8.4528    0.0000 N   0  0  0  0  0  0
    8.7616   -9.6348    0.0000 C   0  0  0  0  0  0
    9.6004  -10.8784    0.0000 C   0  0  0  0  0  0
   11.0423  -10.4649    0.0000 C   0  0  0  0  0  0
   11.0946   -8.9658    0.0000 C   0  0  0  0  0  0
   -0.7500   -2.3597    0.0000 C   0  0  0  0  0  0
   -1.0105   -3.8369    0.0000 C   0  0  0  0  0  0
   -2.1595   -1.8467    0.0000 C   0  0  0  0  0  0
   -0.0000   -1.0607    0.0000 C   0  0  0  0  0  0
    1.0607    0.0000    0.0000 C   0  0  0  0  0  0
    0.0000    1.0607    0.0000 C   0  0  0  0  0  0
   -1.0607    0.0000    0.0000 C   0  0  0  0  0  0
    2.7125   -8.1175    0.0000 C   0  0  0  0  0  0
    1.3422   -8.7276    0.0000 C   0  0  0  0  0  0
    4.0829   -7.5074    0.0000 C   0  0  0  0  0  0
    3.3227   -9.4878    0.0000 C   0  0  0  0  0  0
  1  2  1  0  0  0
  2  3  1  0  0  0
  2  4  1  0  0  0
  2  5  1  0  0  0
  5  6  1  0  0  0
  5 18  1  1  0  0
  6  7  1  0  0  0
  7  8  2  0  0  0
  7  9  1  0  0  0
  9 10  1  0  0  0
  9 17  1  0  0  0
 10 11  1  0  0  0
 11 12  1  0  0  0
 11 15  2  0  0  0
 12 13  1  0  0  0
 13 14  2  0  0  0
 14 15  1  0  0  0
 15 16  1  0  0  0
 16 17  1  0  0  0
 18 19  2  0  0  0
 18 20  1  0  0  0
 20 21  1  0  0  0
 21 22  1  0  0  0
 21 55  1  1  0  0
 22 23  2  0  0  0
 22 24  1  0  0  0
 24 25  1  0  0  0
 24 28  1  0  0  0
 25 26  1  0  0  0
 26 27  1  0  0  0
 26 48  1  0  0  0
 26 51  1  1  0  0
 27 28  1  0  0  0
 28 29  1  6  0  0
 29 30  2  0  0  0
 29 31  1  0  0  0
 31 32  1  0  0  0
 32 33  1  0  0  0
 32 37  1  0  0  0
 32 34  1  1  0  0
 33 34  1  0  0  0
 34 35  1  6  0  0
 35 36  2  0  0  0
 37 38  2  0  0  0
 37 39  1  0  0  0
 39 40  1  0  0  0
 40 41  2  0  0  0
 40 42  2  0  0  0
 40 43  1  0  0  0
 43 44  1  0  0  0
 43 47  1  0  0  0
 44 45  1  0  0  0
 45 46  1  0  0  0
 46 47  1  0  0  0
 48 49  1  0  0  0
 48 50  1  0  0  0
 48 51  1  0  0  0
 51 52  1  0  0  0
 51 54  1  0  0  0
 52 53  1  0  0  0
 53 54  1  0  0  0
 55 56  1  0  0  0
 55 57  1  0  0  0
 55 58  1  0  0  0
M  END
> <s_m_entry_id>
6747

> <s_m_entry_name>
NS3-4A.288

> <CHEMBLID>
CHEMBL3645603

> <s_m_Source_Path>
/home/liwei/Desktop/Machine/HCV/Active

> <s_m_Source_File>
NS3-4A.sdf

> <i_m_Source_File_Index>
288

$$$$
CHEMBL3645604
                    3D
 Structure written by MMmdl.
 58 63  0  0  1  0            999 V2000
    6.6889   -7.1261    0.0000 C   0  0  0  0  0  0
    5.2470   -6.7126    0.0000 C   0  0  0  0  0  0
    4.1680   -7.7546    0.0000 C   0  0  2  0  0  0
    3.7545   -9.1965    0.0000 C   0  0  0  0  0  0
    2.7125   -8.1175    0.0000 C   0  0  2  0  0  0
    2.1024   -6.7472    0.0000 N   0  0  0  0  0  0
    2.9841   -5.5337    0.0000 C   0  0  0  0  0  0
    4.4759   -5.6905    0.0000 O   0  0  0  0  0  0
    2.3740   -4.1633    0.0000 C   0  0  2  0  0  0
    0.9068   -3.8515    0.0000 C   0  0  0  0  0  0
    0.7500   -2.3597    0.0000 C   0  0  2  0  0  0
    2.1203   -1.7496    0.0000 C   0  0  0  0  0  0
    3.1240   -2.8643    0.0000 N   0  0  0  0  0  0
    4.6158   -2.7075    0.0000 C   0  0  0  0  0  0
    5.4975   -3.9210    0.0000 O   0  0  0  0  0  0
    5.2259   -1.3372    0.0000 C   0  0  1  0  0  0
    6.7177   -1.1804    0.0000 N   0  0  0  0  0  0
    7.3278    0.1899    0.0000 C   0  0  0  0  0  0
    6.4461    1.4034    0.0000 O   0  0  0  0  0  0
    8.8196    0.3467    0.0000 C   0  0  1  0  0  0
    9.7013   -0.8668    0.0000 N   0  0  0  0  0  0
   11.1930   -0.7100    0.0000 C   0  0  0  0  0  0
   11.8031    0.6603    0.0000 O   0  0  0  0  0  0
   12.0747   -1.9236    0.0000 C   0  0  2  0  0  0
   13.5665   -1.7668    0.0000 C   0  0  0  0  0  0
   14.4482   -2.9803    0.0000 C   0  0  0  0  0  0
   13.8381   -4.3506    0.0000 C   0  0  0  0  0  0
   12.3463   -4.5074    0.0000 C   0  0  0  0  0  0
   11.4646   -3.2939    0.0000 N   0  0  0  0  0  0
    9.9728   -3.4507    0.0000 C   0  0  0  0  0  0
    9.0911   -2.2371    0.0000 C   0  0  0  0  0  0
    9.3627   -4.8210    0.0000 C   0  0  0  0  0  0
    9.4297    1.7170    0.0000 C   0  0  0  0  0  0
   10.8000    1.1069    0.0000 C   0  0  0  0  0  0
    8.0594    2.3271    0.0000 C   0  0  0  0  0  0
   10.0398    3.0873    0.0000 C   0  0  0  0  0  0
    4.3442   -0.1237    0.0000 C   0  0  0  0  0  0
    5.5577    0.7580    0.0000 C   0  0  0  0  0  0
    3.1307   -1.0054    0.0000 C   0  0  0  0  0  0
    3.4625    1.0899    0.0000 C   0  0  0  0  0  0
   -0.7500   -2.3597    0.0000 C   0  0  0  0  0  0
   -1.0105   -3.8369    0.0000 C   0  0  0  0  0  0
   -2.1595   -1.8467    0.0000 C   0  0  0  0  0  0
   -0.0000   -1.0607    0.0000 C   0  0  0  0  0  0
    1.0607    0.0000    0.0000 C   0  0  0  0  0  0
    0.0000    1.0607    0.0000 C   0  0  0  0  0  0
   -1.0607    0.0000    0.0000 C   0  0  0  0  0  0
    1.4690   -8.9563    0.0000 C   0  0  0  0  0  0
    0.1208   -8.2987    0.0000 O   0  0  0  0  0  0
    1.5736  -10.4526    0.0000 N   0  0  0  0  0  0
    0.3301  -11.2914    0.0000 S   0  0  0  0  0  0
    1.1689  -12.5350    0.0000 O   0  0  0  0  0  0
   -0.5087  -10.0479    0.0000 O   0  0  0  0  0  0
   -0.9135  -12.1302    0.0000 N   0  0  0  0  0  0
   -2.3230  -11.6172    0.0000 C   0  0  0  0  0  0
   -3.2465  -12.7992    0.0000 C   0  0  0  0  0  0
   -2.4077  -14.0428    0.0000 C   0  0  0  0  0  0
   -0.9658  -13.6293    0.0000 C   0  0  0  0  0  0
  1  2  1  0  0  0
  2  3  1  0  0  0
  3  4  1  0  0  0
  3  5  1  6  0  0
  4  5  1  0  0  0
  5  6  1  0  0  0
  5 48  1  6  0  0
  6  7  1  0  0  0
  7  8  2  0  0  0
  7  9  1  0  0  0
  9 10  1  0  0  0
  9 13  1  1  0  0
 10 11  1  0  0  0
 11 12  1  0  0  0
 11 41  1  0  0  0
 11 44  1  6  0  0
 12 13  1  0  0  0
 13 14  1  0  0  0
 14 15  2  0  0  0
 14 16  1  0  0  0
 16 17  1  0  0  0
 16 37  1  6  0  0
 17 18  1  0  0  0
 18 19  2  0  0  0
 18 20  1  0  0  0
 20 21  1  0  0  0
 20 33  1  6  0  0
 21 22  1  0  0  0
 22 23  2  0  0  0
 22 24  1  0  0  0
 24 25  1  0  0  0
 24 29  1  1  0  0
 25 26  1  0  0  0
 26 27  1  0  0  0
 27 28  1  0  0  0
 28 29  1  0  0  0
 29 30  1  0  0  0
 30 31  1  0  0  0
 30 32  1  0  0  0
 33 34  1  0  0  0
 33 35  1  0  0  0
 33 36  1  0  0  0
 37 38  1  0  0  0
 37 39  1  0  0  0
 37 40  1  0  0  0
 41 42  1  0  0  0
 41 43  1  0  0  0
 41 44  1  0  0  0
 44 45  1  0  0  0
 44 47  1  0  0  0
 45 46  1  0  0  0
 46 47  1  0  0  0
 48 49  2  0  0  0
 48 50  1  0  0  0
 50 51  1  0  0  0
 51 52  2  0  0  0
 51 53  2  0  0  0
 51 54  1  0  0  0
 54 55  1  0  0  0
 54 58  1  0  0  0
 55 56  1  0  0  0
 56 57  1  0  0  0
 57 58  1  0  0  0
M  END
> <s_m_entry_id>
6748

> <s_m_entry_name>
NS3-4A.289

> <CHEMBLID>
CHEMBL3645604

> <s_m_Source_Path>
/home/liwei/Desktop/Machine/HCV/Active

> <s_m_Source_File>
NS3-4A.sdf

> <i_m_Source_File_Index>
289

$$$$
CHEMBL3645605
                    3D
 Structure written by MMmdl.
 60 66  0  0  1  0            999 V2000
   -3.8580   -7.9790    0.0000 C   0  0  0  0  0  0
   -2.6445   -8.8607    0.0000 C   0  0  0  0  0  0
   -1.4310   -9.7423    0.0000 C   0  0  0  0  0  0
   -3.5262  -10.0742    0.0000 C   0  0  0  0  0  0
   -1.7628   -7.6471    0.0000 C   0  0  2  0  0  0
   -2.3729   -6.2768    0.0000 N   0  0  0  0  0  0
   -3.8647   -6.1200    0.0000 C   0  0  0  0  0  0
   -4.7464   -7.3335    0.0000 O   0  0  0  0  0  0
   -4.4748   -4.7497    0.0000 C   0  0  2  0  0  0
   -3.5931   -3.5362    0.0000 C   0  0  0  0  0  0
   -4.2032   -2.1659    0.0000 C   0  0  0  0  0  0
   -5.6950   -2.0091    0.0000 C   0  0  0  0  0  0
   -6.5767   -3.2226    0.0000 C   0  0  0  0  0  0
   -5.9666   -4.5929    0.0000 N   0  0  0  0  0  0
   -6.8483   -5.8064    0.0000 C   0  0  0  0  0  0
   -6.3847   -7.2330    0.0000 C   0  0  0  0  0  0
   -7.5983   -8.1147    0.0000 C   0  0  0  0  0  0
   -8.8118   -7.2330    0.0000 C   0  0  0  0  0  0
   -8.3483   -5.8064    0.0000 C   0  0  0  0  0  0
   -0.2710   -7.8039    0.0000 C   0  0  0  0  0  0
    0.3391   -9.1742    0.0000 O   0  0  0  0  0  0
    0.6107   -6.5904    0.0000 N   0  0  0  0  0  0
    2.1024   -6.7472    0.0000 C   0  0  2  0  0  0
    2.9841   -5.5337    0.0000 C   0  0  0  0  0  0
    4.4759   -5.6905    0.0000 O   0  0  0  0  0  0
    2.3740   -4.1633    0.0000 N   0  0  0  0  0  0
    0.9068   -3.8515    0.0000 C   0  0  0  0  0  0
    0.7500   -2.3597    0.0000 C   0  0  1  0  0  0
    2.1203   -1.7496    0.0000 C   0  0  0  0  0  0
    3.1240   -2.8643    0.0000 C   0  0  1  0  0  0
    4.6158   -2.7075    0.0000 C   0  0  0  0  0  0
    5.2259   -1.3372    0.0000 O   0  0  0  0  0  0
    5.4975   -3.9210    0.0000 N   0  0  0  0  0  0
    6.9893   -3.7643    0.0000 C   0  0  1  0  0  0
    8.3374   -3.1067    0.0000 C   0  0  0  0  0  0
    7.0939   -2.2679    0.0000 C   0  0  1  0  0  0
    6.4363   -0.9197    0.0000 C   0  0  0  0  0  0
    7.2751    0.3238    0.0000 C   0  0  0  0  0  0
    7.4027   -5.2061    0.0000 C   0  0  0  0  0  0
    6.3607   -6.2852    0.0000 O   0  0  0  0  0  0
    8.8582   -5.5690    0.0000 N   0  0  0  0  0  0
    9.2716   -7.0109    0.0000 S   0  0  0  0  0  0
   10.7135   -6.5975    0.0000 O   0  0  0  0  0  0
    7.8297   -7.4244    0.0000 O   0  0  0  0  0  0
    9.6851   -8.4528    0.0000 N   0  0  0  0  0  0
    8.7616   -9.6348    0.0000 C   0  0  0  0  0  0
    9.6004  -10.8784    0.0000 C   0  0  0  0  0  0
   11.0423  -10.4649    0.0000 C   0  0  0  0  0  0
   11.0946   -8.9658    0.0000 C   0  0  0  0  0  0
   -0.7500   -2.3597    0.0000 C   0  0  0  0  0  0
   -1.0105   -3.8369    0.0000 C   0  0  0  0  0  0
   -2.1595   -1.8467    0.0000 C   0  0  0  0  0  0
   -0.0000   -1.0607    0.0000 C   0  0  0  0  0  0
    1.0607    0.0000    0.0000 C   0  0  0  0  0  0
    0.0000    1.0607    0.0000 C   0  0  0  0  0  0
   -1.0607    0.0000    0.0000 C   0  0  0  0  0  0
    2.7125   -8.1175    0.0000 C   0  0  0  0  0  0
    1.3422   -8.7276    0.0000 C   0  0  0  0  0  0
    4.0829   -7.5074    0.0000 C   0  0  0  0  0  0
    3.3227   -9.4878    0.0000 C   0  0  0  0  0  0
  1  2  1  0  0  0
  2  3  1  0  0  0
  2  4  1  0  0  0
  2  5  1  0  0  0
  5  6  1  0  0  0
  5 20  1  1  0  0
  6  7  1  0  0  0
  7  8  2  0  0  0
  7  9  1  0  0  0
  9 10  1  0  0  0
  9 14  1  1  0  0
 10 11  1  0  0  0
 11 12  1  0  0  0
 12 13  1  0  0  0
 13 14  1  0  0  0
 14 15  1  0  0  0
 15 16  1  0  0  0
 15 19  1  0  0  0
 16 17  1  0  0  0
 17 18  1  0  0  0
 18 19  1  0  0  0
 20 21  2  0  0  0
 20 22  1  0  0  0
 22 23  1  0  0  0
 23 24  1  0  0  0
 23 57  1  1  0  0
 24 25  2  0  0  0
 24 26  1  0  0  0
 26 27  1  0  0  0
 26 30  1  0  0  0
 27 28  1  0  0  0
 28 29  1  0  0  0
 28 50  1  0  0  0
 28 53  1  1  0  0
 29 30  1  0  0  0
 30 31  1  6  0  0
 31 32  2  0  0  0
 31 33  1  0  0  0
 33 34  1  0  0  0
 34 35  1  0  0  0
 34 39  1  0  0  0
 34 36  1  1  0  0
 35 36  1  0  0  0
 36 37  1  6  0  0
 37 38  2  0  0  0
 39 40  2  0  0  0
 39 41  1  0  0  0
 41 42  1  0  0  0
 42 43  2  0  0  0
 42 44  2  0  0  0
 42 45  1  0  0  0
 45 46  1  0  0  0
 45 49  1  0  0  0
 46 47  1  0  0  0
 47 48  1  0  0  0
 48 49  1  0  0  0
 50 51  1  0  0  0
 50 52  1  0  0  0
 50 53  1  0  0  0
 53 54  1  0  0  0
 53 56  1  0  0  0
 54 55  1  0  0  0
 55 56  1  0  0  0
 57 58  1  0  0  0
 57 59  1  0  0  0
 57 60  1  0  0  0
M  END
> <s_m_entry_id>
6749

> <s_m_entry_name>
NS3-4A.290

> <CHEMBLID>
CHEMBL3645605

> <s_m_Source_Path>
/home/liwei/Desktop/Machine/HCV/Active

> <s_m_Source_File>
NS3-4A.sdf

> <i_m_Source_File_Index>
290

$$$$
CHEMBL3645606
                    3D
 Structure written by MMmdl.
 62 69  0  0  1  0            999 V2000
    1.3422   -8.7276    0.0000 C   0  0  0  0  0  0
    2.7125   -8.1175    0.0000 C   0  0  0  0  0  0
    4.0829   -7.5074    0.0000 C   0  0  0  0  0  0
    3.3227   -9.4878    0.0000 C   0  0  0  0  0  0
    2.1024   -6.7472    0.0000 C   0  0  2  0  0  0
    0.6107   -6.5904    0.0000 N   0  0  0  0  0  0
   -0.2710   -7.8039    0.0000 C   0  0  0  0  0  0
    0.3391   -9.1742    0.0000 O   0  0  0  0  0  0
   -1.7628   -7.6471    0.0000 C   0  0  1  0  0  0
   -2.3729   -6.2768    0.0000 N   0  0  0  0  0  0
   -3.8647   -6.1200    0.0000 C   0  0  0  0  0  0
   -4.7464   -7.3335    0.0000 O   0  0  0  0  0  0
   -4.4748   -4.7497    0.0000 C   0  0  2  0  0  0
   -3.5931   -3.5362    0.0000 C   0  0  0  0  0  0
   -4.2032   -2.1659    0.0000 C   0  0  0  0  0  0
   -5.6950   -2.0091    0.0000 C   0  0  0  0  0  0
   -6.5767   -3.2226    0.0000 C   0  0  0  0  0  0
   -5.9666   -4.5929    0.0000 N   0  0  0  0  0  0
   -6.8483   -5.8064    0.0000 C   0  0  0  0  0  0
   -6.3847   -7.2330    0.0000 C   0  0  0  0  0  0
   -7.5983   -8.1147    0.0000 C   0  0  0  0  0  0
   -8.8118   -7.2330    0.0000 C   0  0  0  0  0  0
   -8.3483   -5.8064    0.0000 C   0  0  0  0  0  0
   -2.6445   -8.8607    0.0000 C   0  0  0  0  0  0
   -4.1363   -8.7039    0.0000 C   0  0  0  0  0  0
   -5.0179   -9.9174    0.0000 C   0  0  0  0  0  0
   -4.4078  -11.2877    0.0000 C   0  0  0  0  0  0
   -2.9161  -11.4445    0.0000 C   0  0  0  0  0  0
   -2.0344  -10.2310    0.0000 C   0  0  0  0  0  0
    2.9841   -5.5337    0.0000 C   0  0  0  0  0  0
    4.4759   -5.6905    0.0000 O   0  0  0  0  0  0
    2.3740   -4.1633    0.0000 N   0  0  0  0  0  0
    0.9068   -3.8515    0.0000 C   0  0  0  0  0  0
    0.7500   -2.3597    0.0000 C   0  0  1  0  0  0
    2.1203   -1.7496    0.0000 C   0  0  0  0  0  0
    3.1240   -2.8643    0.0000 C   0  0  1  0  0  0
    4.6158   -2.7075    0.0000 C   0  0  0  0  0  0
    5.2259   -1.3372    0.0000 O   0  0  0  0  0  0
    5.4975   -3.9210    0.0000 N   0  0  0  0  0  0
    6.9893   -3.7643    0.0000 C   0  0  1  0  0  0
    8.3374   -3.1067    0.0000 C   0  0  0  0  0  0
    7.0939   -2.2679    0.0000 C   0  0  1  0  0  0
    6.4363   -0.9197    0.0000 C   0  0  0  0  0  0
    7.2751    0.3238    0.0000 C   0  0  0  0  0  0
    7.4027   -5.2061    0.0000 C   0  0  0  0  0  0
    6.3607   -6.2852    0.0000 O   0  0  0  0  0  0
    8.8582   -5.5690    0.0000 N   0  0  0  0  0  0
    9.2716   -7.0109    0.0000 S   0  0  0  0  0  0
   10.7135   -6.5975    0.0000 O   0  0  0  0  0  0
    7.8297   -7.4244    0.0000 O   0  0  0  0  0  0
    9.6851   -8.4528    0.0000 N   0  0  0  0  0  0
    8.7616   -9.6348    0.0000 C   0  0  0  0  0  0
    9.6004  -10.8784    0.0000 C   0  0  0  0  0  0
   11.0423  -10.4649    0.0000 C   0  0  0  0  0  0
   11.0946   -8.9658    0.0000 C   0  0  0  0  0  0
   -0.7500   -2.3597    0.0000 C   0  0  0  0  0  0
   -1.0105   -3.8369    0.0000 C   0  0  0  0  0  0
   -2.1595   -1.8467    0.0000 C   0  0  0  0  0  0
   -0.0000   -1.0607    0.0000 C   0  0  0  0  0  0
    1.0607    0.0000    0.0000 C   0  0  0  0  0  0
    0.0000    1.0607    0.0000 C   0  0  0  0  0  0
   -1.0607    0.0000    0.0000 C   0  0  0  0  0  0
  1  2  1  0  0  0
  2  3  1  0  0  0
  2  4  1  0  0  0
  2  5  1  0  0  0
  5  6  1  0  0  0
  5 30  1  1  0  0
  6  7  1  0  0  0
  7  8  2  0  0  0
  7  9  1  0  0  0
  9 10  1  0  0  0
  9 24  1  6  0  0
 10 11  1  0  0  0
 11 12  2  0  0  0
 11 13  1  0  0  0
 13 14  1  0  0  0
 13 18  1  1  0  0
 14 15  1  0  0  0
 15 16  1  0  0  0
 16 17  1  0  0  0
 17 18  1  0  0  0
 18 19  1  0  0  0
 19 20  1  0  0  0
 19 23  1  0  0  0
 20 21  1  0  0  0
 21 22  1  0  0  0
 22 23  1  0  0  0
 24 25  1  0  0  0
 24 29  1  0  0  0
 25 26  1  0  0  0
 26 27  1  0  0  0
 27 28  1  0  0  0
 28 29  1  0  0  0
 30 31  2  0  0  0
 30 32  1  0  0  0
 32 33  1  0  0  0
 32 36  1  0  0  0
 33 34  1  0  0  0
 34 35  1  0  0  0
 34 56  1  0  0  0
 34 59  1  1  0  0
 35 36  1  0  0  0
 36 37  1  6  0  0
 37 38  2  0  0  0
 37 39  1  0  0  0
 39 40  1  0  0  0
 40 41  1  0  0  0
 40 45  1  0  0  0
 40 42  1  1  0  0
 41 42  1  0  0  0
 42 43  1  6  0  0
 43 44  2  0  0  0
 45 46  2  0  0  0
 45 47  1  0  0  0
 47 48  1  0  0  0
 48 49  2  0  0  0
 48 50  2  0  0  0
 48 51  1  0  0  0
 51 52  1  0  0  0
 51 55  1  0  0  0
 52 53  1  0  0  0
 53 54  1  0  0  0
 54 55  1  0  0  0
 56 57  1  0  0  0
 56 58  1  0  0  0
 56 59  1  0  0  0
 59 60  1  0  0  0
 59 62  1  0  0  0
 60 61  1  0  0  0
 61 62  1  0  0  0
M  END
> <s_m_entry_id>
6750

> <s_m_entry_name>
NS3-4A.291

> <CHEMBLID>
CHEMBL3645606

> <s_m_Source_Path>
/home/liwei/Desktop/Machine/HCV/Active

> <s_m_Source_File>
NS3-4A.sdf

> <i_m_Source_File_Index>
291

$$$$
CHEMBL3645607
                    3D
 Structure written by MMmdl.
 61 67  0  0  1  0            999 V2000
  -10.7135   -6.7064    0.0000 C   0  0  0  0  0  0
   -9.2217   -6.8632    0.0000 O   0  0  0  0  0  0
   -8.3400   -5.6496    0.0000 C   0  0  0  0  0  0
   -6.8483   -5.8064    0.0000 C   0  0  0  0  0  0
   -5.9666   -4.5929    0.0000 N   0  0  0  0  0  0
   -6.5767   -3.2226    0.0000 C   0  0  0  0  0  0
   -5.6950   -2.0091    0.0000 C   0  0  0  0  0  0
   -4.2032   -2.1659    0.0000 C   0  0  0  0  0  0
   -3.5931   -3.5362    0.0000 C   0  0  0  0  0  0
   -4.4748   -4.7497    0.0000 C   0  0  1  0  0  0
   -3.8647   -6.1200    0.0000 C   0  0  0  0  0  0
   -4.7464   -7.3335    0.0000 O   0  0  0  0  0  0
   -2.3729   -6.2768    0.0000 N   0  0  0  0  0  0
   -1.7628   -7.6471    0.0000 C   0  0  1  0  0  0
   -2.6445   -8.8607    0.0000 C   0  0  0  0  0  0
   -4.1363   -8.7039    0.0000 C   0  0  0  0  0  0
   -5.0179   -9.9174    0.0000 C   0  0  0  0  0  0
   -4.4078  -11.2877    0.0000 C   0  0  0  0  0  0
   -2.9161  -11.4445    0.0000 C   0  0  0  0  0  0
   -2.0344  -10.2310    0.0000 C   0  0  0  0  0  0
   -0.2710   -7.8039    0.0000 C   0  0  0  0  0  0
    0.3391   -9.1742    0.0000 O   0  0  0  0  0  0
    0.6107   -6.5904    0.0000 N   0  0  0  0  0  0
    2.1024   -6.7472    0.0000 C   0  0  2  0  0  0
    2.9841   -5.5337    0.0000 C   0  0  0  0  0  0
    4.4759   -5.6905    0.0000 O   0  0  0  0  0  0
    2.3740   -4.1633    0.0000 N   0  0  0  0  0  0
    0.9068   -3.8515    0.0000 C   0  0  0  0  0  0
    0.7500   -2.3597    0.0000 C   0  0  1  0  0  0
    2.1203   -1.7496    0.0000 C   0  0  0  0  0  0
    3.1240   -2.8643    0.0000 C   0  0  1  0  0  0
    4.6158   -2.7075    0.0000 C   0  0  0  0  0  0
    5.2259   -1.3372    0.0000 O   0  0  0  0  0  0
    5.4975   -3.9210    0.0000 N   0  0  0  0  0  0
    6.9893   -3.7643    0.0000 C   0  0  1  0  0  0
    8.3374   -3.1067    0.0000 C   0  0  0  0  0  0
    7.0939   -2.2679    0.0000 C   0  0  1  0  0  0
    6.4363   -0.9197    0.0000 C   0  0  0  0  0  0
    7.2751    0.3238    0.0000 C   0  0  0  0  0  0
    7.4027   -5.2061    0.0000 C   0  0  0  0  0  0
    6.3607   -6.2852    0.0000 O   0  0  0  0  0  0
    8.8582   -5.5690    0.0000 N   0  0  0  0  0  0
    9.2716   -7.0109    0.0000 S   0  0  0  0  0  0
   10.7135   -6.5975    0.0000 O   0  0  0  0  0  0
    7.8297   -7.4244    0.0000 O   0  0  0  0  0  0
    9.6851   -8.4528    0.0000 N   0  0  0  0  0  0
    8.7616   -9.6348    0.0000 C   0  0  0  0  0  0
    9.6004  -10.8784    0.0000 C   0  0  0  0  0  0
   11.0423  -10.4649    0.0000 C   0  0  0  0  0  0
   11.0946   -8.9658    0.0000 C   0  0  0  0  0  0
   -0.7500   -2.3597    0.0000 C   0  0  0  0  0  0
   -1.0105   -3.8369    0.0000 C   0  0  0  0  0  0
   -2.1595   -1.8467    0.0000 C   0  0  0  0  0  0
   -0.0000   -1.0607    0.0000 C   0  0  0  0  0  0
    1.0607    0.0000    0.0000 C   0  0  0  0  0  0
    0.0000    1.0607    0.0000 C   0  0  0  0  0  0
   -1.0607    0.0000    0.0000 C   0  0  0  0  0  0
    2.7125   -8.1175    0.0000 C   0  0  0  0  0  0
    1.3422   -8.7276    0.0000 C   0  0  0  0  0  0
    4.0829   -7.5074    0.0000 C   0  0  0  0  0  0
    3.3227   -9.4878    0.0000 C   0  0  0  0  0  0
  1  2  1  0  0  0
  2  3  1  0  0  0
  3  4  1  0  0  0
  4  5  1  0  0  0
  5  6  1  0  0  0
  5 10  1  0  0  0
  6  7  1  0  0  0
  7  8  1  0  0  0
  8  9  1  0  0  0
  9 10  1  0  0  0
 10 11  1  6  0  0
 11 12  2  0  0  0
 11 13  1  0  0  0
 13 14  1  0  0  0
 14 15  1  0  0  0
 14 21  1  6  0  0
 15 16  1  0  0  0
 15 20  1  0  0  0
 16 17  1  0  0  0
 17 18  1  0  0  0
 18 19  1  0  0  0
 19 20  1  0  0  0
 21 22  2  0  0  0
 21 23  1  0  0  0
 23 24  1  0  0  0
 24 25  1  0  0  0
 24 58  1  1  0  0
 25 26  2  0  0  0
 25 27  1  0  0  0
 27 28  1  0  0  0
 27 31  1  0  0  0
 28 29  1  0  0  0
 29 30  1  0  0  0
 29 51  1  0  0  0
 29 54  1  1  0  0
 30 31  1  0  0  0
 31 32  1  6  0  0
 32 33  2  0  0  0
 32 34  1  0  0  0
 34 35  1  0  0  0
 35 36  1  0  0  0
 35 40  1  0  0  0
 35 37  1  1  0  0
 36 37  1  0  0  0
 37 38  1  6  0  0
 38 39  2  0  0  0
 40 41  2  0  0  0
 40 42  1  0  0  0
 42 43  1  0  0  0
 43 44  2  0  0  0
 43 45  2  0  0  0
 43 46  1  0  0  0
 46 47  1  0  0  0
 46 50  1  0  0  0
 47 48  1  0  0  0
 48 49  1  0  0  0
 49 50  1  0  0  0
 51 52  1  0  0  0
 51 53  1  0  0  0
 51 54  1  0  0  0
 54 55  1  0  0  0
 54 57  1  0  0  0
 55 56  1  0  0  0
 56 57  1  0  0  0
 58 59  1  0  0  0
 58 60  1  0  0  0
 58 61  1  0  0  0
M  END
> <s_m_entry_id>
6751

> <s_m_entry_name>
NS3-4A.292

> <CHEMBLID>
CHEMBL3645607

> <s_m_Source_Path>
/home/liwei/Desktop/Machine/HCV/Active

> <s_m_Source_File>
NS3-4A.sdf

> <i_m_Source_File_Index>
292

$$$$
CHEMBL3645608
                    3D
 Structure written by MMmdl.
 60 66  0  0  1  0            999 V2000
    6.6889   -7.1261    0.0000 C   0  0  0  0  0  0
    5.2470   -6.7126    0.0000 C   0  0  0  0  0  0
    4.1680   -7.7546    0.0000 C   0  0  2  0  0  0
    3.7545   -9.1965    0.0000 C   0  0  0  0  0  0
    2.7125   -8.1175    0.0000 C   0  0  2  0  0  0
    2.1024   -6.7472    0.0000 N   0  0  0  0  0  0
    2.9841   -5.5337    0.0000 C   0  0  0  0  0  0
    4.4759   -5.6905    0.0000 O   0  0  0  0  0  0
    2.3740   -4.1633    0.0000 C   0  0  2  0  0  0
    0.9068   -3.8515    0.0000 C   0  0  0  0  0  0
    0.7500   -2.3597    0.0000 C   0  0  2  0  0  0
    2.1203   -1.7496    0.0000 C   0  0  0  0  0  0
    3.1240   -2.8643    0.0000 N   0  0  0  0  0  0
    4.6158   -2.7075    0.0000 C   0  0  0  0  0  0
    5.4975   -3.9210    0.0000 O   0  0  0  0  0  0
    5.2259   -1.3372    0.0000 C   0  0  1  0  0  0
    6.7177   -1.1804    0.0000 N   0  0  0  0  0  0
    7.3278    0.1899    0.0000 C   0  0  0  0  0  0
    6.4461    1.4034    0.0000 O   0  0  0  0  0  0
    8.8196    0.3467    0.0000 C   0  0  1  0  0  0
    9.7013   -0.8668    0.0000 N   0  0  0  0  0  0
   11.1930   -0.7100    0.0000 C   0  0  0  0  0  0
   11.8031    0.6603    0.0000 O   0  0  0  0  0  0
   12.0747   -1.9236    0.0000 C   0  0  2  0  0  0
   13.5665   -1.7668    0.0000 C   0  0  0  0  0  0
   14.4482   -2.9803    0.0000 C   0  0  0  0  0  0
   13.8381   -4.3506    0.0000 C   0  0  0  0  0  0
   12.3463   -4.5074    0.0000 C   0  0  0  0  0  0
   11.4646   -3.2939    0.0000 N   0  0  0  0  0  0
    9.9728   -3.4507    0.0000 C   0  0  0  0  0  0
    9.0911   -2.2371    0.0000 C   0  0  0  0  0  0
    9.3627   -4.8210    0.0000 C   0  0  0  0  0  0
    9.4297    1.7170    0.0000 C   0  0  0  0  0  0
    8.5480    2.9305    0.0000 C   0  0  0  0  0  0
    9.1581    4.3009    0.0000 C   0  0  0  0  0  0
   10.6499    4.4577    0.0000 C   0  0  0  0  0  0
   11.5316    3.2441    0.0000 C   0  0  0  0  0  0
   10.9215    1.8738    0.0000 C   0  0  0  0  0  0
    4.3442   -0.1237    0.0000 C   0  0  0  0  0  0
    5.5577    0.7580    0.0000 C   0  0  0  0  0  0
    3.1307   -1.0054    0.0000 C   0  0  0  0  0  0
    3.4625    1.0899    0.0000 C   0  0  0  0  0  0
   -0.7500   -2.3597    0.0000 C   0  0  0  0  0  0
   -1.0105   -3.8369    0.0000 C   0  0  0  0  0  0
   -2.1595   -1.8467    0.0000 C   0  0  0  0  0  0
   -0.0000   -1.0607    0.0000 C   0  0  0  0  0  0
    1.0607    0.0000    0.0000 C   0  0  0  0  0  0
    0.0000    1.0607    0.0000 C   0  0  0  0  0  0
   -1.0607    0.0000    0.0000 C   0  0  0  0  0  0
    1.4690   -8.9563    0.0000 C   0  0  0  0  0  0
    0.1208   -8.2987    0.0000 O   0  0  0  0  0  0
    1.5736  -10.4526    0.0000 N   0  0  0  0  0  0
    0.3301  -11.2914    0.0000 S   0  0  0  0  0  0
    1.1689  -12.5350    0.0000 O   0  0  0  0  0  0
   -0.5087  -10.0479    0.0000 O   0  0  0  0  0  0
   -0.9135  -12.1302    0.0000 N   0  0  0  0  0  0
   -2.3230  -11.6172    0.0000 C   0  0  0  0  0  0
   -3.2465  -12.7992    0.0000 C   0  0  0  0  0  0
   -2.4077  -14.0428    0.0000 C   0  0  0  0  0  0
   -0.9658  -13.6293    0.0000 C   0  0  0  0  0  0
  1  2  1  0  0  0
  2  3  1  0  0  0
  3  4  1  0  0  0
  3  5  1  6  0  0
  4  5  1  0  0  0
  5  6  1  0  0  0
  5 50  1  6  0  0
  6  7  1  0  0  0
  7  8  2  0  0  0
  7  9  1  0  0  0
  9 10  1  0  0  0
  9 13  1  1  0  0
 10 11  1  0  0  0
 11 12  1  0  0  0
 11 43  1  0  0  0
 11 46  1  6  0  0
 12 13  1  0  0  0
 13 14  1  0  0  0
 14 15  2  0  0  0
 14 16  1  0  0  0
 16 17  1  0  0  0
 16 39  1  6  0  0
 17 18  1  0  0  0
 18 19  2  0  0  0
 18 20  1  0  0  0
 20 21  1  0  0  0
 20 33  1  6  0  0
 21 22  1  0  0  0
 22 23  2  0  0  0
 22 24  1  0  0  0
 24 25  1  0  0  0
 24 29  1  1  0  0
 25 26  1  0  0  0
 26 27  1  0  0  0
 27 28  1  0  0  0
 28 29  1  0  0  0
 29 30  1  0  0  0
 30 31  1  0  0  0
 30 32  1  0  0  0
 33 34  1  0  0  0
 33 38  1  0  0  0
 34 35  1  0  0  0
 35 36  1  0  0  0
 36 37  1  0  0  0
 37 38  1  0  0  0
 39 40  1  0  0  0
 39 41  1  0  0  0
 39 42  1  0  0  0
 43 44  1  0  0  0
 43 45  1  0  0  0
 43 46  1  0  0  0
 46 47  1  0  0  0
 46 49  1  0  0  0
 47 48  1  0  0  0
 48 49  1  0  0  0
 50 51  2  0  0  0
 50 52  1  0  0  0
 52 53  1  0  0  0
 53 54  2  0  0  0
 53 55  2  0  0  0
 53 56  1  0  0  0
 56 57  1  0  0  0
 56 60  1  0  0  0
 57 58  1  0  0  0
 58 59  1  0  0  0
 59 60  1  0  0  0
M  END
> <s_m_entry_id>
6752

> <s_m_entry_name>
NS3-4A.293

> <CHEMBLID>
CHEMBL3645608

> <s_m_Source_Path>
/home/liwei/Desktop/Machine/HCV/Active

> <s_m_Source_File>
NS3-4A.sdf

> <i_m_Source_File_Index>
293

$$$$
CHEMBL3645609
                    3D
 Structure written by MMmdl.
 62 69  0  0  1  0            999 V2000
   -8.3400   -5.6496    0.0000 C   0  0  0  0  0  0
   -6.8483   -5.8064    0.0000 C   0  0  0  0  0  0
   -6.2382   -7.1768    0.0000 C   0  0  0  0  0  0
   -5.9666   -4.5929    0.0000 N   0  0  0  0  0  0
   -6.5767   -3.2226    0.0000 C   0  0  0  0  0  0
   -5.6950   -2.0091    0.0000 C   0  0  0  0  0  0
   -4.2032   -2.1659    0.0000 C   0  0  0  0  0  0
   -3.5931   -3.5362    0.0000 C   0  0  0  0  0  0
   -4.4748   -4.7497    0.0000 C   0  0  1  0  0  0
   -3.8647   -6.1200    0.0000 C   0  0  0  0  0  0
   -4.7464   -7.3335    0.0000 O   0  0  0  0  0  0
   -2.3729   -6.2768    0.0000 N   0  0  0  0  0  0
   -1.7628   -7.6471    0.0000 C   0  0  1  0  0  0
   -2.6445   -8.8607    0.0000 C   0  0  0  0  0  0
   -4.1363   -8.7039    0.0000 C   0  0  0  0  0  0
   -5.0179   -9.9174    0.0000 C   0  0  0  0  0  0
   -4.4078  -11.2877    0.0000 C   0  0  0  0  0  0
   -2.9161  -11.4445    0.0000 C   0  0  0  0  0  0
   -2.0344  -10.2310    0.0000 C   0  0  0  0  0  0
   -0.2710   -7.8039    0.0000 C   0  0  0  0  0  0
    0.3391   -9.1742    0.0000 O   0  0  0  0  0  0
    0.6107   -6.5904    0.0000 N   0  0  0  0  0  0
    2.1024   -6.7472    0.0000 C   0  0  1  0  0  0
    2.7125   -8.1175    0.0000 C   0  0  0  0  0  0
    1.8309   -9.3310    0.0000 C   0  0  0  0  0  0
    2.4410  -10.7014    0.0000 C   0  0  0  0  0  0
    3.9328  -10.8581    0.0000 C   0  0  0  0  0  0
    4.8144   -9.6446    0.0000 C   0  0  0  0  0  0
    4.2043   -8.2743    0.0000 C   0  0  0  0  0  0
    2.9841   -5.5337    0.0000 C   0  0  0  0  0  0
    4.4759   -5.6905    0.0000 O   0  0  0  0  0  0
    2.3740   -4.1633    0.0000 N   0  0  0  0  0  0
    0.9068   -3.8515    0.0000 C   0  0  0  0  0  0
    0.7500   -2.3597    0.0000 C   0  0  1  0  0  0
    2.1203   -1.7496    0.0000 C   0  0  0  0  0  0
    3.1240   -2.8643    0.0000 C   0  0  1  0  0  0
    4.6158   -2.7075    0.0000 C   0  0  0  0  0  0
    5.2259   -1.3372    0.0000 O   0  0  0  0  0  0
    5.4975   -3.9210    0.0000 N   0  0  0  0  0  0
    6.9893   -3.7643    0.0000 C   0  0  1  0  0  0
    8.3374   -3.1067    0.0000 C   0  0  0  0  0  0
    7.0939   -2.2679    0.0000 C   0  0  1  0  0  0
    6.4363   -0.9197    0.0000 C   0  0  0  0  0  0
    7.2751    0.3238    0.0000 C   0  0  0  0  0  0
    7.4027   -5.2061    0.0000 C   0  0  0  0  0  0
    6.3607   -6.2852    0.0000 O   0  0  0  0  0  0
    8.8582   -5.5690    0.0000 N   0  0  0  0  0  0
    9.2716   -7.0109    0.0000 S   0  0  0  0  0  0
   10.7135   -6.5975    0.0000 O   0  0  0  0  0  0
    7.8297   -7.4244    0.0000 O   0  0  0  0  0  0
    9.6851   -8.4528    0.0000 N   0  0  0  0  0  0
    8.7616   -9.6348    0.0000 C   0  0  0  0  0  0
    9.6004  -10.8784    0.0000 C   0  0  0  0  0  0
   11.0423  -10.4649    0.0000 C   0  0  0  0  0  0
   11.0946   -8.9658    0.0000 C   0  0  0  0  0  0
   -0.7500   -2.3597    0.0000 C   0  0  0  0  0  0
   -1.0105   -3.8369    0.0000 C   0  0  0  0  0  0
   -2.1595   -1.8467    0.0000 C   0  0  0  0  0  0
   -0.0000   -1.0607    0.0000 C   0  0  0  0  0  0
    1.0607    0.0000    0.0000 C   0  0  0  0  0  0
    0.0000    1.0607    0.0000 C   0  0  0  0  0  0
   -1.0607    0.0000    0.0000 C   0  0  0  0  0  0
  1  2  1  0  0  0
  2  3  1  0  0  0
  2  4  1  0  0  0
  4  5  1  0  0  0
  4  9  1  0  0  0
  5  6  1  0  0  0
  6  7  1  0  0  0
  7  8  1  0  0  0
  8  9  1  0  0  0
  9 10  1  6  0  0
 10 11  2  0  0  0
 10 12  1  0  0  0
 12 13  1  0  0  0
 13 14  1  0  0  0
 13 20  1  6  0  0
 14 15  1  0  0  0
 14 19  1  0  0  0
 15 16  1  0  0  0
 16 17  1  0  0  0
 17 18  1  0  0  0
 18 19  1  0  0  0
 20 21  2  0  0  0
 20 22  1  0  0  0
 22 23  1  0  0  0
 23 24  1  0  0  0
 23 30  1  6  0  0
 24 25  1  0  0  0
 24 29  1  0  0  0
 25 26  1  0  0  0
 26 27  1  0  0  0
 27 28  1  0  0  0
 28 29  1  0  0  0
 30 31  2  0  0  0
 30 32  1  0  0  0
 32 33  1  0  0  0
 32 36  1  0  0  0
 33 34  1  0  0  0
 34 35  1  0  0  0
 34 56  1  0  0  0
 34 59  1  1  0  0
 35 36  1  0  0  0
 36 37  1  6  0  0
 37 38  2  0  0  0
 37 39  1  0  0  0
 39 40  1  0  0  0
 40 41  1  0  0  0
 40 45  1  0  0  0
 40 42  1  1  0  0
 41 42  1  0  0  0
 42 43  1  6  0  0
 43 44  2  0  0  0
 45 46  2  0  0  0
 45 47  1  0  0  0
 47 48  1  0  0  0
 48 49  2  0  0  0
 48 50  2  0  0  0
 48 51  1  0  0  0
 51 52  1  0  0  0
 51 55  1  0  0  0
 52 53  1  0  0  0
 53 54  1  0  0  0
 54 55  1  0  0  0
 56 57  1  0  0  0
 56 58  1  0  0  0
 56 59  1  0  0  0
 59 60  1  0  0  0
 59 62  1  0  0  0
 60 61  1  0  0  0
 61 62  1  0  0  0
M  END
> <s_m_entry_id>
6753

> <s_m_entry_name>
NS3-4A.294

> <CHEMBLID>
CHEMBL3645609

> <s_m_Source_Path>
/home/liwei/Desktop/Machine/HCV/Active

> <s_m_Source_File>
NS3-4A.sdf

> <i_m_Source_File_Index>
294

$$$$
CHEMBL3645610
                    3D
 Structure written by MMmdl.
 59 65  0  0  1  0            999 V2000
   -8.3400   -5.6496    0.0000 C   0  0  0  0  0  0
   -6.8483   -5.8064    0.0000 C   0  0  0  0  0  0
   -5.9666   -4.5929    0.0000 N   0  0  0  0  0  0
   -6.5767   -3.2226    0.0000 C   0  0  0  0  0  0
   -5.6950   -2.0091    0.0000 C   0  0  0  0  0  0
   -4.2032   -2.1659    0.0000 C   0  0  0  0  0  0
   -3.5931   -3.5362    0.0000 C   0  0  0  0  0  0
   -4.4748   -4.7497    0.0000 C   0  0  2  0  0  0
   -3.8647   -6.1200    0.0000 C   0  0  0  0  0  0
   -4.7464   -7.3335    0.0000 O   0  0  0  0  0  0
   -2.3729   -6.2768    0.0000 N   0  0  0  0  0  0
   -1.7628   -7.6471    0.0000 C   0  0  1  0  0  0
   -2.6445   -8.8607    0.0000 C   0  0  0  0  0  0
   -4.1363   -8.7039    0.0000 C   0  0  0  0  0  0
   -5.0179   -9.9174    0.0000 C   0  0  0  0  0  0
   -4.4078  -11.2877    0.0000 C   0  0  0  0  0  0
   -2.9161  -11.4445    0.0000 C   0  0  0  0  0  0
   -2.0344  -10.2310    0.0000 C   0  0  0  0  0  0
   -0.2710   -7.8039    0.0000 C   0  0  0  0  0  0
    0.3391   -9.1742    0.0000 O   0  0  0  0  0  0
    0.6107   -6.5904    0.0000 N   0  0  0  0  0  0
    2.1024   -6.7472    0.0000 C   0  0  2  0  0  0
    2.9841   -5.5337    0.0000 C   0  0  0  0  0  0
    4.4759   -5.6905    0.0000 O   0  0  0  0  0  0
    2.3740   -4.1633    0.0000 N   0  0  0  0  0  0
    0.9068   -3.8515    0.0000 C   0  0  0  0  0  0
    0.7500   -2.3597    0.0000 C   0  0  1  0  0  0
    2.1203   -1.7496    0.0000 C   0  0  0  0  0  0
    3.1240   -2.8643    0.0000 C   0  0  1  0  0  0
    4.6158   -2.7075    0.0000 C   0  0  0  0  0  0
    5.2259   -1.3372    0.0000 O   0  0  0  0  0  0
    5.4975   -3.9210    0.0000 N   0  0  0  0  0  0
    6.9893   -3.7643    0.0000 C   0  0  1  0  0  0
    8.3374   -3.1067    0.0000 C   0  0  0  0  0  0
    7.0939   -2.2679    0.0000 C   0  0  1  0  0  0
    6.4363   -0.9197    0.0000 C   0  0  0  0  0  0
    7.2751    0.3238    0.0000 C   0  0  0  0  0  0
    7.4027   -5.2061    0.0000 C   0  0  0  0  0  0
    6.3607   -6.2852    0.0000 O   0  0  0  0  0  0
    8.8582   -5.5690    0.0000 N   0  0  0  0  0  0
    9.2716   -7.0109    0.0000 S   0  0  0  0  0  0
   10.7135   -6.5975    0.0000 O   0  0  0  0  0  0
    7.8297   -7.4244    0.0000 O   0  0  0  0  0  0
    9.6851   -8.4528    0.0000 N   0  0  0  0  0  0
    8.7616   -9.6348    0.0000 C   0  0  0  0  0  0
    9.6004  -10.8784    0.0000 C   0  0  0  0  0  0
   11.0423  -10.4649    0.0000 C   0  0  0  0  0  0
   11.0946   -8.9658    0.0000 C   0  0  0  0  0  0
   -0.7500   -2.3597    0.0000 C   0  0  0  0  0  0
   -1.0105   -3.8369    0.0000 C   0  0  0  0  0  0
   -2.1595   -1.8467    0.0000 C   0  0  0  0  0  0
   -0.0000   -1.0607    0.0000 C   0  0  0  0  0  0
    1.0607    0.0000    0.0000 C   0  0  0  0  0  0
    0.0000    1.0607    0.0000 C   0  0  0  0  0  0
   -1.0607    0.0000    0.0000 C   0  0  0  0  0  0
    2.7125   -8.1175    0.0000 C   0  0  0  0  0  0
    1.3422   -8.7276    0.0000 C   0  0  0  0  0  0
    4.0829   -7.5074    0.0000 C   0  0  0  0  0  0
    3.3227   -9.4878    0.0000 C   0  0  0  0  0  0
  1  2  1  0  0  0
  2  3  1  0  0  0
  3  4  1  0  0  0
  3  8  1  0  0  0
  4  5  1  0  0  0
  5  6  1  0  0  0
  6  7  1  0  0  0
  7  8  1  0  0  0
  8  9  1  6  0  0
  9 10  2  0  0  0
  9 11  1  0  0  0
 11 12  1  0  0  0
 12 13  1  0  0  0
 12 19  1  6  0  0
 13 14  1  0  0  0
 13 18  1  0  0  0
 14 15  1  0  0  0
 15 16  1  0  0  0
 16 17  1  0  0  0
 17 18  1  0  0  0
 19 20  2  0  0  0
 19 21  1  0  0  0
 21 22  1  0  0  0
 22 23  1  0  0  0
 22 56  1  1  0  0
 23 24  2  0  0  0
 23 25  1  0  0  0
 25 26  1  0  0  0
 25 29  1  0  0  0
 26 27  1  0  0  0
 27 28  1  0  0  0
 27 49  1  0  0  0
 27 52  1  1  0  0
 28 29  1  0  0  0
 29 30  1  6  0  0
 30 31  2  0  0  0
 30 32  1  0  0  0
 32 33  1  0  0  0
 33 34  1  0  0  0
 33 38  1  0  0  0
 33 35  1  1  0  0
 34 35  1  0  0  0
 35 36  1  6  0  0
 36 37  2  0  0  0
 38 39  2  0  0  0
 38 40  1  0  0  0
 40 41  1  0  0  0
 41 42  2  0  0  0
 41 43  2  0  0  0
 41 44  1  0  0  0
 44 45  1  0  0  0
 44 48  1  0  0  0
 45 46  1  0  0  0
 46 47  1  0  0  0
 47 48  1  0  0  0
 49 50  1  0  0  0
 49 51  1  0  0  0
 49 52  1  0  0  0
 52 53  1  0  0  0
 52 55  1  0  0  0
 53 54  1  0  0  0
 54 55  1  0  0  0
 56 57  1  0  0  0
 56 58  1  0  0  0
 56 59  1  0  0  0
M  END
> <s_m_entry_id>
6754

> <s_m_entry_name>
NS3-4A.295

> <CHEMBLID>
CHEMBL3645610

> <s_m_Source_Path>
/home/liwei/Desktop/Machine/HCV/Active

> <s_m_Source_File>
NS3-4A.sdf

> <i_m_Source_File_Index>
295

$$$$
CHEMBL3645611
                    3D
 Structure written by MMmdl.
 59 65  0  0  1  0            999 V2000
   -8.3400   -5.6496    0.0000 C   0  0  0  0  0  0
   -6.8483   -5.8064    0.0000 C   0  0  0  0  0  0
   -5.9666   -4.5929    0.0000 N   0  0  0  0  0  0
   -6.5767   -3.2226    0.0000 C   0  0  0  0  0  0
   -5.6950   -2.0091    0.0000 C   0  0  0  0  0  0
   -4.2032   -2.1659    0.0000 C   0  0  0  0  0  0
   -3.5931   -3.5362    0.0000 C   0  0  0  0  0  0
   -4.4748   -4.7497    0.0000 C   0  0  1  0  0  0
   -3.8647   -6.1200    0.0000 C   0  0  0  0  0  0
   -4.7464   -7.3335    0.0000 O   0  0  0  0  0  0
   -2.3729   -6.2768    0.0000 N   0  0  0  0  0  0
   -1.7628   -7.6471    0.0000 C   0  0  1  0  0  0
   -2.6445   -8.8607    0.0000 C   0  0  0  0  0  0
   -4.1363   -8.7039    0.0000 C   0  0  0  0  0  0
   -5.0179   -9.9174    0.0000 C   0  0  0  0  0  0
   -4.4078  -11.2877    0.0000 C   0  0  0  0  0  0
   -2.9161  -11.4445    0.0000 C   0  0  0  0  0  0
   -2.0344  -10.2310    0.0000 C   0  0  0  0  0  0
   -0.2710   -7.8039    0.0000 C   0  0  0  0  0  0
    0.3391   -9.1742    0.0000 O   0  0  0  0  0  0
    0.6107   -6.5904    0.0000 N   0  0  0  0  0  0
    2.1024   -6.7472    0.0000 C   0  0  2  0  0  0
    2.9841   -5.5337    0.0000 C   0  0  0  0  0  0
    4.4759   -5.6905    0.0000 O   0  0  0  0  0  0
    2.3740   -4.1633    0.0000 N   0  0  0  0  0  0
    0.9068   -3.8515    0.0000 C   0  0  0  0  0  0
    0.7500   -2.3597    0.0000 C   0  0  1  0  0  0
    2.1203   -1.7496    0.0000 C   0  0  0  0  0  0
    3.1240   -2.8643    0.0000 C   0  0  1  0  0  0
    4.6158   -2.7075    0.0000 C   0  0  0  0  0  0
    5.2259   -1.3372    0.0000 O   0  0  0  0  0  0
    5.4975   -3.9210    0.0000 N   0  0  0  0  0  0
    6.9893   -3.7643    0.0000 C   0  0  1  0  0  0
    8.3374   -3.1067    0.0000 C   0  0  0  0  0  0
    7.0939   -2.2679    0.0000 C   0  0  1  0  0  0
    6.4363   -0.9197    0.0000 C   0  0  0  0  0  0
    7.2751    0.3238    0.0000 C   0  0  0  0  0  0
    7.4027   -5.2061    0.0000 C   0  0  0  0  0  0
    6.3607   -6.2852    0.0000 O   0  0  0  0  0  0
    8.8582   -5.5690    0.0000 N   0  0  0  0  0  0
    9.2716   -7.0109    0.0000 S   0  0  0  0  0  0
   10.7135   -6.5975    0.0000 O   0  0  0  0  0  0
    7.8297   -7.4244    0.0000 O   0  0  0  0  0  0
    9.6851   -8.4528    0.0000 N   0  0  0  0  0  0
    8.7616   -9.6348    0.0000 C   0  0  0  0  0  0
    9.6004  -10.8784    0.0000 C   0  0  0  0  0  0
   11.0423  -10.4649    0.0000 C   0  0  0  0  0  0
   11.0946   -8.9658    0.0000 C   0  0  0  0  0  0
   -0.7500   -2.3597    0.0000 C   0  0  0  0  0  0
   -1.0105   -3.8369    0.0000 C   0  0  0  0  0  0
   -2.1595   -1.8467    0.0000 C   0  0  0  0  0  0
   -0.0000   -1.0607    0.0000 C   0  0  0  0  0  0
    1.0607    0.0000    0.0000 C   0  0  0  0  0  0
    0.0000    1.0607    0.0000 C   0  0  0  0  0  0
   -1.0607    0.0000    0.0000 C   0  0  0  0  0  0
    2.7125   -8.1175    0.0000 C   0  0  0  0  0  0
    1.3422   -8.7276    0.0000 C   0  0  0  0  0  0
    4.0829   -7.5074    0.0000 C   0  0  0  0  0  0
    3.3227   -9.4878    0.0000 C   0  0  0  0  0  0
  1  2  1  0  0  0
  2  3  1  0  0  0
  3  4  1  0  0  0
  3  8  1  0  0  0
  4  5  1  0  0  0
  5  6  1  0  0  0
  6  7  1  0  0  0
  7  8  1  0  0  0
  8  9  1  6  0  0
  9 10  2  0  0  0
  9 11  1  0  0  0
 11 12  1  0  0  0
 12 13  1  0  0  0
 12 19  1  6  0  0
 13 14  1  0  0  0
 13 18  1  0  0  0
 14 15  1  0  0  0
 15 16  1  0  0  0
 16 17  1  0  0  0
 17 18  1  0  0  0
 19 20  2  0  0  0
 19 21  1  0  0  0
 21 22  1  0  0  0
 22 23  1  0  0  0
 22 56  1  1  0  0
 23 24  2  0  0  0
 23 25  1  0  0  0
 25 26  1  0  0  0
 25 29  1  0  0  0
 26 27  1  0  0  0
 27 28  1  0  0  0
 27 49  1  0  0  0
 27 52  1  1  0  0
 28 29  1  0  0  0
 29 30  1  6  0  0
 30 31  2  0  0  0
 30 32  1  0  0  0
 32 33  1  0  0  0
 33 34  1  0  0  0
 33 38  1  0  0  0
 33 35  1  1  0  0
 34 35  1  0  0  0
 35 36  1  6  0  0
 36 37  2  0  0  0
 38 39  2  0  0  0
 38 40  1  0  0  0
 40 41  1  0  0  0
 41 42  2  0  0  0
 41 43  2  0  0  0
 41 44  1  0  0  0
 44 45  1  0  0  0
 44 48  1  0  0  0
 45 46  1  0  0  0
 46 47  1  0  0  0
 47 48  1  0  0  0
 49 50  1  0  0  0
 49 51  1  0  0  0
 49 52  1  0  0  0
 52 53  1  0  0  0
 52 55  1  0  0  0
 53 54  1  0  0  0
 54 55  1  0  0  0
 56 57  1  0  0  0
 56 58  1  0  0  0
 56 59  1  0  0  0
M  END
> <s_m_entry_id>
6755

> <s_m_entry_name>
NS3-4A.296

> <CHEMBLID>
CHEMBL3645611

> <s_m_Source_Path>
/home/liwei/Desktop/Machine/HCV/Active

> <s_m_Source_File>
NS3-4A.sdf

> <i_m_Source_File_Index>
296

$$$$
CHEMBL3645612
                    3D
 Structure written by MMmdl.
 58 64  0  0  1  0            999 V2000
   -1.3513   -4.5074    0.0000 C   0  0  0  0  0  0
   -2.2330   -3.2939    0.0000 C   0  0  0  0  0  0
   -3.7248   -3.4507    0.0000 N   0  0  0  0  0  0
   -4.7285   -2.3359    0.0000 C   0  0  0  0  0  0
   -6.0988   -2.9461    0.0000 C   0  0  0  0  0  0
   -5.9420   -4.4378    0.0000 C   0  0  0  0  0  0
   -4.4748   -4.7497    0.0000 C   0  0  2  0  0  0
   -3.8647   -6.1200    0.0000 C   0  0  0  0  0  0
   -4.7464   -7.3335    0.0000 O   0  0  0  0  0  0
   -2.3729   -6.2768    0.0000 N   0  0  0  0  0  0
   -1.7628   -7.6471    0.0000 C   0  0  1  0  0  0
   -2.6445   -8.8607    0.0000 C   0  0  0  0  0  0
   -4.1363   -8.7039    0.0000 C   0  0  0  0  0  0
   -5.0179   -9.9174    0.0000 C   0  0  0  0  0  0
   -4.4078  -11.2877    0.0000 C   0  0  0  0  0  0
   -2.9161  -11.4445    0.0000 C   0  0  0  0  0  0
   -2.0344  -10.2310    0.0000 C   0  0  0  0  0  0
   -0.2710   -7.8039    0.0000 C   0  0  0  0  0  0
    0.3391   -9.1742    0.0000 O   0  0  0  0  0  0
    0.6107   -6.5904    0.0000 N   0  0  0  0  0  0
    2.1024   -6.7472    0.0000 C   0  0  2  0  0  0
    2.9841   -5.5337    0.0000 C   0  0  0  0  0  0
    4.4759   -5.6905    0.0000 O   0  0  0  0  0  0
    2.3740   -4.1633    0.0000 N   0  0  0  0  0  0
    0.9068   -3.8515    0.0000 C   0  0  0  0  0  0
    0.7500   -2.3597    0.0000 C   0  0  1  0  0  0
    2.1203   -1.7496    0.0000 C   0  0  0  0  0  0
    3.1240   -2.8643    0.0000 C   0  0  1  0  0  0
    4.6158   -2.7075    0.0000 C   0  0  0  0  0  0
    5.2259   -1.3372    0.0000 O   0  0  0  0  0  0
    5.4975   -3.9210    0.0000 N   0  0  0  0  0  0
    6.9893   -3.7643    0.0000 C   0  0  1  0  0  0
    8.3374   -3.1067    0.0000 C   0  0  0  0  0  0
    7.0939   -2.2679    0.0000 C   0  0  1  0  0  0
    6.4363   -0.9197    0.0000 C   0  0  0  0  0  0
    7.2751    0.3238    0.0000 C   0  0  0  0  0  0
    7.4027   -5.2061    0.0000 C   0  0  0  0  0  0
    6.3607   -6.2852    0.0000 O   0  0  0  0  0  0
    8.8582   -5.5690    0.0000 N   0  0  0  0  0  0
    9.2716   -7.0109    0.0000 S   0  0  0  0  0  0
   10.7135   -6.5975    0.0000 O   0  0  0  0  0  0
    7.8297   -7.4244    0.0000 O   0  0  0  0  0  0
    9.6851   -8.4528    0.0000 N   0  0  0  0  0  0
    8.7616   -9.6348    0.0000 C   0  0  0  0  0  0
    9.6004  -10.8784    0.0000 C   0  0  0  0  0  0
   11.0423  -10.4649    0.0000 C   0  0  0  0  0  0
   11.0946   -8.9658    0.0000 C   0  0  0  0  0  0
   -0.7500   -2.3597    0.0000 C   0  0  0  0  0  0
   -1.0105   -3.8369    0.0000 C   0  0  0  0  0  0
   -2.1595   -1.8467    0.0000 C   0  0  0  0  0  0
   -0.0000   -1.0607    0.0000 C   0  0  0  0  0  0
    1.0607    0.0000    0.0000 C   0  0  0  0  0  0
    0.0000    1.0607    0.0000 C   0  0  0  0  0  0
   -1.0607    0.0000    0.0000 C   0  0  0  0  0  0
    2.7125   -8.1175    0.0000 C   0  0  0  0  0  0
    1.3422   -8.7276    0.0000 C   0  0  0  0  0  0
    4.0829   -7.5074    0.0000 C   0  0  0  0  0  0
    3.3227   -9.4878    0.0000 C   0  0  0  0  0  0
  1  2  1  0  0  0
  2  3  1  0  0  0
  3  4  1  0  0  0
  3  7  1  0  0  0
  4  5  1  0  0  0
  5  6  1  0  0  0
  6  7  1  0  0  0
  7  8  1  6  0  0
  8  9  2  0  0  0
  8 10  1  0  0  0
 10 11  1  0  0  0
 11 12  1  0  0  0
 11 18  1  6  0  0
 12 13  1  0  0  0
 12 17  1  0  0  0
 13 14  1  0  0  0
 14 15  1  0  0  0
 15 16  1  0  0  0
 16 17  1  0  0  0
 18 19  2  0  0  0
 18 20  1  0  0  0
 20 21  1  0  0  0
 21 22  1  0  0  0
 21 55  1  1  0  0
 22 23  2  0  0  0
 22 24  1  0  0  0
 24 25  1  0  0  0
 24 28  1  0  0  0
 25 26  1  0  0  0
 26 27  1  0  0  0
 26 48  1  0  0  0
 26 51  1  1  0  0
 27 28  1  0  0  0
 28 29  1  6  0  0
 29 30  2  0  0  0
 29 31  1  0  0  0
 31 32  1  0  0  0
 32 33  1  0  0  0
 32 37  1  0  0  0
 32 34  1  1  0  0
 33 34  1  0  0  0
 34 35  1  6  0  0
 35 36  2  0  0  0
 37 38  2  0  0  0
 37 39  1  0  0  0
 39 40  1  0  0  0
 40 41  2  0  0  0
 40 42  2  0  0  0
 40 43  1  0  0  0
 43 44  1  0  0  0
 43 47  1  0  0  0
 44 45  1  0  0  0
 45 46  1  0  0  0
 46 47  1  0  0  0
 48 49  1  0  0  0
 48 50  1  0  0  0
 48 51  1  0  0  0
 51 52  1  0  0  0
 51 54  1  0  0  0
 52 53  1  0  0  0
 53 54  1  0  0  0
 55 56  1  0  0  0
 55 57  1  0  0  0
 55 58  1  0  0  0
M  END
> <s_m_entry_id>
6756

> <s_m_entry_name>
NS3-4A.297

> <CHEMBLID>
CHEMBL3645612

> <s_m_Source_Path>
/home/liwei/Desktop/Machine/HCV/Active

> <s_m_Source_File>
NS3-4A.sdf

> <i_m_Source_File_Index>
297

$$$$
CHEMBL3645613
                    3D
 Structure written by MMmdl.
 58 64  0  0  1  0            999 V2000
   -1.3513   -4.5074    0.0000 C   0  0  0  0  0  0
   -2.2330   -3.2939    0.0000 C   0  0  0  0  0  0
   -3.7248   -3.4507    0.0000 N   0  0  0  0  0  0
   -4.7285   -2.3359    0.0000 C   0  0  0  0  0  0
   -6.0988   -2.9461    0.0000 C   0  0  0  0  0  0
   -5.9420   -4.4378    0.0000 C   0  0  0  0  0  0
   -4.4748   -4.7497    0.0000 C   0  0  1  0  0  0
   -3.8647   -6.1200    0.0000 C   0  0  0  0  0  0
   -4.7464   -7.3335    0.0000 O   0  0  0  0  0  0
   -2.3729   -6.2768    0.0000 N   0  0  0  0  0  0
   -1.7628   -7.6471    0.0000 C   0  0  1  0  0  0
   -2.6445   -8.8607    0.0000 C   0  0  0  0  0  0
   -4.1363   -8.7039    0.0000 C   0  0  0  0  0  0
   -5.0179   -9.9174    0.0000 C   0  0  0  0  0  0
   -4.4078  -11.2877    0.0000 C   0  0  0  0  0  0
   -2.9161  -11.4445    0.0000 C   0  0  0  0  0  0
   -2.0344  -10.2310    0.0000 C   0  0  0  0  0  0
   -0.2710   -7.8039    0.0000 C   0  0  0  0  0  0
    0.3391   -9.1742    0.0000 O   0  0  0  0  0  0
    0.6107   -6.5904    0.0000 N   0  0  0  0  0  0
    2.1024   -6.7472    0.0000 C   0  0  2  0  0  0
    2.9841   -5.5337    0.0000 C   0  0  0  0  0  0
    4.4759   -5.6905    0.0000 O   0  0  0  0  0  0
    2.3740   -4.1633    0.0000 N   0  0  0  0  0  0
    0.9068   -3.8515    0.0000 C   0  0  0  0  0  0
    0.7500   -2.3597    0.0000 C   0  0  1  0  0  0
    2.1203   -1.7496    0.0000 C   0  0  0  0  0  0
    3.1240   -2.8643    0.0000 C   0  0  1  0  0  0
    4.6158   -2.7075    0.0000 C   0  0  0  0  0  0
    5.2259   -1.3372    0.0000 O   0  0  0  0  0  0
    5.4975   -3.9210    0.0000 N   0  0  0  0  0  0
    6.9893   -3.7643    0.0000 C   0  0  1  0  0  0
    8.3374   -3.1067    0.0000 C   0  0  0  0  0  0
    7.0939   -2.2679    0.0000 C   0  0  1  0  0  0
    6.4363   -0.9197    0.0000 C   0  0  0  0  0  0
    7.2751    0.3238    0.0000 C   0  0  0  0  0  0
    7.4027   -5.2061    0.0000 C   0  0  0  0  0  0
    6.3607   -6.2852    0.0000 O   0  0  0  0  0  0
    8.8582   -5.5690    0.0000 N   0  0  0  0  0  0
    9.2716   -7.0109    0.0000 S   0  0  0  0  0  0
   10.7135   -6.5975    0.0000 O   0  0  0  0  0  0
    7.8297   -7.4244    0.0000 O   0  0  0  0  0  0
    9.6851   -8.4528    0.0000 N   0  0  0  0  0  0
    8.7616   -9.6348    0.0000 C   0  0  0  0  0  0
    9.6004  -10.8784    0.0000 C   0  0  0  0  0  0
   11.0423  -10.4649    0.0000 C   0  0  0  0  0  0
   11.0946   -8.9658    0.0000 C   0  0  0  0  0  0
   -0.7500   -2.3597    0.0000 C   0  0  0  0  0  0
   -1.0105   -3.8369    0.0000 C   0  0  0  0  0  0
   -2.1595   -1.8467    0.0000 C   0  0  0  0  0  0
   -0.0000   -1.0607    0.0000 C   0  0  0  0  0  0
    1.0607    0.0000    0.0000 C   0  0  0  0  0  0
    0.0000    1.0607    0.0000 C   0  0  0  0  0  0
   -1.0607    0.0000    0.0000 C   0  0  0  0  0  0
    2.7125   -8.1175    0.0000 C   0  0  0  0  0  0
    1.3422   -8.7276    0.0000 C   0  0  0  0  0  0
    4.0829   -7.5074    0.0000 C   0  0  0  0  0  0
    3.3227   -9.4878    0.0000 C   0  0  0  0  0  0
  1  2  1  0  0  0
  2  3  1  0  0  0
  3  4  1  0  0  0
  3  7  1  0  0  0
  4  5  1  0  0  0
  5  6  1  0  0  0
  6  7  1  0  0  0
  7  8  1  6  0  0
  8  9  2  0  0  0
  8 10  1  0  0  0
 10 11  1  0  0  0
 11 12  1  0  0  0
 11 18  1  6  0  0
 12 13  1  0  0  0
 12 17  1  0  0  0
 13 14  1  0  0  0
 14 15  1  0  0  0
 15 16  1  0  0  0
 16 17  1  0  0  0
 18 19  2  0  0  0
 18 20  1  0  0  0
 20 21  1  0  0  0
 21 22  1  0  0  0
 21 55  1  1  0  0
 22 23  2  0  0  0
 22 24  1  0  0  0
 24 25  1  0  0  0
 24 28  1  0  0  0
 25 26  1  0  0  0
 26 27  1  0  0  0
 26 48  1  0  0  0
 26 51  1  1  0  0
 27 28  1  0  0  0
 28 29  1  6  0  0
 29 30  2  0  0  0
 29 31  1  0  0  0
 31 32  1  0  0  0
 32 33  1  0  0  0
 32 37  1  0  0  0
 32 34  1  1  0  0
 33 34  1  0  0  0
 34 35  1  6  0  0
 35 36  2  0  0  0
 37 38  2  0  0  0
 37 39  1  0  0  0
 39 40  1  0  0  0
 40 41  2  0  0  0
 40 42  2  0  0  0
 40 43  1  0  0  0
 43 44  1  0  0  0
 43 47  1  0  0  0
 44 45  1  0  0  0
 45 46  1  0  0  0
 46 47  1  0  0  0
 48 49  1  0  0  0
 48 50  1  0  0  0
 48 51  1  0  0  0
 51 52  1  0  0  0
 51 54  1  0  0  0
 52 53  1  0  0  0
 53 54  1  0  0  0
 55 56  1  0  0  0
 55 57  1  0  0  0
 55 58  1  0  0  0
M  END
> <s_m_entry_id>
6757

> <s_m_entry_name>
NS3-4A.298

> <CHEMBLID>
CHEMBL3645613

> <s_m_Source_Path>
/home/liwei/Desktop/Machine/HCV/Active

> <s_m_Source_File>
NS3-4A.sdf

> <i_m_Source_File_Index>
298

$$$$
CHEMBL3645614
                    3D
 Structure written by MMmdl.
 59 65  0  0  1  0            999 V2000
    1.3422   -8.7276    0.0000 C   0  0  0  0  0  0
    2.7125   -8.1175    0.0000 C   0  0  0  0  0  0
    4.0829   -7.5074    0.0000 C   0  0  0  0  0  0
    3.3227   -9.4878    0.0000 C   0  0  0  0  0  0
    2.1024   -6.7472    0.0000 C   0  0  2  0  0  0
    0.6107   -6.5904    0.0000 N   0  0  0  0  0  0
   -0.2710   -7.8039    0.0000 C   0  0  0  0  0  0
    0.3391   -9.1742    0.0000 O   0  0  0  0  0  0
   -1.7628   -7.6471    0.0000 C   0  0  1  0  0  0
   -2.3729   -6.2768    0.0000 N   0  0  0  0  0  0
   -3.8647   -6.1200    0.0000 C   0  0  0  0  0  0
   -4.7464   -7.3335    0.0000 O   0  0  0  0  0  0
   -4.4748   -4.7497    0.0000 C   0  0  3  0  0  0
   -3.9372   -3.3493    0.0000 C   0  0  0  0  0  0
   -5.3376   -2.8118    0.0000 C   0  0  0  0  0  0
   -5.8752   -4.2122    0.0000 N   0  0  0  0  0  0
   -7.2455   -4.8223    0.0000 C   0  0  0  0  0  0
   -7.8556   -3.4519    0.0000 C   0  0  0  0  0  0
   -6.6354   -6.1926    0.0000 C   0  0  0  0  0  0
   -8.6158   -5.4324    0.0000 C   0  0  0  0  0  0
   -2.6445   -8.8607    0.0000 C   0  0  0  0  0  0
   -4.1363   -8.7039    0.0000 C   0  0  0  0  0  0
   -5.0179   -9.9174    0.0000 C   0  0  0  0  0  0
   -4.4078  -11.2877    0.0000 C   0  0  0  0  0  0
   -2.9161  -11.4445    0.0000 C   0  0  0  0  0  0
   -2.0344  -10.2310    0.0000 C   0  0  0  0  0  0
    2.9841   -5.5337    0.0000 C   0  0  0  0  0  0
    4.4759   -5.6905    0.0000 O   0  0  0  0  0  0
    2.3740   -4.1633    0.0000 N   0  0  0  0  0  0
    0.9068   -3.8515    0.0000 C   0  0  0  0  0  0
    0.7500   -2.3597    0.0000 C   0  0  1  0  0  0
    2.1203   -1.7496    0.0000 C   0  0  0  0  0  0
    3.1240   -2.8643    0.0000 C   0  0  1  0  0  0
    4.6158   -2.7075    0.0000 C   0  0  0  0  0  0
    5.2259   -1.3372    0.0000 O   0  0  0  0  0  0
    5.4975   -3.9210    0.0000 N   0  0  0  0  0  0
    6.9893   -3.7643    0.0000 C   0  0  1  0  0  0
    8.3374   -3.1067    0.0000 C   0  0  0  0  0  0
    7.0939   -2.2679    0.0000 C   0  0  1  0  0  0
    6.4363   -0.9197    0.0000 C   0  0  0  0  0  0
    7.2751    0.3238    0.0000 C   0  0  0  0  0  0
    7.4027   -5.2061    0.0000 C   0  0  0  0  0  0
    6.3607   -6.2852    0.0000 O   0  0  0  0  0  0
    8.8582   -5.5690    0.0000 N   0  0  0  0  0  0
    9.2716   -7.0109    0.0000 S   0  0  0  0  0  0
   10.7135   -6.5975    0.0000 O   0  0  0  0  0  0
    7.8297   -7.4244    0.0000 O   0  0  0  0  0  0
    9.6851   -8.4528    0.0000 N   0  0  0  0  0  0
    8.7616   -9.6348    0.0000 C   0  0  0  0  0  0
    9.6004  -10.8784    0.0000 C   0  0  0  0  0  0
   11.0423  -10.4649    0.0000 C   0  0  0  0  0  0
   11.0946   -8.9658    0.0000 C   0  0  0  0  0  0
   -0.7500   -2.3597    0.0000 C   0  0  0  0  0  0
   -1.0105   -3.8369    0.0000 C   0  0  0  0  0  0
   -2.1595   -1.8467    0.0000 C   0  0  0  0  0  0
   -0.0000   -1.0607    0.0000 C   0  0  0  0  0  0
    1.0607    0.0000    0.0000 C   0  0  0  0  0  0
    0.0000    1.0607    0.0000 C   0  0  0  0  0  0
   -1.0607    0.0000    0.0000 C   0  0  0  0  0  0
  1  2  1  0  0  0
  2  3  1  0  0  0
  2  4  1  0  0  0
  2  5  1  0  0  0
  5  6  1  0  0  0
  5 27  1  1  0  0
  6  7  1  0  0  0
  7  8  2  0  0  0
  7  9  1  0  0  0
  9 10  1  0  0  0
  9 21  1  6  0  0
 10 11  1  0  0  0
 11 12  2  0  0  0
 11 13  1  0  0  0
 13 14  1  0  0  0
 13 16  1  0  0  0
 14 15  1  0  0  0
 15 16  1  0  0  0
 16 17  1  0  0  0
 17 18  1  0  0  0
 17 19  1  0  0  0
 17 20  1  0  0  0
 21 22  1  0  0  0
 21 26  1  0  0  0
 22 23  1  0  0  0
 23 24  1  0  0  0
 24 25  1  0  0  0
 25 26  1  0  0  0
 27 28  2  0  0  0
 27 29  1  0  0  0
 29 30  1  0  0  0
 29 33  1  0  0  0
 30 31  1  0  0  0
 31 32  1  0  0  0
 31 53  1  0  0  0
 31 56  1  1  0  0
 32 33  1  0  0  0
 33 34  1  6  0  0
 34 35  2  0  0  0
 34 36  1  0  0  0
 36 37  1  0  0  0
 37 38  1  0  0  0
 37 42  1  0  0  0
 37 39  1  1  0  0
 38 39  1  0  0  0
 39 40  1  6  0  0
 40 41  2  0  0  0
 42 43  2  0  0  0
 42 44  1  0  0  0
 44 45  1  0  0  0
 45 46  2  0  0  0
 45 47  2  0  0  0
 45 48  1  0  0  0
 48 49  1  0  0  0
 48 52  1  0  0  0
 49 50  1  0  0  0
 50 51  1  0  0  0
 51 52  1  0  0  0
 53 54  1  0  0  0
 53 55  1  0  0  0
 53 56  1  0  0  0
 56 57  1  0  0  0
 56 59  1  0  0  0
 57 58  1  0  0  0
 58 59  1  0  0  0
M  END
> <s_m_entry_id>
6758

> <s_m_entry_name>
NS3-4A.299

> <CHEMBLID>
CHEMBL3645614

> <s_m_Source_Path>
/home/liwei/Desktop/Machine/HCV/Active

> <s_m_Source_File>
NS3-4A.sdf

> <i_m_Source_File_Index>
299

$$$$
CHEMBL3645615
                    3D
 Structure written by MMmdl.
 62 69  0  0  1  0            999 V2000
   -8.3400   -5.6496    0.0000 C   0  0  0  0  0  0
   -6.8483   -5.8064    0.0000 C   0  0  0  0  0  0
   -6.2382   -7.1768    0.0000 C   0  0  0  0  0  0
   -5.9666   -4.5929    0.0000 N   0  0  0  0  0  0
   -6.5767   -3.2226    0.0000 C   0  0  0  0  0  0
   -5.6950   -2.0091    0.0000 C   0  0  0  0  0  0
   -4.2032   -2.1659    0.0000 C   0  0  0  0  0  0
   -3.5931   -3.5362    0.0000 C   0  0  0  0  0  0
   -4.4748   -4.7497    0.0000 C   0  0  1  0  0  0
   -3.8647   -6.1200    0.0000 C   0  0  0  0  0  0
   -4.7464   -7.3335    0.0000 O   0  0  0  0  0  0
   -2.3729   -6.2768    0.0000 N   0  0  0  0  0  0
   -1.7628   -7.6471    0.0000 C   0  0  1  0  0  0
   -2.6445   -8.8607    0.0000 C   0  0  0  0  0  0
   -4.1363   -8.7039    0.0000 C   0  0  0  0  0  0
   -5.0179   -9.9174    0.0000 C   0  0  0  0  0  0
   -4.4078  -11.2877    0.0000 C   0  0  0  0  0  0
   -2.9161  -11.4445    0.0000 C   0  0  0  0  0  0
   -2.0344  -10.2310    0.0000 C   0  0  0  0  0  0
   -0.2710   -7.8039    0.0000 C   0  0  0  0  0  0
    0.3391   -9.1742    0.0000 O   0  0  0  0  0  0
    0.6107   -6.5904    0.0000 N   0  0  0  0  0  0
    2.1024   -6.7472    0.0000 C   0  0  1  0  0  0
    2.7125   -8.1175    0.0000 C   0  0  0  0  0  0
    1.8309   -9.3310    0.0000 C   0  0  0  0  0  0
    2.4410  -10.7014    0.0000 C   0  0  0  0  0  0
    3.9328  -10.8581    0.0000 O   0  0  0  0  0  0
    4.8144   -9.6446    0.0000 C   0  0  0  0  0  0
    4.2043   -8.2743    0.0000 C   0  0  0  0  0  0
    2.9841   -5.5337    0.0000 C   0  0  0  0  0  0
    4.4759   -5.6905    0.0000 O   0  0  0  0  0  0
    2.3740   -4.1633    0.0000 N   0  0  0  0  0  0
    0.9068   -3.8515    0.0000 C   0  0  0  0  0  0
    0.7500   -2.3597    0.0000 C   0  0  1  0  0  0
    2.1203   -1.7496    0.0000 C   0  0  0  0  0  0
    3.1240   -2.8643    0.0000 C   0  0  1  0  0  0
    4.6158   -2.7075    0.0000 C   0  0  0  0  0  0
    5.2259   -1.3372    0.0000 O   0  0  0  0  0  0
    5.4975   -3.9210    0.0000 N   0  0  0  0  0  0
    6.9893   -3.7643    0.0000 C   0  0  1  0  0  0
    8.3374   -3.1067    0.0000 C   0  0  0  0  0  0
    7.0939   -2.2679    0.0000 C   0  0  1  0  0  0
    6.4363   -0.9197    0.0000 C   0  0  0  0  0  0
    7.2751    0.3238    0.0000 C   0  0  0  0  0  0
    7.4027   -5.2061    0.0000 C   0  0  0  0  0  0
    6.3607   -6.2852    0.0000 O   0  0  0  0  0  0
    8.8582   -5.5690    0.0000 N   0  0  0  0  0  0
    9.2716   -7.0109    0.0000 S   0  0  0  0  0  0
   10.7135   -6.5975    0.0000 O   0  0  0  0  0  0
    7.8297   -7.4244    0.0000 O   0  0  0  0  0  0
    9.6851   -8.4528    0.0000 N   0  0  0  0  0  0
    8.7616   -9.6348    0.0000 C   0  0  0  0  0  0
    9.6004  -10.8784    0.0000 C   0  0  0  0  0  0
   11.0423  -10.4649    0.0000 C   0  0  0  0  0  0
   11.0946   -8.9658    0.0000 C   0  0  0  0  0  0
   -0.7500   -2.3597    0.0000 C   0  0  0  0  0  0
   -1.0105   -3.8369    0.0000 C   0  0  0  0  0  0
   -2.1595   -1.8467    0.0000 C   0  0  0  0  0  0
   -0.0000   -1.0607    0.0000 C   0  0  0  0  0  0
    1.0607    0.0000    0.0000 C   0  0  0  0  0  0
    0.0000    1.0607    0.0000 C   0  0  0  0  0  0
   -1.0607    0.0000    0.0000 C   0  0  0  0  0  0
  1  2  1  0  0  0
  2  3  1  0  0  0
  2  4  1  0  0  0
  4  5  1  0  0  0
  4  9  1  0  0  0
  5  6  1  0  0  0
  6  7  1  0  0  0
  7  8  1  0  0  0
  8  9  1  0  0  0
  9 10  1  6  0  0
 10 11  2  0  0  0
 10 12  1  0  0  0
 12 13  1  0  0  0
 13 14  1  0  0  0
 13 20  1  6  0  0
 14 15  1  0  0  0
 14 19  1  0  0  0
 15 16  1  0  0  0
 16 17  1  0  0  0
 17 18  1  0  0  0
 18 19  1  0  0  0
 20 21  2  0  0  0
 20 22  1  0  0  0
 22 23  1  0  0  0
 23 24  1  0  0  0
 23 30  1  6  0  0
 24 25  1  0  0  0
 24 29  1  0  0  0
 25 26  1  0  0  0
 26 27  1  0  0  0
 27 28  1  0  0  0
 28 29  1  0  0  0
 30 31  2  0  0  0
 30 32  1  0  0  0
 32 33  1  0  0  0
 32 36  1  0  0  0
 33 34  1  0  0  0
 34 35  1  0  0  0
 34 56  1  0  0  0
 34 59  1  1  0  0
 35 36  1  0  0  0
 36 37  1  6  0  0
 37 38  2  0  0  0
 37 39  1  0  0  0
 39 40  1  0  0  0
 40 41  1  0  0  0
 40 45  1  0  0  0
 40 42  1  1  0  0
 41 42  1  0  0  0
 42 43  1  6  0  0
 43 44  2  0  0  0
 45 46  2  0  0  0
 45 47  1  0  0  0
 47 48  1  0  0  0
 48 49  2  0  0  0
 48 50  2  0  0  0
 48 51  1  0  0  0
 51 52  1  0  0  0
 51 55  1  0  0  0
 52 53  1  0  0  0
 53 54  1  0  0  0
 54 55  1  0  0  0
 56 57  1  0  0  0
 56 58  1  0  0  0
 56 59  1  0  0  0
 59 60  1  0  0  0
 59 62  1  0  0  0
 60 61  1  0  0  0
 61 62  1  0  0  0
M  END
> <s_m_entry_id>
6759

> <s_m_entry_name>
NS3-4A.300

> <CHEMBLID>
CHEMBL3645615

> <s_m_Source_Path>
/home/liwei/Desktop/Machine/HCV/Active

> <s_m_Source_File>
NS3-4A.sdf

> <i_m_Source_File_Index>
300

$$$$
CHEMBL3645616
                    3D
 Structure written by MMmdl.
 59 66  0  0  1  0            999 V2000
    2.1595   -1.8467    0.0000 C   0  0  0  0  0  0
    0.7500   -2.3597    0.0000 C   0  0  0  0  0  0
    1.0105   -3.8369    0.0000 C   0  0  0  0  0  0
   -0.0000   -1.0607    0.0000 C   0  0  0  0  0  0
    1.0607    0.0000    0.0000 C   0  0  0  0  0  0
    0.0000    1.0607    0.0000 C   0  0  0  0  0  0
   -1.0607    0.0000    0.0000 C   0  0  0  0  0  0
   -0.7500   -2.3597    0.0000 C   0  0  2  0  0  0
   -0.9068   -3.8515    0.0000 C   0  0  0  0  0  0
   -2.3740   -4.1633    0.0000 C   0  0  2  0  0  0
   -3.1240   -2.8643    0.0000 N   0  0  0  0  0  0
   -2.1203   -1.7496    0.0000 C   0  0  0  0  0  0
   -4.6158   -2.7075    0.0000 C   0  0  0  0  0  0
   -5.4975   -3.9210    0.0000 O   0  0  0  0  0  0
   -5.2259   -1.3372    0.0000 C   0  0  1  0  0  0
   -4.3442   -0.1237    0.0000 N   0  0  0  0  0  0
   -4.9543    1.2466    0.0000 C   0  0  0  0  0  0
   -6.4461    1.4034    0.0000 O   0  0  0  0  0  0
   -4.0727    2.4602    0.0000 C   0  0  1  0  0  0
   -2.5809    2.3034    0.0000 N   0  0  0  0  0  0
   -1.6992    3.5169    0.0000 C   0  0  0  0  0  0
   -2.3093    4.8872    0.0000 O   0  0  0  0  0  0
   -0.2074    3.3601    0.0000 C   0  0  0  0  0  0
    0.4027    1.9898    0.0000 C   0  0  0  0  0  0
    1.8945    1.8330    0.0000 N   0  0  0  0  0  0
    2.7762    3.0465    0.0000 C   0  0  0  0  0  0
    2.1661    4.4168    0.0000 C   0  0  0  0  0  0
    0.6743    4.5736    0.0000 N   0  0  0  0  0  0
   -4.6828    3.8305    0.0000 C   0  0  0  0  0  0
   -3.8011    5.0440    0.0000 C   0  0  0  0  0  0
   -4.4112    6.4143    0.0000 C   0  0  0  0  0  0
   -5.9030    6.5711    0.0000 C   0  0  0  0  0  0
   -6.7846    5.3576    0.0000 C   0  0  0  0  0  0
   -6.1745    3.9873    0.0000 C   0  0  0  0  0  0
   -6.7177   -1.1804    0.0000 C   0  0  0  0  0  0
   -7.3278    0.1899    0.0000 C   0  0  0  0  0  0
   -8.8196    0.3467    0.0000 C   0  0  0  0  0  0
   -9.7013   -0.8668    0.0000 O   0  0  0  0  0  0
   -9.0911   -2.2371    0.0000 C   0  0  0  0  0  0
   -7.5994   -2.3939    0.0000 C   0  0  0  0  0  0
   -2.9841   -5.5337    0.0000 C   0  0  0  0  0  0
   -2.1024   -6.7472    0.0000 O   0  0  0  0  0  0
   -4.4759   -5.6905    0.0000 N   0  0  0  0  0  0
   -5.0860   -7.0608    0.0000 C   0  0  1  0  0  0
   -5.1906   -8.5571    0.0000 C   0  0  0  0  0  0
   -3.8425   -7.8996    0.0000 C   0  0  1  0  0  0
   -2.3461   -8.0042    0.0000 C   0  0  0  0  0  0
   -1.6885   -9.3524    0.0000 C   0  0  0  0  0  0
   -6.5415   -6.6979    0.0000 C   0  0  0  0  0  0
   -6.9549   -5.2560    0.0000 O   0  0  0  0  0  0
   -7.5834   -7.7769    0.0000 N   0  0  0  0  0  0
   -9.0389   -7.4140    0.0000 S   0  0  0  0  0  0
   -9.4018   -8.8695    0.0000 O   0  0  0  0  0  0
   -8.6760   -5.9586    0.0000 O   0  0  0  0  0  0
  -10.4943   -7.0511    0.0000 N   0  0  0  0  0  0
  -11.0562   -5.6604    0.0000 C   0  0  0  0  0  0
  -12.5526   -5.7650    0.0000 C   0  0  0  0  0  0
  -12.9155   -7.2204    0.0000 C   0  0  0  0  0  0
  -11.6434   -8.0153    0.0000 C   0  0  0  0  0  0
  1  2  1  0  0  0
  2  3  1  0  0  0
  2  4  1  0  0  0
  2  8  1  0  0  0
  4  5  1  0  0  0
  4  8  1  0  0  0
  4  7  1  0  0  0
  5  6  1  0  0  0
  6  7  1  0  0  0
  8  9  1  0  0  0
  8 12  1  6  0  0
  9 10  1  0  0  0
 10 11  1  0  0  0
 10 41  1  1  0  0
 11 12  1  0  0  0
 11 13  1  0  0  0
 13 14  2  0  0  0
 13 15  1  0  0  0
 15 16  1  0  0  0
 15 35  1  6  0  0
 16 17  1  0  0  0
 17 18  2  0  0  0
 17 19  1  0  0  0
 19 20  1  0  0  0
 19 29  1  6  0  0
 20 21  1  0  0  0
 21 22  2  0  0  0
 21 23  1  0  0  0
 23 24  2  0  0  0
 23 28  1  0  0  0
 24 25  1  0  0  0
 25 26  2  0  0  0
 26 27  1  0  0  0
 27 28  2  0  0  0
 29 30  1  0  0  0
 29 34  1  0  0  0
 30 31  1  0  0  0
 31 32  1  0  0  0
 32 33  1  0  0  0
 33 34  1  0  0  0
 35 36  1  0  0  0
 35 40  1  0  0  0
 36 37  1  0  0  0
 37 38  1  0  0  0
 38 39  1  0  0  0
 39 40  1  0  0  0
 41 42  2  0  0  0
 41 43  1  0  0  0
 43 44  1  0  0  0
 44 45  1  0  0  0
 44 49  1  0  0  0
 44 46  1  1  0  0
 45 46  1  0  0  0
 46 47  1  6  0  0
 47 48  2  0  0  0
 49 50  2  0  0  0
 49 51  1  0  0  0
 51 52  1  0  0  0
 52 53  2  0  0  0
 52 54  2  0  0  0
 52 55  1  0  0  0
 55 56  1  0  0  0
 55 59  1  0  0  0
 56 57  1  0  0  0
 57 58  1  0  0  0
 58 59  1  0  0  0
M  END
> <s_m_entry_id>
6760

> <s_m_entry_name>
NS3-4A.301

> <CHEMBLID>
CHEMBL3645616

> <s_m_Source_Path>
/home/liwei/Desktop/Machine/HCV/Active

> <s_m_Source_File>
NS3-4A.sdf

> <i_m_Source_File_Index>
301

$$$$
CHEMBL3645617
                    3D
 Structure written by MMmdl.
 57 63  0  0  1  0            999 V2000
    1.3422   -8.7276    0.0000 C   0  0  0  0  0  0
    2.7125   -8.1175    0.0000 C   0  0  0  0  0  0
    4.0829   -7.5074    0.0000 C   0  0  0  0  0  0
    3.3227   -9.4878    0.0000 C   0  0  0  0  0  0
    2.1024   -6.7472    0.0000 C   0  0  2  0  0  0
    0.6107   -6.5904    0.0000 N   0  0  0  0  0  0
   -0.2710   -7.8039    0.0000 C   0  0  0  0  0  0
    0.3391   -9.1742    0.0000 O   0  0  0  0  0  0
   -1.7628   -7.6471    0.0000 C   0  0  1  0  0  0
   -2.3729   -6.2768    0.0000 N   0  0  0  0  0  0
   -3.8647   -6.1200    0.0000 C   0  0  0  0  0  0
   -4.7464   -7.3335    0.0000 O   0  0  0  0  0  0
   -4.4748   -4.7497    0.0000 C   0  0  0  0  0  0
   -3.5931   -3.5362    0.0000 C   0  0  0  0  0  0
   -4.2032   -2.1659    0.0000 N   0  0  0  0  0  0
   -5.6950   -2.0091    0.0000 C   0  0  0  0  0  0
   -6.5767   -3.2226    0.0000 C   0  0  0  0  0  0
   -5.9666   -4.5929    0.0000 N   0  0  0  0  0  0
   -2.6445   -8.8607    0.0000 C   0  0  0  0  0  0
   -4.1363   -8.7039    0.0000 C   0  0  0  0  0  0
   -5.0179   -9.9174    0.0000 C   0  0  0  0  0  0
   -4.4078  -11.2877    0.0000 O   0  0  0  0  0  0
   -2.9161  -11.4445    0.0000 C   0  0  0  0  0  0
   -2.0344  -10.2310    0.0000 C   0  0  0  0  0  0
    2.9841   -5.5337    0.0000 C   0  0  0  0  0  0
    4.4759   -5.6905    0.0000 O   0  0  0  0  0  0
    2.3740   -4.1633    0.0000 N   0  0  0  0  0  0
    0.9068   -3.8515    0.0000 C   0  0  0  0  0  0
    0.7500   -2.3597    0.0000 C   0  0  1  0  0  0
    2.1203   -1.7496    0.0000 C   0  0  0  0  0  0
    3.1240   -2.8643    0.0000 C   0  0  1  0  0  0
    4.6158   -2.7075    0.0000 C   0  0  0  0  0  0
    5.2259   -1.3372    0.0000 O   0  0  0  0  0  0
    5.4975   -3.9210    0.0000 N   0  0  0  0  0  0
    6.9893   -3.7643    0.0000 C   0  0  1  0  0  0
    8.3374   -3.1067    0.0000 C   0  0  0  0  0  0
    7.0939   -2.2679    0.0000 C   0  0  1  0  0  0
    6.4363   -0.9197    0.0000 C   0  0  0  0  0  0
    7.2751    0.3238    0.0000 C   0  0  0  0  0  0
    7.4027   -5.2061    0.0000 C   0  0  0  0  0  0
    6.3607   -6.2852    0.0000 O   0  0  0  0  0  0
    8.8582   -5.5690    0.0000 N   0  0  0  0  0  0
    9.2716   -7.0109    0.0000 S   0  0  0  0  0  0
   10.7135   -6.5975    0.0000 O   0  0  0  0  0  0
    7.8297   -7.4244    0.0000 O   0  0  0  0  0  0
    9.6851   -8.4528    0.0000 N   0  0  0  0  0  0
    8.7616   -9.6348    0.0000 C   0  0  0  0  0  0
    9.6004  -10.8784    0.0000 C   0  0  0  0  0  0
   11.0423  -10.4649    0.0000 C   0  0  0  0  0  0
   11.0946   -8.9658    0.0000 C   0  0  0  0  0  0
   -0.7500   -2.3597    0.0000 C   0  0  0  0  0  0
   -1.0105   -3.8369    0.0000 C   0  0  0  0  0  0
   -2.1595   -1.8467    0.0000 C   0  0  0  0  0  0
   -0.0000   -1.0607    0.0000 C   0  0  0  0  0  0
    1.0607    0.0000    0.0000 C   0  0  0  0  0  0
    0.0000    1.0607    0.0000 C   0  0  0  0  0  0
   -1.0607    0.0000    0.0000 C   0  0  0  0  0  0
  1  2  1  0  0  0
  2  3  1  0  0  0
  2  4  1  0  0  0
  2  5  1  0  0  0
  5  6  1  0  0  0
  5 25  1  1  0  0
  6  7  1  0  0  0
  7  8  2  0  0  0
  7  9  1  0  0  0
  9 10  1  0  0  0
  9 19  1  6  0  0
 10 11  1  0  0  0
 11 12  2  0  0  0
 11 13  1  0  0  0
 13 14  2  0  0  0
 13 18  1  0  0  0
 14 15  1  0  0  0
 15 16  2  0  0  0
 16 17  1  0  0  0
 17 18  2  0  0  0
 19 20  1  0  0  0
 19 24  1  0  0  0
 20 21  1  0  0  0
 21 22  1  0  0  0
 22 23  1  0  0  0
 23 24  1  0  0  0
 25 26  2  0  0  0
 25 27  1  0  0  0
 27 28  1  0  0  0
 27 31  1  0  0  0
 28 29  1  0  0  0
 29 30  1  0  0  0
 29 51  1  0  0  0
 29 54  1  1  0  0
 30 31  1  0  0  0
 31 32  1  6  0  0
 32 33  2  0  0  0
 32 34  1  0  0  0
 34 35  1  0  0  0
 35 36  1  0  0  0
 35 40  1  0  0  0
 35 37  1  1  0  0
 36 37  1  0  0  0
 37 38  1  6  0  0
 38 39  2  0  0  0
 40 41  2  0  0  0
 40 42  1  0  0  0
 42 43  1  0  0  0
 43 44  2  0  0  0
 43 45  2  0  0  0
 43 46  1  0  0  0
 46 47  1  0  0  0
 46 50  1  0  0  0
 47 48  1  0  0  0
 48 49  1  0  0  0
 49 50  1  0  0  0
 51 52  1  0  0  0
 51 53  1  0  0  0
 51 54  1  0  0  0
 54 55  1  0  0  0
 54 57  1  0  0  0
 55 56  1  0  0  0
 56 57  1  0  0  0
M  END
> <s_m_entry_id>
6761

> <s_m_entry_name>
NS3-4A.302

> <CHEMBLID>
CHEMBL3645617

> <s_m_Source_Path>
/home/liwei/Desktop/Machine/HCV/Active

> <s_m_Source_File>
NS3-4A.sdf

> <i_m_Source_File_Index>
302

$$$$
CHEMBL3645618
                    3D
 Structure written by MMmdl.
 60 66  0  0  1  0            999 V2000
   -8.3400   -5.6496    0.0000 C   0  0  0  0  0  0
   -6.8483   -5.8064    0.0000 C   0  0  0  0  0  0
   -6.2382   -7.1768    0.0000 C   0  0  0  0  0  0
   -5.9666   -4.5929    0.0000 N   0  0  0  0  0  0
   -6.5767   -3.2226    0.0000 C   0  0  0  0  0  0
   -5.6950   -2.0091    0.0000 C   0  0  0  0  0  0
   -4.2032   -2.1659    0.0000 C   0  0  0  0  0  0
   -3.5931   -3.5362    0.0000 C   0  0  0  0  0  0
   -4.4748   -4.7497    0.0000 C   0  0  1  0  0  0
   -3.8647   -6.1200    0.0000 C   0  0  0  0  0  0
   -4.7464   -7.3335    0.0000 O   0  0  0  0  0  0
   -2.3729   -6.2768    0.0000 N   0  0  0  0  0  0
   -1.7628   -7.6471    0.0000 C   0  0  1  0  0  0
   -2.6445   -8.8607    0.0000 C   0  0  0  0  0  0
   -4.1363   -8.7039    0.0000 C   0  0  0  0  0  0
   -5.0179   -9.9174    0.0000 C   0  0  0  0  0  0
   -4.4078  -11.2877    0.0000 O   0  0  0  0  0  0
   -2.9161  -11.4445    0.0000 C   0  0  0  0  0  0
   -2.0344  -10.2310    0.0000 C   0  0  0  0  0  0
   -0.2710   -7.8039    0.0000 C   0  0  0  0  0  0
    0.3391   -9.1742    0.0000 O   0  0  0  0  0  0
    0.6107   -6.5904    0.0000 N   0  0  0  0  0  0
    2.1024   -6.7472    0.0000 C   0  0  2  0  0  0
    2.9841   -5.5337    0.0000 C   0  0  0  0  0  0
    4.4759   -5.6905    0.0000 O   0  0  0  0  0  0
    2.3740   -4.1633    0.0000 N   0  0  0  0  0  0
    0.9068   -3.8515    0.0000 C   0  0  0  0  0  0
    0.7500   -2.3597    0.0000 C   0  0  1  0  0  0
    2.1203   -1.7496    0.0000 C   0  0  0  0  0  0
    3.1240   -2.8643    0.0000 C   0  0  1  0  0  0
    4.6158   -2.7075    0.0000 C   0  0  0  0  0  0
    5.2259   -1.3372    0.0000 O   0  0  0  0  0  0
    5.4975   -3.9210    0.0000 N   0  0  0  0  0  0
    6.9893   -3.7643    0.0000 C   0  0  1  0  0  0
    8.3374   -3.1067    0.0000 C   0  0  0  0  0  0
    7.0939   -2.2679    0.0000 C   0  0  1  0  0  0
    6.4363   -0.9197    0.0000 C   0  0  0  0  0  0
    7.2751    0.3238    0.0000 C   0  0  0  0  0  0
    7.4027   -5.2061    0.0000 C   0  0  0  0  0  0
    6.3607   -6.2852    0.0000 O   0  0  0  0  0  0
    8.8582   -5.5690    0.0000 N   0  0  0  0  0  0
    9.2716   -7.0109    0.0000 S   0  0  0  0  0  0
   10.7135   -6.5975    0.0000 O   0  0  0  0  0  0
    7.8297   -7.4244    0.0000 O   0  0  0  0  0  0
    9.6851   -8.4528    0.0000 N   0  0  0  0  0  0
    8.7616   -9.6348    0.0000 C   0  0  0  0  0  0
    9.6004  -10.8784    0.0000 C   0  0  0  0  0  0
   11.0423  -10.4649    0.0000 C   0  0  0  0  0  0
   11.0946   -8.9658    0.0000 C   0  0  0  0  0  0
   -0.7500   -2.3597    0.0000 C   0  0  0  0  0  0
   -1.0105   -3.8369    0.0000 C   0  0  0  0  0  0
   -2.1595   -1.8467    0.0000 C   0  0  0  0  0  0
   -0.0000   -1.0607    0.0000 C   0  0  0  0  0  0
    1.0607    0.0000    0.0000 C   0  0  0  0  0  0
    0.0000    1.0607    0.0000 C   0  0  0  0  0  0
   -1.0607    0.0000    0.0000 C   0  0  0  0  0  0
    2.7125   -8.1175    0.0000 C   0  0  0  0  0  0
    1.3422   -8.7276    0.0000 C   0  0  0  0  0  0
    4.0829   -7.5074    0.0000 C   0  0  0  0  0  0
    3.3227   -9.4878    0.0000 C   0  0  0  0  0  0
  1  2  1  0  0  0
  2  3  1  0  0  0
  2  4  1  0  0  0
  4  5  1  0  0  0
  4  9  1  0  0  0
  5  6  1  0  0  0
  6  7  1  0  0  0
  7  8  1  0  0  0
  8  9  1  0  0  0
  9 10  1  6  0  0
 10 11  2  0  0  0
 10 12  1  0  0  0
 12 13  1  0  0  0
 13 14  1  0  0  0
 13 20  1  6  0  0
 14 15  1  0  0  0
 14 19  1  0  0  0
 15 16  1  0  0  0
 16 17  1  0  0  0
 17 18  1  0  0  0
 18 19  1  0  0  0
 20 21  2  0  0  0
 20 22  1  0  0  0
 22 23  1  0  0  0
 23 24  1  0  0  0
 23 57  1  1  0  0
 24 25  2  0  0  0
 24 26  1  0  0  0
 26 27  1  0  0  0
 26 30  1  0  0  0
 27 28  1  0  0  0
 28 29  1  0  0  0
 28 50  1  0  0  0
 28 53  1  1  0  0
 29 30  1  0  0  0
 30 31  1  6  0  0
 31 32  2  0  0  0
 31 33  1  0  0  0
 33 34  1  0  0  0
 34 35  1  0  0  0
 34 39  1  0  0  0
 34 36  1  1  0  0
 35 36  1  0  0  0
 36 37  1  6  0  0
 37 38  2  0  0  0
 39 40  2  0  0  0
 39 41  1  0  0  0
 41 42  1  0  0  0
 42 43  2  0  0  0
 42 44  2  0  0  0
 42 45  1  0  0  0
 45 46  1  0  0  0
 45 49  1  0  0  0
 46 47  1  0  0  0
 47 48  1  0  0  0
 48 49  1  0  0  0
 50 51  1  0  0  0
 50 52  1  0  0  0
 50 53  1  0  0  0
 53 54  1  0  0  0
 53 56  1  0  0  0
 54 55  1  0  0  0
 55 56  1  0  0  0
 57 58  1  0  0  0
 57 59  1  0  0  0
 57 60  1  0  0  0
M  END
> <s_m_entry_id>
6762

> <s_m_entry_name>
NS3-4A.303

> <CHEMBLID>
CHEMBL3645618

> <s_m_Source_Path>
/home/liwei/Desktop/Machine/HCV/Active

> <s_m_Source_File>
NS3-4A.sdf

> <i_m_Source_File_Index>
303

$$$$
CHEMBL3645619
                    3D
 Structure written by MMmdl.
 61 67  0  0  1  0            999 V2000
   -8.3400   -5.6496    0.0000 C   0  0  0  0  0  0
   -6.8483   -5.8064    0.0000 C   0  0  0  0  0  0
   -6.2382   -7.1768    0.0000 C   0  0  0  0  0  0
   -5.9666   -4.5929    0.0000 N   0  0  0  0  0  0
   -6.5767   -3.2226    0.0000 C   0  0  0  0  0  0
   -5.6950   -2.0091    0.0000 C   0  0  0  0  0  0
   -4.2032   -2.1659    0.0000 C   0  0  0  0  0  0
   -3.5931   -3.5362    0.0000 C   0  0  0  0  0  0
   -4.4748   -4.7497    0.0000 C   0  0  1  0  0  0
   -3.8647   -6.1200    0.0000 C   0  0  0  0  0  0
   -4.7464   -7.3335    0.0000 O   0  0  0  0  0  0
   -2.3729   -6.2768    0.0000 N   0  0  0  0  0  0
   -1.7628   -7.6471    0.0000 C   0  0  1  0  0  0
   -2.6445   -8.8607    0.0000 C   0  0  0  0  0  0
   -4.1363   -8.7039    0.0000 C   0  0  0  0  0  0
   -5.0179   -9.9174    0.0000 C   0  0  0  0  0  0
   -4.4078  -11.2877    0.0000 C   0  0  0  0  0  0
   -2.9161  -11.4445    0.0000 C   0  0  0  0  0  0
   -2.0344  -10.2310    0.0000 C   0  0  0  0  0  0
   -0.2710   -7.8039    0.0000 C   0  0  0  0  0  0
    0.3391   -9.1742    0.0000 O   0  0  0  0  0  0
    0.6107   -6.5904    0.0000 N   0  0  0  0  0  0
    2.1024   -6.7472    0.0000 C   0  0  2  0  0  0
    2.9841   -5.5337    0.0000 C   0  0  0  0  0  0
    4.4759   -5.6905    0.0000 O   0  0  0  0  0  0
    2.3740   -4.1633    0.0000 N   0  0  0  0  0  0
    0.9068   -3.8515    0.0000 C   0  0  0  0  0  0
    0.7500   -2.3597    0.0000 C   0  0  1  0  0  0
    2.1203   -1.7496    0.0000 C   0  0  0  0  0  0
    3.1240   -2.8643    0.0000 C   0  0  1  0  0  0
    4.6158   -2.7075    0.0000 C   0  0  0  0  0  0
    5.2259   -1.3372    0.0000 O   0  0  0  0  0  0
    5.4975   -3.9210    0.0000 N   0  0  0  0  0  0
    6.9893   -3.7643    0.0000 C   0  0  1  0  0  0
    8.3374   -3.1067    0.0000 C   0  0  0  0  0  0
    7.0939   -2.2679    0.0000 C   0  0  1  0  0  0
    6.4363   -0.9197    0.0000 C   0  0  0  0  0  0
    7.2751    0.3238    0.0000 C   0  0  0  0  0  0
    7.4027   -5.2061    0.0000 C   0  0  0  0  0  0
    6.3607   -6.2852    0.0000 O   0  0  0  0  0  0
    8.8582   -5.5690    0.0000 N   0  0  0  0  0  0
    9.2716   -7.0109    0.0000 S   0  0  0  0  0  0
   10.7135   -6.5975    0.0000 O   0  0  0  0  0  0
    7.8297   -7.4244    0.0000 O   0  0  0  0  0  0
    9.6851   -8.4528    0.0000 N   0  0  0  0  0  0
    8.7616   -9.6348    0.0000 C   0  0  0  0  0  0
    9.6004  -10.8784    0.0000 C   0  0  0  0  0  0
   11.0423  -10.4649    0.0000 C   0  0  1  0  0  0
   12.2243  -11.3884    0.0000 F   0  0  0  0  0  0
   11.0946   -8.9658    0.0000 C   0  0  0  0  0  0
   -0.7500   -2.3597    0.0000 C   0  0  0  0  0  0
   -1.0105   -3.8369    0.0000 C   0  0  0  0  0  0
   -2.1595   -1.8467    0.0000 C   0  0  0  0  0  0
   -0.0000   -1.0607    0.0000 C   0  0  0  0  0  0
    1.0607    0.0000    0.0000 C   0  0  0  0  0  0
    0.0000    1.0607    0.0000 C   0  0  0  0  0  0
   -1.0607    0.0000    0.0000 C   0  0  0  0  0  0
    2.7125   -8.1175    0.0000 C   0  0  0  0  0  0
    1.3422   -8.7276    0.0000 C   0  0  0  0  0  0
    4.0829   -7.5074    0.0000 C   0  0  0  0  0  0
    3.3227   -9.4878    0.0000 C   0  0  0  0  0  0
  1  2  1  0  0  0
  2  3  1  0  0  0
  2  4  1  0  0  0
  4  5  1  0  0  0
  4  9  1  0  0  0
  5  6  1  0  0  0
  6  7  1  0  0  0
  7  8  1  0  0  0
  8  9  1  0  0  0
  9 10  1  6  0  0
 10 11  2  0  0  0
 10 12  1  0  0  0
 12 13  1  0  0  0
 13 14  1  0  0  0
 13 20  1  6  0  0
 14 15  1  0  0  0
 14 19  1  0  0  0
 15 16  1  0  0  0
 16 17  1  0  0  0
 17 18  1  0  0  0
 18 19  1  0  0  0
 20 21  2  0  0  0
 20 22  1  0  0  0
 22 23  1  0  0  0
 23 24  1  0  0  0
 23 58  1  1  0  0
 24 25  2  0  0  0
 24 26  1  0  0  0
 26 27  1  0  0  0
 26 30  1  0  0  0
 27 28  1  0  0  0
 28 29  1  0  0  0
 28 51  1  0  0  0
 28 54  1  1  0  0
 29 30  1  0  0  0
 30 31  1  6  0  0
 31 32  2  0  0  0
 31 33  1  0  0  0
 33 34  1  0  0  0
 34 35  1  0  0  0
 34 39  1  0  0  0
 34 36  1  1  0  0
 35 36  1  0  0  0
 36 37  1  6  0  0
 37 38  2  0  0  0
 39 40  2  0  0  0
 39 41  1  0  0  0
 41 42  1  0  0  0
 42 43  2  0  0  0
 42 44  2  0  0  0
 42 45  1  0  0  0
 45 46  1  0  0  0
 45 50  1  0  0  0
 46 47  1  0  0  0
 47 48  1  0  0  0
 48 49  1  0  0  0
 48 50  1  1  0  0
 51 52  1  0  0  0
 51 53  1  0  0  0
 51 54  1  0  0  0
 54 55  1  0  0  0
 54 57  1  0  0  0
 55 56  1  0  0  0
 56 57  1  0  0  0
 58 59  1  0  0  0
 58 60  1  0  0  0
 58 61  1  0  0  0
M  END
> <s_m_entry_id>
6763

> <s_m_entry_name>
NS3-4A.304

> <CHEMBLID>
CHEMBL3645619

> <s_m_Source_Path>
/home/liwei/Desktop/Machine/HCV/Active

> <s_m_Source_File>
NS3-4A.sdf

> <i_m_Source_File_Index>
304

$$$$
CHEMBL3645620
                    3D
 Structure written by MMmdl.
 61 67  0  0  1  0            999 V2000
   -8.3400   -5.6496    0.0000 C   0  0  0  0  0  0
   -6.8483   -5.8064    0.0000 C   0  0  0  0  0  0
   -6.2382   -7.1768    0.0000 C   0  0  0  0  0  0
   -5.9666   -4.5929    0.0000 N   0  0  0  0  0  0
   -6.5767   -3.2226    0.0000 C   0  0  0  0  0  0
   -5.6950   -2.0091    0.0000 C   0  0  0  0  0  0
   -4.2032   -2.1659    0.0000 C   0  0  0  0  0  0
   -3.5931   -3.5362    0.0000 C   0  0  0  0  0  0
   -4.4748   -4.7497    0.0000 C   0  0  1  0  0  0
   -3.8647   -6.1200    0.0000 C   0  0  0  0  0  0
   -4.7464   -7.3335    0.0000 O   0  0  0  0  0  0
   -2.3729   -6.2768    0.0000 N   0  0  0  0  0  0
   -1.7628   -7.6471    0.0000 C   0  0  1  0  0  0
   -2.6445   -8.8607    0.0000 C   0  0  0  0  0  0
   -4.1363   -8.7039    0.0000 C   0  0  0  0  0  0
   -5.0179   -9.9174    0.0000 C   0  0  0  0  0  0
   -4.4078  -11.2877    0.0000 C   0  0  0  0  0  0
   -2.9161  -11.4445    0.0000 C   0  0  0  0  0  0
   -2.0344  -10.2310    0.0000 C   0  0  0  0  0  0
   -0.2710   -7.8039    0.0000 C   0  0  0  0  0  0
    0.3391   -9.1742    0.0000 O   0  0  0  0  0  0
    0.6107   -6.5904    0.0000 N   0  0  0  0  0  0
    2.1024   -6.7472    0.0000 C   0  0  2  0  0  0
    2.9841   -5.5337    0.0000 C   0  0  0  0  0  0
    4.4759   -5.6905    0.0000 O   0  0  0  0  0  0
    2.3740   -4.1633    0.0000 N   0  0  0  0  0  0
    0.9068   -3.8515    0.0000 C   0  0  0  0  0  0
    0.7500   -2.3597    0.0000 C   0  0  1  0  0  0
    2.1203   -1.7496    0.0000 C   0  0  0  0  0  0
    3.1240   -2.8643    0.0000 C   0  0  1  0  0  0
    4.6158   -2.7075    0.0000 C   0  0  0  0  0  0
    5.2259   -1.3372    0.0000 O   0  0  0  0  0  0
    5.4975   -3.9210    0.0000 N   0  0  0  0  0  0
    6.9893   -3.7643    0.0000 C   0  0  1  0  0  0
    8.3374   -3.1067    0.0000 C   0  0  0  0  0  0
    7.0939   -2.2679    0.0000 C   0  0  1  0  0  0
    6.4363   -0.9197    0.0000 C   0  0  0  0  0  0
    7.2751    0.3238    0.0000 C   0  0  0  0  0  0
    7.4027   -5.2061    0.0000 C   0  0  0  0  0  0
    6.3607   -6.2852    0.0000 O   0  0  0  0  0  0
    8.8582   -5.5690    0.0000 N   0  0  0  0  0  0
    9.2716   -7.0109    0.0000 S   0  0  0  0  0  0
   10.7135   -6.5975    0.0000 O   0  0  0  0  0  0
    7.8297   -7.4244    0.0000 O   0  0  0  0  0  0
    9.6851   -8.4528    0.0000 N   0  0  0  0  0  0
    8.7616   -9.6348    0.0000 C   0  0  0  0  0  0
    9.6004  -10.8784    0.0000 C   0  0  0  0  0  0
   11.0423  -10.4649    0.0000 C   0  0  2  0  0  0
   12.2243  -11.3884    0.0000 F   0  0  0  0  0  0
   11.0946   -8.9658    0.0000 C   0  0  0  0  0  0
   -0.7500   -2.3597    0.0000 C   0  0  0  0  0  0
   -1.0105   -3.8369    0.0000 C   0  0  0  0  0  0
   -2.1595   -1.8467    0.0000 C   0  0  0  0  0  0
   -0.0000   -1.0607    0.0000 C   0  0  0  0  0  0
    1.0607    0.0000    0.0000 C   0  0  0  0  0  0
    0.0000    1.0607    0.0000 C   0  0  0  0  0  0
   -1.0607    0.0000    0.0000 C   0  0  0  0  0  0
    2.7125   -8.1175    0.0000 C   0  0  0  0  0  0
    1.3422   -8.7276    0.0000 C   0  0  0  0  0  0
    4.0829   -7.5074    0.0000 C   0  0  0  0  0  0
    3.3227   -9.4878    0.0000 C   0  0  0  0  0  0
  1  2  1  0  0  0
  2  3  1  0  0  0
  2  4  1  0  0  0
  4  5  1  0  0  0
  4  9  1  0  0  0
  5  6  1  0  0  0
  6  7  1  0  0  0
  7  8  1  0  0  0
  8  9  1  0  0  0
  9 10  1  6  0  0
 10 11  2  0  0  0
 10 12  1  0  0  0
 12 13  1  0  0  0
 13 14  1  0  0  0
 13 20  1  6  0  0
 14 15  1  0  0  0
 14 19  1  0  0  0
 15 16  1  0  0  0
 16 17  1  0  0  0
 17 18  1  0  0  0
 18 19  1  0  0  0
 20 21  2  0  0  0
 20 22  1  0  0  0
 22 23  1  0  0  0
 23 24  1  0  0  0
 23 58  1  1  0  0
 24 25  2  0  0  0
 24 26  1  0  0  0
 26 27  1  0  0  0
 26 30  1  0  0  0
 27 28  1  0  0  0
 28 29  1  0  0  0
 28 51  1  0  0  0
 28 54  1  1  0  0
 29 30  1  0  0  0
 30 31  1  6  0  0
 31 32  2  0  0  0
 31 33  1  0  0  0
 33 34  1  0  0  0
 34 35  1  0  0  0
 34 39  1  0  0  0
 34 36  1  1  0  0
 35 36  1  0  0  0
 36 37  1  6  0  0
 37 38  2  0  0  0
 39 40  2  0  0  0
 39 41  1  0  0  0
 41 42  1  0  0  0
 42 43  2  0  0  0
 42 44  2  0  0  0
 42 45  1  0  0  0
 45 46  1  0  0  0
 45 50  1  0  0  0
 46 47  1  0  0  0
 47 48  1  0  0  0
 48 49  1  0  0  0
 48 50  1  1  0  0
 51 52  1  0  0  0
 51 53  1  0  0  0
 51 54  1  0  0  0
 54 55  1  0  0  0
 54 57  1  0  0  0
 55 56  1  0  0  0
 56 57  1  0  0  0
 58 59  1  0  0  0
 58 60  1  0  0  0
 58 61  1  0  0  0
M  END
> <s_m_entry_id>
6764

> <s_m_entry_name>
NS3-4A.305

> <CHEMBLID>
CHEMBL3645620

> <s_m_Source_Path>
/home/liwei/Desktop/Machine/HCV/Active

> <s_m_Source_File>
NS3-4A.sdf

> <i_m_Source_File_Index>
305

$$$$
CHEMBL3645621
                    3D
 Structure written by MMmdl.
 60 66  0  0  1  0            999 V2000
   -8.3400   -5.6496    0.0000 C   0  0  0  0  0  0
   -6.8483   -5.8064    0.0000 C   0  0  0  0  0  0
   -6.2382   -7.1768    0.0000 C   0  0  0  0  0  0
   -5.9666   -4.5929    0.0000 N   0  0  0  0  0  0
   -6.5767   -3.2226    0.0000 C   0  0  0  0  0  0
   -5.6950   -2.0091    0.0000 C   0  0  0  0  0  0
   -4.2032   -2.1659    0.0000 C   0  0  0  0  0  0
   -3.5931   -3.5362    0.0000 C   0  0  0  0  0  0
   -4.4748   -4.7497    0.0000 C   0  0  2  0  0  0
   -3.8647   -6.1200    0.0000 C   0  0  0  0  0  0
   -4.7464   -7.3335    0.0000 O   0  0  0  0  0  0
   -2.3729   -6.2768    0.0000 N   0  0  0  0  0  0
   -1.7628   -7.6471    0.0000 C   0  0  1  0  0  0
   -2.6445   -8.8607    0.0000 C   0  0  0  0  0  0
   -4.1363   -8.7039    0.0000 C   0  0  0  0  0  0
   -5.0179   -9.9174    0.0000 C   0  0  0  0  0  0
   -4.4078  -11.2877    0.0000 C   0  0  0  0  0  0
   -2.9161  -11.4445    0.0000 C   0  0  0  0  0  0
   -2.0344  -10.2310    0.0000 C   0  0  0  0  0  0
   -0.2710   -7.8039    0.0000 C   0  0  0  0  0  0
    0.3391   -9.1742    0.0000 O   0  0  0  0  0  0
    0.6107   -6.5904    0.0000 N   0  0  0  0  0  0
    2.1024   -6.7472    0.0000 C   0  0  2  0  0  0
    2.9841   -5.5337    0.0000 C   0  0  0  0  0  0
    4.4759   -5.6905    0.0000 O   0  0  0  0  0  0
    2.3740   -4.1633    0.0000 N   0  0  0  0  0  0
    0.9068   -3.8515    0.0000 C   0  0  0  0  0  0
    0.7500   -2.3597    0.0000 C   0  0  1  0  0  0
    2.1203   -1.7496    0.0000 C   0  0  0  0  0  0
    3.1240   -2.8643    0.0000 C   0  0  1  0  0  0
    4.6158   -2.7075    0.0000 C   0  0  0  0  0  0
    5.2259   -1.3372    0.0000 O   0  0  0  0  0  0
    5.4975   -3.9210    0.0000 N   0  0  0  0  0  0
    6.9893   -3.7643    0.0000 C   0  0  1  0  0  0
    8.3374   -3.1067    0.0000 C   0  0  0  0  0  0
    7.0939   -2.2679    0.0000 C   0  0  1  0  0  0
    6.4363   -0.9197    0.0000 C   0  0  0  0  0  0
    7.2751    0.3238    0.0000 C   0  0  0  0  0  0
    7.4027   -5.2061    0.0000 C   0  0  0  0  0  0
    6.3607   -6.2852    0.0000 O   0  0  0  0  0  0
    8.8582   -5.5690    0.0000 N   0  0  0  0  0  0
    9.2716   -7.0109    0.0000 S   0  0  0  0  0  0
   10.7135   -6.5975    0.0000 O   0  0  0  0  0  0
    7.8297   -7.4244    0.0000 O   0  0  0  0  0  0
    9.6851   -8.4528    0.0000 N   0  0  0  0  0  0
    8.7616   -9.6348    0.0000 C   0  0  0  0  0  0
    9.6004  -10.8784    0.0000 C   0  0  0  0  0  0
   11.0423  -10.4649    0.0000 C   0  0  0  0  0  0
   11.0946   -8.9658    0.0000 C   0  0  0  0  0  0
   -0.7500   -2.3597    0.0000 C   0  0  0  0  0  0
   -1.0105   -3.8369    0.0000 C   0  0  0  0  0  0
   -2.1595   -1.8467    0.0000 C   0  0  0  0  0  0
   -0.0000   -1.0607    0.0000 C   0  0  0  0  0  0
    1.0607    0.0000    0.0000 C   0  0  0  0  0  0
    0.0000    1.0607    0.0000 C   0  0  0  0  0  0
   -1.0607    0.0000    0.0000 C   0  0  0  0  0  0
    2.7125   -8.1175    0.0000 C   0  0  0  0  0  0
    1.3422   -8.7276    0.0000 C   0  0  0  0  0  0
    4.0829   -7.5074    0.0000 C   0  0  0  0  0  0
    3.3227   -9.4878    0.0000 C   0  0  0  0  0  0
  1  2  1  0  0  0
  2  3  1  0  0  0
  2  4  1  0  0  0
  4  5  1  0  0  0
  4  9  1  0  0  0
  5  6  1  0  0  0
  6  7  1  0  0  0
  7  8  1  0  0  0
  8  9  1  0  0  0
  9 10  1  6  0  0
 10 11  2  0  0  0
 10 12  1  0  0  0
 12 13  1  0  0  0
 13 14  1  0  0  0
 13 20  1  6  0  0
 14 15  1  0  0  0
 14 19  1  0  0  0
 15 16  1  0  0  0
 16 17  1  0  0  0
 17 18  1  0  0  0
 18 19  1  0  0  0
 20 21  2  0  0  0
 20 22  1  0  0  0
 22 23  1  0  0  0
 23 24  1  0  0  0
 23 57  1  1  0  0
 24 25  2  0  0  0
 24 26  1  0  0  0
 26 27  1  0  0  0
 26 30  1  0  0  0
 27 28  1  0  0  0
 28 29  1  0  0  0
 28 50  1  0  0  0
 28 53  1  1  0  0
 29 30  1  0  0  0
 30 31  1  6  0  0
 31 32  2  0  0  0
 31 33  1  0  0  0
 33 34  1  0  0  0
 34 35  1  0  0  0
 34 39  1  0  0  0
 34 36  1  1  0  0
 35 36  1  0  0  0
 36 37  1  6  0  0
 37 38  2  0  0  0
 39 40  2  0  0  0
 39 41  1  0  0  0
 41 42  1  0  0  0
 42 43  2  0  0  0
 42 44  2  0  0  0
 42 45  1  0  0  0
 45 46  1  0  0  0
 45 49  1  0  0  0
 46 47  1  0  0  0
 47 48  1  0  0  0
 48 49  1  0  0  0
 50 51  1  0  0  0
 50 52  1  0  0  0
 50 53  1  0  0  0
 53 54  1  0  0  0
 53 56  1  0  0  0
 54 55  1  0  0  0
 55 56  1  0  0  0
 57 58  1  0  0  0
 57 59  1  0  0  0
 57 60  1  0  0  0
M  END
> <s_m_entry_id>
6765

> <s_m_entry_name>
NS3-4A.306

> <CHEMBLID>
CHEMBL3645621

> <s_m_Source_Path>
/home/liwei/Desktop/Machine/HCV/Active

> <s_m_Source_File>
NS3-4A.sdf

> <i_m_Source_File_Index>
306

$$$$
CHEMBL3645622
                    3D
 Structure written by MMmdl.
 58 64  0  0  1  0            999 V2000
   -6.8483   -5.8064    0.0000 C   0  0  0  0  0  0
   -5.9666   -4.5929    0.0000 N   0  0  0  0  0  0
   -6.5767   -3.2226    0.0000 C   0  0  0  0  0  0
   -5.6950   -2.0091    0.0000 C   0  0  0  0  0  0
   -4.2032   -2.1659    0.0000 C   0  0  0  0  0  0
   -3.5931   -3.5362    0.0000 C   0  0  0  0  0  0
   -4.4748   -4.7497    0.0000 C   0  0  2  0  0  0
   -3.8647   -6.1200    0.0000 C   0  0  0  0  0  0
   -4.7464   -7.3335    0.0000 O   0  0  0  0  0  0
   -2.3729   -6.2768    0.0000 N   0  0  0  0  0  0
   -1.7628   -7.6471    0.0000 C   0  0  1  0  0  0
   -2.6445   -8.8607    0.0000 C   0  0  0  0  0  0
   -4.1363   -8.7039    0.0000 C   0  0  0  0  0  0
   -5.0179   -9.9174    0.0000 C   0  0  0  0  0  0
   -4.4078  -11.2877    0.0000 C   0  0  0  0  0  0
   -2.9161  -11.4445    0.0000 C   0  0  0  0  0  0
   -2.0344  -10.2310    0.0000 C   0  0  0  0  0  0
   -0.2710   -7.8039    0.0000 C   0  0  0  0  0  0
    0.3391   -9.1742    0.0000 O   0  0  0  0  0  0
    0.6107   -6.5904    0.0000 N   0  0  0  0  0  0
    2.1024   -6.7472    0.0000 C   0  0  2  0  0  0
    2.9841   -5.5337    0.0000 C   0  0  0  0  0  0
    4.4759   -5.6905    0.0000 O   0  0  0  0  0  0
    2.3740   -4.1633    0.0000 N   0  0  0  0  0  0
    0.9068   -3.8515    0.0000 C   0  0  0  0  0  0
    0.7500   -2.3597    0.0000 C   0  0  1  0  0  0
    2.1203   -1.7496    0.0000 C   0  0  0  0  0  0
    3.1240   -2.8643    0.0000 C   0  0  1  0  0  0
    4.6158   -2.7075    0.0000 C   0  0  0  0  0  0
    5.2259   -1.3372    0.0000 O   0  0  0  0  0  0
    5.4975   -3.9210    0.0000 N   0  0  0  0  0  0
    6.9893   -3.7643    0.0000 C   0  0  1  0  0  0
    8.3374   -3.1067    0.0000 C   0  0  0  0  0  0
    7.0939   -2.2679    0.0000 C   0  0  1  0  0  0
    6.4363   -0.9197    0.0000 C   0  0  0  0  0  0
    7.2751    0.3238    0.0000 C   0  0  0  0  0  0
    7.4027   -5.2061    0.0000 C   0  0  0  0  0  0
    6.3607   -6.2852    0.0000 O   0  0  0  0  0  0
    8.8582   -5.5690    0.0000 N   0  0  0  0  0  0
    9.2716   -7.0109    0.0000 S   0  0  0  0  0  0
   10.7135   -6.5975    0.0000 O   0  0  0  0  0  0
    7.8297   -7.4244    0.0000 O   0  0  0  0  0  0
    9.6851   -8.4528    0.0000 N   0  0  0  0  0  0
    8.7616   -9.6348    0.0000 C   0  0  0  0  0  0
    9.6004  -10.8784    0.0000 C   0  0  0  0  0  0
   11.0423  -10.4649    0.0000 C   0  0  0  0  0  0
   11.0946   -8.9658    0.0000 C   0  0  0  0  0  0
   -0.7500   -2.3597    0.0000 C   0  0  0  0  0  0
   -1.0105   -3.8369    0.0000 C   0  0  0  0  0  0
   -2.1595   -1.8467    0.0000 C   0  0  0  0  0  0
   -0.0000   -1.0607    0.0000 C   0  0  0  0  0  0
    1.0607    0.0000    0.0000 C   0  0  0  0  0  0
    0.0000    1.0607    0.0000 C   0  0  0  0  0  0
   -1.0607    0.0000    0.0000 C   0  0  0  0  0  0
    2.7125   -8.1175    0.0000 C   0  0  0  0  0  0
    1.3422   -8.7276    0.0000 C   0  0  0  0  0  0
    4.0829   -7.5074    0.0000 C   0  0  0  0  0  0
    3.3227   -9.4878    0.0000 C   0  0  0  0  0  0
  1  2  1  0  0  0
  2  3  1  0  0  0
  2  7  1  0  0  0
  3  4  1  0  0  0
  4  5  1  0  0  0
  5  6  1  0  0  0
  6  7  1  0  0  0
  7  8  1  6  0  0
  8  9  2  0  0  0
  8 10  1  0  0  0
 10 11  1  0  0  0
 11 12  1  0  0  0
 11 18  1  6  0  0
 12 13  1  0  0  0
 12 17  1  0  0  0
 13 14  1  0  0  0
 14 15  1  0  0  0
 15 16  1  0  0  0
 16 17  1  0  0  0
 18 19  2  0  0  0
 18 20  1  0  0  0
 20 21  1  0  0  0
 21 22  1  0  0  0
 21 55  1  1  0  0
 22 23  2  0  0  0
 22 24  1  0  0  0
 24 25  1  0  0  0
 24 28  1  0  0  0
 25 26  1  0  0  0
 26 27  1  0  0  0
 26 48  1  0  0  0
 26 51  1  1  0  0
 27 28  1  0  0  0
 28 29  1  6  0  0
 29 30  2  0  0  0
 29 31  1  0  0  0
 31 32  1  0  0  0
 32 33  1  0  0  0
 32 37  1  0  0  0
 32 34  1  1  0  0
 33 34  1  0  0  0
 34 35  1  6  0  0
 35 36  2  0  0  0
 37 38  2  0  0  0
 37 39  1  0  0  0
 39 40  1  0  0  0
 40 41  2  0  0  0
 40 42  2  0  0  0
 40 43  1  0  0  0
 43 44  1  0  0  0
 43 47  1  0  0  0
 44 45  1  0  0  0
 45 46  1  0  0  0
 46 47  1  0  0  0
 48 49  1  0  0  0
 48 50  1  0  0  0
 48 51  1  0  0  0
 51 52  1  0  0  0
 51 54  1  0  0  0
 52 53  1  0  0  0
 53 54  1  0  0  0
 55 56  1  0  0  0
 55 57  1  0  0  0
 55 58  1  0  0  0
M  END
> <s_m_entry_id>
6766

> <s_m_entry_name>
NS3-4A.307

> <CHEMBLID>
CHEMBL3645622

> <s_m_Source_Path>
/home/liwei/Desktop/Machine/HCV/Active

> <s_m_Source_File>
NS3-4A.sdf

> <i_m_Source_File_Index>
307

$$$$
CHEMBL3645623
                    3D
 Structure written by MMmdl.
 61 67  0  0  1  0            999 V2000
   -8.3400   -5.6496    0.0000 C   0  0  0  0  0  0
   -6.8483   -5.8064    0.0000 C   0  0  0  0  0  0
   -6.2382   -7.1768    0.0000 C   0  0  0  0  0  0
   -5.9666   -4.5929    0.0000 N   0  0  0  0  0  0
   -6.5767   -3.2226    0.0000 C   0  0  0  0  0  0
   -5.6950   -2.0091    0.0000 C   0  0  0  0  0  0
   -4.2032   -2.1659    0.0000 C   0  0  0  0  0  0
   -3.5931   -3.5362    0.0000 C   0  0  0  0  0  0
   -4.4748   -4.7497    0.0000 C   0  0  1  0  0  0
   -3.8647   -6.1200    0.0000 C   0  0  0  0  0  0
   -4.7464   -7.3335    0.0000 O   0  0  0  0  0  0
   -2.3729   -6.2768    0.0000 N   0  0  0  0  0  0
   -1.7628   -7.6471    0.0000 C   0  0  1  0  0  0
   -2.6445   -8.8607    0.0000 C   0  0  0  0  0  0
   -4.1363   -8.7039    0.0000 C   0  0  0  0  0  0
   -5.0179   -9.9174    0.0000 C   0  0  0  0  0  0
   -4.4078  -11.2877    0.0000 C   0  0  0  0  0  0
   -2.9161  -11.4445    0.0000 C   0  0  0  0  0  0
   -2.0344  -10.2310    0.0000 C   0  0  0  0  0  0
   -0.2710   -7.8039    0.0000 C   0  0  0  0  0  0
    0.3391   -9.1742    0.0000 O   0  0  0  0  0  0
    0.6107   -6.5904    0.0000 N   0  0  0  0  0  0
    2.1024   -6.7472    0.0000 C   0  0  2  0  0  0
    2.9841   -5.5337    0.0000 C   0  0  0  0  0  0
    4.4759   -5.6905    0.0000 O   0  0  0  0  0  0
    2.3740   -4.1633    0.0000 N   0  0  0  0  0  0
    0.9068   -3.8515    0.0000 C   0  0  0  0  0  0
    0.7500   -2.3597    0.0000 C   0  0  1  0  0  0
    2.1203   -1.7496    0.0000 C   0  0  0  0  0  0
    3.1240   -2.8643    0.0000 C   0  0  1  0  0  0
    4.6158   -2.7075    0.0000 C   0  0  0  0  0  0
    5.2259   -1.3372    0.0000 O   0  0  0  0  0  0
    5.4975   -3.9210    0.0000 N   0  0  0  0  0  0
    6.9893   -3.7643    0.0000 C   0  0  1  0  0  0
    8.3374   -3.1067    0.0000 C   0  0  0  0  0  0
    7.0939   -2.2679    0.0000 C   0  0  1  0  0  0
    6.4363   -0.9197    0.0000 C   0  0  0  0  0  0
    7.2751    0.3238    0.0000 C   0  0  0  0  0  0
    7.4027   -5.2061    0.0000 C   0  0  0  0  0  0
    6.3607   -6.2852    0.0000 O   0  0  0  0  0  0
    8.8582   -5.5690    0.0000 N   0  0  0  0  0  0
    9.2716   -7.0109    0.0000 S   0  0  0  0  0  0
   10.7135   -6.5975    0.0000 O   0  0  0  0  0  0
    7.8297   -7.4244    0.0000 O   0  0  0  0  0  0
    9.6851   -8.4528    0.0000 N   0  0  0  0  0  0
    8.6431   -9.5318    0.0000 C   0  0  0  0  0  0
   11.1405   -8.8157    0.0000 C   0  0  0  0  0  0
   12.4263   -8.0431    0.0000 C   0  0  0  0  0  0
   13.1988   -9.3289    0.0000 C   0  0  0  0  0  0
   11.9131  -10.1014    0.0000 C   0  0  0  0  0  0
   -0.7500   -2.3597    0.0000 C   0  0  0  0  0  0
   -1.0105   -3.8369    0.0000 C   0  0  0  0  0  0
   -2.1595   -1.8467    0.0000 C   0  0  0  0  0  0
   -0.0000   -1.0607    0.0000 C   0  0  0  0  0  0
    1.0607    0.0000    0.0000 C   0  0  0  0  0  0
    0.0000    1.0607    0.0000 C   0  0  0  0  0  0
   -1.0607    0.0000    0.0000 C   0  0  0  0  0  0
    2.7125   -8.1175    0.0000 C   0  0  0  0  0  0
    1.3422   -8.7276    0.0000 C   0  0  0  0  0  0
    4.0829   -7.5074    0.0000 C   0  0  0  0  0  0
    3.3227   -9.4878    0.0000 C   0  0  0  0  0  0
  1  2  1  0  0  0
  2  3  1  0  0  0
  2  4  1  0  0  0
  4  5  1  0  0  0
  4  9  1  0  0  0
  5  6  1  0  0  0
  6  7  1  0  0  0
  7  8  1  0  0  0
  8  9  1  0  0  0
  9 10  1  6  0  0
 10 11  2  0  0  0
 10 12  1  0  0  0
 12 13  1  0  0  0
 13 14  1  0  0  0
 13 20  1  6  0  0
 14 15  1  0  0  0
 14 19  1  0  0  0
 15 16  1  0  0  0
 16 17  1  0  0  0
 17 18  1  0  0  0
 18 19  1  0  0  0
 20 21  2  0  0  0
 20 22  1  0  0  0
 22 23  1  0  0  0
 23 24  1  0  0  0
 23 58  1  1  0  0
 24 25  2  0  0  0
 24 26  1  0  0  0
 26 27  1  0  0  0
 26 30  1  0  0  0
 27 28  1  0  0  0
 28 29  1  0  0  0
 28 51  1  0  0  0
 28 54  1  1  0  0
 29 30  1  0  0  0
 30 31  1  6  0  0
 31 32  2  0  0  0
 31 33  1  0  0  0
 33 34  1  0  0  0
 34 35  1  0  0  0
 34 39  1  0  0  0
 34 36  1  1  0  0
 35 36  1  0  0  0
 36 37  1  6  0  0
 37 38  2  0  0  0
 39 40  2  0  0  0
 39 41  1  0  0  0
 41 42  1  0  0  0
 42 43  2  0  0  0
 42 44  2  0  0  0
 42 45  1  0  0  0
 45 46  1  0  0  0
 45 47  1  0  0  0
 47 48  1  0  0  0
 47 50  1  0  0  0
 48 49  1  0  0  0
 49 50  1  0  0  0
 51 52  1  0  0  0
 51 53  1  0  0  0
 51 54  1  0  0  0
 54 55  1  0  0  0
 54 57  1  0  0  0
 55 56  1  0  0  0
 56 57  1  0  0  0
 58 59  1  0  0  0
 58 60  1  0  0  0
 58 61  1  0  0  0
M  END
> <s_m_entry_id>
6767

> <s_m_entry_name>
NS3-4A.308

> <CHEMBLID>
CHEMBL3645623

> <s_m_Source_Path>
/home/liwei/Desktop/Machine/HCV/Active

> <s_m_Source_File>
NS3-4A.sdf

> <i_m_Source_File_Index>
308

$$$$
CHEMBL3645624
                    3D
 Structure written by MMmdl.
 61 67  0  0  1  0            999 V2000
   -8.3400   -5.6496    0.0000 C   0  0  0  0  0  0
   -6.8483   -5.8064    0.0000 C   0  0  0  0  0  0
   -6.2382   -7.1768    0.0000 C   0  0  0  0  0  0
   -5.9666   -4.5929    0.0000 N   0  0  0  0  0  0
   -6.5767   -3.2226    0.0000 C   0  0  0  0  0  0
   -5.6950   -2.0091    0.0000 C   0  0  0  0  0  0
   -4.2032   -2.1659    0.0000 C   0  0  0  0  0  0
   -3.5931   -3.5362    0.0000 C   0  0  0  0  0  0
   -4.4748   -4.7497    0.0000 C   0  0  1  0  0  0
   -3.8647   -6.1200    0.0000 C   0  0  0  0  0  0
   -4.7464   -7.3335    0.0000 O   0  0  0  0  0  0
   -2.3729   -6.2768    0.0000 N   0  0  0  0  0  0
   -1.7628   -7.6471    0.0000 C   0  0  1  0  0  0
   -2.6445   -8.8607    0.0000 C   0  0  0  0  0  0
   -4.1363   -8.7039    0.0000 C   0  0  0  0  0  0
   -5.0179   -9.9174    0.0000 C   0  0  0  0  0  0
   -4.4078  -11.2877    0.0000 C   0  0  0  0  0  0
   -2.9161  -11.4445    0.0000 C   0  0  0  0  0  0
   -2.0344  -10.2310    0.0000 C   0  0  0  0  0  0
   -0.2710   -7.8039    0.0000 C   0  0  0  0  0  0
    0.3391   -9.1742    0.0000 O   0  0  0  0  0  0
    0.6107   -6.5904    0.0000 N   0  0  0  0  0  0
    2.1024   -6.7472    0.0000 C   0  0  2  0  0  0
    2.9841   -5.5337    0.0000 C   0  0  0  0  0  0
    4.4759   -5.6905    0.0000 O   0  0  0  0  0  0
    2.3740   -4.1633    0.0000 N   0  0  0  0  0  0
    0.9068   -3.8515    0.0000 C   0  0  0  0  0  0
    0.7500   -2.3597    0.0000 C   0  0  1  0  0  0
    2.1203   -1.7496    0.0000 C   0  0  0  0  0  0
    3.1240   -2.8643    0.0000 C   0  0  1  0  0  0
    4.6158   -2.7075    0.0000 C   0  0  0  0  0  0
    5.2259   -1.3372    0.0000 O   0  0  0  0  0  0
    5.4975   -3.9210    0.0000 N   0  0  0  0  0  0
    6.9893   -3.7643    0.0000 C   0  0  1  0  0  0
    8.3374   -3.1067    0.0000 C   0  0  0  0  0  0
    7.0939   -2.2679    0.0000 C   0  0  1  0  0  0
    6.4363   -0.9197    0.0000 C   0  0  0  0  0  0
    7.2751    0.3238    0.0000 C   0  0  0  0  0  0
    7.4027   -5.2061    0.0000 C   0  0  0  0  0  0
    6.3607   -6.2852    0.0000 O   0  0  0  0  0  0
    8.8582   -5.5690    0.0000 N   0  0  0  0  0  0
    9.2716   -7.0109    0.0000 S   0  0  0  0  0  0
   10.7135   -6.5975    0.0000 O   0  0  0  0  0  0
    7.8297   -7.4244    0.0000 O   0  0  0  0  0  0
    9.6851   -8.4528    0.0000 N   0  0  0  0  0  0
    8.6431   -9.5318    0.0000 C   0  0  0  0  0  0
   11.1405   -8.8157    0.0000 C   0  0  0  0  0  0
   11.5540  -10.2576    0.0000 C   0  0  0  0  0  0
   11.1911  -11.7130    0.0000 C   0  0  0  0  0  0
   12.6330  -11.2996    0.0000 C   0  0  0  0  0  0
   -0.7500   -2.3597    0.0000 C   0  0  0  0  0  0
   -1.0105   -3.8369    0.0000 C   0  0  0  0  0  0
   -2.1595   -1.8467    0.0000 C   0  0  0  0  0  0
   -0.0000   -1.0607    0.0000 C   0  0  0  0  0  0
    1.0607    0.0000    0.0000 C   0  0  0  0  0  0
    0.0000    1.0607    0.0000 C   0  0  0  0  0  0
   -1.0607    0.0000    0.0000 C   0  0  0  0  0  0
    2.7125   -8.1175    0.0000 C   0  0  0  0  0  0
    1.3422   -8.7276    0.0000 C   0  0  0  0  0  0
    4.0829   -7.5074    0.0000 C   0  0  0  0  0  0
    3.3227   -9.4878    0.0000 C   0  0  0  0  0  0
  1  2  1  0  0  0
  2  3  1  0  0  0
  2  4  1  0  0  0
  4  5  1  0  0  0
  4  9  1  0  0  0
  5  6  1  0  0  0
  6  7  1  0  0  0
  7  8  1  0  0  0
  8  9  1  0  0  0
  9 10  1  6  0  0
 10 11  2  0  0  0
 10 12  1  0  0  0
 12 13  1  0  0  0
 13 14  1  0  0  0
 13 20  1  6  0  0
 14 15  1  0  0  0
 14 19  1  0  0  0
 15 16  1  0  0  0
 16 17  1  0  0  0
 17 18  1  0  0  0
 18 19  1  0  0  0
 20 21  2  0  0  0
 20 22  1  0  0  0
 22 23  1  0  0  0
 23 24  1  0  0  0
 23 58  1  1  0  0
 24 25  2  0  0  0
 24 26  1  0  0  0
 26 27  1  0  0  0
 26 30  1  0  0  0
 27 28  1  0  0  0
 28 29  1  0  0  0
 28 51  1  0  0  0
 28 54  1  1  0  0
 29 30  1  0  0  0
 30 31  1  6  0  0
 31 32  2  0  0  0
 31 33  1  0  0  0
 33 34  1  0  0  0
 34 35  1  0  0  0
 34 39  1  0  0  0
 34 36  1  1  0  0
 35 36  1  0  0  0
 36 37  1  6  0  0
 37 38  2  0  0  0
 39 40  2  0  0  0
 39 41  1  0  0  0
 41 42  1  0  0  0
 42 43  2  0  0  0
 42 44  2  0  0  0
 42 45  1  0  0  0
 45 46  1  0  0  0
 45 47  1  0  0  0
 47 48  1  0  0  0
 48 49  1  0  0  0
 48 50  1  0  0  0
 49 50  1  0  0  0
 51 52  1  0  0  0
 51 53  1  0  0  0
 51 54  1  0  0  0
 54 55  1  0  0  0
 54 57  1  0  0  0
 55 56  1  0  0  0
 56 57  1  0  0  0
 58 59  1  0  0  0
 58 60  1  0  0  0
 58 61  1  0  0  0
M  END
> <s_m_entry_id>
6768

> <s_m_entry_name>
NS3-4A.309

> <CHEMBLID>
CHEMBL3645624

> <s_m_Source_Path>
/home/liwei/Desktop/Machine/HCV/Active

> <s_m_Source_File>
NS3-4A.sdf

> <i_m_Source_File_Index>
309

$$$$
CHEMBL3645625
                    3D
 Structure written by MMmdl.
 53 58  0  0  1  0            999 V2000
    1.3422   -8.7276    0.0000 C   0  0  0  0  0  0
    2.7125   -8.1175    0.0000 C   0  0  0  0  0  0
    4.0829   -7.5074    0.0000 C   0  0  0  0  0  0
    3.3227   -9.4878    0.0000 C   0  0  0  0  0  0
    2.1024   -6.7472    0.0000 C   0  0  2  0  0  0
    0.6107   -6.5904    0.0000 N   0  0  0  0  0  0
   -0.2710   -7.8039    0.0000 C   0  0  0  0  0  0
    0.3391   -9.1742    0.0000 O   0  0  0  0  0  0
   -1.7628   -7.6471    0.0000 C   0  0  3  0  0  0
   -2.3729   -6.2768    0.0000 N   0  0  0  0  0  0
   -3.8647   -6.1200    0.0000 C   0  0  0  0  0  0
   -4.4748   -4.7497    0.0000 C   0  0  0  0  0  0
   -5.9666   -4.5929    0.0000 C   0  0  0  0  0  0
   -6.8483   -5.8064    0.0000 C   0  0  0  0  0  0
   -6.2382   -7.1768    0.0000 N   0  0  0  0  0  0
   -4.7464   -7.3335    0.0000 C   0  0  0  0  0  0
   -2.6445   -8.8607    0.0000 C   0  0  0  0  0  0
   -3.8580   -7.9790    0.0000 C   0  0  0  0  0  0
   -1.4310   -9.7423    0.0000 C   0  0  0  0  0  0
   -3.5262  -10.0742    0.0000 C   0  0  0  0  0  0
    2.9841   -5.5337    0.0000 C   0  0  0  0  0  0
    4.4759   -5.6905    0.0000 O   0  0  0  0  0  0
    2.3740   -4.1633    0.0000 N   0  0  0  0  0  0
    0.9068   -3.8515    0.0000 C   0  0  0  0  0  0
    0.7500   -2.3597    0.0000 C   0  0  1  0  0  0
    2.1203   -1.7496    0.0000 C   0  0  0  0  0  0
    3.1240   -2.8643    0.0000 C   0  0  1  0  0  0
    4.6158   -2.7075    0.0000 C   0  0  0  0  0  0
    5.2259   -1.3372    0.0000 O   0  0  0  0  0  0
    5.4975   -3.9210    0.0000 N   0  0  0  0  0  0
    6.9893   -3.7643    0.0000 C   0  0  1  0  0  0
    8.3374   -3.1067    0.0000 C   0  0  0  0  0  0
    7.0939   -2.2679    0.0000 C   0  0  1  0  0  0
    6.4363   -0.9197    0.0000 C   0  0  0  0  0  0
    7.2751    0.3238    0.0000 C   0  0  0  0  0  0
    7.4027   -5.2061    0.0000 C   0  0  0  0  0  0
    6.3607   -6.2852    0.0000 O   0  0  0  0  0  0
    8.8582   -5.5690    0.0000 N   0  0  0  0  0  0
    9.2716   -7.0109    0.0000 S   0  0  0  0  0  0
   10.7135   -6.5975    0.0000 O   0  0  0  0  0  0
    7.8297   -7.4244    0.0000 O   0  0  0  0  0  0
    9.6851   -8.4528    0.0000 N   0  0  0  0  0  0
    8.7616   -9.6348    0.0000 C   0  0  0  0  0  0
    9.6004  -10.8784    0.0000 C   0  0  0  0  0  0
   11.0423  -10.4649    0.0000 C   0  0  0  0  0  0
   11.0946   -8.9658    0.0000 C   0  0  0  0  0  0
   -0.7500   -2.3597    0.0000 C   0  0  0  0  0  0
   -1.0105   -3.8369    0.0000 C   0  0  0  0  0  0
   -2.1595   -1.8467    0.0000 C   0  0  0  0  0  0
   -0.0000   -1.0607    0.0000 C   0  0  0  0  0  0
    1.0607    0.0000    0.0000 C   0  0  0  0  0  0
    0.0000    1.0607    0.0000 C   0  0  0  0  0  0
   -1.0607    0.0000    0.0000 C   0  0  0  0  0  0
  1  2  1  0  0  0
  2  3  1  0  0  0
  2  4  1  0  0  0
  2  5  1  0  0  0
  5  6  1  0  0  0
  5 21  1  1  0  0
  6  7  1  0  0  0
  7  8  2  0  0  0
  7  9  1  0  0  0
  9 10  1  0  0  0
  9 17  1  0  0  0
 10 11  1  0  0  0
 11 12  2  0  0  0
 11 16  1  0  0  0
 12 13  1  0  0  0
 13 14  2  0  0  0
 14 15  1  0  0  0
 15 16  2  0  0  0
 17 18  1  0  0  0
 17 19  1  0  0  0
 17 20  1  0  0  0
 21 22  2  0  0  0
 21 23  1  0  0  0
 23 24  1  0  0  0
 23 27  1  0  0  0
 24 25  1  0  0  0
 25 26  1  0  0  0
 25 47  1  0  0  0
 25 50  1  1  0  0
 26 27  1  0  0  0
 27 28  1  6  0  0
 28 29  2  0  0  0
 28 30  1  0  0  0
 30 31  1  0  0  0
 31 32  1  0  0  0
 31 36  1  0  0  0
 31 33  1  1  0  0
 32 33  1  0  0  0
 33 34  1  6  0  0
 34 35  2  0  0  0
 36 37  2  0  0  0
 36 38  1  0  0  0
 38 39  1  0  0  0
 39 40  2  0  0  0
 39 41  2  0  0  0
 39 42  1  0  0  0
 42 43  1  0  0  0
 42 46  1  0  0  0
 43 44  1  0  0  0
 44 45  1  0  0  0
 45 46  1  0  0  0
 47 48  1  0  0  0
 47 49  1  0  0  0
 47 50  1  0  0  0
 50 51  1  0  0  0
 50 53  1  0  0  0
 51 52  1  0  0  0
 52 53  1  0  0  0
M  END
> <s_m_entry_id>
6769

> <s_m_entry_name>
NS3-4A.310

> <CHEMBLID>
CHEMBL3645625

> <s_m_Source_Path>
/home/liwei/Desktop/Machine/HCV/Active

> <s_m_Source_File>
NS3-4A.sdf

> <i_m_Source_File_Index>
310

$$$$
CHEMBL3645626
                    3D
 Structure written by MMmdl.
 63 69  0  0  1  0            999 V2000
   -8.3400   -5.6496    0.0000 C   0  0  0  0  0  0
   -6.8483   -5.8064    0.0000 C   0  0  0  0  0  0
   -6.2382   -7.1768    0.0000 C   0  0  0  0  0  0
   -5.9666   -4.5929    0.0000 N   0  0  0  0  0  0
   -6.5767   -3.2226    0.0000 C   0  0  0  0  0  0
   -5.6950   -2.0091    0.0000 C   0  0  0  0  0  0
   -4.2032   -2.1659    0.0000 C   0  0  0  0  0  0
   -3.5931   -3.5362    0.0000 C   0  0  0  0  0  0
   -4.4748   -4.7497    0.0000 C   0  0  1  0  0  0
   -3.8647   -6.1200    0.0000 C   0  0  0  0  0  0
   -4.7464   -7.3335    0.0000 O   0  0  0  0  0  0
   -2.3729   -6.2768    0.0000 N   0  0  0  0  0  0
   -1.7628   -7.6471    0.0000 C   0  0  1  0  0  0
   -2.6445   -8.8607    0.0000 C   0  0  0  0  0  0
   -4.1363   -8.7039    0.0000 C   0  0  0  0  0  0
   -5.0179   -9.9174    0.0000 C   0  0  0  0  0  0
   -4.4078  -11.2877    0.0000 C   0  0  0  0  0  0
   -2.9161  -11.4445    0.0000 C   0  0  0  0  0  0
   -2.0344  -10.2310    0.0000 C   0  0  0  0  0  0
   -0.2710   -7.8039    0.0000 C   0  0  0  0  0  0
    0.3391   -9.1742    0.0000 O   0  0  0  0  0  0
    0.6107   -6.5904    0.0000 N   0  0  0  0  0  0
    2.1024   -6.7472    0.0000 C   0  0  2  0  0  0
    2.9841   -5.5337    0.0000 C   0  0  0  0  0  0
    4.4759   -5.6905    0.0000 O   0  0  0  0  0  0
    2.3740   -4.1633    0.0000 N   0  0  0  0  0  0
    0.9068   -3.8515    0.0000 C   0  0  0  0  0  0
    0.7500   -2.3597    0.0000 C   0  0  1  0  0  0
    2.1203   -1.7496    0.0000 C   0  0  0  0  0  0
    3.1240   -2.8643    0.0000 C   0  0  1  0  0  0
    4.6158   -2.7075    0.0000 C   0  0  0  0  0  0
    5.2259   -1.3372    0.0000 O   0  0  0  0  0  0
    5.4975   -3.9210    0.0000 N   0  0  0  0  0  0
    6.9893   -3.7643    0.0000 C   0  0  1  0  0  0
    8.3374   -3.1067    0.0000 C   0  0  0  0  0  0
    7.0939   -2.2679    0.0000 C   0  0  1  0  0  0
    6.4363   -0.9197    0.0000 C   0  0  0  0  0  0
    7.2751    0.3238    0.0000 C   0  0  0  0  0  0
    7.4027   -5.2061    0.0000 C   0  0  0  0  0  0
    6.3607   -6.2852    0.0000 O   0  0  0  0  0  0
    8.8582   -5.5690    0.0000 N   0  0  0  0  0  0
    9.2716   -7.0109    0.0000 S   0  0  0  0  0  0
   10.7135   -6.5975    0.0000 O   0  0  0  0  0  0
    7.8297   -7.4244    0.0000 O   0  0  0  0  0  0
    9.6851   -8.4528    0.0000 N   0  0  0  0  0  0
    8.6431   -9.5318    0.0000 C   0  0  0  0  0  0
   11.1405   -8.8157    0.0000 C   0  0  0  0  0  0
   12.1825   -7.7367    0.0000 C   0  0  0  0  0  0
   13.6379   -8.0996    0.0000 C   0  0  0  0  0  0
   14.0514   -9.5415    0.0000 C   0  0  0  0  0  0
   13.0094  -10.6205    0.0000 C   0  0  0  0  0  0
   11.5540  -10.2576    0.0000 C   0  0  0  0  0  0
   -0.7500   -2.3597    0.0000 C   0  0  0  0  0  0
   -1.0105   -3.8369    0.0000 C   0  0  0  0  0  0
   -2.1595   -1.8467    0.0000 C   0  0  0  0  0  0
   -0.0000   -1.0607    0.0000 C   0  0  0  0  0  0
    1.0607    0.0000    0.0000 C   0  0  0  0  0  0
    0.0000    1.0607    0.0000 C   0  0  0  0  0  0
   -1.0607    0.0000    0.0000 C   0  0  0  0  0  0
    2.7125   -8.1175    0.0000 C   0  0  0  0  0  0
    1.3422   -8.7276    0.0000 C   0  0  0  0  0  0
    4.0829   -7.5074    0.0000 C   0  0  0  0  0  0
    3.3227   -9.4878    0.0000 C   0  0  0  0  0  0
  1  2  1  0  0  0
  2  3  1  0  0  0
  2  4  1  0  0  0
  4  5  1  0  0  0
  4  9  1  0  0  0
  5  6  1  0  0  0
  6  7  1  0  0  0
  7  8  1  0  0  0
  8  9  1  0  0  0
  9 10  1  6  0  0
 10 11  2  0  0  0
 10 12  1  0  0  0
 12 13  1  0  0  0
 13 14  1  0  0  0
 13 20  1  6  0  0
 14 15  1  0  0  0
 14 19  1  0  0  0
 15 16  1  0  0  0
 16 17  1  0  0  0
 17 18  1  0  0  0
 18 19  1  0  0  0
 20 21  2  0  0  0
 20 22  1  0  0  0
 22 23  1  0  0  0
 23 24  1  0  0  0
 23 60  1  1  0  0
 24 25  2  0  0  0
 24 26  1  0  0  0
 26 27  1  0  0  0
 26 30  1  0  0  0
 27 28  1  0  0  0
 28 29  1  0  0  0
 28 53  1  0  0  0
 28 56  1  1  0  0
 29 30  1  0  0  0
 30 31  1  6  0  0
 31 32  2  0  0  0
 31 33  1  0  0  0
 33 34  1  0  0  0
 34 35  1  0  0  0
 34 39  1  0  0  0
 34 36  1  1  0  0
 35 36  1  0  0  0
 36 37  1  6  0  0
 37 38  2  0  0  0
 39 40  2  0  0  0
 39 41  1  0  0  0
 41 42  1  0  0  0
 42 43  2  0  0  0
 42 44  2  0  0  0
 42 45  1  0  0  0
 45 46  1  0  0  0
 45 47  1  0  0  0
 47 48  2  0  0  0
 47 52  1  0  0  0
 48 49  1  0  0  0
 49 50  2  0  0  0
 50 51  1  0  0  0
 51 52  2  0  0  0
 53 54  1  0  0  0
 53 55  1  0  0  0
 53 56  1  0  0  0
 56 57  1  0  0  0
 56 59  1  0  0  0
 57 58  1  0  0  0
 58 59  1  0  0  0
 60 61  1  0  0  0
 60 62  1  0  0  0
 60 63  1  0  0  0
M  END
> <s_m_entry_id>
6770

> <s_m_entry_name>
NS3-4A.311

> <CHEMBLID>
CHEMBL3645626

> <s_m_Source_Path>
/home/liwei/Desktop/Machine/HCV/Active

> <s_m_Source_File>
NS3-4A.sdf

> <i_m_Source_File_Index>
311

$$$$
CHEMBL3645627
                    3D
 Structure written by MMmdl.
 60 66  0  0  1  0            999 V2000
   -8.3400   -5.6496    0.0000 C   0  0  0  0  0  0
   -6.8483   -5.8064    0.0000 C   0  0  0  0  0  0
   -6.2382   -7.1768    0.0000 C   0  0  0  0  0  0
   -5.9666   -4.5929    0.0000 N   0  0  0  0  0  0
   -6.5767   -3.2226    0.0000 C   0  0  0  0  0  0
   -5.6950   -2.0091    0.0000 C   0  0  0  0  0  0
   -4.2032   -2.1659    0.0000 C   0  0  0  0  0  0
   -3.5931   -3.5362    0.0000 C   0  0  0  0  0  0
   -4.4748   -4.7497    0.0000 C   0  0  1  0  0  0
   -3.8647   -6.1200    0.0000 C   0  0  0  0  0  0
   -4.7464   -7.3335    0.0000 O   0  0  0  0  0  0
   -2.3729   -6.2768    0.0000 N   0  0  0  0  0  0
   -1.7628   -7.6471    0.0000 C   0  0  1  0  0  0
   -2.6445   -8.8607    0.0000 C   0  0  0  0  0  0
   -4.1363   -8.7039    0.0000 C   0  0  0  0  0  0
   -5.0179   -9.9174    0.0000 C   0  0  0  0  0  0
   -4.4078  -11.2877    0.0000 C   0  0  0  0  0  0
   -2.9161  -11.4445    0.0000 C   0  0  0  0  0  0
   -2.0344  -10.2310    0.0000 C   0  0  0  0  0  0
   -0.2710   -7.8039    0.0000 C   0  0  0  0  0  0
    0.3391   -9.1742    0.0000 O   0  0  0  0  0  0
    0.6107   -6.5904    0.0000 N   0  0  0  0  0  0
    2.1024   -6.7472    0.0000 C   0  0  2  0  0  0
    2.9841   -5.5337    0.0000 C   0  0  0  0  0  0
    4.4759   -5.6905    0.0000 O   0  0  0  0  0  0
    2.3740   -4.1633    0.0000 N   0  0  0  0  0  0
    0.9068   -3.8515    0.0000 C   0  0  0  0  0  0
    0.7500   -2.3597    0.0000 C   0  0  1  0  0  0
    2.1203   -1.7496    0.0000 C   0  0  0  0  0  0
    3.1240   -2.8643    0.0000 C   0  0  1  0  0  0
    4.6158   -2.7075    0.0000 C   0  0  0  0  0  0
    5.2259   -1.3372    0.0000 O   0  0  0  0  0  0
    5.4975   -3.9210    0.0000 N   0  0  0  0  0  0
    6.9893   -3.7643    0.0000 C   0  0  1  0  0  0
    8.3374   -3.1067    0.0000 C   0  0  0  0  0  0
    7.0939   -2.2679    0.0000 C   0  0  1  0  0  0
    6.4363   -0.9197    0.0000 C   0  0  0  0  0  0
    7.2751    0.3238    0.0000 C   0  0  0  0  0  0
    7.4027   -5.2061    0.0000 C   0  0  0  0  0  0
    6.3607   -6.2852    0.0000 O   0  0  0  0  0  0
    8.8582   -5.5690    0.0000 N   0  0  0  0  0  0
    9.2716   -7.0109    0.0000 S   0  0  0  0  0  0
   10.7135   -6.5975    0.0000 O   0  0  0  0  0  0
    7.8297   -7.4244    0.0000 O   0  0  0  0  0  0
    9.6851   -8.4528    0.0000 N   0  0  0  0  0  0
    8.6431   -9.5318    0.0000 C   0  0  0  0  0  0
   11.1405   -8.8157    0.0000 C   0  0  0  0  0  0
   12.2195   -9.8577    0.0000 C   0  0  0  0  0  0
   12.5824   -8.4022    0.0000 C   0  0  0  0  0  0
   -0.7500   -2.3597    0.0000 C   0  0  0  0  0  0
   -1.0105   -3.8369    0.0000 C   0  0  0  0  0  0
   -2.1595   -1.8467    0.0000 C   0  0  0  0  0  0
   -0.0000   -1.0607    0.0000 C   0  0  0  0  0  0
    1.0607    0.0000    0.0000 C   0  0  0  0  0  0
    0.0000    1.0607    0.0000 C   0  0  0  0  0  0
   -1.0607    0.0000    0.0000 C   0  0  0  0  0  0
    2.7125   -8.1175    0.0000 C   0  0  0  0  0  0
    1.3422   -8.7276    0.0000 C   0  0  0  0  0  0
    4.0829   -7.5074    0.0000 C   0  0  0  0  0  0
    3.3227   -9.4878    0.0000 C   0  0  0  0  0  0
  1  2  1  0  0  0
  2  3  1  0  0  0
  2  4  1  0  0  0
  4  5  1  0  0  0
  4  9  1  0  0  0
  5  6  1  0  0  0
  6  7  1  0  0  0
  7  8  1  0  0  0
  8  9  1  0  0  0
  9 10  1  6  0  0
 10 11  2  0  0  0
 10 12  1  0  0  0
 12 13  1  0  0  0
 13 14  1  0  0  0
 13 20  1  6  0  0
 14 15  1  0  0  0
 14 19  1  0  0  0
 15 16  1  0  0  0
 16 17  1  0  0  0
 17 18  1  0  0  0
 18 19  1  0  0  0
 20 21  2  0  0  0
 20 22  1  0  0  0
 22 23  1  0  0  0
 23 24  1  0  0  0
 23 57  1  1  0  0
 24 25  2  0  0  0
 24 26  1  0  0  0
 26 27  1  0  0  0
 26 30  1  0  0  0
 27 28  1  0  0  0
 28 29  1  0  0  0
 28 50  1  0  0  0
 28 53  1  1  0  0
 29 30  1  0  0  0
 30 31  1  6  0  0
 31 32  2  0  0  0
 31 33  1  0  0  0
 33 34  1  0  0  0
 34 35  1  0  0  0
 34 39  1  0  0  0
 34 36  1  1  0  0
 35 36  1  0  0  0
 36 37  1  6  0  0
 37 38  2  0  0  0
 39 40  2  0  0  0
 39 41  1  0  0  0
 41 42  1  0  0  0
 42 43  2  0  0  0
 42 44  2  0  0  0
 42 45  1  0  0  0
 45 46  1  0  0  0
 45 47  1  0  0  0
 47 48  1  0  0  0
 47 49  1  0  0  0
 48 49  1  0  0  0
 50 51  1  0  0  0
 50 52  1  0  0  0
 50 53  1  0  0  0
 53 54  1  0  0  0
 53 56  1  0  0  0
 54 55  1  0  0  0
 55 56  1  0  0  0
 57 58  1  0  0  0
 57 59  1  0  0  0
 57 60  1  0  0  0
M  END
> <s_m_entry_id>
6771

> <s_m_entry_name>
NS3-4A.312

> <CHEMBLID>
CHEMBL3645627

> <s_m_Source_Path>
/home/liwei/Desktop/Machine/HCV/Active

> <s_m_Source_File>
NS3-4A.sdf

> <i_m_Source_File_Index>
312

$$$$
CHEMBL3645628
                    3D
 Structure written by MMmdl.
 63 69  0  0  1  0            999 V2000
   -6.0970  -12.4927    0.0000 C   0  0  0  0  0  0
   -4.8534  -11.6539    0.0000 O   0  0  0  0  0  0
   -3.5052  -12.3115    0.0000 C   0  0  0  0  0  0
   -2.2617  -11.4727    0.0000 C   0  0  0  0  0  0
   -0.9135  -12.1302    0.0000 N   0  0  0  0  0  0
   -0.8089  -13.6266    0.0000 C   0  0  0  0  0  0
   -1.4664  -14.9748    0.0000 C   0  0  0  0  0  0
    0.0299  -14.8701    0.0000 C   0  0  0  0  0  0
    0.3301  -11.2914    0.0000 S   0  0  0  0  0  0
    1.1689  -12.5350    0.0000 O   0  0  0  0  0  0
   -0.5087  -10.0479    0.0000 O   0  0  0  0  0  0
    1.5736  -10.4526    0.0000 N   0  0  0  0  0  0
    1.4690   -8.9563    0.0000 C   0  0  0  0  0  0
    0.1208   -8.2987    0.0000 O   0  0  0  0  0  0
    2.7125   -8.1175    0.0000 C   0  0  2  0  0  0
    3.7545   -9.1965    0.0000 C   0  0  0  0  0  0
    4.1680   -7.7546    0.0000 C   0  0  1  0  0  0
    5.2470   -6.7126    0.0000 C   0  0  0  0  0  0
    6.6889   -7.1261    0.0000 C   0  0  0  0  0  0
    2.1024   -6.7472    0.0000 N   0  0  0  0  0  0
    2.9841   -5.5337    0.0000 C   0  0  0  0  0  0
    4.4759   -5.6905    0.0000 O   0  0  0  0  0  0
    2.3740   -4.1633    0.0000 C   0  0  2  0  0  0
    0.9068   -3.8515    0.0000 C   0  0  0  0  0  0
    0.7500   -2.3597    0.0000 C   0  0  2  0  0  0
    2.1203   -1.7496    0.0000 C   0  0  0  0  0  0
    3.1240   -2.8643    0.0000 N   0  0  0  0  0  0
    4.6158   -2.7075    0.0000 C   0  0  0  0  0  0
    5.4975   -3.9210    0.0000 O   0  0  0  0  0  0
    5.2259   -1.3372    0.0000 C   0  0  1  0  0  0
    6.7177   -1.1804    0.0000 N   0  0  0  0  0  0
    7.3278    0.1899    0.0000 C   0  0  0  0  0  0
    6.4461    1.4034    0.0000 O   0  0  0  0  0  0
    8.8196    0.3467    0.0000 C   0  0  1  0  0  0
    9.7013   -0.8668    0.0000 N   0  0  0  0  0  0
   11.1930   -0.7100    0.0000 C   0  0  0  0  0  0
   11.8031    0.6603    0.0000 O   0  0  0  0  0  0
   12.0747   -1.9236    0.0000 C   0  0  2  0  0  0
   13.5665   -1.7668    0.0000 C   0  0  0  0  0  0
   14.4482   -2.9803    0.0000 C   0  0  0  0  0  0
   13.8381   -4.3506    0.0000 C   0  0  0  0  0  0
   12.3463   -4.5074    0.0000 C   0  0  0  0  0  0
   11.4646   -3.2939    0.0000 N   0  0  0  0  0  0
    9.9728   -3.4507    0.0000 C   0  0  0  0  0  0
    9.0911   -2.2371    0.0000 C   0  0  0  0  0  0
    9.3627   -4.8210    0.0000 C   0  0  0  0  0  0
    9.4297    1.7170    0.0000 C   0  0  0  0  0  0
    8.5480    2.9305    0.0000 C   0  0  0  0  0  0
    9.1581    4.3009    0.0000 C   0  0  0  0  0  0
   10.6499    4.4577    0.0000 C   0  0  0  0  0  0
   11.5316    3.2441    0.0000 C   0  0  0  0  0  0
   10.9215    1.8738    0.0000 C   0  0  0  0  0  0
    4.3442   -0.1237    0.0000 C   0  0  0  0  0  0
    5.5577    0.7580    0.0000 C   0  0  0  0  0  0
    3.1307   -1.0054    0.0000 C   0  0  0  0  0  0
    3.4625    1.0899    0.0000 C   0  0  0  0  0  0
   -0.7500   -2.3597    0.0000 C   0  0  0  0  0  0
   -1.0105   -3.8369    0.0000 C   0  0  0  0  0  0
   -2.1595   -1.8467    0.0000 C   0  0  0  0  0  0
   -0.0000   -1.0607    0.0000 C   0  0  0  0  0  0
    1.0607    0.0000    0.0000 C   0  0  0  0  0  0
    0.0000    1.0607    0.0000 C   0  0  0  0  0  0
   -1.0607    0.0000    0.0000 C   0  0  0  0  0  0
  1  2  1  0  0  0
  2  3  1  0  0  0
  3  4  1  0  0  0
  4  5  1  0  0  0
  5  6  1  0  0  0
  5  9  1  0  0  0
  6  7  1  0  0  0
  6  8  1  0  0  0
  7  8  1  0  0  0
  9 10  2  0  0  0
  9 11  2  0  0  0
  9 12  1  0  0  0
 12 13  1  0  0  0
 13 14  2  0  0  0
 13 15  1  0  0  0
 15 16  1  0  0  0
 15 20  1  0  0  0
 15 17  1  6  0  0
 16 17  1  0  0  0
 17 18  1  6  0  0
 18 19  2  0  0  0
 20 21  1  0  0  0
 21 22  2  0  0  0
 21 23  1  0  0  0
 23 24  1  0  0  0
 23 27  1  1  0  0
 24 25  1  0  0  0
 25 26  1  0  0  0
 25 57  1  0  0  0
 25 60  1  6  0  0
 26 27  1  0  0  0
 27 28  1  0  0  0
 28 29  2  0  0  0
 28 30  1  0  0  0
 30 31  1  0  0  0
 30 53  1  6  0  0
 31 32  1  0  0  0
 32 33  2  0  0  0
 32 34  1  0  0  0
 34 35  1  0  0  0
 34 47  1  6  0  0
 35 36  1  0  0  0
 36 37  2  0  0  0
 36 38  1  0  0  0
 38 39  1  0  0  0
 38 43  1  1  0  0
 39 40  1  0  0  0
 40 41  1  0  0  0
 41 42  1  0  0  0
 42 43  1  0  0  0
 43 44  1  0  0  0
 44 45  1  0  0  0
 44 46  1  0  0  0
 47 48  1  0  0  0
 47 52  1  0  0  0
 48 49  1  0  0  0
 49 50  1  0  0  0
 50 51  1  0  0  0
 51 52  1  0  0  0
 53 54  1  0  0  0
 53 55  1  0  0  0
 53 56  1  0  0  0
 57 58  1  0  0  0
 57 59  1  0  0  0
 57 60  1  0  0  0
 60 61  1  0  0  0
 60 63  1  0  0  0
 61 62  1  0  0  0
 62 63  1  0  0  0
M  END
> <s_m_entry_id>
6772

> <s_m_entry_name>
NS3-4A.313

> <CHEMBLID>
CHEMBL3645628

> <s_m_Source_Path>
/home/liwei/Desktop/Machine/HCV/Active

> <s_m_Source_File>
NS3-4A.sdf

> <i_m_Source_File_Index>
313

$$$$
CHEMBL3645629
                    3D
 Structure written by MMmdl.
 59 64  0  0  1  0            999 V2000
   -2.0524  -14.4654    0.0000 C   0  0  0  0  0  0
   -0.8089  -13.6266    0.0000 O   0  0  0  0  0  0
   -0.9135  -12.1302    0.0000 N   0  0  0  0  0  0
   -2.2617  -11.4727    0.0000 C   0  0  0  0  0  0
    0.3301  -11.2914    0.0000 S   0  0  0  0  0  0
    1.1689  -12.5350    0.0000 O   0  0  0  0  0  0
   -0.5087  -10.0479    0.0000 O   0  0  0  0  0  0
    1.5736  -10.4526    0.0000 N   0  0  0  0  0  0
    1.4690   -8.9563    0.0000 C   0  0  0  0  0  0
    0.1208   -8.2987    0.0000 O   0  0  0  0  0  0
    2.7125   -8.1175    0.0000 C   0  0  2  0  0  0
    3.7545   -9.1965    0.0000 C   0  0  0  0  0  0
    4.1680   -7.7546    0.0000 C   0  0  1  0  0  0
    5.2470   -6.7126    0.0000 C   0  0  0  0  0  0
    6.6889   -7.1261    0.0000 C   0  0  0  0  0  0
    2.1024   -6.7472    0.0000 N   0  0  0  0  0  0
    2.9841   -5.5337    0.0000 C   0  0  0  0  0  0
    4.4759   -5.6905    0.0000 O   0  0  0  0  0  0
    2.3740   -4.1633    0.0000 C   0  0  2  0  0  0
    0.9068   -3.8515    0.0000 C   0  0  0  0  0  0
    0.7500   -2.3597    0.0000 C   0  0  2  0  0  0
    2.1203   -1.7496    0.0000 C   0  0  0  0  0  0
    3.1240   -2.8643    0.0000 N   0  0  0  0  0  0
    4.6158   -2.7075    0.0000 C   0  0  0  0  0  0
    5.4975   -3.9210    0.0000 O   0  0  0  0  0  0
    5.2259   -1.3372    0.0000 C   0  0  1  0  0  0
    6.7177   -1.1804    0.0000 N   0  0  0  0  0  0
    7.3278    0.1899    0.0000 C   0  0  0  0  0  0
    6.4461    1.4034    0.0000 O   0  0  0  0  0  0
    8.8196    0.3467    0.0000 C   0  0  1  0  0  0
    9.7013   -0.8668    0.0000 N   0  0  0  0  0  0
   11.1930   -0.7100    0.0000 C   0  0  0  0  0  0
   11.8031    0.6603    0.0000 O   0  0  0  0  0  0
   12.0747   -1.9236    0.0000 C   0  0  2  0  0  0
   13.5665   -1.7668    0.0000 C   0  0  0  0  0  0
   14.4482   -2.9803    0.0000 C   0  0  0  0  0  0
   13.8381   -4.3506    0.0000 C   0  0  0  0  0  0
   12.3463   -4.5074    0.0000 C   0  0  0  0  0  0
   11.4646   -3.2939    0.0000 N   0  0  0  0  0  0
    9.9728   -3.4507    0.0000 C   0  0  0  0  0  0
    9.0911   -2.2371    0.0000 C   0  0  0  0  0  0
    9.3627   -4.8210    0.0000 C   0  0  0  0  0  0
    9.4297    1.7170    0.0000 C   0  0  0  0  0  0
    8.5480    2.9305    0.0000 C   0  0  0  0  0  0
    9.1581    4.3009    0.0000 C   0  0  0  0  0  0
   10.6499    4.4577    0.0000 C   0  0  0  0  0  0
   11.5316    3.2441    0.0000 C   0  0  0  0  0  0
   10.9215    1.8738    0.0000 C   0  0  0  0  0  0
    4.3442   -0.1237    0.0000 C   0  0  0  0  0  0
    5.5577    0.7580    0.0000 C   0  0  0  0  0  0
    3.1307   -1.0054    0.0000 C   0  0  0  0  0  0
    3.4625    1.0899    0.0000 C   0  0  0  0  0  0
   -0.7500   -2.3597    0.0000 C   0  0  0  0  0  0
   -1.0105   -3.8369    0.0000 C   0  0  0  0  0  0
   -2.1595   -1.8467    0.0000 C   0  0  0  0  0  0
   -0.0000   -1.0607    0.0000 C   0  0  0  0  0  0
    1.0607    0.0000    0.0000 C   0  0  0  0  0  0
    0.0000    1.0607    0.0000 C   0  0  0  0  0  0
   -1.0607    0.0000    0.0000 C   0  0  0  0  0  0
  1  2  1  0  0  0
  2  3  1  0  0  0
  3  4  1  0  0  0
  3  5  1  0  0  0
  5  6  2  0  0  0
  5  7  2  0  0  0
  5  8  1  0  0  0
  8  9  1  0  0  0
  9 10  2  0  0  0
  9 11  1  0  0  0
 11 12  1  0  0  0
 11 16  1  0  0  0
 11 13  1  6  0  0
 12 13  1  0  0  0
 13 14  1  6  0  0
 14 15  2  0  0  0
 16 17  1  0  0  0
 17 18  2  0  0  0
 17 19  1  0  0  0
 19 20  1  0  0  0
 19 23  1  1  0  0
 20 21  1  0  0  0
 21 22  1  0  0  0
 21 53  1  0  0  0
 21 56  1  6  0  0
 22 23  1  0  0  0
 23 24  1  0  0  0
 24 25  2  0  0  0
 24 26  1  0  0  0
 26 27  1  0  0  0
 26 49  1  6  0  0
 27 28  1  0  0  0
 28 29  2  0  0  0
 28 30  1  0  0  0
 30 31  1  0  0  0
 30 43  1  6  0  0
 31 32  1  0  0  0
 32 33  2  0  0  0
 32 34  1  0  0  0
 34 35  1  0  0  0
 34 39  1  1  0  0
 35 36  1  0  0  0
 36 37  1  0  0  0
 37 38  1  0  0  0
 38 39  1  0  0  0
 39 40  1  0  0  0
 40 41  1  0  0  0
 40 42  1  0  0  0
 43 44  1  0  0  0
 43 48  1  0  0  0
 44 45  1  0  0  0
 45 46  1  0  0  0
 46 47  1  0  0  0
 47 48  1  0  0  0
 49 50  1  0  0  0
 49 51  1  0  0  0
 49 52  1  0  0  0
 53 54  1  0  0  0
 53 55  1  0  0  0
 53 56  1  0  0  0
 56 57  1  0  0  0
 56 59  1  0  0  0
 57 58  1  0  0  0
 58 59  1  0  0  0
M  END
> <s_m_entry_id>
6773

> <s_m_entry_name>
NS3-4A.314

> <CHEMBLID>
CHEMBL3645629

> <s_m_Source_Path>
/home/liwei/Desktop/Machine/HCV/Active

> <s_m_Source_File>
NS3-4A.sdf

> <i_m_Source_File_Index>
314

$$$$
CHEMBL3645630
                    3D
 Structure written by MMmdl.
 61 66  0  0  1  0            999 V2000
   -3.1913  -16.8005    0.0000 C   0  0  0  0  0  0
   -1.9478  -15.9617    0.0000 O   0  0  0  0  0  0
   -2.0524  -14.4654    0.0000 C   0  0  0  0  0  0
   -0.8089  -13.6266    0.0000 C   0  0  0  0  0  0
   -0.9135  -12.1302    0.0000 N   0  0  0  0  0  0
   -2.2617  -11.4727    0.0000 C   0  0  0  0  0  0
    0.3301  -11.2914    0.0000 S   0  0  0  0  0  0
    1.1689  -12.5350    0.0000 O   0  0  0  0  0  0
   -0.5087  -10.0479    0.0000 O   0  0  0  0  0  0
    1.5736  -10.4526    0.0000 N   0  0  0  0  0  0
    1.4690   -8.9563    0.0000 C   0  0  0  0  0  0
    0.1208   -8.2987    0.0000 O   0  0  0  0  0  0
    2.7125   -8.1175    0.0000 C   0  0  2  0  0  0
    3.7545   -9.1965    0.0000 C   0  0  0  0  0  0
    4.1680   -7.7546    0.0000 C   0  0  1  0  0  0
    5.2470   -6.7126    0.0000 C   0  0  0  0  0  0
    6.6889   -7.1261    0.0000 C   0  0  0  0  0  0
    2.1024   -6.7472    0.0000 N   0  0  0  0  0  0
    2.9841   -5.5337    0.0000 C   0  0  0  0  0  0
    4.4759   -5.6905    0.0000 O   0  0  0  0  0  0
    2.3740   -4.1633    0.0000 C   0  0  2  0  0  0
    0.9068   -3.8515    0.0000 C   0  0  0  0  0  0
    0.7500   -2.3597    0.0000 C   0  0  2  0  0  0
    2.1203   -1.7496    0.0000 C   0  0  0  0  0  0
    3.1240   -2.8643    0.0000 N   0  0  0  0  0  0
    4.6158   -2.7075    0.0000 C   0  0  0  0  0  0
    5.4975   -3.9210    0.0000 O   0  0  0  0  0  0
    5.2259   -1.3372    0.0000 C   0  0  1  0  0  0
    6.7177   -1.1804    0.0000 N   0  0  0  0  0  0
    7.3278    0.1899    0.0000 C   0  0  0  0  0  0
    6.4461    1.4034    0.0000 O   0  0  0  0  0  0
    8.8196    0.3467    0.0000 C   0  0  1  0  0  0
    9.7013   -0.8668    0.0000 N   0  0  0  0  0  0
   11.1930   -0.7100    0.0000 C   0  0  0  0  0  0
   11.8031    0.6603    0.0000 O   0  0  0  0  0  0
   12.0747   -1.9236    0.0000 C   0  0  2  0  0  0
   13.5665   -1.7668    0.0000 C   0  0  0  0  0  0
   14.4482   -2.9803    0.0000 C   0  0  0  0  0  0
   13.8381   -4.3506    0.0000 C   0  0  0  0  0  0
   12.3463   -4.5074    0.0000 C   0  0  0  0  0  0
   11.4646   -3.2939    0.0000 N   0  0  0  0  0  0
    9.9728   -3.4507    0.0000 C   0  0  0  0  0  0
    9.0911   -2.2371    0.0000 C   0  0  0  0  0  0
    9.3627   -4.8210    0.0000 C   0  0  0  0  0  0
    9.4297    1.7170    0.0000 C   0  0  0  0  0  0
    8.5480    2.9305    0.0000 C   0  0  0  0  0  0
    9.1581    4.3009    0.0000 C   0  0  0  0  0  0
   10.6499    4.4577    0.0000 C   0  0  0  0  0  0
   11.5316    3.2441    0.0000 C   0  0  0  0  0  0
   10.9215    1.8738    0.0000 C   0  0  0  0  0  0
    4.3442   -0.1237    0.0000 C   0  0  0  0  0  0
    5.5577    0.7580    0.0000 C   0  0  0  0  0  0
    3.1307   -1.0054    0.0000 C   0  0  0  0  0  0
    3.4625    1.0899    0.0000 C   0  0  0  0  0  0
   -0.7500   -2.3597    0.0000 C   0  0  0  0  0  0
   -1.0105   -3.8369    0.0000 C   0  0  0  0  0  0
   -2.1595   -1.8467    0.0000 C   0  0  0  0  0  0
   -0.0000   -1.0607    0.0000 C   0  0  0  0  0  0
    1.0607    0.0000    0.0000 C   0  0  0  0  0  0
    0.0000    1.0607    0.0000 C   0  0  0  0  0  0
   -1.0607    0.0000    0.0000 C   0  0  0  0  0  0
  1  2  1  0  0  0
  2  3  1  0  0  0
  3  4  1  0  0  0
  4  5  1  0  0  0
  5  6  1  0  0  0
  5  7  1  0  0  0
  7  8  2  0  0  0
  7  9  2  0  0  0
  7 10  1  0  0  0
 10 11  1  0  0  0
 11 12  2  0  0  0
 11 13  1  0  0  0
 13 14  1  0  0  0
 13 18  1  0  0  0
 13 15  1  6  0  0
 14 15  1  0  0  0
 15 16  1  6  0  0
 16 17  2  0  0  0
 18 19  1  0  0  0
 19 20  2  0  0  0
 19 21  1  0  0  0
 21 22  1  0  0  0
 21 25  1  1  0  0
 22 23  1  0  0  0
 23 24  1  0  0  0
 23 55  1  0  0  0
 23 58  1  6  0  0
 24 25  1  0  0  0
 25 26  1  0  0  0
 26 27  2  0  0  0
 26 28  1  0  0  0
 28 29  1  0  0  0
 28 51  1  6  0  0
 29 30  1  0  0  0
 30 31  2  0  0  0
 30 32  1  0  0  0
 32 33  1  0  0  0
 32 45  1  6  0  0
 33 34  1  0  0  0
 34 35  2  0  0  0
 34 36  1  0  0  0
 36 37  1  0  0  0
 36 41  1  1  0  0
 37 38  1  0  0  0
 38 39  1  0  0  0
 39 40  1  0  0  0
 40 41  1  0  0  0
 41 42  1  0  0  0
 42 43  1  0  0  0
 42 44  1  0  0  0
 45 46  1  0  0  0
 45 50  1  0  0  0
 46 47  1  0  0  0
 47 48  1  0  0  0
 48 49  1  0  0  0
 49 50  1  0  0  0
 51 52  1  0  0  0
 51 53  1  0  0  0
 51 54  1  0  0  0
 55 56  1  0  0  0
 55 57  1  0  0  0
 55 58  1  0  0  0
 58 59  1  0  0  0
 58 61  1  0  0  0
 59 60  1  0  0  0
 60 61  1  0  0  0
M  END
> <s_m_entry_id>
6774

> <s_m_entry_name>
NS3-4A.315

> <CHEMBLID>
CHEMBL3645630

> <s_m_Source_Path>
/home/liwei/Desktop/Machine/HCV/Active

> <s_m_Source_File>
NS3-4A.sdf

> <i_m_Source_File_Index>
315

$$$$
CHEMBL3645631
                    3D
 Structure written by MMmdl.
 60 66  0  0  1  0            999 V2000
   -8.3400   -5.6496    0.0000 C   0  0  0  0  0  0
   -6.8483   -5.8064    0.0000 C   0  0  0  0  0  0
   -6.2382   -7.1768    0.0000 C   0  0  0  0  0  0
   -5.9666   -4.5929    0.0000 N   0  0  0  0  0  0
   -6.5767   -3.2226    0.0000 C   0  0  0  0  0  0
   -5.6950   -2.0091    0.0000 C   0  0  0  0  0  0
   -4.2032   -2.1659    0.0000 C   0  0  0  0  0  0
   -3.5931   -3.5362    0.0000 C   0  0  0  0  0  0
   -4.4748   -4.7497    0.0000 C   0  0  1  0  0  0
   -3.8647   -6.1200    0.0000 C   0  0  0  0  0  0
   -4.7464   -7.3335    0.0000 O   0  0  0  0  0  0
   -2.3729   -6.2768    0.0000 N   0  0  0  0  0  0
   -1.7628   -7.6471    0.0000 C   0  0  1  0  0  0
   -2.6445   -8.8607    0.0000 C   0  0  0  0  0  0
   -4.1363   -8.7039    0.0000 C   0  0  0  0  0  0
   -5.0179   -9.9174    0.0000 C   0  0  0  0  0  0
   -4.4078  -11.2877    0.0000 C   0  0  0  0  0  0
   -2.9161  -11.4445    0.0000 C   0  0  0  0  0  0
   -2.0344  -10.2310    0.0000 C   0  0  0  0  0  0
   -0.2710   -7.8039    0.0000 C   0  0  0  0  0  0
    0.3391   -9.1742    0.0000 O   0  0  0  0  0  0
    0.6107   -6.5904    0.0000 N   0  0  0  0  0  0
    2.1024   -6.7472    0.0000 C   0  0  2  0  0  0
    2.9841   -5.5337    0.0000 C   0  0  0  0  0  0
    4.4759   -5.6905    0.0000 O   0  0  0  0  0  0
    2.3740   -4.1633    0.0000 N   0  0  0  0  0  0
    0.9068   -3.8515    0.0000 C   0  0  0  0  0  0
    0.7500   -2.3597    0.0000 C   0  0  1  0  0  0
    2.1203   -1.7496    0.0000 C   0  0  0  0  0  0
    3.1240   -2.8643    0.0000 C   0  0  1  0  0  0
    4.6158   -2.7075    0.0000 C   0  0  0  0  0  0
    5.2259   -1.3372    0.0000 O   0  0  0  0  0  0
    5.4975   -3.9210    0.0000 N   0  0  0  0  0  0
    6.9893   -3.7643    0.0000 C   0  0  1  0  0  0
    8.3374   -3.1067    0.0000 C   0  0  0  0  0  0
    7.0939   -2.2679    0.0000 C   0  0  1  0  0  0
    6.4363   -0.9197    0.0000 C   0  0  0  0  0  0
    7.2751    0.3238    0.0000 C   0  0  0  0  0  0
    7.4027   -5.2061    0.0000 C   0  0  0  0  0  0
    6.3607   -6.2852    0.0000 O   0  0  0  0  0  0
    8.8582   -5.5690    0.0000 N   0  0  0  0  0  0
    9.2716   -7.0109    0.0000 S   0  0  0  0  0  0
    7.8297   -7.4244    0.0000 O   0  0  0  0  0  0
   10.7135   -6.5975    0.0000 O   0  0  0  0  0  0
    9.6851   -8.4528    0.0000 N   0  0  0  0  0  0
    8.6431   -9.5318    0.0000 C   0  0  0  0  0  0
    8.6693  -11.0316    0.0000 C   0  0  0  0  0  0
    7.1695  -11.0578    0.0000 C   0  0  0  0  0  0
    7.1433   -9.5580    0.0000 C   0  0  0  0  0  0
   -0.7500   -2.3597    0.0000 C   0  0  0  0  0  0
   -1.0105   -3.8369    0.0000 C   0  0  0  0  0  0
   -2.1595   -1.8467    0.0000 C   0  0  0  0  0  0
   -0.0000   -1.0607    0.0000 C   0  0  0  0  0  0
    1.0607    0.0000    0.0000 C   0  0  0  0  0  0
    0.0000    1.0607    0.0000 C   0  0  0  0  0  0
   -1.0607    0.0000    0.0000 C   0  0  0  0  0  0
    2.7125   -8.1175    0.0000 C   0  0  0  0  0  0
    1.3422   -8.7276    0.0000 C   0  0  0  0  0  0
    4.0829   -7.5074    0.0000 C   0  0  0  0  0  0
    3.3227   -9.4878    0.0000 C   0  0  0  0  0  0
  1  2  1  0  0  0
  2  3  1  0  0  0
  2  4  1  0  0  0
  4  5  1  0  0  0
  4  9  1  0  0  0
  5  6  1  0  0  0
  6  7  1  0  0  0
  7  8  1  0  0  0
  8  9  1  0  0  0
  9 10  1  6  0  0
 10 11  2  0  0  0
 10 12  1  0  0  0
 12 13  1  0  0  0
 13 14  1  0  0  0
 13 20  1  6  0  0
 14 15  1  0  0  0
 14 19  1  0  0  0
 15 16  1  0  0  0
 16 17  1  0  0  0
 17 18  1  0  0  0
 18 19  1  0  0  0
 20 21  2  0  0  0
 20 22  1  0  0  0
 22 23  1  0  0  0
 23 24  1  0  0  0
 23 57  1  1  0  0
 24 25  2  0  0  0
 24 26  1  0  0  0
 26 27  1  0  0  0
 26 30  1  0  0  0
 27 28  1  0  0  0
 28 29  1  0  0  0
 28 50  1  0  0  0
 28 53  1  1  0  0
 29 30  1  0  0  0
 30 31  1  6  0  0
 31 32  2  0  0  0
 31 33  1  0  0  0
 33 34  1  0  0  0
 34 35  1  0  0  0
 34 39  1  0  0  0
 34 36  1  1  0  0
 35 36  1  0  0  0
 36 37  1  6  0  0
 37 38  2  0  0  0
 39 40  2  0  0  0
 39 41  1  0  0  0
 41 42  1  0  0  0
 42 43  2  0  0  0
 42 44  2  0  0  0
 42 45  1  0  0  0
 45 46  1  0  0  0
 46 47  1  0  0  0
 46 49  1  0  0  0
 47 48  1  0  0  0
 48 49  1  0  0  0
 50 51  1  0  0  0
 50 52  1  0  0  0
 50 53  1  0  0  0
 53 54  1  0  0  0
 53 56  1  0  0  0
 54 55  1  0  0  0
 55 56  1  0  0  0
 57 58  1  0  0  0
 57 59  1  0  0  0
 57 60  1  0  0  0
M  END
> <s_m_entry_id>
6775

> <s_m_entry_name>
NS3-4A.316

> <CHEMBLID>
CHEMBL3645631

> <s_m_Source_Path>
/home/liwei/Desktop/Machine/HCV/Active

> <s_m_Source_File>
NS3-4A.sdf

> <i_m_Source_File_Index>
316

$$$$
CHEMBL3645632
                    3D
 Structure written by MMmdl.
 59 65  0  0  1  0            999 V2000
   -8.3400   -5.6496    0.0000 C   0  0  0  0  0  0
   -6.8483   -5.8064    0.0000 C   0  0  0  0  0  0
   -6.2382   -7.1768    0.0000 C   0  0  0  0  0  0
   -5.9666   -4.5929    0.0000 N   0  0  0  0  0  0
   -6.5767   -3.2226    0.0000 C   0  0  0  0  0  0
   -5.6950   -2.0091    0.0000 C   0  0  0  0  0  0
   -4.2032   -2.1659    0.0000 C   0  0  0  0  0  0
   -3.5931   -3.5362    0.0000 C   0  0  0  0  0  0
   -4.4748   -4.7497    0.0000 C   0  0  1  0  0  0
   -3.8647   -6.1200    0.0000 C   0  0  0  0  0  0
   -4.7464   -7.3335    0.0000 O   0  0  0  0  0  0
   -2.3729   -6.2768    0.0000 N   0  0  0  0  0  0
   -1.7628   -7.6471    0.0000 C   0  0  1  0  0  0
   -2.6445   -8.8607    0.0000 C   0  0  0  0  0  0
   -2.1810  -10.2872    0.0000 C   0  0  0  0  0  0
   -3.3945  -11.1689    0.0000 C   0  0  0  0  0  0
   -4.6080  -10.2872    0.0000 C   0  0  0  0  0  0
   -4.1445   -8.8607    0.0000 C   0  0  0  0  0  0
   -0.2710   -7.8039    0.0000 C   0  0  0  0  0  0
    0.3391   -9.1742    0.0000 O   0  0  0  0  0  0
    0.6107   -6.5904    0.0000 N   0  0  0  0  0  0
    2.1024   -6.7472    0.0000 C   0  0  2  0  0  0
    2.9841   -5.5337    0.0000 C   0  0  0  0  0  0
    4.4759   -5.6905    0.0000 O   0  0  0  0  0  0
    2.3740   -4.1633    0.0000 N   0  0  0  0  0  0
    0.9068   -3.8515    0.0000 C   0  0  0  0  0  0
    0.7500   -2.3597    0.0000 C   0  0  1  0  0  0
    2.1203   -1.7496    0.0000 C   0  0  0  0  0  0
    3.1240   -2.8643    0.0000 C   0  0  1  0  0  0
    4.6158   -2.7075    0.0000 C   0  0  0  0  0  0
    5.2259   -1.3372    0.0000 O   0  0  0  0  0  0
    5.4975   -3.9210    0.0000 N   0  0  0  0  0  0
    6.9893   -3.7643    0.0000 C   0  0  1  0  0  0
    8.3374   -3.1067    0.0000 C   0  0  0  0  0  0
    7.0939   -2.2679    0.0000 C   0  0  1  0  0  0
    6.4363   -0.9197    0.0000 C   0  0  0  0  0  0
    7.2751    0.3238    0.0000 C   0  0  0  0  0  0
    7.4027   -5.2061    0.0000 C   0  0  0  0  0  0
    6.3607   -6.2852    0.0000 O   0  0  0  0  0  0
    8.8582   -5.5690    0.0000 N   0  0  0  0  0  0
    9.2716   -7.0109    0.0000 S   0  0  0  0  0  0
   10.7135   -6.5975    0.0000 O   0  0  0  0  0  0
    7.8297   -7.4244    0.0000 O   0  0  0  0  0  0
    9.6851   -8.4528    0.0000 N   0  0  0  0  0  0
    8.7616   -9.6348    0.0000 C   0  0  0  0  0  0
    9.6004  -10.8784    0.0000 C   0  0  0  0  0  0
   11.0423  -10.4649    0.0000 C   0  0  0  0  0  0
   11.0946   -8.9658    0.0000 C   0  0  0  0  0  0
   -0.7500   -2.3597    0.0000 C   0  0  0  0  0  0
   -1.0105   -3.8369    0.0000 C   0  0  0  0  0  0
   -2.1595   -1.8467    0.0000 C   0  0  0  0  0  0
   -0.0000   -1.0607    0.0000 C   0  0  0  0  0  0
    1.0607    0.0000    0.0000 C   0  0  0  0  0  0
    0.0000    1.0607    0.0000 C   0  0  0  0  0  0
   -1.0607    0.0000    0.0000 C   0  0  0  0  0  0
    2.7125   -8.1175    0.0000 C   0  0  0  0  0  0
    1.3422   -8.7276    0.0000 C   0  0  0  0  0  0
    4.0829   -7.5074    0.0000 C   0  0  0  0  0  0
    3.3227   -9.4878    0.0000 C   0  0  0  0  0  0
  1  2  1  0  0  0
  2  3  1  0  0  0
  2  4  1  0  0  0
  4  5  1  0  0  0
  4  9  1  0  0  0
  5  6  1  0  0  0
  6  7  1  0  0  0
  7  8  1  0  0  0
  8  9  1  0  0  0
  9 10  1  6  0  0
 10 11  2  0  0  0
 10 12  1  0  0  0
 12 13  1  0  0  0
 13 14  1  0  0  0
 13 19  1  6  0  0
 14 15  1  0  0  0
 14 18  1  0  0  0
 15 16  1  0  0  0
 16 17  1  0  0  0
 17 18  1  0  0  0
 19 20  2  0  0  0
 19 21  1  0  0  0
 21 22  1  0  0  0
 22 23  1  0  0  0
 22 56  1  1  0  0
 23 24  2  0  0  0
 23 25  1  0  0  0
 25 26  1  0  0  0
 25 29  1  0  0  0
 26 27  1  0  0  0
 27 28  1  0  0  0
 27 49  1  0  0  0
 27 52  1  1  0  0
 28 29  1  0  0  0
 29 30  1  6  0  0
 30 31  2  0  0  0
 30 32  1  0  0  0
 32 33  1  0  0  0
 33 34  1  0  0  0
 33 38  1  0  0  0
 33 35  1  1  0  0
 34 35  1  0  0  0
 35 36  1  6  0  0
 36 37  2  0  0  0
 38 39  2  0  0  0
 38 40  1  0  0  0
 40 41  1  0  0  0
 41 42  2  0  0  0
 41 43  2  0  0  0
 41 44  1  0  0  0
 44 45  1  0  0  0
 44 48  1  0  0  0
 45 46  1  0  0  0
 46 47  1  0  0  0
 47 48  1  0  0  0
 49 50  1  0  0  0
 49 51  1  0  0  0
 49 52  1  0  0  0
 52 53  1  0  0  0
 52 55  1  0  0  0
 53 54  1  0  0  0
 54 55  1  0  0  0
 56 57  1  0  0  0
 56 58  1  0  0  0
 56 59  1  0  0  0
M  END
> <s_m_entry_id>
6776

> <s_m_entry_name>
NS3-4A.317

> <CHEMBLID>
CHEMBL3645632

> <s_m_Source_Path>
/home/liwei/Desktop/Machine/HCV/Active

> <s_m_Source_File>
NS3-4A.sdf

> <i_m_Source_File_Index>
317

$$$$
CHEMBL3645633
                    3D
 Structure written by MMmdl.
 58 64  0  0  1  0            999 V2000
    5.2999   -9.3398    0.0000 C   0  0  0  0  0  0
    6.7265   -9.8033    0.0000 C   0  0  0  0  0  0
    7.8412   -8.7996    0.0000 C   0  0  0  0  0  0
    7.0383  -11.2705    0.0000 N   0  0  0  0  0  0
    8.4087  -11.8806    0.0000 C   0  0  0  0  0  0
    8.2519  -13.3724    0.0000 C   0  0  0  0  0  0
    6.7846  -13.6843    0.0000 C   0  0  0  0  0  0
    6.0346  -12.3853    0.0000 C   0  0  1  0  0  0
    4.5429  -12.2285    0.0000 C   0  0  0  0  0  0
    3.6612  -13.4420    0.0000 O   0  0  0  0  0  0
    3.9328  -10.8581    0.0000 N   0  0  0  0  0  0
    2.4410  -10.7014    0.0000 C   0  0  1  0  0  0
    1.5593  -11.9149    0.0000 C   0  0  0  0  0  0
    0.0593  -11.9149    0.0000 C   0  0  0  0  0  0
   -0.4042  -13.3415    0.0000 C   0  0  0  0  0  0
    0.8093  -14.2231    0.0000 C   0  0  0  0  0  0
    2.0228  -13.3415    0.0000 C   0  0  0  0  0  0
    1.8309   -9.3310    0.0000 C   0  0  0  0  0  0
    0.3391   -9.1742    0.0000 O   0  0  0  0  0  0
    2.7125   -8.1175    0.0000 N   0  0  0  0  0  0
    2.1024   -6.7472    0.0000 C   0  0  2  0  0  0
    2.9841   -5.5337    0.0000 C   0  0  0  0  0  0
    4.4759   -5.6905    0.0000 O   0  0  0  0  0  0
    2.3740   -4.1633    0.0000 N   0  0  0  0  0  0
    0.9068   -3.8515    0.0000 C   0  0  0  0  0  0
    0.7500   -2.3597    0.0000 C   0  0  1  0  0  0
    2.1203   -1.7496    0.0000 C   0  0  0  0  0  0
    3.1240   -2.8643    0.0000 C   0  0  1  0  0  0
    4.6158   -2.7075    0.0000 C   0  0  0  0  0  0
    5.2259   -1.3372    0.0000 O   0  0  0  0  0  0
    5.4975   -3.9210    0.0000 N   0  0  0  0  0  0
    6.9893   -3.7643    0.0000 C   0  0  1  0  0  0
    8.3374   -3.1067    0.0000 C   0  0  0  0  0  0
    7.0939   -2.2679    0.0000 C   0  0  1  0  0  0
    6.4363   -0.9197    0.0000 C   0  0  0  0  0  0
    7.2751    0.3238    0.0000 C   0  0  0  0  0  0
    7.4027   -5.2061    0.0000 C   0  0  0  0  0  0
    6.3607   -6.2852    0.0000 O   0  0  0  0  0  0
    8.8582   -5.5690    0.0000 N   0  0  0  0  0  0
    9.2716   -7.0109    0.0000 S   0  0  0  0  0  0
   10.7135   -6.5975    0.0000 O   0  0  0  0  0  0
    7.8297   -7.4244    0.0000 O   0  0  0  0  0  0
    9.6851   -8.4528    0.0000 N   0  0  0  0  0  0
    8.7616   -9.6348    0.0000 C   0  0  0  0  0  0
    9.6004  -10.8784    0.0000 C   0  0  0  0  0  0
   11.0423  -10.4649    0.0000 C   0  0  0  0  0  0
   11.0946   -8.9658    0.0000 C   0  0  0  0  0  0
   -0.7500   -2.3597    0.0000 C   0  0  0  0  0  0
   -1.0105   -3.8369    0.0000 C   0  0  0  0  0  0
   -2.1595   -1.8467    0.0000 C   0  0  0  0  0  0
   -0.0000   -1.0607    0.0000 C   0  0  0  0  0  0
    1.0607    0.0000    0.0000 C   0  0  0  0  0  0
    0.0000    1.0607    0.0000 C   0  0  0  0  0  0
   -1.0607    0.0000    0.0000 C   0  0  0  0  0  0
    0.6107   -6.5904    0.0000 C   0  0  0  0  0  0
    0.4539   -8.0822    0.0000 C   0  0  0  0  0  0
    0.7675   -5.0986    0.0000 C   0  0  0  0  0  0
   -0.8811   -6.4336    0.0000 C   0  0  0  0  0  0
  1  2  1  0  0  0
  2  3  1  0  0  0
  2  4  1  0  0  0
  4  5  1  0  0  0
  4  8  1  0  0  0
  5  6  1  0  0  0
  6  7  1  0  0  0
  7  8  1  0  0  0
  8  9  1  6  0  0
  9 10  2  0  0  0
  9 11  1  0  0  0
 11 12  1  0  0  0
 12 13  1  0  0  0
 12 18  1  6  0  0
 13 14  1  0  0  0
 13 17  1  0  0  0
 14 15  1  0  0  0
 15 16  1  0  0  0
 16 17  1  0  0  0
 18 19  2  0  0  0
 18 20  1  0  0  0
 20 21  1  0  0  0
 21 22  1  0  0  0
 21 55  1  1  0  0
 22 23  2  0  0  0
 22 24  1  0  0  0
 24 25  1  0  0  0
 24 28  1  0  0  0
 25 26  1  0  0  0
 26 27  1  0  0  0
 26 48  1  0  0  0
 26 51  1  1  0  0
 27 28  1  0  0  0
 28 29  1  6  0  0
 29 30  2  0  0  0
 29 31  1  0  0  0
 31 32  1  0  0  0
 32 33  1  0  0  0
 32 37  1  0  0  0
 32 34  1  1  0  0
 33 34  1  0  0  0
 34 35  1  6  0  0
 35 36  2  0  0  0
 37 38  2  0  0  0
 37 39  1  0  0  0
 39 40  1  0  0  0
 40 41  2  0  0  0
 40 42  2  0  0  0
 40 43  1  0  0  0
 43 44  1  0  0  0
 43 47  1  0  0  0
 44 45  1  0  0  0
 45 46  1  0  0  0
 46 47  1  0  0  0
 48 49  1  0  0  0
 48 50  1  0  0  0
 48 51  1  0  0  0
 51 52  1  0  0  0
 51 54  1  0  0  0
 52 53  1  0  0  0
 53 54  1  0  0  0
 55 56  1  0  0  0
 55 57  1  0  0  0
 55 58  1  0  0  0
M  END
> <s_m_entry_id>
6777

> <s_m_entry_name>
NS3-4A.318

> <CHEMBLID>
CHEMBL3645633

> <s_m_Source_Path>
/home/liwei/Desktop/Machine/HCV/Active

> <s_m_Source_File>
NS3-4A.sdf

> <i_m_Source_File_Index>
318

$$$$
CHEMBL3645634
                    3D
 Structure written by MMmdl.
 52 57  0  0  1  0            999 V2000
    1.3422   -8.7276    0.0000 C   0  0  0  0  0  0
    2.7125   -8.1175    0.0000 C   0  0  0  0  0  0
    4.0829   -7.5074    0.0000 C   0  0  0  0  0  0
    3.3227   -9.4878    0.0000 C   0  0  0  0  0  0
    2.1024   -6.7472    0.0000 C   0  0  2  0  0  0
    0.6107   -6.5904    0.0000 N   0  0  0  0  0  0
   -0.2710   -7.8039    0.0000 C   0  0  0  0  0  0
    0.3391   -9.1742    0.0000 O   0  0  0  0  0  0
   -1.7628   -7.6471    0.0000 C   0  0  0  0  0  0
   -2.6445   -8.8607    0.0000 C   0  0  0  0  0  0
   -1.2963   -9.5182    0.0000 C   0  0  0  0  0  0
   -1.1917  -11.0146    0.0000 C   0  0  0  0  0  0
   -2.4352  -11.8534    0.0000 O   0  0  0  0  0  0
    0.1565  -11.6721    0.0000 N   0  0  0  0  0  0
   -3.6865   -7.7816    0.0000 C   0  0  0  0  0  0
   -5.1419   -8.1445    0.0000 C   0  0  0  0  0  0
   -5.5554   -9.5864    0.0000 C   0  0  0  0  0  0
   -4.5134  -10.6654    0.0000 C   0  0  0  0  0  0
   -3.0579  -10.3026    0.0000 C   0  0  0  0  0  0
    2.9841   -5.5337    0.0000 C   0  0  0  0  0  0
    4.4759   -5.6905    0.0000 O   0  0  0  0  0  0
    2.3740   -4.1633    0.0000 N   0  0  0  0  0  0
    0.9068   -3.8515    0.0000 C   0  0  0  0  0  0
    0.7500   -2.3597    0.0000 C   0  0  1  0  0  0
    2.1203   -1.7496    0.0000 C   0  0  0  0  0  0
    3.1240   -2.8643    0.0000 C   0  0  1  0  0  0
    4.6158   -2.7075    0.0000 C   0  0  0  0  0  0
    5.2259   -1.3372    0.0000 O   0  0  0  0  0  0
    5.4975   -3.9210    0.0000 N   0  0  0  0  0  0
    6.9893   -3.7643    0.0000 C   0  0  1  0  0  0
    8.3374   -3.1067    0.0000 C   0  0  0  0  0  0
    7.0939   -2.2679    0.0000 C   0  0  1  0  0  0
    6.4363   -0.9197    0.0000 C   0  0  0  0  0  0
    7.2751    0.3238    0.0000 C   0  0  0  0  0  0
    7.4027   -5.2061    0.0000 C   0  0  0  0  0  0
    6.3607   -6.2852    0.0000 O   0  0  0  0  0  0
    8.8582   -5.5690    0.0000 N   0  0  0  0  0  0
    9.2716   -7.0109    0.0000 S   0  0  0  0  0  0
   10.7135   -6.5975    0.0000 O   0  0  0  0  0  0
    7.8297   -7.4244    0.0000 O   0  0  0  0  0  0
    9.6851   -8.4528    0.0000 N   0  0  0  0  0  0
    8.7616   -9.6348    0.0000 C   0  0  0  0  0  0
    9.6004  -10.8784    0.0000 C   0  0  0  0  0  0
   11.0423  -10.4649    0.0000 C   0  0  0  0  0  0
   11.0946   -8.9658    0.0000 C   0  0  0  0  0  0
   -0.7500   -2.3597    0.0000 C   0  0  0  0  0  0
   -1.0105   -3.8369    0.0000 C   0  0  0  0  0  0
   -2.1595   -1.8467    0.0000 C   0  0  0  0  0  0
   -0.0000   -1.0607    0.0000 C   0  0  0  0  0  0
    1.0607    0.0000    0.0000 C   0  0  0  0  0  0
    0.0000    1.0607    0.0000 C   0  0  0  0  0  0
   -1.0607    0.0000    0.0000 C   0  0  0  0  0  0
  1  2  1  0  0  0
  2  3  1  0  0  0
  2  4  1  0  0  0
  2  5  1  0  0  0
  5  6  1  0  0  0
  5 20  1  1  0  0
  6  7  1  0  0  0
  7  8  2  0  0  0
  7  9  1  0  0  0
  9 10  1  0  0  0
 10 11  1  0  0  0
 10 15  1  0  0  0
 10 19  1  0  0  0
 11 12  1  0  0  0
 12 13  2  0  0  0
 12 14  1  0  0  0
 15 16  1  0  0  0
 16 17  1  0  0  0
 17 18  1  0  0  0
 18 19  1  0  0  0
 20 21  2  0  0  0
 20 22  1  0  0  0
 22 23  1  0  0  0
 22 26  1  0  0  0
 23 24  1  0  0  0
 24 25  1  0  0  0
 24 46  1  0  0  0
 24 49  1  1  0  0
 25 26  1  0  0  0
 26 27  1  6  0  0
 27 28  2  0  0  0
 27 29  1  0  0  0
 29 30  1  0  0  0
 30 31  1  0  0  0
 30 35  1  0  0  0
 30 32  1  1  0  0
 31 32  1  0  0  0
 32 33  1  6  0  0
 33 34  2  0  0  0
 35 36  2  0  0  0
 35 37  1  0  0  0
 37 38  1  0  0  0
 38 39  2  0  0  0
 38 40  2  0  0  0
 38 41  1  0  0  0
 41 42  1  0  0  0
 41 45  1  0  0  0
 42 43  1  0  0  0
 43 44  1  0  0  0
 44 45  1  0  0  0
 46 47  1  0  0  0
 46 48  1  0  0  0
 46 49  1  0  0  0
 49 50  1  0  0  0
 49 52  1  0  0  0
 50 51  1  0  0  0
 51 52  1  0  0  0
M  END
> <s_m_entry_id>
6778

> <s_m_entry_name>
NS3-4A.319

> <CHEMBLID>
CHEMBL3645634

> <s_m_Source_Path>
/home/liwei/Desktop/Machine/HCV/Active

> <s_m_Source_File>
NS3-4A.sdf

> <i_m_Source_File_Index>
319

$$$$
CHEMBL3645635
                    3D
 Structure written by MMmdl.
 51 56  0  0  1  0            999 V2000
    1.3422   -8.7276    0.0000 C   0  0  0  0  0  0
    2.7125   -8.1175    0.0000 C   0  0  0  0  0  0
    4.0829   -7.5074    0.0000 C   0  0  0  0  0  0
    3.3227   -9.4878    0.0000 C   0  0  0  0  0  0
    2.1024   -6.7472    0.0000 C   0  0  2  0  0  0
    0.6107   -6.5904    0.0000 N   0  0  0  0  0  0
   -0.2710   -7.8039    0.0000 C   0  0  0  0  0  0
    0.3391   -9.1742    0.0000 O   0  0  0  0  0  0
   -1.7628   -7.6471    0.0000 C   0  0  0  0  0  0
   -2.6445   -8.8607    0.0000 C   0  0  0  0  0  0
   -1.2963   -9.5182    0.0000 C   0  0  0  0  0  0
   -1.1917  -11.0146    0.0000 C   0  0  0  0  0  0
   -1.0870  -12.5109    0.0000 N   0  0  0  0  0  0
   -3.6865   -7.7816    0.0000 C   0  0  0  0  0  0
   -5.1419   -8.1445    0.0000 C   0  0  0  0  0  0
   -5.5554   -9.5864    0.0000 C   0  0  0  0  0  0
   -4.5134  -10.6654    0.0000 C   0  0  0  0  0  0
   -3.0579  -10.3026    0.0000 C   0  0  0  0  0  0
    2.9841   -5.5337    0.0000 C   0  0  0  0  0  0
    4.4759   -5.6905    0.0000 O   0  0  0  0  0  0
    2.3740   -4.1633    0.0000 N   0  0  0  0  0  0
    0.9068   -3.8515    0.0000 C   0  0  0  0  0  0
    0.7500   -2.3597    0.0000 C   0  0  1  0  0  0
    2.1203   -1.7496    0.0000 C   0  0  0  0  0  0
    3.1240   -2.8643    0.0000 C   0  0  1  0  0  0
    4.6158   -2.7075    0.0000 C   0  0  0  0  0  0
    5.2259   -1.3372    0.0000 O   0  0  0  0  0  0
    5.4975   -3.9210    0.0000 N   0  0  0  0  0  0
    6.9893   -3.7643    0.0000 C   0  0  1  0  0  0
    8.3374   -3.1067    0.0000 C   0  0  0  0  0  0
    7.0939   -2.2679    0.0000 C   0  0  1  0  0  0
    6.4363   -0.9197    0.0000 C   0  0  0  0  0  0
    7.2751    0.3238    0.0000 C   0  0  0  0  0  0
    7.4027   -5.2061    0.0000 C   0  0  0  0  0  0
    6.3607   -6.2852    0.0000 O   0  0  0  0  0  0
    8.8582   -5.5690    0.0000 N   0  0  0  0  0  0
    9.2716   -7.0109    0.0000 S   0  0  0  0  0  0
   10.7135   -6.5975    0.0000 O   0  0  0  0  0  0
    7.8297   -7.4244    0.0000 O   0  0  0  0  0  0
    9.6851   -8.4528    0.0000 N   0  0  0  0  0  0
    8.7616   -9.6348    0.0000 C   0  0  0  0  0  0
    9.6004  -10.8784    0.0000 C   0  0  0  0  0  0
   11.0423  -10.4649    0.0000 C   0  0  0  0  0  0
   11.0946   -8.9658    0.0000 C   0  0  0  0  0  0
   -0.7500   -2.3597    0.0000 C   0  0  0  0  0  0
   -1.0105   -3.8369    0.0000 C   0  0  0  0  0  0
   -2.1595   -1.8467    0.0000 C   0  0  0  0  0  0
   -0.0000   -1.0607    0.0000 C   0  0  0  0  0  0
    1.0607    0.0000    0.0000 C   0  0  0  0  0  0
    0.0000    1.0607    0.0000 C   0  0  0  0  0  0
   -1.0607    0.0000    0.0000 C   0  0  0  0  0  0
  1  2  1  0  0  0
  2  3  1  0  0  0
  2  4  1  0  0  0
  2  5  1  0  0  0
  5  6  1  0  0  0
  5 19  1  1  0  0
  6  7  1  0  0  0
  7  8  2  0  0  0
  7  9  1  0  0  0
  9 10  1  0  0  0
 10 11  1  0  0  0
 10 14  1  0  0  0
 10 18  1  0  0  0
 11 12  1  0  0  0
 12 13  3  0  0  0
 14 15  1  0  0  0
 15 16  1  0  0  0
 16 17  1  0  0  0
 17 18  1  0  0  0
 19 20  2  0  0  0
 19 21  1  0  0  0
 21 22  1  0  0  0
 21 25  1  0  0  0
 22 23  1  0  0  0
 23 24  1  0  0  0
 23 45  1  0  0  0
 23 48  1  1  0  0
 24 25  1  0  0  0
 25 26  1  6  0  0
 26 27  2  0  0  0
 26 28  1  0  0  0
 28 29  1  0  0  0
 29 30  1  0  0  0
 29 34  1  0  0  0
 29 31  1  1  0  0
 30 31  1  0  0  0
 31 32  1  6  0  0
 32 33  2  0  0  0
 34 35  2  0  0  0
 34 36  1  0  0  0
 36 37  1  0  0  0
 37 38  2  0  0  0
 37 39  2  0  0  0
 37 40  1  0  0  0
 40 41  1  0  0  0
 40 44  1  0  0  0
 41 42  1  0  0  0
 42 43  1  0  0  0
 43 44  1  0  0  0
 45 46  1  0  0  0
 45 47  1  0  0  0
 45 48  1  0  0  0
 48 49  1  0  0  0
 48 51  1  0  0  0
 49 50  1  0  0  0
 50 51  1  0  0  0
M  END
> <s_m_entry_id>
6779

> <s_m_entry_name>
NS3-4A.320

> <CHEMBLID>
CHEMBL3645635

> <s_m_Source_Path>
/home/liwei/Desktop/Machine/HCV/Active

> <s_m_Source_File>
NS3-4A.sdf

> <i_m_Source_File_Index>
320

$$$$
CHEMBL3645636
                    3D
 Structure written by MMmdl.
 59 64  0  0  1  0            999 V2000
   -3.5052  -12.3115    0.0000 C   0  0  0  0  0  0
   -2.2617  -11.4727    0.0000 C   0  0  0  0  0  0
   -0.9135  -12.1302    0.0000 N   0  0  0  0  0  0
   -0.8089  -13.6266    0.0000 C   0  0  0  0  0  0
   -2.0524  -14.4654    0.0000 C   0  0  0  0  0  0
    0.3301  -11.2914    0.0000 S   0  0  0  0  0  0
    1.1689  -12.5350    0.0000 O   0  0  0  0  0  0
   -0.5087  -10.0479    0.0000 O   0  0  0  0  0  0
    1.5736  -10.4526    0.0000 N   0  0  0  0  0  0
    1.4690   -8.9563    0.0000 C   0  0  0  0  0  0
    0.1208   -8.2987    0.0000 O   0  0  0  0  0  0
    2.7125   -8.1175    0.0000 C   0  0  2  0  0  0
    3.7545   -9.1965    0.0000 C   0  0  0  0  0  0
    4.1680   -7.7546    0.0000 C   0  0  1  0  0  0
    5.2470   -6.7126    0.0000 C   0  0  0  0  0  0
    6.6889   -7.1261    0.0000 C   0  0  0  0  0  0
    2.1024   -6.7472    0.0000 N   0  0  0  0  0  0
    2.9841   -5.5337    0.0000 C   0  0  0  0  0  0
    4.4759   -5.6905    0.0000 O   0  0  0  0  0  0
    2.3740   -4.1633    0.0000 C   0  0  2  0  0  0
    0.9068   -3.8515    0.0000 C   0  0  0  0  0  0
    0.7500   -2.3597    0.0000 C   0  0  2  0  0  0
    2.1203   -1.7496    0.0000 C   0  0  0  0  0  0
    3.1240   -2.8643    0.0000 N   0  0  0  0  0  0
    4.6158   -2.7075    0.0000 C   0  0  0  0  0  0
    5.4975   -3.9210    0.0000 O   0  0  0  0  0  0
    5.2259   -1.3372    0.0000 C   0  0  1  0  0  0
    4.3442   -0.1237    0.0000 N   0  0  0  0  0  0
    4.9543    1.2466    0.0000 C   0  0  0  0  0  0
    6.4461    1.4034    0.0000 O   0  0  0  0  0  0
    4.0727    2.4602    0.0000 C   0  0  1  0  0  0
    2.5809    2.3034    0.0000 N   0  0  0  0  0  0
    1.6992    3.5169    0.0000 C   0  0  0  0  0  0
    2.3093    4.8872    0.0000 O   0  0  0  0  0  0
    0.2074    3.3601    0.0000 C   0  0  2  0  0  0
   -0.5426    2.0611    0.0000 C   0  0  0  0  0  0
   -2.0098    2.3729    0.0000 C   0  0  0  0  0  0
   -2.1666    3.8647    0.0000 C   0  0  0  0  0  0
   -0.7963    4.4748    0.0000 N   0  0  0  0  0  0
   -0.4844    5.9420    0.0000 C   0  0  0  0  0  0
   -1.5991    6.9457    0.0000 C   0  0  0  0  0  0
    0.9422    6.4056    0.0000 C   0  0  0  0  0  0
    4.6828    3.8305    0.0000 C   0  0  0  0  0  0
    6.1745    3.9873    0.0000 C   0  0  0  0  0  0
    6.7846    5.3576    0.0000 C   0  0  0  0  0  0
    5.9030    6.5711    0.0000 C   0  0  0  0  0  0
    4.4112    6.4143    0.0000 C   0  0  0  0  0  0
    3.8011    5.0440    0.0000 C   0  0  0  0  0  0
    6.7177   -1.1804    0.0000 C   0  0  0  0  0  0
    6.5609    0.3114    0.0000 C   0  0  0  0  0  0
    6.8745   -2.6722    0.0000 C   0  0  0  0  0  0
    8.2095   -1.0236    0.0000 C   0  0  0  0  0  0
   -0.7500   -2.3597    0.0000 C   0  0  0  0  0  0
   -1.0105   -3.8369    0.0000 C   0  0  0  0  0  0
   -2.1595   -1.8467    0.0000 C   0  0  0  0  0  0
   -0.0000   -1.0607    0.0000 C   0  0  0  0  0  0
    1.0607    0.0000    0.0000 C   0  0  0  0  0  0
    0.0000    1.0607    0.0000 C   0  0  0  0  0  0
   -1.0607    0.0000    0.0000 C   0  0  0  0  0  0
  1  2  1  0  0  0
  2  3  1  0  0  0
  3  4  1  0  0  0
  3  6  1  0  0  0
  4  5  1  0  0  0
  6  7  2  0  0  0
  6  8  2  0  0  0
  6  9  1  0  0  0
  9 10  1  0  0  0
 10 11  2  0  0  0
 10 12  1  0  0  0
 12 13  1  0  0  0
 12 17  1  0  0  0
 12 14  1  6  0  0
 13 14  1  0  0  0
 14 15  1  6  0  0
 15 16  2  0  0  0
 17 18  1  0  0  0
 18 19  2  0  0  0
 18 20  1  0  0  0
 20 21  1  0  0  0
 20 24  1  1  0  0
 21 22  1  0  0  0
 22 23  1  0  0  0
 22 53  1  0  0  0
 22 56  1  6  0  0
 23 24  1  0  0  0
 24 25  1  0  0  0
 25 26  2  0  0  0
 25 27  1  0  0  0
 27 28  1  0  0  0
 27 49  1  6  0  0
 28 29  1  0  0  0
 29 30  2  0  0  0
 29 31  1  0  0  0
 31 32  1  0  0  0
 31 43  1  6  0  0
 32 33  1  0  0  0
 33 34  2  0  0  0
 33 35  1  0  0  0
 35 36  1  0  0  0
 35 39  1  1  0  0
 36 37  1  0  0  0
 37 38  1  0  0  0
 38 39  1  0  0  0
 39 40  1  0  0  0
 40 41  1  0  0  0
 40 42  1  0  0  0
 43 44  1  0  0  0
 43 48  1  0  0  0
 44 45  1  0  0  0
 45 46  1  0  0  0
 46 47  1  0  0  0
 47 48  1  0  0  0
 49 50  1  0  0  0
 49 51  1  0  0  0
 49 52  1  0  0  0
 53 54  1  0  0  0
 53 55  1  0  0  0
 53 56  1  0  0  0
 56 57  1  0  0  0
 56 59  1  0  0  0
 57 58  1  0  0  0
 58 59  1  0  0  0
M  END
> <s_m_entry_id>
6780

> <s_m_entry_name>
NS3-4A.321

> <CHEMBLID>
CHEMBL3645636

> <s_m_Source_Path>
/home/liwei/Desktop/Machine/HCV/Active

> <s_m_Source_File>
NS3-4A.sdf

> <i_m_Source_File_Index>
321

$$$$
CHEMBL3645637
                    3D
 Structure written by MMmdl.
 58 63  0  0  1  0            999 V2000
   -3.5052  -12.3115    0.0000 C   0  0  0  0  0  0
   -2.2617  -11.4727    0.0000 C   0  0  0  0  0  0
   -0.9135  -12.1302    0.0000 N   0  0  0  0  0  0
   -0.8089  -13.6266    0.0000 C   0  0  0  0  0  0
   -2.0524  -14.4654    0.0000 C   0  0  0  0  0  0
    0.3301  -11.2914    0.0000 S   0  0  0  0  0  0
    1.1689  -12.5350    0.0000 O   0  0  0  0  0  0
   -0.5087  -10.0479    0.0000 O   0  0  0  0  0  0
    1.5736  -10.4526    0.0000 N   0  0  0  0  0  0
    1.4690   -8.9563    0.0000 C   0  0  0  0  0  0
    0.1208   -8.2987    0.0000 O   0  0  0  0  0  0
    2.7125   -8.1175    0.0000 C   0  0  2  0  0  0
    3.7545   -9.1965    0.0000 C   0  0  0  0  0  0
    4.1680   -7.7546    0.0000 C   0  0  1  0  0  0
    5.2470   -6.7126    0.0000 C   0  0  0  0  0  0
    6.6889   -7.1261    0.0000 C   0  0  0  0  0  0
    2.1024   -6.7472    0.0000 N   0  0  0  0  0  0
    2.9841   -5.5337    0.0000 C   0  0  0  0  0  0
    4.4759   -5.6905    0.0000 O   0  0  0  0  0  0
    2.3740   -4.1633    0.0000 C   0  0  2  0  0  0
    0.9068   -3.8515    0.0000 C   0  0  0  0  0  0
    0.7500   -2.3597    0.0000 C   0  0  2  0  0  0
    2.1203   -1.7496    0.0000 C   0  0  0  0  0  0
    3.1240   -2.8643    0.0000 N   0  0  0  0  0  0
    4.6158   -2.7075    0.0000 C   0  0  0  0  0  0
    5.4975   -3.9210    0.0000 O   0  0  0  0  0  0
    5.2259   -1.3372    0.0000 C   0  0  1  0  0  0
    4.3442   -0.1237    0.0000 N   0  0  0  0  0  0
    4.9543    1.2466    0.0000 C   0  0  0  0  0  0
    6.4461    1.4034    0.0000 O   0  0  0  0  0  0
    4.0727    2.4602    0.0000 C   0  0  1  0  0  0
    2.5809    2.3034    0.0000 N   0  0  0  0  0  0
    1.6992    3.5169    0.0000 C   0  0  0  0  0  0
    2.3093    4.8872    0.0000 O   0  0  0  0  0  0
    0.2074    3.3601    0.0000 C   0  0  2  0  0  0
   -0.5426    2.0611    0.0000 C   0  0  0  0  0  0
   -2.0098    2.3729    0.0000 C   0  0  0  0  0  0
   -2.1666    3.8647    0.0000 C   0  0  0  0  0  0
   -0.7963    4.4748    0.0000 N   0  0  0  0  0  0
   -0.4844    5.9420    0.0000 C   0  0  0  0  0  0
   -1.5991    6.9457    0.0000 C   0  0  0  0  0  0
    4.6828    3.8305    0.0000 C   0  0  0  0  0  0
    6.1745    3.9873    0.0000 C   0  0  0  0  0  0
    6.7846    5.3576    0.0000 C   0  0  0  0  0  0
    5.9030    6.5711    0.0000 C   0  0  0  0  0  0
    4.4112    6.4143    0.0000 C   0  0  0  0  0  0
    3.8011    5.0440    0.0000 C   0  0  0  0  0  0
    6.7177   -1.1804    0.0000 C   0  0  0  0  0  0
    6.5609    0.3114    0.0000 C   0  0  0  0  0  0
    6.8745   -2.6722    0.0000 C   0  0  0  0  0  0
    8.2095   -1.0236    0.0000 C   0  0  0  0  0  0
   -0.7500   -2.3597    0.0000 C   0  0  0  0  0  0
   -1.0105   -3.8369    0.0000 C   0  0  0  0  0  0
   -2.1595   -1.8467    0.0000 C   0  0  0  0  0  0
   -0.0000   -1.0607    0.0000 C   0  0  0  0  0  0
    1.0607    0.0000    0.0000 C   0  0  0  0  0  0
    0.0000    1.0607    0.0000 C   0  0  0  0  0  0
   -1.0607    0.0000    0.0000 C   0  0  0  0  0  0
  1  2  1  0  0  0
  2  3  1  0  0  0
  3  4  1  0  0  0
  3  6  1  0  0  0
  4  5  1  0  0  0
  6  7  2  0  0  0
  6  8  2  0  0  0
  6  9  1  0  0  0
  9 10  1  0  0  0
 10 11  2  0  0  0
 10 12  1  0  0  0
 12 13  1  0  0  0
 12 17  1  0  0  0
 12 14  1  6  0  0
 13 14  1  0  0  0
 14 15  1  6  0  0
 15 16  2  0  0  0
 17 18  1  0  0  0
 18 19  2  0  0  0
 18 20  1  0  0  0
 20 21  1  0  0  0
 20 24  1  1  0  0
 21 22  1  0  0  0
 22 23  1  0  0  0
 22 52  1  0  0  0
 22 55  1  6  0  0
 23 24  1  0  0  0
 24 25  1  0  0  0
 25 26  2  0  0  0
 25 27  1  0  0  0
 27 28  1  0  0  0
 27 48  1  6  0  0
 28 29  1  0  0  0
 29 30  2  0  0  0
 29 31  1  0  0  0
 31 32  1  0  0  0
 31 42  1  6  0  0
 32 33  1  0  0  0
 33 34  2  0  0  0
 33 35  1  0  0  0
 35 36  1  0  0  0
 35 39  1  1  0  0
 36 37  1  0  0  0
 37 38  1  0  0  0
 38 39  1  0  0  0
 39 40  1  0  0  0
 40 41  1  0  0  0
 42 43  1  0  0  0
 42 47  1  0  0  0
 43 44  1  0  0  0
 44 45  1  0  0  0
 45 46  1  0  0  0
 46 47  1  0  0  0
 48 49  1  0  0  0
 48 50  1  0  0  0
 48 51  1  0  0  0
 52 53  1  0  0  0
 52 54  1  0  0  0
 52 55  1  0  0  0
 55 56  1  0  0  0
 55 58  1  0  0  0
 56 57  1  0  0  0
 57 58  1  0  0  0
M  END
> <s_m_entry_id>
6781

> <s_m_entry_name>
NS3-4A.322

> <CHEMBLID>
CHEMBL3645637

> <s_m_Source_Path>
/home/liwei/Desktop/Machine/HCV/Active

> <s_m_Source_File>
NS3-4A.sdf

> <i_m_Source_File_Index>
322

$$$$
CHEMBL3645638
                    3D
 Structure written by MMmdl.
 62 68  0  0  1  0            999 V2000
   -3.5052  -12.3115    0.0000 C   0  0  0  0  0  0
   -2.2617  -11.4727    0.0000 C   0  0  0  0  0  0
   -0.9135  -12.1302    0.0000 N   0  0  0  0  0  0
   -0.8089  -13.6266    0.0000 C   0  0  0  0  0  0
   -2.0524  -14.4654    0.0000 C   0  0  0  0  0  0
    0.3301  -11.2914    0.0000 S   0  0  0  0  0  0
    1.1689  -12.5350    0.0000 O   0  0  0  0  0  0
   -0.5087  -10.0479    0.0000 O   0  0  0  0  0  0
    1.5736  -10.4526    0.0000 N   0  0  0  0  0  0
    1.4690   -8.9563    0.0000 C   0  0  0  0  0  0
    0.1208   -8.2987    0.0000 O   0  0  0  0  0  0
    2.7125   -8.1175    0.0000 C   0  0  2  0  0  0
    3.7545   -9.1965    0.0000 C   0  0  0  0  0  0
    4.1680   -7.7546    0.0000 C   0  0  1  0  0  0
    5.2470   -6.7126    0.0000 C   0  0  0  0  0  0
    6.6889   -7.1261    0.0000 C   0  0  0  0  0  0
    2.1024   -6.7472    0.0000 N   0  0  0  0  0  0
    2.9841   -5.5337    0.0000 C   0  0  0  0  0  0
    4.4759   -5.6905    0.0000 O   0  0  0  0  0  0
    2.3740   -4.1633    0.0000 C   0  0  2  0  0  0
    0.9068   -3.8515    0.0000 C   0  0  0  0  0  0
    0.7500   -2.3597    0.0000 C   0  0  2  0  0  0
    2.1203   -1.7496    0.0000 C   0  0  0  0  0  0
    3.1240   -2.8643    0.0000 N   0  0  0  0  0  0
    4.6158   -2.7075    0.0000 C   0  0  0  0  0  0
    5.4975   -3.9210    0.0000 O   0  0  0  0  0  0
    5.2259   -1.3372    0.0000 C   0  0  1  0  0  0
    6.7177   -1.1804    0.0000 N   0  0  0  0  0  0
    7.3278    0.1899    0.0000 C   0  0  0  0  0  0
    6.4461    1.4034    0.0000 O   0  0  0  0  0  0
    8.8196    0.3467    0.0000 C   0  0  1  0  0  0
    9.7013   -0.8668    0.0000 N   0  0  0  0  0  0
   11.1930   -0.7100    0.0000 C   0  0  0  0  0  0
   11.8031    0.6603    0.0000 O   0  0  0  0  0  0
   12.0747   -1.9236    0.0000 C   0  0  2  0  0  0
   13.5665   -1.7668    0.0000 C   0  0  0  0  0  0
   14.4482   -2.9803    0.0000 C   0  0  0  0  0  0
   13.8381   -4.3506    0.0000 C   0  0  0  0  0  0
   12.3463   -4.5074    0.0000 C   0  0  0  0  0  0
   11.4646   -3.2939    0.0000 N   0  0  0  0  0  0
    9.9728   -3.4507    0.0000 C   0  0  0  0  0  0
    8.9691   -2.3359    0.0000 C   0  0  0  0  0  0
    7.5988   -2.9461    0.0000 C   0  0  0  0  0  0
    7.7556   -4.4378    0.0000 C   0  0  0  0  0  0
    9.2228   -4.7497    0.0000 C   0  0  0  0  0  0
    9.4297    1.7170    0.0000 C   0  0  0  0  0  0
    8.5480    2.9305    0.0000 C   0  0  0  0  0  0
    9.1581    4.3009    0.0000 C   0  0  0  0  0  0
   10.6499    4.4577    0.0000 C   0  0  0  0  0  0
   11.5316    3.2441    0.0000 C   0  0  0  0  0  0
   10.9215    1.8738    0.0000 C   0  0  0  0  0  0
    4.3442   -0.1237    0.0000 C   0  0  0  0  0  0
    5.5577    0.7580    0.0000 C   0  0  0  0  0  0
    3.1307   -1.0054    0.0000 C   0  0  0  0  0  0
    3.4625    1.0899    0.0000 C   0  0  0  0  0  0
   -0.7500   -2.3597    0.0000 C   0  0  0  0  0  0
   -1.0105   -3.8369    0.0000 C   0  0  0  0  0  0
   -2.1595   -1.8467    0.0000 C   0  0  0  0  0  0
    0.0000   -1.0607    0.0000 C   0  0  0  0  0  0
    1.0607    0.0000    0.0000 C   0  0  0  0  0  0
    0.0000    1.0607    0.0000 C   0  0  0  0  0  0
   -1.0607    0.0000    0.0000 C   0  0  0  0  0  0
  1  2  1  0  0  0
  2  3  1  0  0  0
  3  4  1  0  0  0
  3  6  1  0  0  0
  4  5  1  0  0  0
  6  7  2  0  0  0
  6  8  2  0  0  0
  6  9  1  0  0  0
  9 10  1  0  0  0
 10 11  2  0  0  0
 10 12  1  0  0  0
 12 13  1  0  0  0
 12 17  1  0  0  0
 12 14  1  6  0  0
 13 14  1  0  0  0
 14 15  1  6  0  0
 15 16  2  0  0  0
 17 18  1  0  0  0
 18 19  2  0  0  0
 18 20  1  0  0  0
 20 21  1  0  0  0
 20 24  1  1  0  0
 21 22  1  0  0  0
 22 23  1  0  0  0
 22 56  1  0  0  0
 22 59  1  6  0  0
 23 24  1  0  0  0
 24 25  1  0  0  0
 25 26  2  0  0  0
 25 27  1  0  0  0
 27 28  1  0  0  0
 27 52  1  6  0  0
 28 29  1  0  0  0
 29 30  2  0  0  0
 29 31  1  0  0  0
 31 32  1  0  0  0
 31 46  1  6  0  0
 32 33  1  0  0  0
 33 34  2  0  0  0
 33 35  1  0  0  0
 35 36  1  0  0  0
 35 40  1  1  0  0
 36 37  1  0  0  0
 37 38  1  0  0  0
 38 39  1  0  0  0
 39 40  1  0  0  0
 40 41  1  0  0  0
 41 42  1  0  0  0
 41 45  1  0  0  0
 42 43  1  0  0  0
 43 44  1  0  0  0
 44 45  1  0  0  0
 46 47  1  0  0  0
 46 51  1  0  0  0
 47 48  1  0  0  0
 48 49  1  0  0  0
 49 50  1  0  0  0
 50 51  1  0  0  0
 52 53  1  0  0  0
 52 54  1  0  0  0
 52 55  1  0  0  0
 56 57  1  0  0  0
 56 58  1  0  0  0
 56 59  1  0  0  0
 59 60  1  0  0  0
 59 62  1  0  0  0
 60 61  1  0  0  0
 61 62  1  0  0  0
M  END
> <s_m_entry_id>
6782

> <s_m_entry_name>
NS3-4A.323

> <CHEMBLID>
CHEMBL3645638

> <s_m_Source_Path>
/home/liwei/Desktop/Machine/HCV/Active

> <s_m_Source_File>
NS3-4A.sdf

> <i_m_Source_File_Index>
323

$$$$
CHEMBL3645639
                    3D
 Structure written by MMmdl.
 60 65  0  0  1  0            999 V2000
   -3.5052  -12.3115    0.0000 C   0  0  0  0  0  0
   -2.2617  -11.4727    0.0000 C   0  0  0  0  0  0
   -0.9135  -12.1302    0.0000 N   0  0  0  0  0  0
   -0.8089  -13.6266    0.0000 C   0  0  0  0  0  0
   -2.0524  -14.4654    0.0000 C   0  0  0  0  0  0
    0.3301  -11.2914    0.0000 S   0  0  0  0  0  0
    1.1689  -12.5350    0.0000 O   0  0  0  0  0  0
   -0.5087  -10.0479    0.0000 O   0  0  0  0  0  0
    1.5736  -10.4526    0.0000 N   0  0  0  0  0  0
    1.4690   -8.9563    0.0000 C   0  0  0  0  0  0
    0.1208   -8.2987    0.0000 O   0  0  0  0  0  0
    2.7125   -8.1175    0.0000 C   0  0  2  0  0  0
    3.7545   -9.1965    0.0000 C   0  0  0  0  0  0
    4.1680   -7.7546    0.0000 C   0  0  1  0  0  0
    5.2470   -6.7126    0.0000 C   0  0  0  0  0  0
    6.6889   -7.1261    0.0000 C   0  0  0  0  0  0
    2.1024   -6.7472    0.0000 N   0  0  0  0  0  0
    2.9841   -5.5337    0.0000 C   0  0  0  0  0  0
    4.4759   -5.6905    0.0000 O   0  0  0  0  0  0
    2.3740   -4.1633    0.0000 C   0  0  2  0  0  0
    0.9068   -3.8515    0.0000 C   0  0  0  0  0  0
    0.7500   -2.3597    0.0000 C   0  0  2  0  0  0
    2.1203   -1.7496    0.0000 C   0  0  0  0  0  0
    3.1240   -2.8643    0.0000 N   0  0  0  0  0  0
    4.6158   -2.7075    0.0000 C   0  0  0  0  0  0
    5.4975   -3.9210    0.0000 O   0  0  0  0  0  0
    5.2259   -1.3372    0.0000 C   0  0  1  0  0  0
    6.7177   -1.1804    0.0000 N   0  0  0  0  0  0
    7.3278    0.1899    0.0000 C   0  0  0  0  0  0
    6.4461    1.4034    0.0000 O   0  0  0  0  0  0
    8.8196    0.3467    0.0000 C   0  0  1  0  0  0
    9.7013   -0.8668    0.0000 N   0  0  0  0  0  0
   11.1930   -0.7100    0.0000 C   0  0  0  0  0  0
   11.8031    0.6603    0.0000 O   0  0  0  0  0  0
   12.0747   -1.9236    0.0000 C   0  0  1  0  0  0
   13.5665   -1.7668    0.0000 C   0  0  0  0  0  0
   14.4482   -2.9803    0.0000 C   0  0  0  0  0  0
   13.8381   -4.3506    0.0000 C   0  0  0  0  0  0
   12.3463   -4.5074    0.0000 C   0  0  0  0  0  0
   11.4646   -3.2939    0.0000 N   0  0  0  0  0  0
    9.9728   -3.4507    0.0000 C   0  0  0  0  0  0
    9.0911   -2.2371    0.0000 C   0  0  0  0  0  0
    9.3627   -4.8210    0.0000 C   0  0  0  0  0  0
    9.4297    1.7170    0.0000 C   0  0  0  0  0  0
    8.5480    2.9305    0.0000 C   0  0  0  0  0  0
    9.1581    4.3009    0.0000 C   0  0  0  0  0  0
   10.6499    4.4577    0.0000 C   0  0  0  0  0  0
   11.5316    3.2441    0.0000 C   0  0  0  0  0  0
   10.9215    1.8738    0.0000 C   0  0  0  0  0  0
    4.3442   -0.1237    0.0000 C   0  0  0  0  0  0
    5.5577    0.7580    0.0000 C   0  0  0  0  0  0
    3.1307   -1.0054    0.0000 C   0  0  0  0  0  0
    3.4625    1.0899    0.0000 C   0  0  0  0  0  0
   -0.7500   -2.3597    0.0000 C   0  0  0  0  0  0
   -1.0105   -3.8369    0.0000 C   0  0  0  0  0  0
   -2.1595   -1.8467    0.0000 C   0  0  0  0  0  0
   -0.0000   -1.0607    0.0000 C   0  0  0  0  0  0
    1.0607    0.0000    0.0000 C   0  0  0  0  0  0
    0.0000    1.0607    0.0000 C   0  0  0  0  0  0
   -1.0607    0.0000    0.0000 C   0  0  0  0  0  0
  1  2  1  0  0  0
  2  3  1  0  0  0
  3  4  1  0  0  0
  3  6  1  0  0  0
  4  5  1  0  0  0
  6  7  2  0  0  0
  6  8  2  0  0  0
  6  9  1  0  0  0
  9 10  1  0  0  0
 10 11  2  0  0  0
 10 12  1  0  0  0
 12 13  1  0  0  0
 12 17  1  0  0  0
 12 14  1  6  0  0
 13 14  1  0  0  0
 14 15  1  6  0  0
 15 16  2  0  0  0
 17 18  1  0  0  0
 18 19  2  0  0  0
 18 20  1  0  0  0
 20 21  1  0  0  0
 20 24  1  1  0  0
 21 22  1  0  0  0
 22 23  1  0  0  0
 22 54  1  0  0  0
 22 57  1  6  0  0
 23 24  1  0  0  0
 24 25  1  0  0  0
 25 26  2  0  0  0
 25 27  1  0  0  0
 27 28  1  0  0  0
 27 50  1  6  0  0
 28 29  1  0  0  0
 29 30  2  0  0  0
 29 31  1  0  0  0
 31 32  1  0  0  0
 31 44  1  6  0  0
 32 33  1  0  0  0
 33 34  2  0  0  0
 33 35  1  0  0  0
 35 36  1  0  0  0
 35 40  1  1  0  0
 36 37  1  0  0  0
 37 38  1  0  0  0
 38 39  1  0  0  0
 39 40  1  0  0  0
 40 41  1  0  0  0
 41 42  1  0  0  0
 41 43  1  0  0  0
 44 45  1  0  0  0
 44 49  1  0  0  0
 45 46  1  0  0  0
 46 47  1  0  0  0
 47 48  1  0  0  0
 48 49  1  0  0  0
 50 51  1  0  0  0
 50 52  1  0  0  0
 50 53  1  0  0  0
 54 55  1  0  0  0
 54 56  1  0  0  0
 54 57  1  0  0  0
 57 58  1  0  0  0
 57 60  1  0  0  0
 58 59  1  0  0  0
 59 60  1  0  0  0
M  END
> <s_m_entry_id>
6783

> <s_m_entry_name>
NS3-4A.324

> <CHEMBLID>
CHEMBL3645639

> <s_m_Source_Path>
/home/liwei/Desktop/Machine/HCV/Active

> <s_m_Source_File>
NS3-4A.sdf

> <i_m_Source_File_Index>
324

$$$$
CHEMBL3645640
                    3D
 Structure written by MMmdl.
 61 68  0  0  1  0            999 V2000
   -8.3400   -5.6496    0.0000 C   0  0  0  0  0  0
   -6.8483   -5.8064    0.0000 C   0  0  0  0  0  0
   -6.2382   -7.1768    0.0000 C   0  0  0  0  0  0
   -5.9666   -4.5929    0.0000 N   0  0  0  0  0  0
   -6.5767   -3.2226    0.0000 C   0  0  0  0  0  0
   -5.6950   -2.0091    0.0000 C   0  0  0  0  0  0
   -4.2032   -2.1659    0.0000 C   0  0  0  0  0  0
   -3.5931   -3.5362    0.0000 C   0  0  0  0  0  0
   -4.4748   -4.7497    0.0000 C   0  0  1  0  0  0
   -3.8647   -6.1200    0.0000 C   0  0  0  0  0  0
   -4.7464   -7.3335    0.0000 O   0  0  0  0  0  0
   -2.3729   -6.2768    0.0000 N   0  0  0  0  0  0
   -1.7628   -7.6471    0.0000 C   0  0  3  0  0  0
   -2.6445   -8.8607    0.0000 C   0  0  0  0  0  0
   -4.1363   -8.7039    0.0000 C   0  0  0  0  0  0
   -5.0179   -9.9174    0.0000 C   0  0  0  0  0  0
   -4.4078  -11.2877    0.0000 C   0  0  0  0  0  0
   -2.9161  -11.4445    0.0000 C   0  0  0  0  0  0
   -2.0344  -10.2310    0.0000 C   0  0  0  0  0  0
   -0.2710   -7.8039    0.0000 C   0  0  0  0  0  0
    0.3391   -9.1742    0.0000 O   0  0  0  0  0  0
    0.6107   -6.5904    0.0000 N   0  0  0  0  0  0
    2.1024   -6.7472    0.0000 C   0  0  3  0  0  0
    2.7125   -8.1175    0.0000 C   0  0  0  0  0  0
    4.1798   -8.4294    0.0000 C   0  0  0  0  0  0
    4.3366   -9.9212    0.0000 C   0  0  0  0  0  0
    2.9662  -10.5313    0.0000 C   0  0  0  0  0  0
    1.9625   -9.4165    0.0000 C   0  0  0  0  0  0
    2.9841   -5.5337    0.0000 C   0  0  0  0  0  0
    4.4759   -5.6905    0.0000 O   0  0  0  0  0  0
    2.3740   -4.1633    0.0000 N   0  0  0  0  0  0
    0.9068   -3.8515    0.0000 C   0  0  0  0  0  0
    0.7500   -2.3597    0.0000 C   0  0  1  0  0  0
    2.1203   -1.7496    0.0000 C   0  0  0  0  0  0
    3.1240   -2.8643    0.0000 C   0  0  1  0  0  0
    4.6158   -2.7075    0.0000 C   0  0  0  0  0  0
    5.2259   -1.3372    0.0000 O   0  0  0  0  0  0
    5.4975   -3.9210    0.0000 N   0  0  0  0  0  0
    6.9893   -3.7643    0.0000 C   0  0  1  0  0  0
    8.3374   -3.1067    0.0000 C   0  0  0  0  0  0
    7.0939   -2.2679    0.0000 C   0  0  1  0  0  0
    6.4363   -0.9197    0.0000 C   0  0  0  0  0  0
    7.2751    0.3238    0.0000 C   0  0  0  0  0  0
    7.4027   -5.2061    0.0000 C   0  0  0  0  0  0
    6.3607   -6.2852    0.0000 O   0  0  0  0  0  0
    8.8582   -5.5690    0.0000 N   0  0  0  0  0  0
    9.2716   -7.0109    0.0000 S   0  0  0  0  0  0
   10.7135   -6.5975    0.0000 O   0  0  0  0  0  0
    7.8297   -7.4244    0.0000 O   0  0  0  0  0  0
    9.6851   -8.4528    0.0000 N   0  0  0  0  0  0
    8.7616   -9.6348    0.0000 C   0  0  0  0  0  0
    9.6004  -10.8784    0.0000 C   0  0  0  0  0  0
   11.0423  -10.4649    0.0000 C   0  0  0  0  0  0
   11.0946   -8.9658    0.0000 C   0  0  0  0  0  0
   -0.7500   -2.3597    0.0000 C   0  0  0  0  0  0
   -1.0105   -3.8369    0.0000 C   0  0  0  0  0  0
   -2.1595   -1.8467    0.0000 C   0  0  0  0  0  0
   -0.0000   -1.0607    0.0000 C   0  0  0  0  0  0
    1.0607    0.0000    0.0000 C   0  0  0  0  0  0
    0.0000    1.0607    0.0000 C   0  0  0  0  0  0
   -1.0607    0.0000    0.0000 C   0  0  0  0  0  0
  1  2  1  0  0  0
  2  3  1  0  0  0
  2  4  1  0  0  0
  4  5  1  0  0  0
  4  9  1  0  0  0
  5  6  1  0  0  0
  6  7  1  0  0  0
  7  8  1  0  0  0
  8  9  1  0  0  0
  9 10  1  6  0  0
 10 11  2  0  0  0
 10 12  1  0  0  0
 12 13  1  0  0  0
 13 14  1  0  0  0
 13 20  1  0  0  0
 14 15  1  0  0  0
 14 19  1  0  0  0
 15 16  1  0  0  0
 16 17  1  0  0  0
 17 18  1  0  0  0
 18 19  1  0  0  0
 20 21  2  0  0  0
 20 22  1  0  0  0
 22 23  1  0  0  0
 23 24  1  0  0  0
 23 29  1  0  0  0
 24 25  1  0  0  0
 24 28  1  0  0  0
 25 26  1  0  0  0
 26 27  1  0  0  0
 27 28  1  0  0  0
 29 30  2  0  0  0
 29 31  1  0  0  0
 31 32  1  0  0  0
 31 35  1  0  0  0
 32 33  1  0  0  0
 33 34  1  0  0  0
 33 55  1  0  0  0
 33 58  1  1  0  0
 34 35  1  0  0  0
 35 36  1  6  0  0
 36 37  2  0  0  0
 36 38  1  0  0  0
 38 39  1  0  0  0
 39 40  1  0  0  0
 39 44  1  0  0  0
 39 41  1  1  0  0
 40 41  1  0  0  0
 41 42  1  6  0  0
 42 43  2  0  0  0
 44 45  2  0  0  0
 44 46  1  0  0  0
 46 47  1  0  0  0
 47 48  2  0  0  0
 47 49  2  0  0  0
 47 50  1  0  0  0
 50 51  1  0  0  0
 50 54  1  0  0  0
 51 52  1  0  0  0
 52 53  1  0  0  0
 53 54  1  0  0  0
 55 56  1  0  0  0
 55 57  1  0  0  0
 55 58  1  0  0  0
 58 59  1  0  0  0
 58 61  1  0  0  0
 59 60  1  0  0  0
 60 61  1  0  0  0
M  END
> <s_m_entry_id>
6784

> <s_m_entry_name>
NS3-4A.325

> <CHEMBLID>
CHEMBL3645640

> <s_m_Source_Path>
/home/liwei/Desktop/Machine/HCV/Active

> <s_m_Source_File>
NS3-4A.sdf

> <i_m_Source_File_Index>
325

$$$$
CHEMBL3645641
                    3D
 Structure written by MMmdl.
 60 66  0  0  1  0            999 V2000
   -8.3400   -5.6496    0.0000 C   0  0  0  0  0  0
   -6.8483   -5.8064    0.0000 C   0  0  0  0  0  0
   -6.2382   -7.1768    0.0000 C   0  0  0  0  0  0
   -5.9666   -4.5929    0.0000 N   0  0  0  0  0  0
   -6.5767   -3.2226    0.0000 C   0  0  0  0  0  0
   -5.6950   -2.0091    0.0000 C   0  0  0  0  0  0
   -4.2032   -2.1659    0.0000 C   0  0  0  0  0  0
   -3.5931   -3.5362    0.0000 C   0  0  0  0  0  0
   -4.4748   -4.7497    0.0000 C   0  0  1  0  0  0
   -3.8647   -6.1200    0.0000 C   0  0  0  0  0  0
   -4.7464   -7.3335    0.0000 O   0  0  0  0  0  0
   -2.3729   -6.2768    0.0000 N   0  0  0  0  0  0
   -1.7628   -7.6471    0.0000 C   0  0  2  0  0  0
   -0.2710   -7.8039    0.0000 C   0  0  0  0  0  0
    0.3391   -9.1742    0.0000 O   0  0  0  0  0  0
    0.6107   -6.5904    0.0000 N   0  0  0  0  0  0
    2.1024   -6.7472    0.0000 C   0  0  1  0  0  0
    2.7125   -8.1175    0.0000 C   0  0  0  0  0  0
    1.8309   -9.3310    0.0000 C   0  0  0  0  0  0
    2.4410  -10.7014    0.0000 C   0  0  0  0  0  0
    3.9328  -10.8581    0.0000 O   0  0  0  0  0  0
    4.8144   -9.6446    0.0000 C   0  0  0  0  0  0
    4.2043   -8.2743    0.0000 C   0  0  0  0  0  0
    2.9841   -5.5337    0.0000 C   0  0  0  0  0  0
    4.4759   -5.6905    0.0000 O   0  0  0  0  0  0
    2.3740   -4.1633    0.0000 N   0  0  0  0  0  0
    0.9068   -3.8515    0.0000 C   0  0  0  0  0  0
    0.7500   -2.3597    0.0000 C   0  0  1  0  0  0
    2.1203   -1.7496    0.0000 C   0  0  0  0  0  0
    3.1240   -2.8643    0.0000 C   0  0  3  0  0  0
    4.6158   -2.7075    0.0000 C   0  0  0  0  0  0
    5.2259   -1.3372    0.0000 O   0  0  0  0  0  0
    5.4975   -3.9210    0.0000 N   0  0  0  0  0  0
    6.9893   -3.7643    0.0000 C   0  0  1  0  0  0
    8.3374   -3.1067    0.0000 C   0  0  0  0  0  0
    7.0939   -2.2679    0.0000 C   0  0  1  0  0  0
    6.4363   -0.9197    0.0000 C   0  0  0  0  0  0
    7.2751    0.3238    0.0000 C   0  0  0  0  0  0
    7.4027   -5.2061    0.0000 C   0  0  0  0  0  0
    6.3607   -6.2852    0.0000 O   0  0  0  0  0  0
    8.8582   -5.5690    0.0000 N   0  0  0  0  0  0
    9.2716   -7.0109    0.0000 S   0  0  0  0  0  0
   10.7135   -6.5975    0.0000 O   0  0  0  0  0  0
    7.8297   -7.4244    0.0000 O   0  0  0  0  0  0
    9.6851   -8.4528    0.0000 N   0  0  0  0  0  0
    8.7616   -9.6348    0.0000 C   0  0  0  0  0  0
    9.6004  -10.8784    0.0000 C   0  0  0  0  0  0
   11.0423  -10.4649    0.0000 C   0  0  0  0  0  0
   11.0946   -8.9658    0.0000 C   0  0  0  0  0  0
   -0.7500   -2.3597    0.0000 C   0  0  0  0  0  0
   -1.0105   -3.8369    0.0000 C   0  0  0  0  0  0
   -2.1595   -1.8467    0.0000 C   0  0  0  0  0  0
   -0.0000   -1.0607    0.0000 C   0  0  0  0  0  0
    1.0607    0.0000    0.0000 C   0  0  0  0  0  0
    0.0000    1.0607    0.0000 C   0  0  0  0  0  0
   -1.0607    0.0000    0.0000 C   0  0  0  0  0  0
   -2.6445   -8.8607    0.0000 C   0  0  0  0  0  0
   -3.8580   -7.9790    0.0000 C   0  0  0  0  0  0
   -1.4310   -9.7423    0.0000 C   0  0  0  0  0  0
   -3.5262  -10.0742    0.0000 C   0  0  0  0  0  0
  1  2  1  0  0  0
  2  3  1  0  0  0
  2  4  1  0  0  0
  4  5  1  0  0  0
  4  9  1  0  0  0
  5  6  1  0  0  0
  6  7  1  0  0  0
  7  8  1  0  0  0
  8  9  1  0  0  0
  9 10  1  6  0  0
 10 11  2  0  0  0
 10 12  1  0  0  0
 12 13  1  0  0  0
 13 14  1  0  0  0
 13 57  1  1  0  0
 14 15  2  0  0  0
 14 16  1  0  0  0
 16 17  1  0  0  0
 17 18  1  0  0  0
 17 24  1  6  0  0
 18 19  1  0  0  0
 18 23  1  0  0  0
 19 20  1  0  0  0
 20 21  1  0  0  0
 21 22  1  0  0  0
 22 23  1  0  0  0
 24 25  2  0  0  0
 24 26  1  0  0  0
 26 27  1  0  0  0
 26 30  1  0  0  0
 27 28  1  0  0  0
 28 29  1  0  0  0
 28 50  1  0  0  0
 28 53  1  1  0  0
 29 30  1  0  0  0
 30 31  1  0  0  0
 31 32  2  0  0  0
 31 33  1  0  0  0
 33 34  1  0  0  0
 34 35  1  0  0  0
 34 39  1  0  0  0
 34 36  1  1  0  0
 35 36  1  0  0  0
 36 37  1  6  0  0
 37 38  2  0  0  0
 39 40  2  0  0  0
 39 41  1  0  0  0
 41 42  1  0  0  0
 42 43  2  0  0  0
 42 44  2  0  0  0
 42 45  1  0  0  0
 45 46  1  0  0  0
 45 49  1  0  0  0
 46 47  1  0  0  0
 47 48  1  0  0  0
 48 49  1  0  0  0
 50 51  1  0  0  0
 50 52  1  0  0  0
 50 53  1  0  0  0
 53 54  1  0  0  0
 53 56  1  0  0  0
 54 55  1  0  0  0
 55 56  1  0  0  0
 57 58  1  0  0  0
 57 59  1  0  0  0
 57 60  1  0  0  0
M  END
> <s_m_entry_id>
6785

> <s_m_entry_name>
NS3-4A.326

> <CHEMBLID>
CHEMBL3645641

> <s_m_Source_Path>
/home/liwei/Desktop/Machine/HCV/Active

> <s_m_Source_File>
NS3-4A.sdf

> <i_m_Source_File_Index>
326

$$$$
CHEMBL3645642
                    3D
 Structure written by MMmdl.
 53 58  0  0  1  0            999 V2000
   -9.7649  -12.0309    0.0000 C   0  0  0  0  0  0
   -8.8832  -10.8173    0.0000 C   0  0  0  0  0  0
   -7.3914  -10.9741    0.0000 C   0  0  0  0  0  0
   -6.5097   -9.7606    0.0000 N   0  0  0  0  0  0
   -5.0179   -9.9174    0.0000 C   0  0  0  0  0  0
   -4.4078  -11.2877    0.0000 O   0  0  0  0  0  0
   -4.1363   -8.7039    0.0000 C   0  0  0  0  0  0
   -4.7464   -7.3335    0.0000 C   0  0  0  0  0  0
   -3.8647   -6.1200    0.0000 C   0  0  0  0  0  0
   -2.3729   -6.2768    0.0000 C   0  0  0  0  0  0
   -1.7628   -7.6471    0.0000 C   0  0  0  0  0  0
   -2.6445   -8.8607    0.0000 C   0  0  0  0  0  0
   -0.2710   -7.8039    0.0000 C   0  0  0  0  0  0
    0.3391   -9.1742    0.0000 O   0  0  0  0  0  0
    0.6107   -6.5904    0.0000 N   0  0  0  0  0  0
    2.1024   -6.7472    0.0000 C   0  0  2  0  0  0
    2.9841   -5.5337    0.0000 C   0  0  0  0  0  0
    4.4759   -5.6905    0.0000 O   0  0  0  0  0  0
    2.3740   -4.1633    0.0000 N   0  0  0  0  0  0
    0.9068   -3.8515    0.0000 C   0  0  0  0  0  0
    0.7500   -2.3597    0.0000 C   0  0  1  0  0  0
    2.1203   -1.7496    0.0000 C   0  0  0  0  0  0
    3.1240   -2.8643    0.0000 C   0  0  3  0  0  0
    4.6158   -2.7075    0.0000 C   0  0  0  0  0  0
    5.2259   -1.3372    0.0000 O   0  0  0  0  0  0
    5.4975   -3.9210    0.0000 N   0  0  0  0  0  0
    6.9893   -3.7643    0.0000 C   0  0  1  0  0  0
    8.3374   -3.1067    0.0000 C   0  0  0  0  0  0
    7.0939   -2.2679    0.0000 C   0  0  1  0  0  0
    6.4363   -0.9197    0.0000 C   0  0  0  0  0  0
    7.2751    0.3238    0.0000 C   0  0  0  0  0  0
    7.4027   -5.2061    0.0000 C   0  0  0  0  0  0
    6.3607   -6.2852    0.0000 O   0  0  0  0  0  0
    8.8582   -5.5690    0.0000 N   0  0  0  0  0  0
    9.2716   -7.0109    0.0000 S   0  0  0  0  0  0
   10.7135   -6.5975    0.0000 O   0  0  0  0  0  0
    7.8297   -7.4244    0.0000 O   0  0  0  0  0  0
    9.6851   -8.4528    0.0000 N   0  0  0  0  0  0
    8.7616   -9.6348    0.0000 C   0  0  0  0  0  0
    9.6004  -10.8784    0.0000 C   0  0  0  0  0  0
   11.0423  -10.4649    0.0000 C   0  0  0  0  0  0
   11.0946   -8.9658    0.0000 C   0  0  0  0  0  0
   -0.7500   -2.3597    0.0000 C   0  0  0  0  0  0
   -1.0105   -3.8369    0.0000 C   0  0  0  0  0  0
   -2.1595   -1.8467    0.0000 C   0  0  0  0  0  0
   -0.0000   -1.0607    0.0000 C   0  0  0  0  0  0
    1.0607    0.0000    0.0000 C   0  0  0  0  0  0
    0.0000    1.0607    0.0000 C   0  0  0  0  0  0
   -1.0607    0.0000    0.0000 C   0  0  0  0  0  0
    2.7125   -8.1175    0.0000 C   0  0  0  0  0  0
    1.3422   -8.7276    0.0000 C   0  0  0  0  0  0
    4.0829   -7.5074    0.0000 C   0  0  0  0  0  0
    3.3227   -9.4878    0.0000 C   0  0  0  0  0  0
  1  2  1  0  0  0
  2  3  1  0  0  0
  3  4  1  0  0  0
  4  5  1  0  0  0
  5  6  2  0  0  0
  5  7  1  0  0  0
  7  8  2  0  0  0
  7 12  1  0  0  0
  8  9  1  0  0  0
  9 10  2  0  0  0
 10 11  1  0  0  0
 11 12  2  0  0  0
 11 13  1  0  0  0
 13 14  2  0  0  0
 13 15  1  0  0  0
 15 16  1  0  0  0
 16 17  1  0  0  0
 16 50  1  1  0  0
 17 18  2  0  0  0
 17 19  1  0  0  0
 19 20  1  0  0  0
 19 23  1  0  0  0
 20 21  1  0  0  0
 21 22  1  0  0  0
 21 43  1  0  0  0
 21 46  1  1  0  0
 22 23  1  0  0  0
 23 24  1  0  0  0
 24 25  2  0  0  0
 24 26  1  0  0  0
 26 27  1  0  0  0
 27 28  1  0  0  0
 27 32  1  0  0  0
 27 29  1  1  0  0
 28 29  1  0  0  0
 29 30  1  6  0  0
 30 31  2  0  0  0
 32 33  2  0  0  0
 32 34  1  0  0  0
 34 35  1  0  0  0
 35 36  2  0  0  0
 35 37  2  0  0  0
 35 38  1  0  0  0
 38 39  1  0  0  0
 38 42  1  0  0  0
 39 40  1  0  0  0
 40 41  1  0  0  0
 41 42  1  0  0  0
 43 44  1  0  0  0
 43 45  1  0  0  0
 43 46  1  0  0  0
 46 47  1  0  0  0
 46 49  1  0  0  0
 47 48  1  0  0  0
 48 49  1  0  0  0
 50 51  1  0  0  0
 50 52  1  0  0  0
 50 53  1  0  0  0
M  END
> <s_m_entry_id>
6786

> <s_m_entry_name>
NS3-4A.327

> <CHEMBLID>
CHEMBL3645642

> <s_m_Source_Path>
/home/liwei/Desktop/Machine/HCV/Active

> <s_m_Source_File>
NS3-4A.sdf

> <i_m_Source_File_Index>
327

$$$$
CHEMBL3645643
                    3D
 Structure written by MMmdl.
 60 66  0  0  1  0            999 V2000
   -8.6786   -1.6955    0.0000 C   0  0  0  0  0  0
   -8.0685   -3.0658    0.0000 N   0  0  0  0  0  0
   -8.9501   -4.2793    0.0000 C   0  0  0  0  0  0
   -6.5767   -3.2226    0.0000 C   0  0  0  0  0  0
   -5.6950   -2.0091    0.0000 C   0  0  0  0  0  0
   -4.2032   -2.1659    0.0000 C   0  0  0  0  0  0
   -3.5931   -3.5362    0.0000 C   0  0  0  0  0  0
   -4.4748   -4.7497    0.0000 C   0  0  0  0  0  0
   -5.9666   -4.5929    0.0000 N   0  0  0  0  0  0
   -3.8647   -6.1200    0.0000 C   0  0  0  0  0  0
   -4.7464   -7.3335    0.0000 O   0  0  0  0  0  0
   -2.3729   -6.2768    0.0000 N   0  0  0  0  0  0
   -1.7628   -7.6471    0.0000 C   0  0  1  0  0  0
   -2.6445   -8.8607    0.0000 C   0  0  0  0  0  0
   -4.1363   -8.7039    0.0000 C   0  0  0  0  0  0
   -5.0179   -9.9174    0.0000 C   0  0  0  0  0  0
   -4.4078  -11.2877    0.0000 C   0  0  0  0  0  0
   -2.9161  -11.4445    0.0000 C   0  0  0  0  0  0
   -2.0344  -10.2310    0.0000 C   0  0  0  0  0  0
   -0.2710   -7.8039    0.0000 C   0  0  0  0  0  0
    0.3391   -9.1742    0.0000 O   0  0  0  0  0  0
    0.6107   -6.5904    0.0000 N   0  0  0  0  0  0
    2.1024   -6.7472    0.0000 C   0  0  2  0  0  0
    2.9841   -5.5337    0.0000 C   0  0  0  0  0  0
    4.4759   -5.6905    0.0000 O   0  0  0  0  0  0
    2.3740   -4.1633    0.0000 N   0  0  0  0  0  0
    0.9068   -3.8515    0.0000 C   0  0  0  0  0  0
    0.7500   -2.3597    0.0000 C   0  0  1  0  0  0
    2.1203   -1.7496    0.0000 C   0  0  0  0  0  0
    3.1240   -2.8643    0.0000 C   0  0  1  0  0  0
    4.6158   -2.7075    0.0000 C   0  0  0  0  0  0
    5.2259   -1.3372    0.0000 O   0  0  0  0  0  0
    5.4975   -3.9210    0.0000 N   0  0  0  0  0  0
    6.9893   -3.7643    0.0000 C   0  0  1  0  0  0
    8.3374   -3.1067    0.0000 C   0  0  0  0  0  0
    7.0939   -2.2679    0.0000 C   0  0  1  0  0  0
    6.4363   -0.9197    0.0000 C   0  0  0  0  0  0
    7.2751    0.3238    0.0000 C   0  0  0  0  0  0
    7.4027   -5.2061    0.0000 C   0  0  0  0  0  0
    6.3607   -6.2852    0.0000 O   0  0  0  0  0  0
    8.8582   -5.5690    0.0000 N   0  0  0  0  0  0
    9.2716   -7.0109    0.0000 S   0  0  0  0  0  0
   10.7135   -6.5975    0.0000 O   0  0  0  0  0  0
    7.8297   -7.4244    0.0000 O   0  0  0  0  0  0
    9.6851   -8.4528    0.0000 N   0  0  0  0  0  0
    8.7616   -9.6348    0.0000 C   0  0  0  0  0  0
    9.6004  -10.8784    0.0000 C   0  0  0  0  0  0
   11.0423  -10.4649    0.0000 C   0  0  0  0  0  0
   11.0946   -8.9658    0.0000 C   0  0  0  0  0  0
   -0.7500   -2.3597    0.0000 C   0  0  0  0  0  0
   -1.0105   -3.8369    0.0000 C   0  0  0  0  0  0
   -2.1595   -1.8467    0.0000 C   0  0  0  0  0  0
   -0.0000   -1.0607    0.0000 C   0  0  0  0  0  0
    1.0607    0.0000    0.0000 C   0  0  0  0  0  0
    0.0000    1.0607    0.0000 C   0  0  0  0  0  0
   -1.0607    0.0000    0.0000 C   0  0  0  0  0  0
    2.7125   -8.1175    0.0000 C   0  0  0  0  0  0
    1.3422   -8.7276    0.0000 C   0  0  0  0  0  0
    4.0829   -7.5074    0.0000 C   0  0  0  0  0  0
    3.3227   -9.4878    0.0000 C   0  0  0  0  0  0
  1  2  1  0  0  0
  2  3  1  0  0  0
  2  4  1  0  0  0
  4  5  2  0  0  0
  4  9  1  0  0  0
  5  6  1  0  0  0
  6  7  2  0  0  0
  7  8  1  0  0  0
  8  9  2  0  0  0
  8 10  1  0  0  0
 10 11  2  0  0  0
 10 12  1  0  0  0
 12 13  1  0  0  0
 13 14  1  0  0  0
 13 20  1  6  0  0
 14 15  1  0  0  0
 14 19  1  0  0  0
 15 16  1  0  0  0
 16 17  1  0  0  0
 17 18  1  0  0  0
 18 19  1  0  0  0
 20 21  2  0  0  0
 20 22  1  0  0  0
 22 23  1  0  0  0
 23 24  1  0  0  0
 23 57  1  1  0  0
 24 25  2  0  0  0
 24 26  1  0  0  0
 26 27  1  0  0  0
 26 30  1  0  0  0
 27 28  1  0  0  0
 28 29  1  0  0  0
 28 50  1  0  0  0
 28 53  1  1  0  0
 29 30  1  0  0  0
 30 31  1  6  0  0
 31 32  2  0  0  0
 31 33  1  0  0  0
 33 34  1  0  0  0
 34 35  1  0  0  0
 34 39  1  0  0  0
 34 36  1  1  0  0
 35 36  1  0  0  0
 36 37  1  6  0  0
 37 38  2  0  0  0
 39 40  2  0  0  0
 39 41  1  0  0  0
 41 42  1  0  0  0
 42 43  2  0  0  0
 42 44  2  0  0  0
 42 45  1  0  0  0
 45 46  1  0  0  0
 45 49  1  0  0  0
 46 47  1  0  0  0
 47 48  1  0  0  0
 48 49  1  0  0  0
 50 51  1  0  0  0
 50 52  1  0  0  0
 50 53  1  0  0  0
 53 54  1  0  0  0
 53 56  1  0  0  0
 54 55  1  0  0  0
 55 56  1  0  0  0
 57 58  1  0  0  0
 57 59  1  0  0  0
 57 60  1  0  0  0
M  END
> <s_m_entry_id>
6787

> <s_m_entry_name>
NS3-4A.328

> <CHEMBLID>
CHEMBL3645643

> <s_m_Source_Path>
/home/liwei/Desktop/Machine/HCV/Active

> <s_m_Source_File>
NS3-4A.sdf

> <i_m_Source_File_Index>
328

$$$$
CHEMBL3645644
                    3D
 Structure written by MMmdl.
 60 66  0  0  1  0            999 V2000
   -8.3400   -5.6496    0.0000 C   0  0  0  0  0  0
   -6.8483   -5.8064    0.0000 N   0  0  0  0  0  0
   -6.2382   -7.1768    0.0000 C   0  0  0  0  0  0
   -5.9666   -4.5929    0.0000 C   0  0  0  0  0  0
   -6.5767   -3.2226    0.0000 N   0  0  0  0  0  0
   -5.6950   -2.0091    0.0000 C   0  0  0  0  0  0
   -4.2032   -2.1659    0.0000 C   0  0  0  0  0  0
   -3.5931   -3.5362    0.0000 C   0  0  0  0  0  0
   -4.4748   -4.7497    0.0000 C   0  0  0  0  0  0
   -3.8647   -6.1200    0.0000 C   0  0  0  0  0  0
   -4.7464   -7.3335    0.0000 O   0  0  0  0  0  0
   -2.3729   -6.2768    0.0000 N   0  0  0  0  0  0
   -1.7628   -7.6471    0.0000 C   0  0  1  0  0  0
   -2.6445   -8.8607    0.0000 C   0  0  0  0  0  0
   -4.1363   -8.7039    0.0000 C   0  0  0  0  0  0
   -5.0179   -9.9174    0.0000 C   0  0  0  0  0  0
   -4.4078  -11.2877    0.0000 C   0  0  0  0  0  0
   -2.9161  -11.4445    0.0000 C   0  0  0  0  0  0
   -2.0344  -10.2310    0.0000 C   0  0  0  0  0  0
   -0.2710   -7.8039    0.0000 C   0  0  0  0  0  0
    0.3391   -9.1742    0.0000 O   0  0  0  0  0  0
    0.6107   -6.5904    0.0000 N   0  0  0  0  0  0
    2.1024   -6.7472    0.0000 C   0  0  2  0  0  0
    2.9841   -5.5337    0.0000 C   0  0  0  0  0  0
    4.4759   -5.6905    0.0000 O   0  0  0  0  0  0
    2.3740   -4.1633    0.0000 N   0  0  0  0  0  0
    0.9068   -3.8515    0.0000 C   0  0  0  0  0  0
    0.7500   -2.3597    0.0000 C   0  0  1  0  0  0
    2.1203   -1.7496    0.0000 C   0  0  0  0  0  0
    3.1240   -2.8643    0.0000 C   0  0  1  0  0  0
    4.6158   -2.7075    0.0000 C   0  0  0  0  0  0
    5.2259   -1.3372    0.0000 O   0  0  0  0  0  0
    5.4975   -3.9210    0.0000 N   0  0  0  0  0  0
    6.9893   -3.7643    0.0000 C   0  0  1  0  0  0
    8.3374   -3.1067    0.0000 C   0  0  0  0  0  0
    7.0939   -2.2679    0.0000 C   0  0  1  0  0  0
    6.4363   -0.9197    0.0000 C   0  0  0  0  0  0
    7.2751    0.3238    0.0000 C   0  0  0  0  0  0
    7.4027   -5.2061    0.0000 C   0  0  0  0  0  0
    6.3607   -6.2852    0.0000 O   0  0  0  0  0  0
    8.8582   -5.5690    0.0000 N   0  0  0  0  0  0
    9.2716   -7.0109    0.0000 S   0  0  0  0  0  0
   10.7135   -6.5975    0.0000 O   0  0  0  0  0  0
    7.8297   -7.4244    0.0000 O   0  0  0  0  0  0
    9.6851   -8.4528    0.0000 N   0  0  0  0  0  0
    8.7616   -9.6348    0.0000 C   0  0  0  0  0  0
    9.6004  -10.8784    0.0000 C   0  0  0  0  0  0
   11.0423  -10.4649    0.0000 C   0  0  0  0  0  0
   11.0946   -8.9658    0.0000 C   0  0  0  0  0  0
   -0.7500   -2.3597    0.0000 C   0  0  0  0  0  0
   -1.0105   -3.8369    0.0000 C   0  0  0  0  0  0
   -2.1595   -1.8467    0.0000 C   0  0  0  0  0  0
   -0.0000   -1.0607    0.0000 C   0  0  0  0  0  0
    1.0607    0.0000    0.0000 C   0  0  0  0  0  0
    0.0000    1.0607    0.0000 C   0  0  0  0  0  0
   -1.0607    0.0000    0.0000 C   0  0  0  0  0  0
    2.7125   -8.1175    0.0000 C   0  0  0  0  0  0
    1.3422   -8.7276    0.0000 C   0  0  0  0  0  0
    4.0829   -7.5074    0.0000 C   0  0  0  0  0  0
    3.3227   -9.4878    0.0000 C   0  0  0  0  0  0
  1  2  1  0  0  0
  2  3  1  0  0  0
  2  4  1  0  0  0
  4  5  2  0  0  0
  4  9  1  0  0  0
  5  6  1  0  0  0
  6  7  2  0  0  0
  7  8  1  0  0  0
  8  9  2  0  0  0
  9 10  1  0  0  0
 10 11  2  0  0  0
 10 12  1  0  0  0
 12 13  1  0  0  0
 13 14  1  0  0  0
 13 20  1  6  0  0
 14 15  1  0  0  0
 14 19  1  0  0  0
 15 16  1  0  0  0
 16 17  1  0  0  0
 17 18  1  0  0  0
 18 19  1  0  0  0
 20 21  2  0  0  0
 20 22  1  0  0  0
 22 23  1  0  0  0
 23 24  1  0  0  0
 23 57  1  1  0  0
 24 25  2  0  0  0
 24 26  1  0  0  0
 26 27  1  0  0  0
 26 30  1  0  0  0
 27 28  1  0  0  0
 28 29  1  0  0  0
 28 50  1  0  0  0
 28 53  1  1  0  0
 29 30  1  0  0  0
 30 31  1  6  0  0
 31 32  2  0  0  0
 31 33  1  0  0  0
 33 34  1  0  0  0
 34 35  1  0  0  0
 34 39  1  0  0  0
 34 36  1  1  0  0
 35 36  1  0  0  0
 36 37  1  6  0  0
 37 38  2  0  0  0
 39 40  2  0  0  0
 39 41  1  0  0  0
 41 42  1  0  0  0
 42 43  2  0  0  0
 42 44  2  0  0  0
 42 45  1  0  0  0
 45 46  1  0  0  0
 45 49  1  0  0  0
 46 47  1  0  0  0
 47 48  1  0  0  0
 48 49  1  0  0  0
 50 51  1  0  0  0
 50 52  1  0  0  0
 50 53  1  0  0  0
 53 54  1  0  0  0
 53 56  1  0  0  0
 54 55  1  0  0  0
 55 56  1  0  0  0
 57 58  1  0  0  0
 57 59  1  0  0  0
 57 60  1  0  0  0
M  END
> <s_m_entry_id>
6788

> <s_m_entry_name>
NS3-4A.329

> <CHEMBLID>
CHEMBL3645644

> <s_m_Source_Path>
/home/liwei/Desktop/Machine/HCV/Active

> <s_m_Source_File>
NS3-4A.sdf

> <i_m_Source_File_Index>
329

$$$$
CHEMBL3645645
                    3D
 Structure written by MMmdl.
 63 70  0  0  1  0            999 V2000
    2.1595   -1.8467    0.0000 C   0  0  0  0  0  0
    0.7500   -2.3597    0.0000 C   0  0  0  0  0  0
    1.0105   -3.8369    0.0000 C   0  0  0  0  0  0
   -0.0000   -1.0607    0.0000 C   0  0  0  0  0  0
    1.0607    0.0000    0.0000 C   0  0  0  0  0  0
    0.0000    1.0607    0.0000 C   0  0  0  0  0  0
   -1.0607    0.0000    0.0000 C   0  0  0  0  0  0
   -0.7500   -2.3597    0.0000 C   0  0  2  0  0  0
   -0.9068   -3.8515    0.0000 C   0  0  0  0  0  0
   -2.3740   -4.1633    0.0000 C   0  0  2  0  0  0
   -3.1240   -2.8643    0.0000 N   0  0  0  0  0  0
   -2.1203   -1.7496    0.0000 C   0  0  0  0  0  0
   -4.6158   -2.7075    0.0000 C   0  0  0  0  0  0
   -5.4975   -3.9210    0.0000 O   0  0  0  0  0  0
   -5.2259   -1.3372    0.0000 C   0  0  1  0  0  0
   -4.3442   -0.1237    0.0000 N   0  0  0  0  0  0
   -4.9543    1.2466    0.0000 C   0  0  0  0  0  0
   -6.4461    1.4034    0.0000 O   0  0  0  0  0  0
   -4.0727    2.4602    0.0000 C   0  0  3  0  0  0
   -2.5809    2.3034    0.0000 N   0  0  0  0  0  0
   -1.6992    3.5169    0.0000 C   0  0  0  0  0  0
   -2.3093    4.8872    0.0000 O   0  0  0  0  0  0
   -0.2074    3.3601    0.0000 C   0  0  2  0  0  0
    0.5426    2.0611    0.0000 C   0  0  0  0  0  0
    2.0098    2.3729    0.0000 C   0  0  0  0  0  0
    2.1666    3.8647    0.0000 C   0  0  0  0  0  0
    0.7963    4.4748    0.0000 N   0  0  0  0  0  0
    0.4844    5.9420    0.0000 C   0  0  0  0  0  0
    1.5991    6.9457    0.0000 C   0  0  0  0  0  0
    2.7139    7.9494    0.0000 F   0  0  0  0  0  0
    0.5954    8.0605    0.0000 F   0  0  0  0  0  0
    2.6028    5.8310    0.0000 F   0  0  0  0  0  0
   -4.6828    3.8305    0.0000 C   0  0  0  0  0  0
   -3.8011    5.0440    0.0000 C   0  0  0  0  0  0
   -4.4112    6.4143    0.0000 C   0  0  0  0  0  0
   -5.9030    6.5711    0.0000 C   0  0  0  0  0  0
   -6.7846    5.3576    0.0000 C   0  0  0  0  0  0
   -6.1745    3.9873    0.0000 C   0  0  0  0  0  0
   -6.7177   -1.1804    0.0000 C   0  0  0  0  0  0
   -7.3278    0.1899    0.0000 C   0  0  0  0  0  0
   -8.8196    0.3467    0.0000 C   0  0  0  0  0  0
   -9.7013   -0.8668    0.0000 O   0  0  0  0  0  0
   -9.0911   -2.2371    0.0000 C   0  0  0  0  0  0
   -7.5994   -2.3939    0.0000 C   0  0  0  0  0  0
   -2.9841   -5.5337    0.0000 C   0  0  0  0  0  0
   -2.1024   -6.7472    0.0000 O   0  0  0  0  0  0
   -4.4759   -5.6905    0.0000 N   0  0  0  0  0  0
   -5.0860   -7.0608    0.0000 C   0  0  1  0  0  0
   -5.1906   -8.5571    0.0000 C   0  0  0  0  0  0
   -3.8425   -7.8996    0.0000 C   0  0  1  0  0  0
   -2.3461   -8.0042    0.0000 C   0  0  0  0  0  0
   -1.6885   -9.3524    0.0000 C   0  0  0  0  0  0
   -6.5415   -6.6979    0.0000 C   0  0  0  0  0  0
   -6.9549   -5.2560    0.0000 O   0  0  0  0  0  0
   -7.5834   -7.7769    0.0000 N   0  0  0  0  0  0
   -9.0389   -7.4140    0.0000 S   0  0  0  0  0  0
   -9.4018   -8.8695    0.0000 O   0  0  0  0  0  0
   -8.6760   -5.9586    0.0000 O   0  0  0  0  0  0
  -10.4943   -7.0511    0.0000 N   0  0  0  0  0  0
  -11.0562   -5.6604    0.0000 C   0  0  0  0  0  0
  -12.5526   -5.7650    0.0000 C   0  0  0  0  0  0
  -12.9155   -7.2204    0.0000 C   0  0  0  0  0  0
  -11.6434   -8.0153    0.0000 C   0  0  0  0  0  0
  1  2  1  0  0  0
  2  3  1  0  0  0
  2  4  1  0  0  0
  2  8  1  0  0  0
  4  5  1  0  0  0
  4  8  1  0  0  0
  4  7  1  0  0  0
  5  6  1  0  0  0
  6  7  1  0  0  0
  8  9  1  0  0  0
  8 12  1  6  0  0
  9 10  1  0  0  0
 10 11  1  0  0  0
 10 45  1  1  0  0
 11 12  1  0  0  0
 11 13  1  0  0  0
 13 14  2  0  0  0
 13 15  1  0  0  0
 15 16  1  0  0  0
 15 39  1  6  0  0
 16 17  1  0  0  0
 17 18  2  0  0  0
 17 19  1  0  0  0
 19 20  1  0  0  0
 19 33  1  0  0  0
 20 21  1  0  0  0
 21 22  2  0  0  0
 21 23  1  0  0  0
 23 24  1  0  0  0
 23 27  1  1  0  0
 24 25  1  0  0  0
 25 26  1  0  0  0
 26 27  1  0  0  0
 27 28  1  0  0  0
 28 29  1  0  0  0
 29 30  1  0  0  0
 29 31  1  0  0  0
 29 32  1  0  0  0
 33 34  1  0  0  0
 33 38  1  0  0  0
 34 35  1  0  0  0
 35 36  1  0  0  0
 36 37  1  0  0  0
 37 38  1  0  0  0
 39 40  1  0  0  0
 39 44  1  0  0  0
 40 41  1  0  0  0
 41 42  1  0  0  0
 42 43  1  0  0  0
 43 44  1  0  0  0
 45 46  2  0  0  0
 45 47  1  0  0  0
 47 48  1  0  0  0
 48 49  1  0  0  0
 48 53  1  0  0  0
 48 50  1  1  0  0
 49 50  1  0  0  0
 50 51  1  6  0  0
 51 52  2  0  0  0
 53 54  2  0  0  0
 53 55  1  0  0  0
 55 56  1  0  0  0
 56 57  2  0  0  0
 56 58  2  0  0  0
 56 59  1  0  0  0
 59 60  1  0  0  0
 59 63  1  0  0  0
 60 61  1  0  0  0
 61 62  1  0  0  0
 62 63  1  0  0  0
M  END
> <s_m_entry_id>
6789

> <s_m_entry_name>
NS3-4A.330

> <CHEMBLID>
CHEMBL3645645

> <s_m_Source_Path>
/home/liwei/Desktop/Machine/HCV/Active

> <s_m_Source_File>
NS3-4A.sdf

> <i_m_Source_File_Index>
330

$$$$
CHEMBL3645646
                    3D
 Structure written by MMmdl.
 62 69  0  0  1  0            999 V2000
    2.1595   -1.8467    0.0000 C   0  0  0  0  0  0
    0.7500   -2.3597    0.0000 C   0  0  0  0  0  0
    1.0105   -3.8369    0.0000 C   0  0  0  0  0  0
   -0.0000   -1.0607    0.0000 C   0  0  0  0  0  0
    1.0607    0.0000    0.0000 C   0  0  0  0  0  0
    0.0000    1.0607    0.0000 C   0  0  0  0  0  0
   -1.0607    0.0000    0.0000 C   0  0  0  0  0  0
   -0.7500   -2.3597    0.0000 C   0  0  2  0  0  0
   -0.9068   -3.8515    0.0000 C   0  0  0  0  0  0
   -2.3740   -4.1633    0.0000 C   0  0  2  0  0  0
   -3.1240   -2.8643    0.0000 N   0  0  0  0  0  0
   -2.1203   -1.7496    0.0000 C   0  0  0  0  0  0
   -4.6158   -2.7075    0.0000 C   0  0  0  0  0  0
   -5.4975   -3.9210    0.0000 O   0  0  0  0  0  0
   -5.2259   -1.3372    0.0000 C   0  0  1  0  0  0
   -4.3442   -0.1237    0.0000 N   0  0  0  0  0  0
   -4.9543    1.2466    0.0000 C   0  0  0  0  0  0
   -6.4461    1.4034    0.0000 O   0  0  0  0  0  0
   -4.0727    2.4602    0.0000 C   0  0  3  0  0  0
   -2.5809    2.3034    0.0000 N   0  0  0  0  0  0
   -1.6992    3.5169    0.0000 C   0  0  0  0  0  0
   -2.3093    4.8872    0.0000 O   0  0  0  0  0  0
   -0.2074    3.3601    0.0000 C   0  0  2  0  0  0
    0.5426    2.0611    0.0000 C   0  0  0  0  0  0
    2.0098    2.3729    0.0000 C   0  0  0  0  0  0
    2.1666    3.8647    0.0000 C   0  0  0  0  0  0
    0.7963    4.4748    0.0000 N   0  0  0  0  0  0
    0.4844    5.9420    0.0000 C   0  0  0  0  0  0
    1.5991    6.9457    0.0000 C   0  0  0  0  0  0
    3.0257    6.4822    0.0000 F   0  0  0  0  0  0
    1.2873    8.4130    0.0000 F   0  0  0  0  0  0
   -4.6828    3.8305    0.0000 C   0  0  0  0  0  0
   -3.8011    5.0440    0.0000 C   0  0  0  0  0  0
   -4.4112    6.4143    0.0000 C   0  0  0  0  0  0
   -5.9030    6.5711    0.0000 C   0  0  0  0  0  0
   -6.7846    5.3576    0.0000 C   0  0  0  0  0  0
   -6.1745    3.9873    0.0000 C   0  0  0  0  0  0
   -6.7177   -1.1804    0.0000 C   0  0  0  0  0  0
   -7.3278    0.1899    0.0000 C   0  0  0  0  0  0
   -8.8196    0.3467    0.0000 C   0  0  0  0  0  0
   -9.7013   -0.8668    0.0000 O   0  0  0  0  0  0
   -9.0911   -2.2371    0.0000 C   0  0  0  0  0  0
   -7.5994   -2.3939    0.0000 C   0  0  0  0  0  0
   -2.9841   -5.5337    0.0000 C   0  0  0  0  0  0
   -2.1024   -6.7472    0.0000 O   0  0  0  0  0  0
   -4.4759   -5.6905    0.0000 N   0  0  0  0  0  0
   -5.0860   -7.0608    0.0000 C   0  0  1  0  0  0
   -5.1906   -8.5571    0.0000 C   0  0  0  0  0  0
   -3.8425   -7.8996    0.0000 C   0  0  1  0  0  0
   -2.3461   -8.0042    0.0000 C   0  0  0  0  0  0
   -1.6885   -9.3524    0.0000 C   0  0  0  0  0  0
   -6.5415   -6.6979    0.0000 C   0  0  0  0  0  0
   -6.9549   -5.2560    0.0000 O   0  0  0  0  0  0
   -7.5834   -7.7769    0.0000 N   0  0  0  0  0  0
   -9.0389   -7.4140    0.0000 S   0  0  0  0  0  0
   -9.4018   -8.8695    0.0000 O   0  0  0  0  0  0
   -8.6760   -5.9586    0.0000 O   0  0  0  0  0  0
  -10.4943   -7.0511    0.0000 N   0  0  0  0  0  0
  -11.0562   -5.6604    0.0000 C   0  0  0  0  0  0
  -12.5526   -5.7650    0.0000 C   0  0  0  0  0  0
  -12.9155   -7.2204    0.0000 C   0  0  0  0  0  0
  -11.6434   -8.0153    0.0000 C   0  0  0  0  0  0
  1  2  1  0  0  0
  2  3  1  0  0  0
  2  4  1  0  0  0
  2  8  1  0  0  0
  4  5  1  0  0  0
  4  8  1  0  0  0
  4  7  1  0  0  0
  5  6  1  0  0  0
  6  7  1  0  0  0
  8  9  1  0  0  0
  8 12  1  6  0  0
  9 10  1  0  0  0
 10 11  1  0  0  0
 10 44  1  1  0  0
 11 12  1  0  0  0
 11 13  1  0  0  0
 13 14  2  0  0  0
 13 15  1  0  0  0
 15 16  1  0  0  0
 15 38  1  6  0  0
 16 17  1  0  0  0
 17 18  2  0  0  0
 17 19  1  0  0  0
 19 20  1  0  0  0
 19 32  1  0  0  0
 20 21  1  0  0  0
 21 22  2  0  0  0
 21 23  1  0  0  0
 23 24  1  0  0  0
 23 27  1  1  0  0
 24 25  1  0  0  0
 25 26  1  0  0  0
 26 27  1  0  0  0
 27 28  1  0  0  0
 28 29  1  0  0  0
 29 30  1  0  0  0
 29 31  1  0  0  0
 32 33  1  0  0  0
 32 37  1  0  0  0
 33 34  1  0  0  0
 34 35  1  0  0  0
 35 36  1  0  0  0
 36 37  1  0  0  0
 38 39  1  0  0  0
 38 43  1  0  0  0
 39 40  1  0  0  0
 40 41  1  0  0  0
 41 42  1  0  0  0
 42 43  1  0  0  0
 44 45  2  0  0  0
 44 46  1  0  0  0
 46 47  1  0  0  0
 47 48  1  0  0  0
 47 52  1  0  0  0
 47 49  1  1  0  0
 48 49  1  0  0  0
 49 50  1  6  0  0
 50 51  2  0  0  0
 52 53  2  0  0  0
 52 54  1  0  0  0
 54 55  1  0  0  0
 55 56  2  0  0  0
 55 57  2  0  0  0
 55 58  1  0  0  0
 58 59  1  0  0  0
 58 62  1  0  0  0
 59 60  1  0  0  0
 60 61  1  0  0  0
 61 62  1  0  0  0
M  END
> <s_m_entry_id>
6790

> <s_m_entry_name>
NS3-4A.331

> <CHEMBLID>
CHEMBL3645646

> <s_m_Source_Path>
/home/liwei/Desktop/Machine/HCV/Active

> <s_m_Source_File>
NS3-4A.sdf

> <i_m_Source_File_Index>
331

$$$$
CHEMBL3645647
                    3D
 Structure written by MMmdl.
 61 68  0  0  1  0            999 V2000
    2.1595   -1.8467    0.0000 C   0  0  0  0  0  0
    0.7500   -2.3597    0.0000 C   0  0  0  0  0  0
    1.0105   -3.8369    0.0000 C   0  0  0  0  0  0
   -0.0000   -1.0607    0.0000 C   0  0  0  0  0  0
    1.0607    0.0000    0.0000 C   0  0  0  0  0  0
    0.0000    1.0607    0.0000 C   0  0  0  0  0  0
   -1.0607    0.0000    0.0000 C   0  0  0  0  0  0
   -0.7500   -2.3597    0.0000 C   0  0  2  0  0  0
   -0.9068   -3.8515    0.0000 C   0  0  0  0  0  0
   -2.3740   -4.1633    0.0000 C   0  0  2  0  0  0
   -3.1240   -2.8643    0.0000 N   0  0  0  0  0  0
   -2.1203   -1.7496    0.0000 C   0  0  0  0  0  0
   -4.6158   -2.7075    0.0000 C   0  0  0  0  0  0
   -5.4975   -3.9210    0.0000 O   0  0  0  0  0  0
   -5.2259   -1.3372    0.0000 C   0  0  1  0  0  0
   -4.3442   -0.1237    0.0000 N   0  0  0  0  0  0
   -4.9543    1.2466    0.0000 C   0  0  0  0  0  0
   -6.4461    1.4034    0.0000 O   0  0  0  0  0  0
   -4.0727    2.4602    0.0000 C   0  0  3  0  0  0
   -2.5809    2.3034    0.0000 N   0  0  0  0  0  0
   -1.6992    3.5169    0.0000 C   0  0  0  0  0  0
   -2.3093    4.8872    0.0000 O   0  0  0  0  0  0
   -0.2074    3.3601    0.0000 C   0  0  2  0  0  0
    0.5426    2.0611    0.0000 C   0  0  0  0  0  0
    2.0098    2.3729    0.0000 C   0  0  0  0  0  0
    2.1666    3.8647    0.0000 C   0  0  0  0  0  0
    0.7963    4.4748    0.0000 N   0  0  0  0  0  0
    0.4844    5.9420    0.0000 C   0  0  0  0  0  0
   -0.9422    6.4056    0.0000 C   0  0  0  0  0  0
   -1.2540    7.8728    0.0000 F   0  0  0  0  0  0
   -4.6828    3.8305    0.0000 C   0  0  0  0  0  0
   -3.8011    5.0440    0.0000 C   0  0  0  0  0  0
   -4.4112    6.4143    0.0000 C   0  0  0  0  0  0
   -5.9030    6.5711    0.0000 C   0  0  0  0  0  0
   -6.7846    5.3576    0.0000 C   0  0  0  0  0  0
   -6.1745    3.9873    0.0000 C   0  0  0  0  0  0
   -6.7177   -1.1804    0.0000 C   0  0  0  0  0  0
   -7.3278    0.1899    0.0000 C   0  0  0  0  0  0
   -8.8196    0.3467    0.0000 C   0  0  0  0  0  0
   -9.7013   -0.8668    0.0000 O   0  0  0  0  0  0
   -9.0911   -2.2371    0.0000 C   0  0  0  0  0  0
   -7.5994   -2.3939    0.0000 C   0  0  0  0  0  0
   -2.9841   -5.5337    0.0000 C   0  0  0  0  0  0
   -2.1024   -6.7472    0.0000 O   0  0  0  0  0  0
   -4.4759   -5.6905    0.0000 N   0  0  0  0  0  0
   -5.0860   -7.0608    0.0000 C   0  0  1  0  0  0
   -5.1906   -8.5571    0.0000 C   0  0  0  0  0  0
   -3.8425   -7.8996    0.0000 C   0  0  1  0  0  0
   -2.3461   -8.0042    0.0000 C   0  0  0  0  0  0
   -1.6885   -9.3524    0.0000 C   0  0  0  0  0  0
   -6.5415   -6.6979    0.0000 C   0  0  0  0  0  0
   -6.9549   -5.2560    0.0000 O   0  0  0  0  0  0
   -7.5834   -7.7769    0.0000 N   0  0  0  0  0  0
   -9.0389   -7.4140    0.0000 S   0  0  0  0  0  0
   -9.4018   -8.8695    0.0000 O   0  0  0  0  0  0
   -8.6760   -5.9586    0.0000 O   0  0  0  0  0  0
  -10.4943   -7.0511    0.0000 N   0  0  0  0  0  0
  -11.0562   -5.6604    0.0000 C   0  0  0  0  0  0
  -12.5526   -5.7650    0.0000 C   0  0  0  0  0  0
  -12.9155   -7.2204    0.0000 C   0  0  0  0  0  0
  -11.6434   -8.0153    0.0000 C   0  0  0  0  0  0
  1  2  1  0  0  0
  2  3  1  0  0  0
  2  4  1  0  0  0
  2  8  1  0  0  0
  4  5  1  0  0  0
  4  8  1  0  0  0
  4  7  1  0  0  0
  5  6  1  0  0  0
  6  7  1  0  0  0
  8  9  1  0  0  0
  8 12  1  6  0  0
  9 10  1  0  0  0
 10 11  1  0  0  0
 10 43  1  1  0  0
 11 12  1  0  0  0
 11 13  1  0  0  0
 13 14  2  0  0  0
 13 15  1  0  0  0
 15 16  1  0  0  0
 15 37  1  6  0  0
 16 17  1  0  0  0
 17 18  2  0  0  0
 17 19  1  0  0  0
 19 20  1  0  0  0
 19 31  1  0  0  0
 20 21  1  0  0  0
 21 22  2  0  0  0
 21 23  1  0  0  0
 23 24  1  0  0  0
 23 27  1  1  0  0
 24 25  1  0  0  0
 25 26  1  0  0  0
 26 27  1  0  0  0
 27 28  1  0  0  0
 28 29  1  0  0  0
 29 30  1  0  0  0
 31 32  1  0  0  0
 31 36  1  0  0  0
 32 33  1  0  0  0
 33 34  1  0  0  0
 34 35  1  0  0  0
 35 36  1  0  0  0
 37 38  1  0  0  0
 37 42  1  0  0  0
 38 39  1  0  0  0
 39 40  1  0  0  0
 40 41  1  0  0  0
 41 42  1  0  0  0
 43 44  2  0  0  0
 43 45  1  0  0  0
 45 46  1  0  0  0
 46 47  1  0  0  0
 46 51  1  0  0  0
 46 48  1  1  0  0
 47 48  1  0  0  0
 48 49  1  6  0  0
 49 50  2  0  0  0
 51 52  2  0  0  0
 51 53  1  0  0  0
 53 54  1  0  0  0
 54 55  2  0  0  0
 54 56  2  0  0  0
 54 57  1  0  0  0
 57 58  1  0  0  0
 57 61  1  0  0  0
 58 59  1  0  0  0
 59 60  1  0  0  0
 60 61  1  0  0  0
M  END
> <s_m_entry_id>
6791

> <s_m_entry_name>
NS3-4A.332

> <CHEMBLID>
CHEMBL3645647

> <s_m_Source_Path>
/home/liwei/Desktop/Machine/HCV/Active

> <s_m_Source_File>
NS3-4A.sdf

> <i_m_Source_File_Index>
332

$$$$
CHEMBL3645648
                    3D
 Structure written by MMmdl.
 63 70  0  0  1  0            999 V2000
    2.1595   -1.8467    0.0000 C   0  0  0  0  0  0
    0.7500   -2.3597    0.0000 C   0  0  0  0  0  0
    1.0105   -3.8369    0.0000 C   0  0  0  0  0  0
   -0.0000   -1.0607    0.0000 C   0  0  0  0  0  0
    1.0607    0.0000    0.0000 C   0  0  0  0  0  0
    0.0000    1.0607    0.0000 C   0  0  0  0  0  0
   -1.0607    0.0000    0.0000 C   0  0  0  0  0  0
   -0.7500   -2.3597    0.0000 C   0  0  2  0  0  0
   -0.9068   -3.8515    0.0000 C   0  0  0  0  0  0
   -2.3740   -4.1633    0.0000 C   0  0  2  0  0  0
   -3.1240   -2.8643    0.0000 N   0  0  0  0  0  0
   -2.1203   -1.7496    0.0000 C   0  0  0  0  0  0
   -4.6158   -2.7075    0.0000 C   0  0  0  0  0  0
   -5.4975   -3.9210    0.0000 O   0  0  0  0  0  0
   -5.2259   -1.3372    0.0000 C   0  0  1  0  0  0
   -4.3442   -0.1237    0.0000 N   0  0  0  0  0  0
   -4.9543    1.2466    0.0000 C   0  0  0  0  0  0
   -6.4461    1.4034    0.0000 O   0  0  0  0  0  0
   -4.0727    2.4602    0.0000 C   0  0  3  0  0  0
   -2.5809    2.3034    0.0000 N   0  0  0  0  0  0
   -1.6992    3.5169    0.0000 C   0  0  0  0  0  0
   -2.3093    4.8872    0.0000 O   0  0  0  0  0  0
   -0.2074    3.3601    0.0000 C   0  0  2  0  0  0
    0.4027    1.9898    0.0000 C   0  0  0  0  0  0
    1.8945    1.8330    0.0000 C   0  0  0  0  0  0
    2.7762    3.0465    0.0000 C   0  0  0  0  0  0
    2.1661    4.4168    0.0000 C   0  0  0  0  0  0
    0.6743    4.5736    0.0000 N   0  0  0  0  0  0
    0.0642    5.9440    0.0000 C   0  0  0  0  0  0
    0.9458    7.1575    0.0000 C   0  0  0  0  0  0
    0.3357    8.5278    0.0000 F   0  0  0  0  0  0
    2.4376    7.0007    0.0000 F   0  0  0  0  0  0
   -4.6828    3.8305    0.0000 C   0  0  0  0  0  0
   -3.8011    5.0440    0.0000 C   0  0  0  0  0  0
   -4.4112    6.4143    0.0000 C   0  0  0  0  0  0
   -5.9030    6.5711    0.0000 C   0  0  0  0  0  0
   -6.7846    5.3576    0.0000 C   0  0  0  0  0  0
   -6.1745    3.9873    0.0000 C   0  0  0  0  0  0
   -6.7177   -1.1804    0.0000 C   0  0  0  0  0  0
   -7.3278    0.1899    0.0000 C   0  0  0  0  0  0
   -8.8196    0.3467    0.0000 C   0  0  0  0  0  0
   -9.7013   -0.8668    0.0000 O   0  0  0  0  0  0
   -9.0911   -2.2371    0.0000 C   0  0  0  0  0  0
   -7.5994   -2.3939    0.0000 C   0  0  0  0  0  0
   -2.9841   -5.5337    0.0000 C   0  0  0  0  0  0
   -2.1024   -6.7472    0.0000 O   0  0  0  0  0  0
   -4.4759   -5.6905    0.0000 N   0  0  0  0  0  0
   -5.0860   -7.0608    0.0000 C   0  0  1  0  0  0
   -5.1906   -8.5571    0.0000 C   0  0  0  0  0  0
   -3.8425   -7.8996    0.0000 C   0  0  1  0  0  0
   -2.3461   -8.0042    0.0000 C   0  0  0  0  0  0
   -1.6885   -9.3524    0.0000 C   0  0  0  0  0  0
   -6.5415   -6.6979    0.0000 C   0  0  0  0  0  0
   -6.9549   -5.2560    0.0000 O   0  0  0  0  0  0
   -7.5834   -7.7769    0.0000 N   0  0  0  0  0  0
   -9.0389   -7.4140    0.0000 S   0  0  0  0  0  0
   -9.4018   -8.8695    0.0000 O   0  0  0  0  0  0
   -8.6760   -5.9586    0.0000 O   0  0  0  0  0  0
  -10.4943   -7.0511    0.0000 N   0  0  0  0  0  0
  -11.0562   -5.6604    0.0000 C   0  0  0  0  0  0
  -12.5526   -5.7650    0.0000 C   0  0  0  0  0  0
  -12.9155   -7.2204    0.0000 C   0  0  0  0  0  0
  -11.6434   -8.0153    0.0000 C   0  0  0  0  0  0
  1  2  1  0  0  0
  2  3  1  0  0  0
  2  4  1  0  0  0
  2  8  1  0  0  0
  4  5  1  0  0  0
  4  8  1  0  0  0
  4  7  1  0  0  0
  5  6  1  0  0  0
  6  7  1  0  0  0
  8  9  1  0  0  0
  8 12  1  6  0  0
  9 10  1  0  0  0
 10 11  1  0  0  0
 10 45  1  1  0  0
 11 12  1  0  0  0
 11 13  1  0  0  0
 13 14  2  0  0  0
 13 15  1  0  0  0
 15 16  1  0  0  0
 15 39  1  6  0  0
 16 17  1  0  0  0
 17 18  2  0  0  0
 17 19  1  0  0  0
 19 20  1  0  0  0
 19 33  1  0  0  0
 20 21  1  0  0  0
 21 22  2  0  0  0
 21 23  1  0  0  0
 23 24  1  0  0  0
 23 28  1  1  0  0
 24 25  1  0  0  0
 25 26  1  0  0  0
 26 27  1  0  0  0
 27 28  1  0  0  0
 28 29  1  0  0  0
 29 30  1  0  0  0
 30 31  1  0  0  0
 30 32  1  0  0  0
 33 34  1  0  0  0
 33 38  1  0  0  0
 34 35  1  0  0  0
 35 36  1  0  0  0
 36 37  1  0  0  0
 37 38  1  0  0  0
 39 40  1  0  0  0
 39 44  1  0  0  0
 40 41  1  0  0  0
 41 42  1  0  0  0
 42 43  1  0  0  0
 43 44  1  0  0  0
 45 46  2  0  0  0
 45 47  1  0  0  0
 47 48  1  0  0  0
 48 49  1  0  0  0
 48 53  1  0  0  0
 48 50  1  1  0  0
 49 50  1  0  0  0
 50 51  1  6  0  0
 51 52  2  0  0  0
 53 54  2  0  0  0
 53 55  1  0  0  0
 55 56  1  0  0  0
 56 57  2  0  0  0
 56 58  2  0  0  0
 56 59  1  0  0  0
 59 60  1  0  0  0
 59 63  1  0  0  0
 60 61  1  0  0  0
 61 62  1  0  0  0
 62 63  1  0  0  0
M  END
> <s_m_entry_id>
6792

> <s_m_entry_name>
NS3-4A.333

> <CHEMBLID>
CHEMBL3645648

> <s_m_Source_Path>
/home/liwei/Desktop/Machine/HCV/Active

> <s_m_Source_File>
NS3-4A.sdf

> <i_m_Source_File_Index>
333

$$$$
CHEMBL3645649
                    3D
 Structure written by MMmdl.
 62 69  0  0  1  0            999 V2000
    2.1595   -1.8467    0.0000 C   0  0  0  0  0  0
    0.7500   -2.3597    0.0000 C   0  0  0  0  0  0
    1.0105   -3.8369    0.0000 C   0  0  0  0  0  0
   -0.0000   -1.0607    0.0000 C   0  0  0  0  0  0
    1.0607    0.0000    0.0000 C   0  0  0  0  0  0
    0.0000    1.0607    0.0000 C   0  0  0  0  0  0
   -1.0607    0.0000    0.0000 C   0  0  0  0  0  0
   -0.7500   -2.3597    0.0000 C   0  0  2  0  0  0
   -0.9068   -3.8515    0.0000 C   0  0  0  0  0  0
   -2.3740   -4.1633    0.0000 C   0  0  2  0  0  0
   -3.1240   -2.8643    0.0000 N   0  0  0  0  0  0
   -2.1203   -1.7496    0.0000 C   0  0  0  0  0  0
   -4.6158   -2.7075    0.0000 C   0  0  0  0  0  0
   -5.4975   -3.9210    0.0000 O   0  0  0  0  0  0
   -5.2259   -1.3372    0.0000 C   0  0  1  0  0  0
   -4.3442   -0.1237    0.0000 N   0  0  0  0  0  0
   -4.9543    1.2466    0.0000 C   0  0  0  0  0  0
   -6.4461    1.4034    0.0000 O   0  0  0  0  0  0
   -4.0727    2.4602    0.0000 C   0  0  3  0  0  0
   -2.5809    2.3034    0.0000 N   0  0  0  0  0  0
   -1.6992    3.5169    0.0000 C   0  0  0  0  0  0
   -2.3093    4.8872    0.0000 O   0  0  0  0  0  0
   -0.2074    3.3601    0.0000 C   0  0  2  0  0  0
    0.4027    1.9898    0.0000 C   0  0  0  0  0  0
    1.8945    1.8330    0.0000 C   0  0  0  0  0  0
    2.7762    3.0465    0.0000 C   0  0  0  0  0  0
    2.1661    4.4168    0.0000 C   0  0  0  0  0  0
    0.6743    4.5736    0.0000 N   0  0  0  0  0  0
    0.0642    5.9440    0.0000 C   0  0  0  0  0  0
    0.9458    7.1575    0.0000 C   0  0  0  0  0  0
    0.3357    8.5278    0.0000 F   0  0  0  0  0  0
   -4.6828    3.8305    0.0000 C   0  0  0  0  0  0
   -3.8011    5.0440    0.0000 C   0  0  0  0  0  0
   -4.4112    6.4143    0.0000 C   0  0  0  0  0  0
   -5.9030    6.5711    0.0000 C   0  0  0  0  0  0
   -6.7846    5.3576    0.0000 C   0  0  0  0  0  0
   -6.1745    3.9873    0.0000 C   0  0  0  0  0  0
   -6.7177   -1.1804    0.0000 C   0  0  0  0  0  0
   -7.3278    0.1899    0.0000 C   0  0  0  0  0  0
   -8.8196    0.3467    0.0000 C   0  0  0  0  0  0
   -9.7013   -0.8668    0.0000 O   0  0  0  0  0  0
   -9.0911   -2.2371    0.0000 C   0  0  0  0  0  0
   -7.5994   -2.3939    0.0000 C   0  0  0  0  0  0
   -2.9841   -5.5337    0.0000 C   0  0  0  0  0  0
   -2.1024   -6.7472    0.0000 O   0  0  0  0  0  0
   -4.4759   -5.6905    0.0000 N   0  0  0  0  0  0
   -5.0860   -7.0608    0.0000 C   0  0  1  0  0  0
   -5.1906   -8.5571    0.0000 C   0  0  0  0  0  0
   -3.8425   -7.8996    0.0000 C   0  0  1  0  0  0
   -2.3461   -8.0042    0.0000 C   0  0  0  0  0  0
   -1.6885   -9.3524    0.0000 C   0  0  0  0  0  0
   -6.5415   -6.6979    0.0000 C   0  0  0  0  0  0
   -6.9549   -5.2560    0.0000 O   0  0  0  0  0  0
   -7.5834   -7.7769    0.0000 N   0  0  0  0  0  0
   -9.0389   -7.4140    0.0000 S   0  0  0  0  0  0
   -9.4018   -8.8695    0.0000 O   0  0  0  0  0  0
   -8.6760   -5.9586    0.0000 O   0  0  0  0  0  0
  -10.4943   -7.0511    0.0000 N   0  0  0  0  0  0
  -11.0562   -5.6604    0.0000 C   0  0  0  0  0  0
  -12.5526   -5.7650    0.0000 C   0  0  0  0  0  0
  -12.9155   -7.2204    0.0000 C   0  0  0  0  0  0
  -11.6434   -8.0153    0.0000 C   0  0  0  0  0  0
  1  2  1  0  0  0
  2  3  1  0  0  0
  2  4  1  0  0  0
  2  8  1  0  0  0
  4  5  1  0  0  0
  4  8  1  0  0  0
  4  7  1  0  0  0
  5  6  1  0  0  0
  6  7  1  0  0  0
  8  9  1  0  0  0
  8 12  1  6  0  0
  9 10  1  0  0  0
 10 11  1  0  0  0
 10 44  1  1  0  0
 11 12  1  0  0  0
 11 13  1  0  0  0
 13 14  2  0  0  0
 13 15  1  0  0  0
 15 16  1  0  0  0
 15 38  1  6  0  0
 16 17  1  0  0  0
 17 18  2  0  0  0
 17 19  1  0  0  0
 19 20  1  0  0  0
 19 32  1  0  0  0
 20 21  1  0  0  0
 21 22  2  0  0  0
 21 23  1  0  0  0
 23 24  1  0  0  0
 23 28  1  1  0  0
 24 25  1  0  0  0
 25 26  1  0  0  0
 26 27  1  0  0  0
 27 28  1  0  0  0
 28 29  1  0  0  0
 29 30  1  0  0  0
 30 31  1  0  0  0
 32 33  1  0  0  0
 32 37  1  0  0  0
 33 34  1  0  0  0
 34 35  1  0  0  0
 35 36  1  0  0  0
 36 37  1  0  0  0
 38 39  1  0  0  0
 38 43  1  0  0  0
 39 40  1  0  0  0
 40 41  1  0  0  0
 41 42  1  0  0  0
 42 43  1  0  0  0
 44 45  2  0  0  0
 44 46  1  0  0  0
 46 47  1  0  0  0
 47 48  1  0  0  0
 47 52  1  0  0  0
 47 49  1  1  0  0
 48 49  1  0  0  0
 49 50  1  6  0  0
 50 51  2  0  0  0
 52 53  2  0  0  0
 52 54  1  0  0  0
 54 55  1  0  0  0
 55 56  2  0  0  0
 55 57  2  0  0  0
 55 58  1  0  0  0
 58 59  1  0  0  0
 58 62  1  0  0  0
 59 60  1  0  0  0
 60 61  1  0  0  0
 61 62  1  0  0  0
M  END
> <s_m_entry_id>
6793

> <s_m_entry_name>
NS3-4A.334

> <CHEMBLID>
CHEMBL3645649

> <s_m_Source_Path>
/home/liwei/Desktop/Machine/HCV/Active

> <s_m_Source_File>
NS3-4A.sdf

> <i_m_Source_File_Index>
334

$$$$
CHEMBL3645650
                    3D
 Structure written by MMmdl.
 59 64  0  0  1  0            999 V2000
   -3.5052  -12.3115    0.0000 C   0  0  0  0  0  0
   -2.2617  -11.4727    0.0000 C   0  0  0  0  0  0
   -0.9135  -12.1302    0.0000 N   0  0  0  0  0  0
   -0.8089  -13.6266    0.0000 C   0  0  0  0  0  0
   -2.0524  -14.4654    0.0000 C   0  0  0  0  0  0
    0.3301  -11.2914    0.0000 S   0  0  0  0  0  0
    1.1689  -12.5350    0.0000 O   0  0  0  0  0  0
   -0.5087  -10.0479    0.0000 O   0  0  0  0  0  0
    1.5736  -10.4526    0.0000 N   0  0  0  0  0  0
    1.4690   -8.9563    0.0000 C   0  0  0  0  0  0
    0.1208   -8.2987    0.0000 O   0  0  0  0  0  0
    2.7125   -8.1175    0.0000 C   0  0  2  0  0  0
    3.7545   -9.1965    0.0000 C   0  0  0  0  0  0
    4.1680   -7.7546    0.0000 C   0  0  1  0  0  0
    5.2470   -6.7126    0.0000 C   0  0  0  0  0  0
    6.6889   -7.1261    0.0000 C   0  0  0  0  0  0
    2.1024   -6.7472    0.0000 N   0  0  0  0  0  0
    2.9841   -5.5337    0.0000 C   0  0  0  0  0  0
    4.4759   -5.6905    0.0000 O   0  0  0  0  0  0
    2.3740   -4.1633    0.0000 C   0  0  2  0  0  0
    0.9068   -3.8515    0.0000 C   0  0  0  0  0  0
    0.7500   -2.3597    0.0000 C   0  0  2  0  0  0
    2.1203   -1.7496    0.0000 C   0  0  0  0  0  0
    3.1240   -2.8643    0.0000 N   0  0  0  0  0  0
    4.6158   -2.7075    0.0000 C   0  0  0  0  0  0
    5.4975   -3.9210    0.0000 O   0  0  0  0  0  0
    5.2259   -1.3372    0.0000 C   0  0  1  0  0  0
    6.7177   -1.1804    0.0000 N   0  0  0  0  0  0
    7.3278    0.1899    0.0000 C   0  0  0  0  0  0
    6.4461    1.4034    0.0000 O   0  0  0  0  0  0
    8.8196    0.3467    0.0000 C   0  0  1  0  0  0
    9.7013   -0.8668    0.0000 N   0  0  0  0  0  0
   11.1930   -0.7100    0.0000 C   0  0  0  0  0  0
   11.8031    0.6603    0.0000 O   0  0  0  0  0  0
   12.0747   -1.9236    0.0000 C   0  0  2  0  0  0
   13.5665   -1.7668    0.0000 C   0  0  0  0  0  0
   14.4482   -2.9803    0.0000 C   0  0  0  0  0  0
   13.8381   -4.3506    0.0000 C   0  0  0  0  0  0
   12.3463   -4.5074    0.0000 C   0  0  0  0  0  0
   11.4646   -3.2939    0.0000 N   0  0  0  0  0  0
    9.9728   -3.4507    0.0000 C   0  0  0  0  0  0
    9.0911   -2.2371    0.0000 C   0  0  0  0  0  0
    9.4297    1.7170    0.0000 C   0  0  0  0  0  0
    8.5480    2.9305    0.0000 C   0  0  0  0  0  0
    9.1581    4.3009    0.0000 C   0  0  0  0  0  0
   10.6499    4.4577    0.0000 C   0  0  0  0  0  0
   11.5316    3.2441    0.0000 C   0  0  0  0  0  0
   10.9215    1.8738    0.0000 C   0  0  0  0  0  0
    4.3442   -0.1237    0.0000 C   0  0  0  0  0  0
    5.5577    0.7580    0.0000 C   0  0  0  0  0  0
    3.1307   -1.0054    0.0000 C   0  0  0  0  0  0
    3.4625    1.0899    0.0000 C   0  0  0  0  0  0
   -0.7500   -2.3597    0.0000 C   0  0  0  0  0  0
   -1.0105   -3.8369    0.0000 C   0  0  0  0  0  0
   -2.1595   -1.8467    0.0000 C   0  0  0  0  0  0
   -0.0000   -1.0607    0.0000 C   0  0  0  0  0  0
    1.0607    0.0000    0.0000 C   0  0  0  0  0  0
    0.0000    1.0607    0.0000 C   0  0  0  0  0  0
   -1.0607    0.0000    0.0000 C   0  0  0  0  0  0
  1  2  1  0  0  0
  2  3  1  0  0  0
  3  4  1  0  0  0
  3  6  1  0  0  0
  4  5  1  0  0  0
  6  7  2  0  0  0
  6  8  2  0  0  0
  6  9  1  0  0  0
  9 10  1  0  0  0
 10 11  2  0  0  0
 10 12  1  0  0  0
 12 13  1  0  0  0
 12 17  1  0  0  0
 12 14  1  6  0  0
 13 14  1  0  0  0
 14 15  1  6  0  0
 15 16  2  0  0  0
 17 18  1  0  0  0
 18 19  2  0  0  0
 18 20  1  0  0  0
 20 21  1  0  0  0
 20 24  1  1  0  0
 21 22  1  0  0  0
 22 23  1  0  0  0
 22 53  1  0  0  0
 22 56  1  6  0  0
 23 24  1  0  0  0
 24 25  1  0  0  0
 25 26  2  0  0  0
 25 27  1  0  0  0
 27 28  1  0  0  0
 27 49  1  6  0  0
 28 29  1  0  0  0
 29 30  2  0  0  0
 29 31  1  0  0  0
 31 32  1  0  0  0
 31 43  1  6  0  0
 32 33  1  0  0  0
 33 34  2  0  0  0
 33 35  1  0  0  0
 35 36  1  0  0  0
 35 40  1  1  0  0
 36 37  1  0  0  0
 37 38  1  0  0  0
 38 39  1  0  0  0
 39 40  1  0  0  0
 40 41  1  0  0  0
 41 42  1  0  0  0
 43 44  1  0  0  0
 43 48  1  0  0  0
 44 45  1  0  0  0
 45 46  1  0  0  0
 46 47  1  0  0  0
 47 48  1  0  0  0
 49 50  1  0  0  0
 49 51  1  0  0  0
 49 52  1  0  0  0
 53 54  1  0  0  0
 53 55  1  0  0  0
 53 56  1  0  0  0
 56 57  1  0  0  0
 56 59  1  0  0  0
 57 58  1  0  0  0
 58 59  1  0  0  0
M  END
> <s_m_entry_id>
6794

> <s_m_entry_name>
NS3-4A.335

> <CHEMBLID>
CHEMBL3645650

> <s_m_Source_Path>
/home/liwei/Desktop/Machine/HCV/Active

> <s_m_Source_File>
NS3-4A.sdf

> <i_m_Source_File_Index>
335

$$$$
CHEMBL3645651
                    3D
 Structure written by MMmdl.
 48 53  0  0  1  0            999 V2000
    1.3422   -8.7276    0.0000 C   0  0  0  0  0  0
    2.7125   -8.1175    0.0000 C   0  0  0  0  0  0
    4.0829   -7.5074    0.0000 C   0  0  0  0  0  0
    3.3227   -9.4878    0.0000 C   0  0  0  0  0  0
    2.1024   -6.7472    0.0000 C   0  0  2  0  0  0
    0.6107   -6.5904    0.0000 N   0  0  0  0  0  0
   -0.2710   -7.8039    0.0000 C   0  0  0  0  0  0
    0.3391   -9.1742    0.0000 O   0  0  0  0  0  0
   -1.7628   -7.6471    0.0000 C   0  0  3  0  0  0
   -2.3729   -6.2768    0.0000 C   0  0  0  0  0  0
   -3.8647   -6.1200    0.0000 C   0  0  0  0  0  0
   -4.7464   -7.3335    0.0000 C   0  0  0  0  0  0
   -4.1363   -8.7039    0.0000 N   0  0  0  0  0  0
   -2.6445   -8.8607    0.0000 C   0  0  0  0  0  0
   -2.0344  -10.2310    0.0000 O   0  0  0  0  0  0
    2.9841   -5.5337    0.0000 C   0  0  0  0  0  0
    4.4759   -5.6905    0.0000 O   0  0  0  0  0  0
    2.3740   -4.1633    0.0000 N   0  0  0  0  0  0
    0.9068   -3.8515    0.0000 C   0  0  0  0  0  0
    0.7500   -2.3597    0.0000 C   0  0  1  0  0  0
    2.1203   -1.7496    0.0000 C   0  0  0  0  0  0
    3.1240   -2.8643    0.0000 C   0  0  3  0  0  0
    4.6158   -2.7075    0.0000 C   0  0  0  0  0  0
    5.2259   -1.3372    0.0000 O   0  0  0  0  0  0
    5.4975   -3.9210    0.0000 N   0  0  0  0  0  0
    6.9893   -3.7643    0.0000 C   0  0  1  0  0  0
    8.3374   -3.1067    0.0000 C   0  0  0  0  0  0
    7.0939   -2.2679    0.0000 C   0  0  1  0  0  0
    6.4363   -0.9197    0.0000 C   0  0  0  0  0  0
    7.2751    0.3238    0.0000 C   0  0  0  0  0  0
    7.4027   -5.2061    0.0000 C   0  0  0  0  0  0
    6.3607   -6.2852    0.0000 O   0  0  0  0  0  0
    8.8582   -5.5690    0.0000 N   0  0  0  0  0  0
    9.2716   -7.0109    0.0000 S   0  0  0  0  0  0
   10.7135   -6.5975    0.0000 O   0  0  0  0  0  0
    7.8297   -7.4244    0.0000 O   0  0  0  0  0  0
    9.6851   -8.4528    0.0000 N   0  0  0  0  0  0
    8.7616   -9.6348    0.0000 C   0  0  0  0  0  0
    9.6004  -10.8784    0.0000 C   0  0  0  0  0  0
   11.0423  -10.4649    0.0000 C   0  0  0  0  0  0
   11.0946   -8.9658    0.0000 C   0  0  0  0  0  0
   -0.7500   -2.3597    0.0000 C   0  0  0  0  0  0
   -1.0105   -3.8369    0.0000 C   0  0  0  0  0  0
   -2.1595   -1.8467    0.0000 C   0  0  0  0  0  0
   -0.0000   -1.0607    0.0000 C   0  0  0  0  0  0
    1.0607    0.0000    0.0000 C   0  0  0  0  0  0
    0.0000    1.0607    0.0000 C   0  0  0  0  0  0
   -1.0607    0.0000    0.0000 C   0  0  0  0  0  0
  1  2  1  0  0  0
  2  3  1  0  0  0
  2  4  1  0  0  0
  2  5  1  0  0  0
  5  6  1  0  0  0
  5 16  1  1  0  0
  6  7  1  0  0  0
  7  8  2  0  0  0
  7  9  1  0  0  0
  9 10  1  0  0  0
  9 14  1  0  0  0
 10 11  1  0  0  0
 11 12  1  0  0  0
 12 13  1  0  0  0
 13 14  1  0  0  0
 14 15  2  0  0  0
 16 17  2  0  0  0
 16 18  1  0  0  0
 18 19  1  0  0  0
 18 22  1  0  0  0
 19 20  1  0  0  0
 20 21  1  0  0  0
 20 42  1  0  0  0
 20 45  1  1  0  0
 21 22  1  0  0  0
 22 23  1  0  0  0
 23 24  2  0  0  0
 23 25  1  0  0  0
 25 26  1  0  0  0
 26 27  1  0  0  0
 26 31  1  0  0  0
 26 28  1  1  0  0
 27 28  1  0  0  0
 28 29  1  6  0  0
 29 30  2  0  0  0
 31 32  2  0  0  0
 31 33  1  0  0  0
 33 34  1  0  0  0
 34 35  2  0  0  0
 34 36  2  0  0  0
 34 37  1  0  0  0
 37 38  1  0  0  0
 37 41  1  0  0  0
 38 39  1  0  0  0
 39 40  1  0  0  0
 40 41  1  0  0  0
 42 43  1  0  0  0
 42 44  1  0  0  0
 42 45  1  0  0  0
 45 46  1  0  0  0
 45 48  1  0  0  0
 46 47  1  0  0  0
 47 48  1  0  0  0
M  END
> <s_m_entry_id>
6795

> <s_m_entry_name>
NS3-4A.336

> <CHEMBLID>
CHEMBL3645651

> <s_m_Source_Path>
/home/liwei/Desktop/Machine/HCV/Active

> <s_m_Source_File>
NS3-4A.sdf

> <i_m_Source_File_Index>
336

$$$$
CHEMBL3645652
                    3D
 Structure written by MMmdl.
 59 64  0  0  1  0            999 V2000
   -3.5052  -12.3115    0.0000 C   0  0  0  0  0  0
   -2.2617  -11.4727    0.0000 C   0  0  0  0  0  0
   -0.9135  -12.1302    0.0000 N   0  0  0  0  0  0
   -0.8089  -13.6266    0.0000 C   0  0  0  0  0  0
   -2.0524  -14.4654    0.0000 C   0  0  0  0  0  0
    0.3301  -11.2914    0.0000 S   0  0  0  0  0  0
    1.1689  -12.5350    0.0000 O   0  0  0  0  0  0
   -0.5087  -10.0479    0.0000 O   0  0  0  0  0  0
    1.5736  -10.4526    0.0000 N   0  0  0  0  0  0
    1.4690   -8.9563    0.0000 C   0  0  0  0  0  0
    0.1208   -8.2987    0.0000 O   0  0  0  0  0  0
    2.7125   -8.1175    0.0000 C   0  0  2  0  0  0
    3.7545   -9.1965    0.0000 C   0  0  0  0  0  0
    4.1680   -7.7546    0.0000 C   0  0  1  0  0  0
    5.2470   -6.7126    0.0000 C   0  0  0  0  0  0
    6.6889   -7.1261    0.0000 C   0  0  0  0  0  0
    2.1024   -6.7472    0.0000 N   0  0  0  0  0  0
    2.9841   -5.5337    0.0000 C   0  0  0  0  0  0
    4.4759   -5.6905    0.0000 O   0  0  0  0  0  0
    2.3740   -4.1633    0.0000 C   0  0  2  0  0  0
    0.9068   -3.8515    0.0000 C   0  0  0  0  0  0
    0.7500   -2.3597    0.0000 C   0  0  2  0  0  0
    2.1203   -1.7496    0.0000 C   0  0  0  0  0  0
    3.1240   -2.8643    0.0000 N   0  0  0  0  0  0
    4.6158   -2.7075    0.0000 C   0  0  0  0  0  0
    5.4975   -3.9210    0.0000 O   0  0  0  0  0  0
    5.2259   -1.3372    0.0000 C   0  0  1  0  0  0
    6.7177   -1.1804    0.0000 N   0  0  0  0  0  0
    7.3278    0.1899    0.0000 C   0  0  0  0  0  0
    6.4461    1.4034    0.0000 O   0  0  0  0  0  0
    8.8196    0.3467    0.0000 C   0  0  1  0  0  0
    9.7013   -0.8668    0.0000 N   0  0  0  0  0  0
   11.1930   -0.7100    0.0000 C   0  0  0  0  0  0
   11.8031    0.6603    0.0000 O   0  0  0  0  0  0
   12.0747   -1.9236    0.0000 C   0  0  2  0  0  0
   13.5665   -1.7668    0.0000 C   0  0  0  0  0  0
   14.4482   -2.9803    0.0000 C   0  0  0  0  0  0
   13.8381   -4.3506    0.0000 C   0  0  0  0  0  0
   12.3463   -4.5074    0.0000 C   0  0  0  0  0  0
   11.4646   -3.2939    0.0000 N   0  0  0  0  0  0
    9.9728   -3.4507    0.0000 C   0  0  0  0  0  0
    9.0911   -2.2371    0.0000 C   0  0  0  0  0  0
    9.3627   -4.8210    0.0000 C   0  0  0  0  0  0
    9.4297    1.7170    0.0000 C   0  0  0  0  0  0
   10.8969    2.0289    0.0000 C   0  0  0  0  0  0
   11.0537    3.5207    0.0000 C   0  0  0  0  0  0
    9.6834    4.1308    0.0000 C   0  0  0  0  0  0
    8.6797    3.0161    0.0000 C   0  0  0  0  0  0
    4.3442   -0.1237    0.0000 C   0  0  0  0  0  0
    5.5577    0.7580    0.0000 C   0  0  0  0  0  0
    3.1307   -1.0054    0.0000 C   0  0  0  0  0  0
    3.4625    1.0899    0.0000 C   0  0  0  0  0  0
   -0.7500   -2.3597    0.0000 C   0  0  0  0  0  0
   -1.0105   -3.8369    0.0000 C   0  0  0  0  0  0
   -2.1595   -1.8467    0.0000 C   0  0  0  0  0  0
   -0.0000   -1.0607    0.0000 C   0  0  0  0  0  0
    1.0607    0.0000    0.0000 C   0  0  0  0  0  0
    0.0000    1.0607    0.0000 C   0  0  0  0  0  0
   -1.0607    0.0000    0.0000 C   0  0  0  0  0  0
  1  2  1  0  0  0
  2  3  1  0  0  0
  3  4  1  0  0  0
  3  6  1  0  0  0
  4  5  1  0  0  0
  6  7  2  0  0  0
  6  8  2  0  0  0
  6  9  1  0  0  0
  9 10  1  0  0  0
 10 11  2  0  0  0
 10 12  1  0  0  0
 12 13  1  0  0  0
 12 17  1  0  0  0
 12 14  1  6  0  0
 13 14  1  0  0  0
 14 15  1  6  0  0
 15 16  2  0  0  0
 17 18  1  0  0  0
 18 19  2  0  0  0
 18 20  1  0  0  0
 20 21  1  0  0  0
 20 24  1  1  0  0
 21 22  1  0  0  0
 22 23  1  0  0  0
 22 53  1  0  0  0
 22 56  1  6  0  0
 23 24  1  0  0  0
 24 25  1  0  0  0
 25 26  2  0  0  0
 25 27  1  0  0  0
 27 28  1  0  0  0
 27 49  1  6  0  0
 28 29  1  0  0  0
 29 30  2  0  0  0
 29 31  1  0  0  0
 31 32  1  0  0  0
 31 44  1  6  0  0
 32 33  1  0  0  0
 33 34  2  0  0  0
 33 35  1  0  0  0
 35 36  1  0  0  0
 35 40  1  1  0  0
 36 37  1  0  0  0
 37 38  1  0  0  0
 38 39  1  0  0  0
 39 40  1  0  0  0
 40 41  1  0  0  0
 41 42  1  0  0  0
 41 43  1  0  0  0
 44 45  1  0  0  0
 44 48  1  0  0  0
 45 46  1  0  0  0
 46 47  1  0  0  0
 47 48  1  0  0  0
 49 50  1  0  0  0
 49 51  1  0  0  0
 49 52  1  0  0  0
 53 54  1  0  0  0
 53 55  1  0  0  0
 53 56  1  0  0  0
 56 57  1  0  0  0
 56 59  1  0  0  0
 57 58  1  0  0  0
 58 59  1  0  0  0
M  END
> <s_m_entry_id>
6796

> <s_m_entry_name>
NS3-4A.337

> <CHEMBLID>
CHEMBL3645652

> <s_m_Source_Path>
/home/liwei/Desktop/Machine/HCV/Active

> <s_m_Source_File>
NS3-4A.sdf

> <i_m_Source_File_Index>
337

$$$$
CHEMBL3645653
                    3D
 Structure written by MMmdl.
 61 67  0  0  1  0            999 V2000
   -3.5052  -12.3115    0.0000 C   0  0  0  0  0  0
   -2.2617  -11.4727    0.0000 C   0  0  0  0  0  0
   -0.9135  -12.1302    0.0000 N   0  0  0  0  0  0
   -0.8089  -13.6266    0.0000 C   0  0  0  0  0  0
   -2.0524  -14.4654    0.0000 C   0  0  0  0  0  0
    0.3301  -11.2914    0.0000 S   0  0  0  0  0  0
    1.1689  -12.5350    0.0000 O   0  0  0  0  0  0
   -0.5087  -10.0479    0.0000 O   0  0  0  0  0  0
    1.5736  -10.4526    0.0000 N   0  0  0  0  0  0
    1.4690   -8.9563    0.0000 C   0  0  0  0  0  0
    0.1208   -8.2987    0.0000 O   0  0  0  0  0  0
    2.7125   -8.1175    0.0000 C   0  0  2  0  0  0
    3.7545   -9.1965    0.0000 C   0  0  0  0  0  0
    4.1680   -7.7546    0.0000 C   0  0  1  0  0  0
    5.2470   -6.7126    0.0000 C   0  0  0  0  0  0
    6.6889   -7.1261    0.0000 C   0  0  0  0  0  0
    2.1024   -6.7472    0.0000 N   0  0  0  0  0  0
    2.9841   -5.5337    0.0000 C   0  0  0  0  0  0
    4.4759   -5.6905    0.0000 O   0  0  0  0  0  0
    2.3740   -4.1633    0.0000 C   0  0  2  0  0  0
    0.9068   -3.8515    0.0000 C   0  0  0  0  0  0
    0.7500   -2.3597    0.0000 C   0  0  2  0  0  0
    2.1203   -1.7496    0.0000 C   0  0  0  0  0  0
    3.1240   -2.8643    0.0000 N   0  0  0  0  0  0
    4.6158   -2.7075    0.0000 C   0  0  0  0  0  0
    5.4975   -3.9210    0.0000 O   0  0  0  0  0  0
    5.2259   -1.3372    0.0000 C   0  0  3  0  0  0
    6.7177   -1.1804    0.0000 N   0  0  0  0  0  0
    7.3278    0.1899    0.0000 C   0  0  0  0  0  0
    6.4461    1.4034    0.0000 O   0  0  0  0  0  0
    8.8196    0.3467    0.0000 C   0  0  3  0  0  0
    9.7013   -0.8668    0.0000 N   0  0  0  0  0  0
   11.1930   -0.7100    0.0000 C   0  0  0  0  0  0
   11.8031    0.6603    0.0000 O   0  0  0  0  0  0
   12.0747   -1.9236    0.0000 C   0  0  2  0  0  0
   13.5665   -1.7668    0.0000 C   0  0  0  0  0  0
   14.4482   -2.9803    0.0000 C   0  0  0  0  0  0
   13.8381   -4.3506    0.0000 C   0  0  0  0  0  0
   12.3463   -4.5074    0.0000 C   0  0  0  0  0  0
   11.4646   -3.2939    0.0000 N   0  0  0  0  0  0
    9.9728   -3.4507    0.0000 C   0  0  0  0  0  0
    9.0911   -2.2371    0.0000 C   0  0  0  0  0  0
    9.3627   -4.8210    0.0000 C   0  0  0  0  0  0
    9.4297    1.7170    0.0000 C   0  0  0  0  0  0
    8.5480    2.9305    0.0000 C   0  0  0  0  0  0
    9.1581    4.3009    0.0000 C   0  0  0  0  0  0
   10.6499    4.4577    0.0000 C   0  0  0  0  0  0
   11.5316    3.2441    0.0000 C   0  0  0  0  0  0
   10.9215    1.8738    0.0000 C   0  0  0  0  0  0
    4.3442   -0.1237    0.0000 C   0  0  0  0  0  0
    4.8077    1.3029    0.0000 C   0  0  0  0  0  0
    3.5942    2.1846    0.0000 C   0  0  0  0  0  0
    2.3807    1.3029    0.0000 C   0  0  0  0  0  0
    2.8442   -0.1237    0.0000 C   0  0  0  0  0  0
   -0.7500   -2.3597    0.0000 C   0  0  0  0  0  0
   -1.0105   -3.8369    0.0000 C   0  0  0  0  0  0
   -2.1595   -1.8467    0.0000 C   0  0  0  0  0  0
   -0.0000   -1.0607    0.0000 C   0  0  0  0  0  0
    1.0607    0.0000    0.0000 C   0  0  0  0  0  0
    0.0000    1.0607    0.0000 C   0  0  0  0  0  0
   -1.0607    0.0000    0.0000 C   0  0  0  0  0  0
  1  2  1  0  0  0
  2  3  1  0  0  0
  3  4  1  0  0  0
  3  6  1  0  0  0
  4  5  1  0  0  0
  6  7  2  0  0  0
  6  8  2  0  0  0
  6  9  1  0  0  0
  9 10  1  0  0  0
 10 11  2  0  0  0
 10 12  1  0  0  0
 12 13  1  0  0  0
 12 17  1  0  0  0
 12 14  1  6  0  0
 13 14  1  0  0  0
 14 15  1  6  0  0
 15 16  2  0  0  0
 17 18  1  0  0  0
 18 19  2  0  0  0
 18 20  1  0  0  0
 20 21  1  0  0  0
 20 24  1  1  0  0
 21 22  1  0  0  0
 22 23  1  0  0  0
 22 55  1  0  0  0
 22 58  1  6  0  0
 23 24  1  0  0  0
 24 25  1  0  0  0
 25 26  2  0  0  0
 25 27  1  0  0  0
 27 28  1  0  0  0
 27 50  1  0  0  0
 28 29  1  0  0  0
 29 30  2  0  0  0
 29 31  1  0  0  0
 31 32  1  0  0  0
 31 44  1  0  0  0
 32 33  1  0  0  0
 33 34  2  0  0  0
 33 35  1  0  0  0
 35 36  1  0  0  0
 35 40  1  1  0  0
 36 37  1  0  0  0
 37 38  1  0  0  0
 38 39  1  0  0  0
 39 40  1  0  0  0
 40 41  1  0  0  0
 41 42  1  0  0  0
 41 43  1  0  0  0
 44 45  1  0  0  0
 44 49  1  0  0  0
 45 46  1  0  0  0
 46 47  1  0  0  0
 47 48  1  0  0  0
 48 49  1  0  0  0
 50 51  1  0  0  0
 50 54  1  0  0  0
 51 52  1  0  0  0
 52 53  1  0  0  0
 53 54  1  0  0  0
 55 56  1  0  0  0
 55 57  1  0  0  0
 55 58  1  0  0  0
 58 59  1  0  0  0
 58 61  1  0  0  0
 59 60  1  0  0  0
 60 61  1  0  0  0
M  END
> <s_m_entry_id>
6797

> <s_m_entry_name>
NS3-4A.338

> <CHEMBLID>
CHEMBL3645653

> <s_m_Source_Path>
/home/liwei/Desktop/Machine/HCV/Active

> <s_m_Source_File>
NS3-4A.sdf

> <i_m_Source_File_Index>
338

$$$$
CHEMBL3645654
                    3D
 Structure written by MMmdl.
 58 63  0  0  1  0            999 V2000
   -3.5052  -12.3115    0.0000 C   0  0  0  0  0  0
   -2.2617  -11.4727    0.0000 C   0  0  0  0  0  0
   -0.9135  -12.1302    0.0000 N   0  0  0  0  0  0
   -0.8089  -13.6266    0.0000 C   0  0  0  0  0  0
   -2.0524  -14.4654    0.0000 C   0  0  0  0  0  0
    0.3301  -11.2914    0.0000 S   0  0  0  0  0  0
    1.1689  -12.5350    0.0000 O   0  0  0  0  0  0
   -0.5087  -10.0479    0.0000 O   0  0  0  0  0  0
    1.5736  -10.4526    0.0000 N   0  0  0  0  0  0
    1.4690   -8.9563    0.0000 C   0  0  0  0  0  0
    0.1208   -8.2987    0.0000 O   0  0  0  0  0  0
    2.7125   -8.1175    0.0000 C   0  0  2  0  0  0
    3.7545   -9.1965    0.0000 C   0  0  0  0  0  0
    4.1680   -7.7546    0.0000 C   0  0  1  0  0  0
    5.2470   -6.7126    0.0000 C   0  0  0  0  0  0
    6.6889   -7.1261    0.0000 C   0  0  0  0  0  0
    2.1024   -6.7472    0.0000 N   0  0  0  0  0  0
    2.9841   -5.5337    0.0000 C   0  0  0  0  0  0
    4.4759   -5.6905    0.0000 O   0  0  0  0  0  0
    2.3740   -4.1633    0.0000 C   0  0  2  0  0  0
    0.9068   -3.8515    0.0000 C   0  0  0  0  0  0
    0.7500   -2.3597    0.0000 C   0  0  2  0  0  0
    2.1203   -1.7496    0.0000 C   0  0  0  0  0  0
    3.1240   -2.8643    0.0000 N   0  0  0  0  0  0
    4.6158   -2.7075    0.0000 C   0  0  0  0  0  0
    5.4975   -3.9210    0.0000 O   0  0  0  0  0  0
    5.2259   -1.3372    0.0000 C   0  0  1  0  0  0
    6.7177   -1.1804    0.0000 N   0  0  0  0  0  0
    7.3278    0.1899    0.0000 C   0  0  0  0  0  0
    6.4461    1.4034    0.0000 O   0  0  0  0  0  0
    8.8196    0.3467    0.0000 C   0  0  1  0  0  0
    9.7013   -0.8668    0.0000 N   0  0  0  0  0  0
   11.1930   -0.7100    0.0000 C   0  0  0  0  0  0
   11.8031    0.6603    0.0000 O   0  0  0  0  0  0
   12.0747   -1.9236    0.0000 C   0  0  2  0  0  0
   13.5665   -1.7668    0.0000 C   0  0  0  0  0  0
   14.4482   -2.9803    0.0000 C   0  0  0  0  0  0
   13.8381   -4.3506    0.0000 C   0  0  0  0  0  0
   12.3463   -4.5074    0.0000 C   0  0  0  0  0  0
   11.4646   -3.2939    0.0000 N   0  0  0  0  0  0
    9.9728   -3.4507    0.0000 C   0  0  0  0  0  0
    9.0911   -2.2371    0.0000 C   0  0  0  0  0  0
    9.4297    1.7170    0.0000 C   0  0  0  0  0  0
   10.8969    2.0289    0.0000 C   0  0  0  0  0  0
   11.0537    3.5207    0.0000 C   0  0  0  0  0  0
    9.6834    4.1308    0.0000 C   0  0  0  0  0  0
    8.6797    3.0161    0.0000 C   0  0  0  0  0  0
    4.3442   -0.1237    0.0000 C   0  0  0  0  0  0
    5.5577    0.7580    0.0000 C   0  0  0  0  0  0
    3.1307   -1.0054    0.0000 C   0  0  0  0  0  0
    3.4625    1.0899    0.0000 C   0  0  0  0  0  0
   -0.7500   -2.3597    0.0000 C   0  0  0  0  0  0
   -1.0105   -3.8369    0.0000 C   0  0  0  0  0  0
   -2.1595   -1.8467    0.0000 C   0  0  0  0  0  0
   -0.0000   -1.0607    0.0000 C   0  0  0  0  0  0
    1.0607    0.0000    0.0000 C   0  0  0  0  0  0
    0.0000    1.0607    0.0000 C   0  0  0  0  0  0
   -1.0607    0.0000    0.0000 C   0  0  0  0  0  0
  1  2  1  0  0  0
  2  3  1  0  0  0
  3  4  1  0  0  0
  3  6  1  0  0  0
  4  5  1  0  0  0
  6  7  2  0  0  0
  6  8  2  0  0  0
  6  9  1  0  0  0
  9 10  1  0  0  0
 10 11  2  0  0  0
 10 12  1  0  0  0
 12 13  1  0  0  0
 12 17  1  0  0  0
 12 14  1  6  0  0
 13 14  1  0  0  0
 14 15  1  6  0  0
 15 16  2  0  0  0
 17 18  1  0  0  0
 18 19  2  0  0  0
 18 20  1  0  0  0
 20 21  1  0  0  0
 20 24  1  1  0  0
 21 22  1  0  0  0
 22 23  1  0  0  0
 22 52  1  0  0  0
 22 55  1  6  0  0
 23 24  1  0  0  0
 24 25  1  0  0  0
 25 26  2  0  0  0
 25 27  1  0  0  0
 27 28  1  0  0  0
 27 48  1  6  0  0
 28 29  1  0  0  0
 29 30  2  0  0  0
 29 31  1  0  0  0
 31 32  1  0  0  0
 31 43  1  6  0  0
 32 33  1  0  0  0
 33 34  2  0  0  0
 33 35  1  0  0  0
 35 36  1  0  0  0
 35 40  1  1  0  0
 36 37  1  0  0  0
 37 38  1  0  0  0
 38 39  1  0  0  0
 39 40  1  0  0  0
 40 41  1  0  0  0
 41 42  1  0  0  0
 43 44  1  0  0  0
 43 47  1  0  0  0
 44 45  1  0  0  0
 45 46  1  0  0  0
 46 47  1  0  0  0
 48 49  1  0  0  0
 48 50  1  0  0  0
 48 51  1  0  0  0
 52 53  1  0  0  0
 52 54  1  0  0  0
 52 55  1  0  0  0
 55 56  1  0  0  0
 55 58  1  0  0  0
 56 57  1  0  0  0
 57 58  1  0  0  0
M  END
> <s_m_entry_id>
6798

> <s_m_entry_name>
NS3-4A.339

> <CHEMBLID>
CHEMBL3645654

> <s_m_Source_Path>
/home/liwei/Desktop/Machine/HCV/Active

> <s_m_Source_File>
NS3-4A.sdf

> <i_m_Source_File_Index>
339

$$$$
CHEMBL3645655
                    3D
 Structure written by MMmdl.
 58 64  0  0  1  0            999 V2000
   -6.8483   -5.8064    0.0000 C   0  0  0  0  0  0
   -5.9666   -4.5929    0.0000 N   0  0  0  0  0  0
   -6.5767   -3.2226    0.0000 C   0  0  0  0  0  0
   -5.6950   -2.0091    0.0000 C   0  0  0  0  0  0
   -4.2032   -2.1659    0.0000 C   0  0  0  0  0  0
   -3.5931   -3.5362    0.0000 C   0  0  0  0  0  0
   -4.4748   -4.7497    0.0000 C   0  0  1  0  0  0
   -3.8647   -6.1200    0.0000 C   0  0  0  0  0  0
   -4.7464   -7.3335    0.0000 O   0  0  0  0  0  0
   -2.3729   -6.2768    0.0000 N   0  0  0  0  0  0
   -1.7628   -7.6471    0.0000 C   0  0  1  0  0  0
   -2.6445   -8.8607    0.0000 C   0  0  0  0  0  0
   -4.1363   -8.7039    0.0000 C   0  0  0  0  0  0
   -5.0179   -9.9174    0.0000 C   0  0  0  0  0  0
   -4.4078  -11.2877    0.0000 C   0  0  0  0  0  0
   -2.9161  -11.4445    0.0000 C   0  0  0  0  0  0
   -2.0344  -10.2310    0.0000 C   0  0  0  0  0  0
   -0.2710   -7.8039    0.0000 C   0  0  0  0  0  0
    0.3391   -9.1742    0.0000 O   0  0  0  0  0  0
    0.6107   -6.5904    0.0000 N   0  0  0  0  0  0
    2.1024   -6.7472    0.0000 C   0  0  2  0  0  0
    2.9841   -5.5337    0.0000 C   0  0  0  0  0  0
    4.4759   -5.6905    0.0000 O   0  0  0  0  0  0
    2.3740   -4.1633    0.0000 N   0  0  0  0  0  0
    0.9068   -3.8515    0.0000 C   0  0  0  0  0  0
    0.7500   -2.3597    0.0000 C   0  0  1  0  0  0
    2.1203   -1.7496    0.0000 C   0  0  0  0  0  0
    3.1240   -2.8643    0.0000 C   0  0  1  0  0  0
    4.6158   -2.7075    0.0000 C   0  0  0  0  0  0
    5.2259   -1.3372    0.0000 O   0  0  0  0  0  0
    5.4975   -3.9210    0.0000 N   0  0  0  0  0  0
    6.9893   -3.7643    0.0000 C   0  0  1  0  0  0
    8.3374   -3.1067    0.0000 C   0  0  0  0  0  0
    7.0939   -2.2679    0.0000 C   0  0  1  0  0  0
    6.4363   -0.9197    0.0000 C   0  0  0  0  0  0
    7.2751    0.3238    0.0000 C   0  0  0  0  0  0
    7.4027   -5.2061    0.0000 C   0  0  0  0  0  0
    6.3607   -6.2852    0.0000 O   0  0  0  0  0  0
    8.8582   -5.5690    0.0000 N   0  0  0  0  0  0
    9.2716   -7.0109    0.0000 S   0  0  0  0  0  0
   10.7135   -6.5975    0.0000 O   0  0  0  0  0  0
    7.8297   -7.4244    0.0000 O   0  0  0  0  0  0
    9.6851   -8.4528    0.0000 N   0  0  0  0  0  0
    8.7616   -9.6348    0.0000 C   0  0  0  0  0  0
    9.6004  -10.8784    0.0000 C   0  0  0  0  0  0
   11.0423  -10.4649    0.0000 C   0  0  0  0  0  0
   11.0946   -8.9658    0.0000 C   0  0  0  0  0  0
   -0.7500   -2.3597    0.0000 C   0  0  0  0  0  0
   -1.0105   -3.8369    0.0000 C   0  0  0  0  0  0
   -2.1595   -1.8467    0.0000 C   0  0  0  0  0  0
   -0.0000   -1.0607    0.0000 C   0  0  0  0  0  0
    1.0607    0.0000    0.0000 C   0  0  0  0  0  0
    0.0000    1.0607    0.0000 C   0  0  0  0  0  0
   -1.0607    0.0000    0.0000 C   0  0  0  0  0  0
    2.7125   -8.1175    0.0000 C   0  0  0  0  0  0
    1.3422   -8.7276    0.0000 C   0  0  0  0  0  0
    4.0829   -7.5074    0.0000 C   0  0  0  0  0  0
    3.3227   -9.4878    0.0000 C   0  0  0  0  0  0
  1  2  1  0  0  0
  2  3  1  0  0  0
  2  7  1  0  0  0
  3  4  1  0  0  0
  4  5  1  0  0  0
  5  6  1  0  0  0
  6  7  1  0  0  0
  7  8  1  6  0  0
  8  9  2  0  0  0
  8 10  1  0  0  0
 10 11  1  0  0  0
 11 12  1  0  0  0
 11 18  1  6  0  0
 12 13  1  0  0  0
 12 17  1  0  0  0
 13 14  1  0  0  0
 14 15  1  0  0  0
 15 16  1  0  0  0
 16 17  1  0  0  0
 18 19  2  0  0  0
 18 20  1  0  0  0
 20 21  1  0  0  0
 21 22  1  0  0  0
 21 55  1  1  0  0
 22 23  2  0  0  0
 22 24  1  0  0  0
 24 25  1  0  0  0
 24 28  1  0  0  0
 25 26  1  0  0  0
 26 27  1  0  0  0
 26 48  1  0  0  0
 26 51  1  1  0  0
 27 28  1  0  0  0
 28 29  1  6  0  0
 29 30  2  0  0  0
 29 31  1  0  0  0
 31 32  1  0  0  0
 32 33  1  0  0  0
 32 37  1  0  0  0
 32 34  1  1  0  0
 33 34  1  0  0  0
 34 35  1  6  0  0
 35 36  2  0  0  0
 37 38  2  0  0  0
 37 39  1  0  0  0
 39 40  1  0  0  0
 40 41  2  0  0  0
 40 42  2  0  0  0
 40 43  1  0  0  0
 43 44  1  0  0  0
 43 47  1  0  0  0
 44 45  1  0  0  0
 45 46  1  0  0  0
 46 47  1  0  0  0
 48 49  1  0  0  0
 48 50  1  0  0  0
 48 51  1  0  0  0
 51 52  1  0  0  0
 51 54  1  0  0  0
 52 53  1  0  0  0
 53 54  1  0  0  0
 55 56  1  0  0  0
 55 57  1  0  0  0
 55 58  1  0  0  0
M  END
> <s_m_entry_id>
6799

> <s_m_entry_name>
NS3-4A.340

> <CHEMBLID>
CHEMBL3645655

> <s_m_Source_Path>
/home/liwei/Desktop/Machine/HCV/Active

> <s_m_Source_File>
NS3-4A.sdf

> <i_m_Source_File_Index>
340

$$$$
CHEMBL3645656
                    3D
 Structure written by MMmdl.
 61 66  0  0  1  0            999 V2000
   -8.3400   -5.6496    0.0000 C   0  0  0  0  0  0
   -6.8483   -5.8064    0.0000 C   0  0  0  0  0  0
   -6.2382   -7.1768    0.0000 C   0  0  0  0  0  0
   -5.9666   -4.5929    0.0000 N   0  0  0  0  0  0
   -6.5767   -3.2226    0.0000 C   0  0  0  0  0  0
   -5.6950   -2.0091    0.0000 C   0  0  0  0  0  0
   -4.2032   -2.1659    0.0000 C   0  0  0  0  0  0
   -3.5931   -3.5362    0.0000 C   0  0  0  0  0  0
   -4.4748   -4.7497    0.0000 C   0  0  1  0  0  0
   -3.8647   -6.1200    0.0000 C   0  0  0  0  0  0
   -4.7464   -7.3335    0.0000 O   0  0  0  0  0  0
   -2.3729   -6.2768    0.0000 N   0  0  0  0  0  0
   -1.7628   -7.6471    0.0000 C   0  0  1  0  0  0
   -2.6445   -8.8607    0.0000 C   0  0  0  0  0  0
   -4.1363   -8.7039    0.0000 C   0  0  0  0  0  0
   -5.0179   -9.9174    0.0000 C   0  0  0  0  0  0
   -4.4078  -11.2877    0.0000 C   0  0  0  0  0  0
   -2.9161  -11.4445    0.0000 C   0  0  0  0  0  0
   -2.0344  -10.2310    0.0000 C   0  0  0  0  0  0
   -0.2710   -7.8039    0.0000 C   0  0  0  0  0  0
    0.3391   -9.1742    0.0000 O   0  0  0  0  0  0
    0.6107   -6.5904    0.0000 N   0  0  0  0  0  0
    2.1024   -6.7472    0.0000 C   0  0  2  0  0  0
    2.9841   -5.5337    0.0000 C   0  0  0  0  0  0
    4.4759   -5.6905    0.0000 O   0  0  0  0  0  0
    2.3740   -4.1633    0.0000 N   0  0  0  0  0  0
    0.9068   -3.8515    0.0000 C   0  0  0  0  0  0
    0.7500   -2.3597    0.0000 C   0  0  1  0  0  0
    2.1203   -1.7496    0.0000 C   0  0  0  0  0  0
    3.1240   -2.8643    0.0000 C   0  0  1  0  0  0
    4.6158   -2.7075    0.0000 C   0  0  0  0  0  0
    5.2259   -1.3372    0.0000 O   0  0  0  0  0  0
    5.4975   -3.9210    0.0000 N   0  0  0  0  0  0
    6.9893   -3.7643    0.0000 C   0  0  1  0  0  0
    8.3374   -3.1067    0.0000 C   0  0  0  0  0  0
    7.0939   -2.2679    0.0000 C   0  0  1  0  0  0
    6.4363   -0.9197    0.0000 C   0  0  0  0  0  0
    7.2751    0.3238    0.0000 C   0  0  0  0  0  0
    7.4027   -5.2061    0.0000 C   0  0  0  0  0  0
    6.3607   -6.2852    0.0000 O   0  0  0  0  0  0
    8.8582   -5.5690    0.0000 N   0  0  0  0  0  0
    9.2716   -7.0109    0.0000 S   0  0  0  0  0  0
   10.7135   -6.5975    0.0000 O   0  0  0  0  0  0
    7.8297   -7.4244    0.0000 O   0  0  0  0  0  0
    9.6851   -8.4528    0.0000 N   0  0  0  0  0  0
    8.6431   -9.5318    0.0000 C   0  0  0  0  0  0
   11.1405   -8.8157    0.0000 C   0  0  0  0  0  0
   11.5540  -10.2576    0.0000 C   0  0  0  0  0  0
   13.0094  -10.6205    0.0000 F   0  0  0  0  0  0
   10.5120  -11.3366    0.0000 F   0  0  0  0  0  0
   -0.7500   -2.3597    0.0000 C   0  0  0  0  0  0
   -1.0105   -3.8369    0.0000 C   0  0  0  0  0  0
   -2.1595   -1.8467    0.0000 C   0  0  0  0  0  0
   -0.0000   -1.0607    0.0000 C   0  0  0  0  0  0
    1.0607    0.0000    0.0000 C   0  0  0  0  0  0
    0.0000    1.0607    0.0000 C   0  0  0  0  0  0
   -1.0607    0.0000    0.0000 C   0  0  0  0  0  0
    2.7125   -8.1175    0.0000 C   0  0  0  0  0  0
    1.3422   -8.7276    0.0000 C   0  0  0  0  0  0
    4.0829   -7.5074    0.0000 C   0  0  0  0  0  0
    3.3227   -9.4878    0.0000 C   0  0  0  0  0  0
  1  2  1  0  0  0
  2  3  1  0  0  0
  2  4  1  0  0  0
  4  5  1  0  0  0
  4  9  1  0  0  0
  5  6  1  0  0  0
  6  7  1  0  0  0
  7  8  1  0  0  0
  8  9  1  0  0  0
  9 10  1  6  0  0
 10 11  2  0  0  0
 10 12  1  0  0  0
 12 13  1  0  0  0
 13 14  1  0  0  0
 13 20  1  6  0  0
 14 15  1  0  0  0
 14 19  1  0  0  0
 15 16  1  0  0  0
 16 17  1  0  0  0
 17 18  1  0  0  0
 18 19  1  0  0  0
 20 21  2  0  0  0
 20 22  1  0  0  0
 22 23  1  0  0  0
 23 24  1  0  0  0
 23 58  1  1  0  0
 24 25  2  0  0  0
 24 26  1  0  0  0
 26 27  1  0  0  0
 26 30  1  0  0  0
 27 28  1  0  0  0
 28 29  1  0  0  0
 28 51  1  0  0  0
 28 54  1  1  0  0
 29 30  1  0  0  0
 30 31  1  6  0  0
 31 32  2  0  0  0
 31 33  1  0  0  0
 33 34  1  0  0  0
 34 35  1  0  0  0
 34 39  1  0  0  0
 34 36  1  1  0  0
 35 36  1  0  0  0
 36 37  1  6  0  0
 37 38  2  0  0  0
 39 40  2  0  0  0
 39 41  1  0  0  0
 41 42  1  0  0  0
 42 43  2  0  0  0
 42 44  2  0  0  0
 42 45  1  0  0  0
 45 46  1  0  0  0
 45 47  1  0  0  0
 47 48  1  0  0  0
 48 49  1  0  0  0
 48 50  1  0  0  0
 51 52  1  0  0  0
 51 53  1  0  0  0
 51 54  1  0  0  0
 54 55  1  0  0  0
 54 57  1  0  0  0
 55 56  1  0  0  0
 56 57  1  0  0  0
 58 59  1  0  0  0
 58 60  1  0  0  0
 58 61  1  0  0  0
M  END
> <s_m_entry_id>
6800

> <s_m_entry_name>
NS3-4A.341

> <CHEMBLID>
CHEMBL3645656

> <s_m_Source_Path>
/home/liwei/Desktop/Machine/HCV/Active

> <s_m_Source_File>
NS3-4A.sdf

> <i_m_Source_File_Index>
341

$$$$
CHEMBL3645657
                    3D
 Structure written by MMmdl.
 62 68  0  0  1  0            999 V2000
   -3.5052  -12.3115    0.0000 C   0  0  0  0  0  0
   -2.2617  -11.4727    0.0000 C   0  0  0  0  0  0
   -0.9135  -12.1302    0.0000 N   0  0  0  0  0  0
   -0.8089  -13.6266    0.0000 C   0  0  0  0  0  0
   -2.0524  -14.4654    0.0000 C   0  0  0  0  0  0
    0.3301  -11.2914    0.0000 S   0  0  0  0  0  0
    1.1689  -12.5350    0.0000 O   0  0  0  0  0  0
   -0.5087  -10.0479    0.0000 O   0  0  0  0  0  0
    1.5736  -10.4526    0.0000 N   0  0  0  0  0  0
    1.4690   -8.9563    0.0000 C   0  0  0  0  0  0
    0.1208   -8.2987    0.0000 O   0  0  0  0  0  0
    2.7125   -8.1175    0.0000 C   0  0  2  0  0  0
    3.7545   -9.1965    0.0000 C   0  0  0  0  0  0
    4.1680   -7.7546    0.0000 C   0  0  1  0  0  0
    5.2470   -6.7126    0.0000 C   0  0  0  0  0  0
    6.6889   -7.1261    0.0000 C   0  0  0  0  0  0
    2.1024   -6.7472    0.0000 N   0  0  0  0  0  0
    2.9841   -5.5337    0.0000 C   0  0  0  0  0  0
    4.4759   -5.6905    0.0000 O   0  0  0  0  0  0
    2.3740   -4.1633    0.0000 C   0  0  2  0  0  0
    0.9068   -3.8515    0.0000 C   0  0  0  0  0  0
    0.7500   -2.3597    0.0000 C   0  0  2  0  0  0
    2.1203   -1.7496    0.0000 C   0  0  0  0  0  0
    3.1240   -2.8643    0.0000 N   0  0  0  0  0  0
    4.6158   -2.7075    0.0000 C   0  0  0  0  0  0
    5.4975   -3.9210    0.0000 O   0  0  0  0  0  0
    5.2259   -1.3372    0.0000 C   0  0  1  0  0  0
    6.7177   -1.1804    0.0000 N   0  0  0  0  0  0
    7.3278    0.1899    0.0000 C   0  0  0  0  0  0
    6.4461    1.4034    0.0000 O   0  0  0  0  0  0
    8.8196    0.3467    0.0000 C   0  0  3  0  0  0
    9.7013   -0.8668    0.0000 N   0  0  0  0  0  0
   11.1930   -0.7100    0.0000 C   0  0  0  0  0  0
   11.8031    0.6603    0.0000 O   0  0  0  0  0  0
   12.0747   -1.9236    0.0000 C   0  0  2  0  0  0
   13.5665   -1.7668    0.0000 C   0  0  0  0  0  0
   14.4482   -2.9803    0.0000 C   0  0  0  0  0  0
   13.8381   -4.3506    0.0000 C   0  0  0  0  0  0
   12.3463   -4.5074    0.0000 C   0  0  0  0  0  0
   11.4646   -3.2939    0.0000 N   0  0  0  0  0  0
    9.9728   -3.4507    0.0000 C   0  0  0  0  0  0
    9.0911   -2.2371    0.0000 C   0  0  0  0  0  0
    9.3627   -4.8210    0.0000 C   0  0  0  0  0  0
    9.4297    1.7170    0.0000 C   0  0  0  0  0  0
    8.5480    2.9305    0.0000 C   0  0  0  0  0  0
    9.1581    4.3009    0.0000 C   0  0  0  0  0  0
   10.6499    4.4577    0.0000 C   0  0  0  0  0  0
   11.5316    3.2441    0.0000 C   0  0  0  0  0  0
   10.9215    1.8738    0.0000 C   0  0  0  0  0  0
    4.3442   -0.1237    0.0000 C   0  0  0  0  0  0
    2.8524   -0.2805    0.0000 C   0  0  0  0  0  0
    1.9708    0.9331    0.0000 C   0  0  0  0  0  0
    2.5809    2.3034    0.0000 O   0  0  0  0  0  0
    4.0727    2.4602    0.0000 C   0  0  0  0  0  0
    4.9543    1.2466    0.0000 C   0  0  0  0  0  0
   -0.7500   -2.3597    0.0000 C   0  0  0  0  0  0
   -1.0105   -3.8369    0.0000 C   0  0  0  0  0  0
   -2.1595   -1.8467    0.0000 C   0  0  0  0  0  0
    0.0000   -1.0607    0.0000 C   0  0  0  0  0  0
    1.0607    0.0000    0.0000 C   0  0  0  0  0  0
    0.0000    1.0607    0.0000 C   0  0  0  0  0  0
   -1.0607    0.0000    0.0000 C   0  0  0  0  0  0
  1  2  1  0  0  0
  2  3  1  0  0  0
  3  4  1  0  0  0
  3  6  1  0  0  0
  4  5  1  0  0  0
  6  7  2  0  0  0
  6  8  2  0  0  0
  6  9  1  0  0  0
  9 10  1  0  0  0
 10 11  2  0  0  0
 10 12  1  0  0  0
 12 13  1  0  0  0
 12 17  1  0  0  0
 12 14  1  6  0  0
 13 14  1  0  0  0
 14 15  1  6  0  0
 15 16  2  0  0  0
 17 18  1  0  0  0
 18 19  2  0  0  0
 18 20  1  0  0  0
 20 21  1  0  0  0
 20 24  1  1  0  0
 21 22  1  0  0  0
 22 23  1  0  0  0
 22 56  1  0  0  0
 22 59  1  6  0  0
 23 24  1  0  0  0
 24 25  1  0  0  0
 25 26  2  0  0  0
 25 27  1  0  0  0
 27 28  1  0  0  0
 27 50  1  6  0  0
 28 29  1  0  0  0
 29 30  2  0  0  0
 29 31  1  0  0  0
 31 32  1  0  0  0
 31 44  1  0  0  0
 32 33  1  0  0  0
 33 34  2  0  0  0
 33 35  1  0  0  0
 35 36  1  0  0  0
 35 40  1  1  0  0
 36 37  1  0  0  0
 37 38  1  0  0  0
 38 39  1  0  0  0
 39 40  1  0  0  0
 40 41  1  0  0  0
 41 42  1  0  0  0
 41 43  1  0  0  0
 44 45  1  0  0  0
 44 49  1  0  0  0
 45 46  1  0  0  0
 46 47  1  0  0  0
 47 48  1  0  0  0
 48 49  1  0  0  0
 50 51  1  0  0  0
 50 55  1  0  0  0
 51 52  1  0  0  0
 52 53  1  0  0  0
 53 54  1  0  0  0
 54 55  1  0  0  0
 56 57  1  0  0  0
 56 58  1  0  0  0
 56 59  1  0  0  0
 59 60  1  0  0  0
 59 62  1  0  0  0
 60 61  1  0  0  0
 61 62  1  0  0  0
M  END
> <s_m_entry_id>
6801

> <s_m_entry_name>
NS3-4A.342

> <CHEMBLID>
CHEMBL3645657

> <s_m_Source_Path>
/home/liwei/Desktop/Machine/HCV/Active

> <s_m_Source_File>
NS3-4A.sdf

> <i_m_Source_File_Index>
342

$$$$
CHEMBL3645658
                    3D
 Structure written by MMmdl.
 61 67  0  0  1  0            999 V2000
   -3.5052  -12.3115    0.0000 C   0  0  0  0  0  0
   -2.2617  -11.4727    0.0000 C   0  0  0  0  0  0
   -0.9135  -12.1302    0.0000 N   0  0  0  0  0  0
   -0.8089  -13.6266    0.0000 C   0  0  0  0  0  0
   -2.0524  -14.4654    0.0000 C   0  0  0  0  0  0
    0.3301  -11.2914    0.0000 S   0  0  0  0  0  0
    1.1689  -12.5350    0.0000 O   0  0  0  0  0  0
   -0.5087  -10.0479    0.0000 O   0  0  0  0  0  0
    1.5736  -10.4526    0.0000 N   0  0  0  0  0  0
    1.4690   -8.9563    0.0000 C   0  0  0  0  0  0
    0.1208   -8.2987    0.0000 O   0  0  0  0  0  0
    2.7125   -8.1175    0.0000 C   0  0  2  0  0  0
    3.7545   -9.1965    0.0000 C   0  0  0  0  0  0
    4.1680   -7.7546    0.0000 C   0  0  1  0  0  0
    5.2470   -6.7126    0.0000 C   0  0  0  0  0  0
    6.6889   -7.1261    0.0000 C   0  0  0  0  0  0
    2.1024   -6.7472    0.0000 N   0  0  0  0  0  0
    2.9841   -5.5337    0.0000 C   0  0  0  0  0  0
    4.4759   -5.6905    0.0000 O   0  0  0  0  0  0
    2.3740   -4.1633    0.0000 C   0  0  2  0  0  0
    0.9068   -3.8515    0.0000 C   0  0  0  0  0  0
    0.7500   -2.3597    0.0000 C   0  0  2  0  0  0
    2.1203   -1.7496    0.0000 C   0  0  0  0  0  0
    3.1240   -2.8643    0.0000 N   0  0  0  0  0  0
    4.6158   -2.7075    0.0000 C   0  0  0  0  0  0
    5.4975   -3.9210    0.0000 O   0  0  0  0  0  0
    5.2259   -1.3372    0.0000 C   0  0  1  0  0  0
    6.7177   -1.1804    0.0000 N   0  0  0  0  0  0
    7.3278    0.1899    0.0000 C   0  0  0  0  0  0
    6.4461    1.4034    0.0000 O   0  0  0  0  0  0
    8.8196    0.3467    0.0000 C   0  0  3  0  0  0
    9.7013   -0.8668    0.0000 N   0  0  0  0  0  0
   11.1930   -0.7100    0.0000 C   0  0  0  0  0  0
   11.8031    0.6603    0.0000 O   0  0  0  0  0  0
   12.0747   -1.9236    0.0000 C   0  0  2  0  0  0
   13.5665   -1.7668    0.0000 C   0  0  0  0  0  0
   14.4482   -2.9803    0.0000 C   0  0  0  0  0  0
   13.8381   -4.3506    0.0000 C   0  0  0  0  0  0
   12.3463   -4.5074    0.0000 C   0  0  0  0  0  0
   11.4646   -3.2939    0.0000 N   0  0  0  0  0  0
    9.9728   -3.4507    0.0000 C   0  0  0  0  0  0
    9.0911   -2.2371    0.0000 C   0  0  0  0  0  0
    9.4297    1.7170    0.0000 C   0  0  0  0  0  0
    8.5480    2.9305    0.0000 C   0  0  0  0  0  0
    9.1581    4.3009    0.0000 C   0  0  0  0  0  0
   10.6499    4.4577    0.0000 C   0  0  0  0  0  0
   11.5316    3.2441    0.0000 C   0  0  0  0  0  0
   10.9215    1.8738    0.0000 C   0  0  0  0  0  0
    4.3442   -0.1237    0.0000 C   0  0  0  0  0  0
    2.8524   -0.2805    0.0000 C   0  0  0  0  0  0
    1.9708    0.9331    0.0000 C   0  0  0  0  0  0
    2.5809    2.3034    0.0000 O   0  0  0  0  0  0
    4.0727    2.4602    0.0000 C   0  0  0  0  0  0
    4.9543    1.2466    0.0000 C   0  0  0  0  0  0
   -0.7500   -2.3597    0.0000 C   0  0  0  0  0  0
   -1.0105   -3.8369    0.0000 C   0  0  0  0  0  0
   -2.1595   -1.8467    0.0000 C   0  0  0  0  0  0
   -0.0000   -1.0607    0.0000 C   0  0  0  0  0  0
    1.0607    0.0000    0.0000 C   0  0  0  0  0  0
    0.0000    1.0607    0.0000 C   0  0  0  0  0  0
   -1.0607    0.0000    0.0000 C   0  0  0  0  0  0
  1  2  1  0  0  0
  2  3  1  0  0  0
  3  4  1  0  0  0
  3  6  1  0  0  0
  4  5  1  0  0  0
  6  7  2  0  0  0
  6  8  2  0  0  0
  6  9  1  0  0  0
  9 10  1  0  0  0
 10 11  2  0  0  0
 10 12  1  0  0  0
 12 13  1  0  0  0
 12 17  1  0  0  0
 12 14  1  6  0  0
 13 14  1  0  0  0
 14 15  1  6  0  0
 15 16  2  0  0  0
 17 18  1  0  0  0
 18 19  2  0  0  0
 18 20  1  0  0  0
 20 21  1  0  0  0
 20 24  1  1  0  0
 21 22  1  0  0  0
 22 23  1  0  0  0
 22 55  1  0  0  0
 22 58  1  6  0  0
 23 24  1  0  0  0
 24 25  1  0  0  0
 25 26  2  0  0  0
 25 27  1  0  0  0
 27 28  1  0  0  0
 27 49  1  6  0  0
 28 29  1  0  0  0
 29 30  2  0  0  0
 29 31  1  0  0  0
 31 32  1  0  0  0
 31 43  1  0  0  0
 32 33  1  0  0  0
 33 34  2  0  0  0
 33 35  1  0  0  0
 35 36  1  0  0  0
 35 40  1  1  0  0
 36 37  1  0  0  0
 37 38  1  0  0  0
 38 39  1  0  0  0
 39 40  1  0  0  0
 40 41  1  0  0  0
 41 42  1  0  0  0
 43 44  1  0  0  0
 43 48  1  0  0  0
 44 45  1  0  0  0
 45 46  1  0  0  0
 46 47  1  0  0  0
 47 48  1  0  0  0
 49 50  1  0  0  0
 49 54  1  0  0  0
 50 51  1  0  0  0
 51 52  1  0  0  0
 52 53  1  0  0  0
 53 54  1  0  0  0
 55 56  1  0  0  0
 55 57  1  0  0  0
 55 58  1  0  0  0
 58 59  1  0  0  0
 58 61  1  0  0  0
 59 60  1  0  0  0
 60 61  1  0  0  0
M  END
> <s_m_entry_id>
6802

> <s_m_entry_name>
NS3-4A.343

> <CHEMBLID>
CHEMBL3645658

> <s_m_Source_Path>
/home/liwei/Desktop/Machine/HCV/Active

> <s_m_Source_File>
NS3-4A.sdf

> <i_m_Source_File_Index>
343

$$$$
CHEMBL3645659
                    3D
 Structure written by MMmdl.
 59 64  0  0  1  0            999 V2000
    6.6889   -7.1261    0.0000 C   0  0  0  0  0  0
    5.2470   -6.7126    0.0000 C   0  0  0  0  0  0
    4.1680   -7.7546    0.0000 C   0  0  2  0  0  0
    3.7545   -9.1965    0.0000 C   0  0  0  0  0  0
    2.7125   -8.1175    0.0000 C   0  0  2  0  0  0
    2.1024   -6.7472    0.0000 N   0  0  0  0  0  0
    2.9841   -5.5337    0.0000 C   0  0  0  0  0  0
    4.4759   -5.6905    0.0000 O   0  0  0  0  0  0
    2.3740   -4.1633    0.0000 C   0  0  2  0  0  0
    0.9068   -3.8515    0.0000 C   0  0  0  0  0  0
    0.7500   -2.3597    0.0000 C   0  0  2  0  0  0
    2.1203   -1.7496    0.0000 C   0  0  0  0  0  0
    3.1240   -2.8643    0.0000 N   0  0  0  0  0  0
    4.6158   -2.7075    0.0000 C   0  0  0  0  0  0
    5.4975   -3.9210    0.0000 O   0  0  0  0  0  0
    5.2259   -1.3372    0.0000 C   0  0  1  0  0  0
    6.7177   -1.1804    0.0000 N   0  0  0  0  0  0
    7.3278    0.1899    0.0000 C   0  0  0  0  0  0
    6.4461    1.4034    0.0000 O   0  0  0  0  0  0
    8.8196    0.3467    0.0000 C   0  0  3  0  0  0
    9.7013   -0.8668    0.0000 N   0  0  0  0  0  0
   11.1930   -0.7100    0.0000 C   0  0  0  0  0  0
   11.8031    0.6603    0.0000 O   0  0  0  0  0  0
   12.0747   -1.9236    0.0000 C   0  0  2  0  0  0
   13.5665   -1.7668    0.0000 C   0  0  0  0  0  0
   14.4482   -2.9803    0.0000 C   0  0  0  0  0  0
   13.8381   -4.3506    0.0000 C   0  0  0  0  0  0
   12.3463   -4.5074    0.0000 C   0  0  0  0  0  0
   11.4646   -3.2939    0.0000 N   0  0  0  0  0  0
    9.9728   -3.4507    0.0000 C   0  0  0  0  0  0
    9.0911   -2.2371    0.0000 C   0  0  0  0  0  0
    9.4297    1.7170    0.0000 C   0  0  0  0  0  0
    8.5480    2.9305    0.0000 C   0  0  0  0  0  0
    9.1581    4.3009    0.0000 C   0  0  0  0  0  0
   10.6499    4.4577    0.0000 C   0  0  0  0  0  0
   11.5316    3.2441    0.0000 C   0  0  0  0  0  0
   10.9215    1.8738    0.0000 C   0  0  0  0  0  0
    4.3442   -0.1237    0.0000 C   0  0  0  0  0  0
    5.5577    0.7580    0.0000 C   0  0  0  0  0  0
    3.1307   -1.0054    0.0000 C   0  0  0  0  0  0
    3.4625    1.0899    0.0000 C   0  0  0  0  0  0
   -0.7500   -2.3597    0.0000 C   0  0  0  0  0  0
   -1.0105   -3.8369    0.0000 C   0  0  0  0  0  0
   -2.1595   -1.8467    0.0000 C   0  0  0  0  0  0
   -0.0000   -1.0607    0.0000 C   0  0  0  0  0  0
    1.0607    0.0000    0.0000 C   0  0  0  0  0  0
    0.0000    1.0607    0.0000 C   0  0  0  0  0  0
   -1.0607    0.0000    0.0000 C   0  0  0  0  0  0
    1.4690   -8.9563    0.0000 C   0  0  0  0  0  0
    0.1208   -8.2987    0.0000 O   0  0  0  0  0  0
    1.5736  -10.4526    0.0000 N   0  0  0  0  0  0
    0.3301  -11.2914    0.0000 S   0  0  0  0  0  0
    1.1689  -12.5350    0.0000 O   0  0  0  0  0  0
   -0.5087  -10.0479    0.0000 O   0  0  0  0  0  0
   -0.9135  -12.1302    0.0000 N   0  0  0  0  0  0
   -2.2617  -11.4727    0.0000 C   0  0  0  0  0  0
   -3.5052  -12.3115    0.0000 C   0  0  0  0  0  0
   -0.8089  -13.6266    0.0000 C   0  0  0  0  0  0
   -2.0524  -14.4654    0.0000 C   0  0  0  0  0  0
  1  2  1  0  0  0
  2  3  1  0  0  0
  3  4  1  0  0  0
  3  5  1  6  0  0
  4  5  1  0  0  0
  5  6  1  0  0  0
  5 49  1  6  0  0
  6  7  1  0  0  0
  7  8  2  0  0  0
  7  9  1  0  0  0
  9 10  1  0  0  0
  9 13  1  1  0  0
 10 11  1  0  0  0
 11 12  1  0  0  0
 11 42  1  0  0  0
 11 45  1  6  0  0
 12 13  1  0  0  0
 13 14  1  0  0  0
 14 15  2  0  0  0
 14 16  1  0  0  0
 16 17  1  0  0  0
 16 38  1  6  0  0
 17 18  1  0  0  0
 18 19  2  0  0  0
 18 20  1  0  0  0
 20 21  1  0  0  0
 20 32  1  0  0  0
 21 22  1  0  0  0
 22 23  2  0  0  0
 22 24  1  0  0  0
 24 25  1  0  0  0
 24 29  1  1  0  0
 25 26  1  0  0  0
 26 27  1  0  0  0
 27 28  1  0  0  0
 28 29  1  0  0  0
 29 30  1  0  0  0
 30 31  1  0  0  0
 32 33  1  0  0  0
 32 37  1  0  0  0
 33 34  1  0  0  0
 34 35  1  0  0  0
 35 36  1  0  0  0
 36 37  1  0  0  0
 38 39  1  0  0  0
 38 40  1  0  0  0
 38 41  1  0  0  0
 42 43  1  0  0  0
 42 44  1  0  0  0
 42 45  1  0  0  0
 45 46  1  0  0  0
 45 48  1  0  0  0
 46 47  1  0  0  0
 47 48  1  0  0  0
 49 50  2  0  0  0
 49 51  1  0  0  0
 51 52  1  0  0  0
 52 53  2  0  0  0
 52 54  2  0  0  0
 52 55  1  0  0  0
 55 56  1  0  0  0
 55 58  1  0  0  0
 56 57  1  0  0  0
 58 59  1  0  0  0
M  END
> <s_m_entry_id>
6803

> <s_m_entry_name>
NS3-4A.344

> <CHEMBLID>
CHEMBL3645659

> <s_m_Source_Path>
/home/liwei/Desktop/Machine/HCV/Active

> <s_m_Source_File>
NS3-4A.sdf

> <i_m_Source_File_Index>
344

$$$$
CHEMBL3645660
                    3D
 Structure written by MMmdl.
 59 65  0  0  1  0            999 V2000
    6.6889   -7.1261    0.0000 C   0  0  0  0  0  0
    5.2470   -6.7126    0.0000 C   0  0  0  0  0  0
    4.1680   -7.7546    0.0000 C   0  0  2  0  0  0
    3.7545   -9.1965    0.0000 C   0  0  0  0  0  0
    2.7125   -8.1175    0.0000 C   0  0  2  0  0  0
    2.1024   -6.7472    0.0000 N   0  0  0  0  0  0
    2.9841   -5.5337    0.0000 C   0  0  0  0  0  0
    4.4759   -5.6905    0.0000 O   0  0  0  0  0  0
    2.3740   -4.1633    0.0000 C   0  0  2  0  0  0
    0.9068   -3.8515    0.0000 C   0  0  0  0  0  0
    0.7500   -2.3597    0.0000 C   0  0  2  0  0  0
    2.1203   -1.7496    0.0000 C   0  0  0  0  0  0
    3.1240   -2.8643    0.0000 N   0  0  0  0  0  0
    4.6158   -2.7075    0.0000 C   0  0  0  0  0  0
    5.4975   -3.9210    0.0000 O   0  0  0  0  0  0
    5.2259   -1.3372    0.0000 C   0  0  1  0  0  0
    6.7177   -1.1804    0.0000 N   0  0  0  0  0  0
    7.3278    0.1899    0.0000 C   0  0  0  0  0  0
    6.4461    1.4034    0.0000 O   0  0  0  0  0  0
    8.8196    0.3467    0.0000 C   0  0  1  0  0  0
    9.7013   -0.8668    0.0000 N   0  0  0  0  0  0
   11.1930   -0.7100    0.0000 C   0  0  0  0  0  0
   11.8031    0.6603    0.0000 O   0  0  0  0  0  0
   12.0747   -1.9236    0.0000 C   0  0  2  0  0  0
   13.5665   -1.7668    0.0000 C   0  0  0  0  0  0
   14.4482   -2.9803    0.0000 C   0  0  0  0  0  0
   13.8381   -4.3506    0.0000 C   0  0  0  0  0  0
   12.3463   -4.5074    0.0000 C   0  0  0  0  0  0
   11.4646   -3.2939    0.0000 N   0  0  0  0  0  0
    9.9728   -3.4507    0.0000 C   0  0  0  0  0  0
    9.0911   -2.2371    0.0000 C   0  0  0  0  0  0
    9.4297    1.7170    0.0000 C   0  0  0  0  0  0
    8.5480    2.9305    0.0000 C   0  0  0  0  0  0
    9.1581    4.3009    0.0000 C   0  0  0  0  0  0
   10.6499    4.4577    0.0000 C   0  0  0  0  0  0
   11.5316    3.2441    0.0000 C   0  0  0  0  0  0
   10.9215    1.8738    0.0000 C   0  0  0  0  0  0
    4.3442   -0.1237    0.0000 C   0  0  0  0  0  0
    5.5577    0.7580    0.0000 C   0  0  0  0  0  0
    3.1307   -1.0054    0.0000 C   0  0  0  0  0  0
    3.4625    1.0899    0.0000 C   0  0  0  0  0  0
   -0.7500   -2.3597    0.0000 C   0  0  0  0  0  0
   -1.0105   -3.8369    0.0000 C   0  0  0  0  0  0
   -2.1595   -1.8467    0.0000 C   0  0  0  0  0  0
   -0.0000   -1.0607    0.0000 C   0  0  0  0  0  0
    1.0607    0.0000    0.0000 C   0  0  0  0  0  0
    0.0000    1.0607    0.0000 C   0  0  0  0  0  0
   -1.0607    0.0000    0.0000 C   0  0  0  0  0  0
    1.4690   -8.9563    0.0000 C   0  0  0  0  0  0
    0.1208   -8.2987    0.0000 O   0  0  0  0  0  0
    1.5736  -10.4526    0.0000 N   0  0  0  0  0  0
    0.3301  -11.2914    0.0000 S   0  0  0  0  0  0
    1.1689  -12.5350    0.0000 O   0  0  0  0  0  0
   -0.5087  -10.0479    0.0000 O   0  0  0  0  0  0
   -0.9135  -12.1302    0.0000 N   0  0  0  0  0  0
   -2.3230  -11.6172    0.0000 C   0  0  0  0  0  0
   -3.2465  -12.7992    0.0000 C   0  0  0  0  0  0
   -2.4077  -14.0428    0.0000 C   0  0  0  0  0  0
   -0.9658  -13.6293    0.0000 C   0  0  0  0  0  0
  1  2  1  0  0  0
  2  3  1  0  0  0
  3  4  1  0  0  0
  3  5  1  6  0  0
  4  5  1  0  0  0
  5  6  1  0  0  0
  5 49  1  6  0  0
  6  7  1  0  0  0
  7  8  2  0  0  0
  7  9  1  0  0  0
  9 10  1  0  0  0
  9 13  1  1  0  0
 10 11  1  0  0  0
 11 12  1  0  0  0
 11 42  1  0  0  0
 11 45  1  6  0  0
 12 13  1  0  0  0
 13 14  1  0  0  0
 14 15  2  0  0  0
 14 16  1  0  0  0
 16 17  1  0  0  0
 16 38  1  6  0  0
 17 18  1  0  0  0
 18 19  2  0  0  0
 18 20  1  0  0  0
 20 21  1  0  0  0
 20 32  1  6  0  0
 21 22  1  0  0  0
 22 23  2  0  0  0
 22 24  1  0  0  0
 24 25  1  0  0  0
 24 29  1  1  0  0
 25 26  1  0  0  0
 26 27  1  0  0  0
 27 28  1  0  0  0
 28 29  1  0  0  0
 29 30  1  0  0  0
 30 31  1  0  0  0
 32 33  1  0  0  0
 32 37  1  0  0  0
 33 34  1  0  0  0
 34 35  1  0  0  0
 35 36  1  0  0  0
 36 37  1  0  0  0
 38 39  1  0  0  0
 38 40  1  0  0  0
 38 41  1  0  0  0
 42 43  1  0  0  0
 42 44  1  0  0  0
 42 45  1  0  0  0
 45 46  1  0  0  0
 45 48  1  0  0  0
 46 47  1  0  0  0
 47 48  1  0  0  0
 49 50  2  0  0  0
 49 51  1  0  0  0
 51 52  1  0  0  0
 52 53  2  0  0  0
 52 54  2  0  0  0
 52 55  1  0  0  0
 55 56  1  0  0  0
 55 59  1  0  0  0
 56 57  1  0  0  0
 57 58  1  0  0  0
 58 59  1  0  0  0
M  END
> <s_m_entry_id>
6804

> <s_m_entry_name>
NS3-4A.345

> <CHEMBLID>
CHEMBL3645660

> <s_m_Source_Path>
/home/liwei/Desktop/Machine/HCV/Active

> <s_m_Source_File>
NS3-4A.sdf

> <i_m_Source_File_Index>
345

$$$$
CHEMBL3645661
                    3D
 Structure written by MMmdl.
 51 56  0  0  1  0            999 V2000
   -7.3914  -10.9741    0.0000 C   0  0  0  0  0  0
   -6.5097   -9.7606    0.0000 N   0  0  0  0  0  0
   -5.0179   -9.9174    0.0000 C   0  0  0  0  0  0
   -4.4078  -11.2877    0.0000 O   0  0  0  0  0  0
   -4.1363   -8.7039    0.0000 C   0  0  0  0  0  0
   -4.7464   -7.3335    0.0000 C   0  0  0  0  0  0
   -3.8647   -6.1200    0.0000 C   0  0  0  0  0  0
   -2.3729   -6.2768    0.0000 C   0  0  0  0  0  0
   -1.7628   -7.6471    0.0000 C   0  0  0  0  0  0
   -2.6445   -8.8607    0.0000 C   0  0  0  0  0  0
   -0.2710   -7.8039    0.0000 C   0  0  0  0  0  0
    0.3391   -9.1742    0.0000 O   0  0  0  0  0  0
    0.6107   -6.5904    0.0000 N   0  0  0  0  0  0
    2.1024   -6.7472    0.0000 C   0  0  2  0  0  0
    2.9841   -5.5337    0.0000 C   0  0  0  0  0  0
    4.4759   -5.6905    0.0000 O   0  0  0  0  0  0
    2.3740   -4.1633    0.0000 N   0  0  0  0  0  0
    0.9068   -3.8515    0.0000 C   0  0  0  0  0  0
    0.7500   -2.3597    0.0000 C   0  0  1  0  0  0
    2.1203   -1.7496    0.0000 C   0  0  0  0  0  0
    3.1240   -2.8643    0.0000 C   0  0  3  0  0  0
    4.6158   -2.7075    0.0000 C   0  0  0  0  0  0
    5.2259   -1.3372    0.0000 O   0  0  0  0  0  0
    5.4975   -3.9210    0.0000 N   0  0  0  0  0  0
    6.9893   -3.7643    0.0000 C   0  0  1  0  0  0
    8.3374   -3.1067    0.0000 C   0  0  0  0  0  0
    7.0939   -2.2679    0.0000 C   0  0  1  0  0  0
    6.4363   -0.9197    0.0000 C   0  0  0  0  0  0
    7.2751    0.3238    0.0000 C   0  0  0  0  0  0
    7.4027   -5.2061    0.0000 C   0  0  0  0  0  0
    6.3607   -6.2852    0.0000 O   0  0  0  0  0  0
    8.8582   -5.5690    0.0000 N   0  0  0  0  0  0
    9.2716   -7.0109    0.0000 S   0  0  0  0  0  0
   10.7135   -6.5975    0.0000 O   0  0  0  0  0  0
    7.8297   -7.4244    0.0000 O   0  0  0  0  0  0
    9.6851   -8.4528    0.0000 N   0  0  0  0  0  0
    8.7616   -9.6348    0.0000 C   0  0  0  0  0  0
    9.6004  -10.8784    0.0000 C   0  0  0  0  0  0
   11.0423  -10.4649    0.0000 C   0  0  0  0  0  0
   11.0946   -8.9658    0.0000 C   0  0  0  0  0  0
   -0.7500   -2.3597    0.0000 C   0  0  0  0  0  0
   -1.0105   -3.8369    0.0000 C   0  0  0  0  0  0
   -2.1595   -1.8467    0.0000 C   0  0  0  0  0  0
   -0.0000   -1.0607    0.0000 C   0  0  0  0  0  0
    1.0607    0.0000    0.0000 C   0  0  0  0  0  0
    0.0000    1.0607    0.0000 C   0  0  0  0  0  0
   -1.0607    0.0000    0.0000 C   0  0  0  0  0  0
    2.7125   -8.1175    0.0000 C   0  0  0  0  0  0
    1.3422   -8.7276    0.0000 C   0  0  0  0  0  0
    4.0829   -7.5074    0.0000 C   0  0  0  0  0  0
    3.3227   -9.4878    0.0000 C   0  0  0  0  0  0
  1  2  1  0  0  0
  2  3  1  0  0  0
  3  4  2  0  0  0
  3  5  1  0  0  0
  5  6  2  0  0  0
  5 10  1  0  0  0
  6  7  1  0  0  0
  7  8  2  0  0  0
  8  9  1  0  0  0
  9 10  2  0  0  0
  9 11  1  0  0  0
 11 12  2  0  0  0
 11 13  1  0  0  0
 13 14  1  0  0  0
 14 15  1  0  0  0
 14 48  1  1  0  0
 15 16  2  0  0  0
 15 17  1  0  0  0
 17 18  1  0  0  0
 17 21  1  0  0  0
 18 19  1  0  0  0
 19 20  1  0  0  0
 19 41  1  0  0  0
 19 44  1  1  0  0
 20 21  1  0  0  0
 21 22  1  0  0  0
 22 23  2  0  0  0
 22 24  1  0  0  0
 24 25  1  0  0  0
 25 26  1  0  0  0
 25 30  1  0  0  0
 25 27  1  1  0  0
 26 27  1  0  0  0
 27 28  1  6  0  0
 28 29  2  0  0  0
 30 31  2  0  0  0
 30 32  1  0  0  0
 32 33  1  0  0  0
 33 34  2  0  0  0
 33 35  2  0  0  0
 33 36  1  0  0  0
 36 37  1  0  0  0
 36 40  1  0  0  0
 37 38  1  0  0  0
 38 39  1  0  0  0
 39 40  1  0  0  0
 41 42  1  0  0  0
 41 43  1  0  0  0
 41 44  1  0  0  0
 44 45  1  0  0  0
 44 47  1  0  0  0
 45 46  1  0  0  0
 46 47  1  0  0  0
 48 49  1  0  0  0
 48 50  1  0  0  0
 48 51  1  0  0  0
M  END
> <s_m_entry_id>
6805

> <s_m_entry_name>
NS3-4A.346

> <CHEMBLID>
CHEMBL3645661

> <s_m_Source_Path>
/home/liwei/Desktop/Machine/HCV/Active

> <s_m_Source_File>
NS3-4A.sdf

> <i_m_Source_File_Index>
346

$$$$
CHEMBL3645662
                    3D
 Structure written by MMmdl.
 61 67  0  0  1  0            999 V2000
    5.2999   -9.3398    0.0000 C   0  0  0  0  0  0
    6.7265   -9.8033    0.0000 C   0  0  0  0  0  0
    7.8412   -8.7996    0.0000 C   0  0  0  0  0  0
    7.0383  -11.2705    0.0000 N   0  0  0  0  0  0
    8.4087  -11.8806    0.0000 C   0  0  0  0  0  0
    8.2519  -13.3724    0.0000 C   0  0  0  0  0  0
    8.4087  -14.8642    0.0000 F   0  0  0  0  0  0
    9.7519  -13.3724    0.0000 F   0  0  0  0  0  0
    6.7846  -13.6843    0.0000 C   0  0  0  0  0  0
    6.0346  -12.3853    0.0000 C   0  0  1  0  0  0
    4.5429  -12.2285    0.0000 C   0  0  0  0  0  0
    3.6612  -13.4420    0.0000 O   0  0  0  0  0  0
    3.9328  -10.8581    0.0000 N   0  0  0  0  0  0
    2.4410  -10.7014    0.0000 C   0  0  3  0  0  0
    1.5593  -11.9149    0.0000 C   0  0  0  0  0  0
    2.1694  -13.2852    0.0000 C   0  0  0  0  0  0
    1.2877  -14.4987    0.0000 C   0  0  0  0  0  0
   -0.2041  -14.3419    0.0000 C   0  0  0  0  0  0
   -0.8142  -12.9716    0.0000 C   0  0  0  0  0  0
    0.0675  -11.7581    0.0000 C   0  0  0  0  0  0
    1.8309   -9.3310    0.0000 C   0  0  0  0  0  0
    0.3391   -9.1742    0.0000 O   0  0  0  0  0  0
    2.7125   -8.1175    0.0000 N   0  0  0  0  0  0
    2.1024   -6.7472    0.0000 C   0  0  2  0  0  0
    2.9841   -5.5337    0.0000 C   0  0  0  0  0  0
    4.4759   -5.6905    0.0000 O   0  0  0  0  0  0
    2.3740   -4.1633    0.0000 N   0  0  0  0  0  0
    0.9068   -3.8515    0.0000 C   0  0  0  0  0  0
    0.7500   -2.3597    0.0000 C   0  0  1  0  0  0
    2.1203   -1.7496    0.0000 C   0  0  0  0  0  0
    3.1240   -2.8643    0.0000 C   0  0  1  0  0  0
    4.6158   -2.7075    0.0000 C   0  0  0  0  0  0
    5.2259   -1.3372    0.0000 O   0  0  0  0  0  0
    5.4975   -3.9210    0.0000 N   0  0  0  0  0  0
    6.9893   -3.7643    0.0000 C   0  0  1  0  0  0
    8.3374   -3.1067    0.0000 C   0  0  0  0  0  0
    7.0939   -2.2679    0.0000 C   0  0  1  0  0  0
    6.4363   -0.9197    0.0000 C   0  0  0  0  0  0
    7.2751    0.3238    0.0000 C   0  0  0  0  0  0
    7.4027   -5.2061    0.0000 C   0  0  0  0  0  0
    6.3607   -6.2852    0.0000 O   0  0  0  0  0  0
    8.8582   -5.5690    0.0000 N   0  0  0  0  0  0
    9.2716   -7.0109    0.0000 S   0  0  0  0  0  0
   10.7135   -6.5975    0.0000 O   0  0  0  0  0  0
    7.8297   -7.4244    0.0000 O   0  0  0  0  0  0
    9.6851   -8.4528    0.0000 N   0  0  0  0  0  0
    8.7616   -9.6348    0.0000 C   0  0  0  0  0  0
    9.6004  -10.8784    0.0000 C   0  0  0  0  0  0
   11.0423  -10.4649    0.0000 C   0  0  0  0  0  0
   11.0946   -8.9658    0.0000 C   0  0  0  0  0  0
   -0.7500   -2.3597    0.0000 C   0  0  0  0  0  0
   -1.0105   -3.8369    0.0000 C   0  0  0  0  0  0
   -2.1595   -1.8467    0.0000 C   0  0  0  0  0  0
   -0.0000   -1.0607    0.0000 C   0  0  0  0  0  0
    1.0607    0.0000    0.0000 C   0  0  0  0  0  0
    0.0000    1.0607    0.0000 C   0  0  0  0  0  0
   -1.0607    0.0000    0.0000 C   0  0  0  0  0  0
    0.6107   -6.5904    0.0000 C   0  0  0  0  0  0
    0.4539   -8.0822    0.0000 C   0  0  0  0  0  0
    0.7675   -5.0986    0.0000 C   0  0  0  0  0  0
   -0.8811   -6.4336    0.0000 C   0  0  0  0  0  0
  1  2  1  0  0  0
  2  3  1  0  0  0
  2  4  1  0  0  0
  4  5  1  0  0  0
  4 10  1  0  0  0
  5  6  1  0  0  0
  6  7  1  0  0  0
  6  8  1  0  0  0
  6  9  1  0  0  0
  9 10  1  0  0  0
 10 11  1  6  0  0
 11 12  2  0  0  0
 11 13  1  0  0  0
 13 14  1  0  0  0
 14 15  1  0  0  0
 14 21  1  0  0  0
 15 16  1  0  0  0
 15 20  1  0  0  0
 16 17  1  0  0  0
 17 18  1  0  0  0
 18 19  1  0  0  0
 19 20  1  0  0  0
 21 22  2  0  0  0
 21 23  1  0  0  0
 23 24  1  0  0  0
 24 25  1  0  0  0
 24 58  1  1  0  0
 25 26  2  0  0  0
 25 27  1  0  0  0
 27 28  1  0  0  0
 27 31  1  0  0  0
 28 29  1  0  0  0
 29 30  1  0  0  0
 29 51  1  0  0  0
 29 54  1  1  0  0
 30 31  1  0  0  0
 31 32  1  6  0  0
 32 33  2  0  0  0
 32 34  1  0  0  0
 34 35  1  0  0  0
 35 36  1  0  0  0
 35 40  1  0  0  0
 35 37  1  1  0  0
 36 37  1  0  0  0
 37 38  1  6  0  0
 38 39  2  0  0  0
 40 41  2  0  0  0
 40 42  1  0  0  0
 42 43  1  0  0  0
 43 44  2  0  0  0
 43 45  2  0  0  0
 43 46  1  0  0  0
 46 47  1  0  0  0
 46 50  1  0  0  0
 47 48  1  0  0  0
 48 49  1  0  0  0
 49 50  1  0  0  0
 51 52  1  0  0  0
 51 53  1  0  0  0
 51 54  1  0  0  0
 54 55  1  0  0  0
 54 57  1  0  0  0
 55 56  1  0  0  0
 56 57  1  0  0  0
 58 59  1  0  0  0
 58 60  1  0  0  0
 58 61  1  0  0  0
M  END
> <s_m_entry_id>
6806

> <s_m_entry_name>
NS3-4A.347

> <CHEMBLID>
CHEMBL3645662

> <s_m_Source_Path>
/home/liwei/Desktop/Machine/HCV/Active

> <s_m_Source_File>
NS3-4A.sdf

> <i_m_Source_File_Index>
347

$$$$
CHEMBL3645663
                    3D
 Structure written by MMmdl.
 60 66  0  0  1  0            999 V2000
    6.6889   -7.1261    0.0000 C   0  0  0  0  0  0
    5.2470   -6.7126    0.0000 C   0  0  0  0  0  0
    4.1680   -7.7546    0.0000 C   0  0  2  0  0  0
    3.7545   -9.1965    0.0000 C   0  0  0  0  0  0
    2.7125   -8.1175    0.0000 C   0  0  2  0  0  0
    2.1024   -6.7472    0.0000 N   0  0  0  0  0  0
    2.9841   -5.5337    0.0000 C   0  0  0  0  0  0
    4.4759   -5.6905    0.0000 O   0  0  0  0  0  0
    2.3740   -4.1633    0.0000 C   0  0  2  0  0  0
    0.9068   -3.8515    0.0000 C   0  0  0  0  0  0
    0.7500   -2.3597    0.0000 C   0  0  2  0  0  0
    2.1203   -1.7496    0.0000 C   0  0  0  0  0  0
    3.1240   -2.8643    0.0000 N   0  0  0  0  0  0
    4.6158   -2.7075    0.0000 C   0  0  0  0  0  0
    5.4975   -3.9210    0.0000 O   0  0  0  0  0  0
    5.2259   -1.3372    0.0000 C   0  0  1  0  0  0
    6.7177   -1.1804    0.0000 N   0  0  0  0  0  0
    7.3278    0.1899    0.0000 C   0  0  0  0  0  0
    6.4461    1.4034    0.0000 O   0  0  0  0  0  0
    8.8196    0.3467    0.0000 C   0  0  1  0  0  0
    9.7013   -0.8668    0.0000 N   0  0  0  0  0  0
   11.1930   -0.7100    0.0000 C   0  0  0  0  0  0
   11.8031    0.6603    0.0000 O   0  0  0  0  0  0
   12.0747   -1.9236    0.0000 C   0  0  2  0  0  0
   13.5665   -1.7668    0.0000 C   0  0  0  0  0  0
   14.4482   -2.9803    0.0000 C   0  0  0  0  0  0
   13.8381   -4.3506    0.0000 C   0  0  0  0  0  0
   12.3463   -4.5074    0.0000 C   0  0  0  0  0  0
   11.4646   -3.2939    0.0000 N   0  0  0  0  0  0
    9.9728   -3.4507    0.0000 C   0  0  0  0  0  0
    9.0911   -2.2371    0.0000 C   0  0  0  0  0  0
    9.3627   -4.8210    0.0000 C   0  0  0  0  0  0
    9.4297    1.7170    0.0000 C   0  0  0  0  0  0
    8.5480    2.9305    0.0000 C   0  0  0  0  0  0
    9.1581    4.3009    0.0000 C   0  0  0  0  0  0
   10.6499    4.4577    0.0000 C   0  0  0  0  0  0
   11.5316    3.2441    0.0000 C   0  0  0  0  0  0
   10.9215    1.8738    0.0000 C   0  0  0  0  0  0
    4.3442   -0.1237    0.0000 C   0  0  0  0  0  0
    5.5577    0.7580    0.0000 C   0  0  0  0  0  0
    3.1307   -1.0054    0.0000 C   0  0  0  0  0  0
    3.4625    1.0899    0.0000 C   0  0  0  0  0  0
   -0.7500   -2.3597    0.0000 C   0  0  0  0  0  0
   -1.0105   -3.8369    0.0000 C   0  0  0  0  0  0
   -2.1595   -1.8467    0.0000 C   0  0  0  0  0  0
   -0.0000   -1.0607    0.0000 C   0  0  0  0  0  0
    1.0607    0.0000    0.0000 C   0  0  0  0  0  0
    0.0000    1.0607    0.0000 C   0  0  0  0  0  0
   -1.0607    0.0000    0.0000 C   0  0  0  0  0  0
    1.4690   -8.9563    0.0000 C   0  0  0  0  0  0
    0.1208   -8.2987    0.0000 O   0  0  0  0  0  0
    1.5736  -10.4526    0.0000 N   0  0  0  0  0  0
    0.3301  -11.2914    0.0000 S   0  0  0  0  0  0
    1.1689  -12.5350    0.0000 O   0  0  0  0  0  0
   -0.5087  -10.0479    0.0000 O   0  0  0  0  0  0
   -0.9135  -12.1302    0.0000 N   0  0  0  0  0  0
   -2.2617  -11.4727    0.0000 C   0  0  0  0  0  0
   -0.8089  -13.6266    0.0000 C   0  0  0  0  0  0
   -1.4664  -14.9748    0.0000 C   0  0  0  0  0  0
    0.0299  -14.8701    0.0000 C   0  0  0  0  0  0
  1  2  1  0  0  0
  2  3  1  0  0  0
  3  4  1  0  0  0
  3  5  1  6  0  0
  4  5  1  0  0  0
  5  6  1  0  0  0
  5 50  1  6  0  0
  6  7  1  0  0  0
  7  8  2  0  0  0
  7  9  1  0  0  0
  9 10  1  0  0  0
  9 13  1  1  0  0
 10 11  1  0  0  0
 11 12  1  0  0  0
 11 43  1  0  0  0
 11 46  1  6  0  0
 12 13  1  0  0  0
 13 14  1  0  0  0
 14 15  2  0  0  0
 14 16  1  0  0  0
 16 17  1  0  0  0
 16 39  1  6  0  0
 17 18  1  0  0  0
 18 19  2  0  0  0
 18 20  1  0  0  0
 20 21  1  0  0  0
 20 33  1  6  0  0
 21 22  1  0  0  0
 22 23  2  0  0  0
 22 24  1  0  0  0
 24 25  1  0  0  0
 24 29  1  1  0  0
 25 26  1  0  0  0
 26 27  1  0  0  0
 27 28  1  0  0  0
 28 29  1  0  0  0
 29 30  1  0  0  0
 30 31  1  0  0  0
 30 32  1  0  0  0
 33 34  1  0  0  0
 33 38  1  0  0  0
 34 35  1  0  0  0
 35 36  1  0  0  0
 36 37  1  0  0  0
 37 38  1  0  0  0
 39 40  1  0  0  0
 39 41  1  0  0  0
 39 42  1  0  0  0
 43 44  1  0  0  0
 43 45  1  0  0  0
 43 46  1  0  0  0
 46 47  1  0  0  0
 46 49  1  0  0  0
 47 48  1  0  0  0
 48 49  1  0  0  0
 50 51  2  0  0  0
 50 52  1  0  0  0
 52 53  1  0  0  0
 53 54  2  0  0  0
 53 55  2  0  0  0
 53 56  1  0  0  0
 56 57  1  0  0  0
 56 58  1  0  0  0
 58 59  1  0  0  0
 58 60  1  0  0  0
 59 60  1  0  0  0
M  END
> <s_m_entry_id>
6807

> <s_m_entry_name>
NS3-4A.348

> <CHEMBLID>
CHEMBL3645663

> <s_m_Source_Path>
/home/liwei/Desktop/Machine/HCV/Active

> <s_m_Source_File>
NS3-4A.sdf

> <i_m_Source_File_Index>
348

$$$$
CHEMBL3645664
                    3D
 Structure written by MMmdl.
 58 63  0  0  1  0            999 V2000
   -2.0524  -14.4654    0.0000 C   0  0  0  0  0  0
   -0.8089  -13.6266    0.0000 C   0  0  0  0  0  0
   -0.9135  -12.1302    0.0000 N   0  0  0  0  0  0
   -2.2617  -11.4727    0.0000 C   0  0  0  0  0  0
    0.3301  -11.2914    0.0000 S   0  0  0  0  0  0
    1.1689  -12.5350    0.0000 O   0  0  0  0  0  0
   -0.5087  -10.0479    0.0000 O   0  0  0  0  0  0
    1.5736  -10.4526    0.0000 N   0  0  0  0  0  0
    1.4690   -8.9563    0.0000 C   0  0  0  0  0  0
    0.1208   -8.2987    0.0000 O   0  0  0  0  0  0
    2.7125   -8.1175    0.0000 C   0  0  2  0  0  0
    3.7545   -9.1965    0.0000 C   0  0  0  0  0  0
    4.1680   -7.7546    0.0000 C   0  0  1  0  0  0
    5.2470   -6.7126    0.0000 C   0  0  0  0  0  0
    6.6889   -7.1261    0.0000 C   0  0  0  0  0  0
    2.1024   -6.7472    0.0000 N   0  0  0  0  0  0
    2.9841   -5.5337    0.0000 C   0  0  0  0  0  0
    4.4759   -5.6905    0.0000 O   0  0  0  0  0  0
    2.3740   -4.1633    0.0000 C   0  0  2  0  0  0
    0.9068   -3.8515    0.0000 C   0  0  0  0  0  0
    0.7500   -2.3597    0.0000 C   0  0  2  0  0  0
    2.1203   -1.7496    0.0000 C   0  0  0  0  0  0
    3.1240   -2.8643    0.0000 N   0  0  0  0  0  0
    4.6158   -2.7075    0.0000 C   0  0  0  0  0  0
    5.4975   -3.9210    0.0000 O   0  0  0  0  0  0
    5.2259   -1.3372    0.0000 C   0  0  1  0  0  0
    4.3442   -0.1237    0.0000 N   0  0  0  0  0  0
    4.9543    1.2466    0.0000 C   0  0  0  0  0  0
    6.4461    1.4034    0.0000 O   0  0  0  0  0  0
    4.0727    2.4602    0.0000 C   0  0  1  0  0  0
    2.5809    2.3034    0.0000 N   0  0  0  0  0  0
    1.6992    3.5169    0.0000 C   0  0  0  0  0  0
    2.3093    4.8872    0.0000 O   0  0  0  0  0  0
    0.2074    3.3601    0.0000 C   0  0  2  0  0  0
   -0.5426    2.0611    0.0000 C   0  0  0  0  0  0
   -2.0098    2.3729    0.0000 C   0  0  0  0  0  0
   -2.1666    3.8647    0.0000 C   0  0  0  0  0  0
   -0.7963    4.4748    0.0000 N   0  0  0  0  0  0
   -0.4844    5.9420    0.0000 C   0  0  0  0  0  0
   -1.5991    6.9457    0.0000 C   0  0  0  0  0  0
    0.9422    6.4056    0.0000 C   0  0  0  0  0  0
    4.6828    3.8305    0.0000 C   0  0  0  0  0  0
    6.1745    3.9873    0.0000 C   0  0  0  0  0  0
    6.7846    5.3576    0.0000 C   0  0  0  0  0  0
    5.9030    6.5711    0.0000 C   0  0  0  0  0  0
    4.4112    6.4143    0.0000 C   0  0  0  0  0  0
    3.8011    5.0440    0.0000 C   0  0  0  0  0  0
    6.7177   -1.1804    0.0000 C   0  0  0  0  0  0
    6.5609    0.3114    0.0000 C   0  0  0  0  0  0
    6.8745   -2.6722    0.0000 C   0  0  0  0  0  0
    8.2095   -1.0236    0.0000 C   0  0  0  0  0  0
   -0.7500   -2.3597    0.0000 C   0  0  0  0  0  0
   -1.0105   -3.8369    0.0000 C   0  0  0  0  0  0
   -2.1595   -1.8467    0.0000 C   0  0  0  0  0  0
   -0.0000   -1.0607    0.0000 C   0  0  0  0  0  0
    1.0607    0.0000    0.0000 C   0  0  0  0  0  0
    0.0000    1.0607    0.0000 C   0  0  0  0  0  0
   -1.0607    0.0000    0.0000 C   0  0  0  0  0  0
  1  2  1  0  0  0
  2  3  1  0  0  0
  3  4  1  0  0  0
  3  5  1  0  0  0
  5  6  2  0  0  0
  5  7  2  0  0  0
  5  8  1  0  0  0
  8  9  1  0  0  0
  9 10  2  0  0  0
  9 11  1  0  0  0
 11 12  1  0  0  0
 11 16  1  0  0  0
 11 13  1  6  0  0
 12 13  1  0  0  0
 13 14  1  6  0  0
 14 15  2  0  0  0
 16 17  1  0  0  0
 17 18  2  0  0  0
 17 19  1  0  0  0
 19 20  1  0  0  0
 19 23  1  1  0  0
 20 21  1  0  0  0
 21 22  1  0  0  0
 21 52  1  0  0  0
 21 55  1  6  0  0
 22 23  1  0  0  0
 23 24  1  0  0  0
 24 25  2  0  0  0
 24 26  1  0  0  0
 26 27  1  0  0  0
 26 48  1  6  0  0
 27 28  1  0  0  0
 28 29  2  0  0  0
 28 30  1  0  0  0
 30 31  1  0  0  0
 30 42  1  6  0  0
 31 32  1  0  0  0
 32 33  2  0  0  0
 32 34  1  0  0  0
 34 35  1  0  0  0
 34 38  1  1  0  0
 35 36  1  0  0  0
 36 37  1  0  0  0
 37 38  1  0  0  0
 38 39  1  0  0  0
 39 40  1  0  0  0
 39 41  1  0  0  0
 42 43  1  0  0  0
 42 47  1  0  0  0
 43 44  1  0  0  0
 44 45  1  0  0  0
 45 46  1  0  0  0
 46 47  1  0  0  0
 48 49  1  0  0  0
 48 50  1  0  0  0
 48 51  1  0  0  0
 52 53  1  0  0  0
 52 54  1  0  0  0
 52 55  1  0  0  0
 55 56  1  0  0  0
 55 58  1  0  0  0
 56 57  1  0  0  0
 57 58  1  0  0  0
M  END
> <s_m_entry_id>
6808

> <s_m_entry_name>
NS3-4A.349

> <CHEMBLID>
CHEMBL3645664

> <s_m_Source_Path>
/home/liwei/Desktop/Machine/HCV/Active

> <s_m_Source_File>
NS3-4A.sdf

> <i_m_Source_File_Index>
349

$$$$
CHEMBL3645665
                    3D
 Structure written by MMmdl.
 59 64  0  0  1  0            999 V2000
   -2.0524  -14.4654    0.0000 C   0  0  0  0  0  0
   -0.8089  -13.6266    0.0000 C   0  0  0  0  0  0
   -0.9135  -12.1302    0.0000 N   0  0  0  0  0  0
   -2.2617  -11.4727    0.0000 C   0  0  0  0  0  0
    0.3301  -11.2914    0.0000 S   0  0  0  0  0  0
    1.1689  -12.5350    0.0000 O   0  0  0  0  0  0
   -0.5087  -10.0479    0.0000 O   0  0  0  0  0  0
    1.5736  -10.4526    0.0000 N   0  0  0  0  0  0
    1.4690   -8.9563    0.0000 C   0  0  0  0  0  0
    0.1208   -8.2987    0.0000 O   0  0  0  0  0  0
    2.7125   -8.1175    0.0000 C   0  0  2  0  0  0
    3.7545   -9.1965    0.0000 C   0  0  0  0  0  0
    4.1680   -7.7546    0.0000 C   0  0  1  0  0  0
    5.2470   -6.7126    0.0000 C   0  0  0  0  0  0
    6.6889   -7.1261    0.0000 C   0  0  0  0  0  0
    2.1024   -6.7472    0.0000 N   0  0  0  0  0  0
    2.9841   -5.5337    0.0000 C   0  0  0  0  0  0
    4.4759   -5.6905    0.0000 O   0  0  0  0  0  0
    2.3740   -4.1633    0.0000 C   0  0  2  0  0  0
    0.9068   -3.8515    0.0000 C   0  0  0  0  0  0
    0.7500   -2.3597    0.0000 C   0  0  2  0  0  0
    2.1203   -1.7496    0.0000 C   0  0  0  0  0  0
    3.1240   -2.8643    0.0000 N   0  0  0  0  0  0
    4.6158   -2.7075    0.0000 C   0  0  0  0  0  0
    5.4975   -3.9210    0.0000 O   0  0  0  0  0  0
    5.2259   -1.3372    0.0000 C   0  0  1  0  0  0
    6.7177   -1.1804    0.0000 N   0  0  0  0  0  0
    7.3278    0.1899    0.0000 C   0  0  0  0  0  0
    6.4461    1.4034    0.0000 O   0  0  0  0  0  0
    8.8196    0.3467    0.0000 C   0  0  1  0  0  0
    9.7013   -0.8668    0.0000 N   0  0  0  0  0  0
   11.1930   -0.7100    0.0000 C   0  0  0  0  0  0
   11.8031    0.6603    0.0000 O   0  0  0  0  0  0
   12.0747   -1.9236    0.0000 C   0  0  1  0  0  0
   13.5665   -1.7668    0.0000 C   0  0  0  0  0  0
   14.4482   -2.9803    0.0000 C   0  0  0  0  0  0
   13.8381   -4.3506    0.0000 C   0  0  0  0  0  0
   12.3463   -4.5074    0.0000 C   0  0  0  0  0  0
   11.4646   -3.2939    0.0000 N   0  0  0  0  0  0
    9.9728   -3.4507    0.0000 C   0  0  0  0  0  0
    9.0911   -2.2371    0.0000 C   0  0  0  0  0  0
    9.3627   -4.8210    0.0000 C   0  0  0  0  0  0
    9.4297    1.7170    0.0000 C   0  0  0  0  0  0
    8.5480    2.9305    0.0000 C   0  0  0  0  0  0
    9.1581    4.3009    0.0000 C   0  0  0  0  0  0
   10.6499    4.4577    0.0000 C   0  0  0  0  0  0
   11.5316    3.2441    0.0000 C   0  0  0  0  0  0
   10.9215    1.8738    0.0000 C   0  0  0  0  0  0
    4.3442   -0.1237    0.0000 C   0  0  0  0  0  0
    5.5577    0.7580    0.0000 C   0  0  0  0  0  0
    3.1307   -1.0054    0.0000 C   0  0  0  0  0  0
    3.4625    1.0899    0.0000 C   0  0  0  0  0  0
   -0.7500   -2.3597    0.0000 C   0  0  0  0  0  0
   -1.0105   -3.8369    0.0000 C   0  0  0  0  0  0
   -2.1595   -1.8467    0.0000 C   0  0  0  0  0  0
   -0.0000   -1.0607    0.0000 C   0  0  0  0  0  0
    1.0607    0.0000    0.0000 C   0  0  0  0  0  0
    0.0000    1.0607    0.0000 C   0  0  0  0  0  0
   -1.0607    0.0000    0.0000 C   0  0  0  0  0  0
  1  2  1  0  0  0
  2  3  1  0  0  0
  3  4  1  0  0  0
  3  5  1  0  0  0
  5  6  2  0  0  0
  5  7  2  0  0  0
  5  8  1  0  0  0
  8  9  1  0  0  0
  9 10  2  0  0  0
  9 11  1  0  0  0
 11 12  1  0  0  0
 11 16  1  0  0  0
 11 13  1  6  0  0
 12 13  1  0  0  0
 13 14  1  6  0  0
 14 15  2  0  0  0
 16 17  1  0  0  0
 17 18  2  0  0  0
 17 19  1  0  0  0
 19 20  1  0  0  0
 19 23  1  1  0  0
 20 21  1  0  0  0
 21 22  1  0  0  0
 21 53  1  0  0  0
 21 56  1  6  0  0
 22 23  1  0  0  0
 23 24  1  0  0  0
 24 25  2  0  0  0
 24 26  1  0  0  0
 26 27  1  0  0  0
 26 49  1  6  0  0
 27 28  1  0  0  0
 28 29  2  0  0  0
 28 30  1  0  0  0
 30 31  1  0  0  0
 30 43  1  6  0  0
 31 32  1  0  0  0
 32 33  2  0  0  0
 32 34  1  0  0  0
 34 35  1  0  0  0
 34 39  1  1  0  0
 35 36  1  0  0  0
 36 37  1  0  0  0
 37 38  1  0  0  0
 38 39  1  0  0  0
 39 40  1  0  0  0
 40 41  1  0  0  0
 40 42  1  0  0  0
 43 44  1  0  0  0
 43 48  1  0  0  0
 44 45  1  0  0  0
 45 46  1  0  0  0
 46 47  1  0  0  0
 47 48  1  0  0  0
 49 50  1  0  0  0
 49 51  1  0  0  0
 49 52  1  0  0  0
 53 54  1  0  0  0
 53 55  1  0  0  0
 53 56  1  0  0  0
 56 57  1  0  0  0
 56 59  1  0  0  0
 57 58  1  0  0  0
 58 59  1  0  0  0
M  END
> <s_m_entry_id>
6809

> <s_m_entry_name>
NS3-4A.350

> <CHEMBLID>
CHEMBL3645665

> <s_m_Source_Path>
/home/liwei/Desktop/Machine/HCV/Active

> <s_m_Source_File>
NS3-4A.sdf

> <i_m_Source_File_Index>
350

$$$$
CHEMBL3645666
                    3D
 Structure written by MMmdl.
 57 62  0  0  1  0            999 V2000
   -2.0524  -14.4654    0.0000 C   0  0  0  0  0  0
   -0.8089  -13.6266    0.0000 C   0  0  0  0  0  0
   -0.9135  -12.1302    0.0000 N   0  0  0  0  0  0
   -2.2617  -11.4727    0.0000 C   0  0  0  0  0  0
    0.3301  -11.2914    0.0000 S   0  0  0  0  0  0
    1.1689  -12.5350    0.0000 O   0  0  0  0  0  0
   -0.5087  -10.0479    0.0000 O   0  0  0  0  0  0
    1.5736  -10.4526    0.0000 N   0  0  0  0  0  0
    1.4690   -8.9563    0.0000 C   0  0  0  0  0  0
    0.1208   -8.2987    0.0000 O   0  0  0  0  0  0
    2.7125   -8.1175    0.0000 C   0  0  2  0  0  0
    3.7545   -9.1965    0.0000 C   0  0  0  0  0  0
    4.1680   -7.7546    0.0000 C   0  0  1  0  0  0
    5.2470   -6.7126    0.0000 C   0  0  0  0  0  0
    6.6889   -7.1261    0.0000 C   0  0  0  0  0  0
    2.1024   -6.7472    0.0000 N   0  0  0  0  0  0
    2.9841   -5.5337    0.0000 C   0  0  0  0  0  0
    4.4759   -5.6905    0.0000 O   0  0  0  0  0  0
    2.3740   -4.1633    0.0000 C   0  0  2  0  0  0
    0.9068   -3.8515    0.0000 C   0  0  0  0  0  0
    0.7500   -2.3597    0.0000 C   0  0  2  0  0  0
    2.1203   -1.7496    0.0000 C   0  0  0  0  0  0
    3.1240   -2.8643    0.0000 N   0  0  0  0  0  0
    4.6158   -2.7075    0.0000 C   0  0  0  0  0  0
    5.4975   -3.9210    0.0000 O   0  0  0  0  0  0
    5.2259   -1.3372    0.0000 C   0  0  1  0  0  0
    6.7177   -1.1804    0.0000 N   0  0  0  0  0  0
    7.3278    0.1899    0.0000 C   0  0  0  0  0  0
    6.4461    1.4034    0.0000 O   0  0  0  0  0  0
    8.8196    0.3467    0.0000 C   0  0  1  0  0  0
    9.7013   -0.8668    0.0000 N   0  0  0  0  0  0
   11.1930   -0.7100    0.0000 C   0  0  0  0  0  0
   11.8031    0.6603    0.0000 O   0  0  0  0  0  0
   12.0747   -1.9236    0.0000 C   0  0  2  0  0  0
   13.5665   -1.7668    0.0000 C   0  0  0  0  0  0
   14.4482   -2.9803    0.0000 C   0  0  0  0  0  0
   13.8381   -4.3506    0.0000 C   0  0  0  0  0  0
   12.3463   -4.5074    0.0000 C   0  0  0  0  0  0
   11.4646   -3.2939    0.0000 N   0  0  0  0  0  0
    9.9728   -3.4507    0.0000 C   0  0  0  0  0  0
    9.4297    1.7170    0.0000 C   0  0  0  0  0  0
    8.5480    2.9305    0.0000 C   0  0  0  0  0  0
    9.1581    4.3009    0.0000 C   0  0  0  0  0  0
   10.6499    4.4577    0.0000 C   0  0  0  0  0  0
   11.5316    3.2441    0.0000 C   0  0  0  0  0  0
   10.9215    1.8738    0.0000 C   0  0  0  0  0  0
    4.3442   -0.1237    0.0000 C   0  0  0  0  0  0
    5.5577    0.7580    0.0000 C   0  0  0  0  0  0
    3.1307   -1.0054    0.0000 C   0  0  0  0  0  0
    3.4625    1.0899    0.0000 C   0  0  0  0  0  0
   -0.7500   -2.3597    0.0000 C   0  0  0  0  0  0
   -1.0105   -3.8369    0.0000 C   0  0  0  0  0  0
   -2.1595   -1.8467    0.0000 C   0  0  0  0  0  0
   -0.0000   -1.0607    0.0000 C   0  0  0  0  0  0
    1.0607    0.0000    0.0000 C   0  0  0  0  0  0
    0.0000    1.0607    0.0000 C   0  0  0  0  0  0
   -1.0607    0.0000    0.0000 C   0  0  0  0  0  0
  1  2  1  0  0  0
  2  3  1  0  0  0
  3  4  1  0  0  0
  3  5  1  0  0  0
  5  6  2  0  0  0
  5  7  2  0  0  0
  5  8  1  0  0  0
  8  9  1  0  0  0
  9 10  2  0  0  0
  9 11  1  0  0  0
 11 12  1  0  0  0
 11 16  1  0  0  0
 11 13  1  6  0  0
 12 13  1  0  0  0
 13 14  1  6  0  0
 14 15  2  0  0  0
 16 17  1  0  0  0
 17 18  2  0  0  0
 17 19  1  0  0  0
 19 20  1  0  0  0
 19 23  1  1  0  0
 20 21  1  0  0  0
 21 22  1  0  0  0
 21 51  1  0  0  0
 21 54  1  6  0  0
 22 23  1  0  0  0
 23 24  1  0  0  0
 24 25  2  0  0  0
 24 26  1  0  0  0
 26 27  1  0  0  0
 26 47  1  6  0  0
 27 28  1  0  0  0
 28 29  2  0  0  0
 28 30  1  0  0  0
 30 31  1  0  0  0
 30 41  1  6  0  0
 31 32  1  0  0  0
 32 33  2  0  0  0
 32 34  1  0  0  0
 34 35  1  0  0  0
 34 39  1  1  0  0
 35 36  1  0  0  0
 36 37  1  0  0  0
 37 38  1  0  0  0
 38 39  1  0  0  0
 39 40  1  0  0  0
 41 42  1  0  0  0
 41 46  1  0  0  0
 42 43  1  0  0  0
 43 44  1  0  0  0
 44 45  1  0  0  0
 45 46  1  0  0  0
 47 48  1  0  0  0
 47 49  1  0  0  0
 47 50  1  0  0  0
 51 52  1  0  0  0
 51 53  1  0  0  0
 51 54  1  0  0  0
 54 55  1  0  0  0
 54 57  1  0  0  0
 55 56  1  0  0  0
 56 57  1  0  0  0
M  END
> <s_m_entry_id>
6810

> <s_m_entry_name>
NS3-4A.351

> <CHEMBLID>
CHEMBL3645666

> <s_m_Source_Path>
/home/liwei/Desktop/Machine/HCV/Active

> <s_m_Source_File>
NS3-4A.sdf

> <i_m_Source_File_Index>
351

$$$$
CHEMBL3645667
                    3D
 Structure written by MMmdl.
 58 63  0  0  1  0            999 V2000
   -2.0524  -14.4654    0.0000 C   0  0  0  0  0  0
   -0.8089  -13.6266    0.0000 C   0  0  0  0  0  0
   -0.9135  -12.1302    0.0000 N   0  0  0  0  0  0
   -2.2617  -11.4727    0.0000 C   0  0  0  0  0  0
    0.3301  -11.2914    0.0000 S   0  0  0  0  0  0
    1.1689  -12.5350    0.0000 O   0  0  0  0  0  0
   -0.5087  -10.0479    0.0000 O   0  0  0  0  0  0
    1.5736  -10.4526    0.0000 N   0  0  0  0  0  0
    1.4690   -8.9563    0.0000 C   0  0  0  0  0  0
    0.1208   -8.2987    0.0000 O   0  0  0  0  0  0
    2.7125   -8.1175    0.0000 C   0  0  2  0  0  0
    3.7545   -9.1965    0.0000 C   0  0  0  0  0  0
    4.1680   -7.7546    0.0000 C   0  0  1  0  0  0
    5.2470   -6.7126    0.0000 C   0  0  0  0  0  0
    6.6889   -7.1261    0.0000 C   0  0  0  0  0  0
    2.1024   -6.7472    0.0000 N   0  0  0  0  0  0
    2.9841   -5.5337    0.0000 C   0  0  0  0  0  0
    4.4759   -5.6905    0.0000 O   0  0  0  0  0  0
    2.3740   -4.1633    0.0000 C   0  0  2  0  0  0
    0.9068   -3.8515    0.0000 C   0  0  0  0  0  0
    0.7500   -2.3597    0.0000 C   0  0  2  0  0  0
    2.1203   -1.7496    0.0000 C   0  0  0  0  0  0
    3.1240   -2.8643    0.0000 N   0  0  0  0  0  0
    4.6158   -2.7075    0.0000 C   0  0  0  0  0  0
    5.4975   -3.9210    0.0000 O   0  0  0  0  0  0
    5.2259   -1.3372    0.0000 C   0  0  1  0  0  0
    6.7177   -1.1804    0.0000 N   0  0  0  0  0  0
    7.3278    0.1899    0.0000 C   0  0  0  0  0  0
    6.4461    1.4034    0.0000 O   0  0  0  0  0  0
    8.8196    0.3467    0.0000 C   0  0  1  0  0  0
    9.7013   -0.8668    0.0000 N   0  0  0  0  0  0
   11.1930   -0.7100    0.0000 C   0  0  0  0  0  0
   11.8031    0.6603    0.0000 O   0  0  0  0  0  0
   12.0747   -1.9236    0.0000 C   0  0  2  0  0  0
   13.5665   -1.7668    0.0000 C   0  0  0  0  0  0
   14.4482   -2.9803    0.0000 C   0  0  0  0  0  0
   13.8381   -4.3506    0.0000 C   0  0  0  0  0  0
   12.3463   -4.5074    0.0000 C   0  0  0  0  0  0
   11.4646   -3.2939    0.0000 N   0  0  0  0  0  0
    9.9728   -3.4507    0.0000 C   0  0  0  0  0  0
    9.0911   -2.2371    0.0000 C   0  0  0  0  0  0
    9.4297    1.7170    0.0000 C   0  0  0  0  0  0
    8.5480    2.9305    0.0000 C   0  0  0  0  0  0
    9.1581    4.3009    0.0000 C   0  0  0  0  0  0
   10.6499    4.4577    0.0000 C   0  0  0  0  0  0
   11.5316    3.2441    0.0000 C   0  0  0  0  0  0
   10.9215    1.8738    0.0000 C   0  0  0  0  0  0
    4.3442   -0.1237    0.0000 C   0  0  0  0  0  0
    5.5577    0.7580    0.0000 C   0  0  0  0  0  0
    3.1307   -1.0054    0.0000 C   0  0  0  0  0  0
    3.4625    1.0899    0.0000 C   0  0  0  0  0  0
   -0.7500   -2.3597    0.0000 C   0  0  0  0  0  0
   -1.0105   -3.8369    0.0000 C   0  0  0  0  0  0
   -2.1595   -1.8467    0.0000 C   0  0  0  0  0  0
   -0.0000   -1.0607    0.0000 C   0  0  0  0  0  0
    1.0607    0.0000    0.0000 C   0  0  0  0  0  0
    0.0000    1.0607    0.0000 C   0  0  0  0  0  0
   -1.0607    0.0000    0.0000 C   0  0  0  0  0  0
  1  2  1  0  0  0
  2  3  1  0  0  0
  3  4  1  0  0  0
  3  5  1  0  0  0
  5  6  2  0  0  0
  5  7  2  0  0  0
  5  8  1  0  0  0
  8  9  1  0  0  0
  9 10  2  0  0  0
  9 11  1  0  0  0
 11 12  1  0  0  0
 11 16  1  0  0  0
 11 13  1  6  0  0
 12 13  1  0  0  0
 13 14  1  6  0  0
 14 15  2  0  0  0
 16 17  1  0  0  0
 17 18  2  0  0  0
 17 19  1  0  0  0
 19 20  1  0  0  0
 19 23  1  1  0  0
 20 21  1  0  0  0
 21 22  1  0  0  0
 21 52  1  0  0  0
 21 55  1  6  0  0
 22 23  1  0  0  0
 23 24  1  0  0  0
 24 25  2  0  0  0
 24 26  1  0  0  0
 26 27  1  0  0  0
 26 48  1  6  0  0
 27 28  1  0  0  0
 28 29  2  0  0  0
 28 30  1  0  0  0
 30 31  1  0  0  0
 30 42  1  6  0  0
 31 32  1  0  0  0
 32 33  2  0  0  0
 32 34  1  0  0  0
 34 35  1  0  0  0
 34 39  1  1  0  0
 35 36  1  0  0  0
 36 37  1  0  0  0
 37 38  1  0  0  0
 38 39  1  0  0  0
 39 40  1  0  0  0
 40 41  1  0  0  0
 42 43  1  0  0  0
 42 47  1  0  0  0
 43 44  1  0  0  0
 44 45  1  0  0  0
 45 46  1  0  0  0
 46 47  1  0  0  0
 48 49  1  0  0  0
 48 50  1  0  0  0
 48 51  1  0  0  0
 52 53  1  0  0  0
 52 54  1  0  0  0
 52 55  1  0  0  0
 55 56  1  0  0  0
 55 58  1  0  0  0
 56 57  1  0  0  0
 57 58  1  0  0  0
M  END
> <s_m_entry_id>
6811

> <s_m_entry_name>
NS3-4A.352

> <CHEMBLID>
CHEMBL3645667

> <s_m_Source_Path>
/home/liwei/Desktop/Machine/HCV/Active

> <s_m_Source_File>
NS3-4A.sdf

> <i_m_Source_File_Index>
352

$$$$
CHEMBL3645668
                    3D
 Structure written by MMmdl.
 59 65  0  0  1  0            999 V2000
   -1.3513   -4.5074    0.0000 C   0  0  0  0  0  0
   -2.2330   -3.2939    0.0000 C   0  0  0  0  0  0
   -3.7248   -3.4507    0.0000 N   0  0  0  0  0  0
   -4.7285   -2.3359    0.0000 C   0  0  0  0  0  0
   -6.0988   -2.9461    0.0000 C   0  0  0  0  0  0
   -5.9420   -4.4378    0.0000 C   0  0  0  0  0  0
   -4.4748   -4.7497    0.0000 C   0  0  1  0  0  0
   -3.8647   -6.1200    0.0000 C   0  0  0  0  0  0
   -4.7464   -7.3335    0.0000 O   0  0  0  0  0  0
   -2.3729   -6.2768    0.0000 N   0  0  0  0  0  0
   -1.7628   -7.6471    0.0000 C   0  0  1  0  0  0
   -2.6445   -8.8607    0.0000 C   0  0  0  0  0  0
   -4.1363   -8.7039    0.0000 C   0  0  0  0  0  0
   -5.0179   -9.9174    0.0000 C   0  0  0  0  0  0
   -4.4078  -11.2877    0.0000 C   0  0  0  0  0  0
   -2.9161  -11.4445    0.0000 C   0  0  0  0  0  0
   -2.0344  -10.2310    0.0000 C   0  0  0  0  0  0
   -0.2710   -7.8039    0.0000 C   0  0  0  0  0  0
    0.3391   -9.1742    0.0000 O   0  0  0  0  0  0
    0.6107   -6.5904    0.0000 N   0  0  0  0  0  0
    2.1024   -6.7472    0.0000 C   0  0  2  0  0  0
    2.9841   -5.5337    0.0000 C   0  0  0  0  0  0
    4.4759   -5.6905    0.0000 O   0  0  0  0  0  0
    2.3740   -4.1633    0.0000 N   0  0  0  0  0  0
    0.9068   -3.8515    0.0000 C   0  0  0  0  0  0
    0.7500   -2.3597    0.0000 C   0  0  1  0  0  0
    2.1203   -1.7496    0.0000 C   0  0  0  0  0  0
    3.1240   -2.8643    0.0000 C   0  0  1  0  0  0
    4.6158   -2.7075    0.0000 C   0  0  0  0  0  0
    5.2259   -1.3372    0.0000 O   0  0  0  0  0  0
    5.4975   -3.9210    0.0000 N   0  0  0  0  0  0
    6.9893   -3.7643    0.0000 C   0  0  1  0  0  0
    8.3374   -3.1067    0.0000 C   0  0  0  0  0  0
    7.0939   -2.2679    0.0000 C   0  0  1  0  0  0
    6.4363   -0.9197    0.0000 C   0  0  0  0  0  0
    7.2751    0.3238    0.0000 C   0  0  0  0  0  0
    7.4027   -5.2061    0.0000 C   0  0  0  0  0  0
    6.3607   -6.2852    0.0000 O   0  0  0  0  0  0
    8.8582   -5.5690    0.0000 N   0  0  0  0  0  0
    9.2716   -7.0109    0.0000 S   0  0  0  0  0  0
   10.7135   -6.5975    0.0000 O   0  0  0  0  0  0
    7.8297   -7.4244    0.0000 O   0  0  0  0  0  0
    9.6851   -8.4528    0.0000 N   0  0  0  0  0  0
   11.1405   -8.8157    0.0000 C   0  0  0  0  0  0
   11.5540  -10.2576    0.0000 C   0  0  0  0  0  0
   10.5120  -11.3366    0.0000 C   0  0  0  0  0  0
    9.0565  -10.9737    0.0000 C   0  0  0  0  0  0
    8.6431   -9.5318    0.0000 C   0  0  0  0  0  0
   -0.7500   -2.3597    0.0000 C   0  0  0  0  0  0
   -1.0105   -3.8369    0.0000 C   0  0  0  0  0  0
   -2.1595   -1.8467    0.0000 C   0  0  0  0  0  0
   -0.0000   -1.0607    0.0000 C   0  0  0  0  0  0
    1.0607    0.0000    0.0000 C   0  0  0  0  0  0
    0.0000    1.0607    0.0000 C   0  0  0  0  0  0
   -1.0607    0.0000    0.0000 C   0  0  0  0  0  0
    2.7125   -8.1175    0.0000 C   0  0  0  0  0  0
    1.3422   -8.7276    0.0000 C   0  0  0  0  0  0
    4.0829   -7.5074    0.0000 C   0  0  0  0  0  0
    3.3227   -9.4878    0.0000 C   0  0  0  0  0  0
  1  2  1  0  0  0
  2  3  1  0  0  0
  3  4  1  0  0  0
  3  7  1  0  0  0
  4  5  1  0  0  0
  5  6  1  0  0  0
  6  7  1  0  0  0
  7  8  1  6  0  0
  8  9  2  0  0  0
  8 10  1  0  0  0
 10 11  1  0  0  0
 11 12  1  0  0  0
 11 18  1  6  0  0
 12 13  1  0  0  0
 12 17  1  0  0  0
 13 14  1  0  0  0
 14 15  1  0  0  0
 15 16  1  0  0  0
 16 17  1  0  0  0
 18 19  2  0  0  0
 18 20  1  0  0  0
 20 21  1  0  0  0
 21 22  1  0  0  0
 21 56  1  1  0  0
 22 23  2  0  0  0
 22 24  1  0  0  0
 24 25  1  0  0  0
 24 28  1  0  0  0
 25 26  1  0  0  0
 26 27  1  0  0  0
 26 49  1  0  0  0
 26 52  1  1  0  0
 27 28  1  0  0  0
 28 29  1  6  0  0
 29 30  2  0  0  0
 29 31  1  0  0  0
 31 32  1  0  0  0
 32 33  1  0  0  0
 32 37  1  0  0  0
 32 34  1  1  0  0
 33 34  1  0  0  0
 34 35  1  6  0  0
 35 36  2  0  0  0
 37 38  2  0  0  0
 37 39  1  0  0  0
 39 40  1  0  0  0
 40 41  2  0  0  0
 40 42  2  0  0  0
 40 43  1  0  0  0
 43 44  1  0  0  0
 43 48  1  0  0  0
 44 45  1  0  0  0
 45 46  1  0  0  0
 46 47  1  0  0  0
 47 48  1  0  0  0
 49 50  1  0  0  0
 49 51  1  0  0  0
 49 52  1  0  0  0
 52 53  1  0  0  0
 52 55  1  0  0  0
 53 54  1  0  0  0
 54 55  1  0  0  0
 56 57  1  0  0  0
 56 58  1  0  0  0
 56 59  1  0  0  0
M  END
> <s_m_entry_id>
6812

> <s_m_entry_name>
NS3-4A.353

> <CHEMBLID>
CHEMBL3645668

> <s_m_Source_Path>
/home/liwei/Desktop/Machine/HCV/Active

> <s_m_Source_File>
NS3-4A.sdf

> <i_m_Source_File_Index>
353

$$$$
CHEMBL3645669
                    3D
 Structure written by MMmdl.
 60 66  0  0  1  0            999 V2000
   -3.5052  -12.3115    0.0000 C   0  0  0  0  0  0
   -2.2617  -11.4727    0.0000 C   0  0  0  0  0  0
   -0.9135  -12.1302    0.0000 N   0  0  0  0  0  0
   -0.8089  -13.6266    0.0000 C   0  0  0  0  0  0
   -2.0524  -14.4654    0.0000 C   0  0  0  0  0  0
    0.3301  -11.2914    0.0000 S   0  0  0  0  0  0
    1.1689  -12.5350    0.0000 O   0  0  0  0  0  0
   -0.5087  -10.0479    0.0000 O   0  0  0  0  0  0
    1.5736  -10.4526    0.0000 N   0  0  0  0  0  0
    1.4690   -8.9563    0.0000 C   0  0  0  0  0  0
    0.1208   -8.2987    0.0000 O   0  0  0  0  0  0
    2.7125   -8.1175    0.0000 C   0  0  2  0  0  0
    3.7545   -9.1965    0.0000 C   0  0  0  0  0  0
    4.1680   -7.7546    0.0000 C   0  0  1  0  0  0
    5.2470   -6.7126    0.0000 C   0  0  0  0  0  0
    6.6889   -7.1261    0.0000 C   0  0  0  0  0  0
    2.1024   -6.7472    0.0000 N   0  0  0  0  0  0
    2.9841   -5.5337    0.0000 C   0  0  0  0  0  0
    4.4759   -5.6905    0.0000 O   0  0  0  0  0  0
    2.3740   -4.1633    0.0000 C   0  0  2  0  0  0
    0.9068   -3.8515    0.0000 C   0  0  0  0  0  0
    0.7500   -2.3597    0.0000 C   0  0  2  0  0  0
    2.1203   -1.7496    0.0000 C   0  0  0  0  0  0
    3.1240   -2.8643    0.0000 N   0  0  0  0  0  0
    4.6158   -2.7075    0.0000 C   0  0  0  0  0  0
    5.4975   -3.9210    0.0000 O   0  0  0  0  0  0
    5.2259   -1.3372    0.0000 C   0  0  1  0  0  0
    4.3442   -0.1237    0.0000 N   0  0  0  0  0  0
    4.9543    1.2466    0.0000 C   0  0  0  0  0  0
    6.4461    1.4034    0.0000 O   0  0  0  0  0  0
    4.0727    2.4602    0.0000 C   0  0  3  0  0  0
    2.5809    2.3034    0.0000 N   0  0  0  0  0  0
    1.6992    3.5169    0.0000 C   0  0  0  0  0  0
    2.3093    4.8872    0.0000 O   0  0  0  0  0  0
    0.2074    3.3601    0.0000 C   0  0  2  0  0  0
   -0.5426    2.0611    0.0000 C   0  0  0  0  0  0
   -2.0098    2.3729    0.0000 C   0  0  0  0  0  0
   -2.1666    3.8647    0.0000 C   0  0  0  0  0  0
   -0.7963    4.4748    0.0000 N   0  0  0  0  0  0
   -0.4844    5.9420    0.0000 C   0  0  0  0  0  0
   -1.5991    6.9457    0.0000 C   0  0  0  0  0  0
    4.6828    3.8305    0.0000 C   0  0  0  0  0  0
    6.1745    3.9873    0.0000 C   0  0  0  0  0  0
    6.7846    5.3576    0.0000 C   0  0  0  0  0  0
    5.9030    6.5711    0.0000 C   0  0  0  0  0  0
    4.4112    6.4143    0.0000 C   0  0  0  0  0  0
    3.8011    5.0440    0.0000 C   0  0  0  0  0  0
    6.7177   -1.1804    0.0000 C   0  0  0  0  0  0
    7.5994   -2.3939    0.0000 C   0  0  0  0  0  0
    9.0911   -2.2371    0.0000 C   0  0  0  0  0  0
    9.7013   -0.8668    0.0000 O   0  0  0  0  0  0
    8.8196    0.3467    0.0000 C   0  0  0  0  0  0
    7.3278    0.1899    0.0000 C   0  0  0  0  0  0
   -0.7500   -2.3597    0.0000 C   0  0  0  0  0  0
   -1.0105   -3.8369    0.0000 C   0  0  0  0  0  0
   -2.1595   -1.8467    0.0000 C   0  0  0  0  0  0
   -0.0000   -1.0607    0.0000 C   0  0  0  0  0  0
    1.0607    0.0000    0.0000 C   0  0  0  0  0  0
    0.0000    1.0607    0.0000 C   0  0  0  0  0  0
   -1.0607    0.0000    0.0000 C   0  0  0  0  0  0
  1  2  1  0  0  0
  2  3  1  0  0  0
  3  4  1  0  0  0
  3  6  1  0  0  0
  4  5  1  0  0  0
  6  7  2  0  0  0
  6  8  2  0  0  0
  6  9  1  0  0  0
  9 10  1  0  0  0
 10 11  2  0  0  0
 10 12  1  0  0  0
 12 13  1  0  0  0
 12 17  1  0  0  0
 12 14  1  6  0  0
 13 14  1  0  0  0
 14 15  1  6  0  0
 15 16  2  0  0  0
 17 18  1  0  0  0
 18 19  2  0  0  0
 18 20  1  0  0  0
 20 21  1  0  0  0
 20 24  1  1  0  0
 21 22  1  0  0  0
 22 23  1  0  0  0
 22 54  1  0  0  0
 22 57  1  6  0  0
 23 24  1  0  0  0
 24 25  1  0  0  0
 25 26  2  0  0  0
 25 27  1  0  0  0
 27 28  1  0  0  0
 27 48  1  6  0  0
 28 29  1  0  0  0
 29 30  2  0  0  0
 29 31  1  0  0  0
 31 32  1  0  0  0
 31 42  1  0  0  0
 32 33  1  0  0  0
 33 34  2  0  0  0
 33 35  1  0  0  0
 35 36  1  0  0  0
 35 39  1  1  0  0
 36 37  1  0  0  0
 37 38  1  0  0  0
 38 39  1  0  0  0
 39 40  1  0  0  0
 40 41  1  0  0  0
 42 43  1  0  0  0
 42 47  1  0  0  0
 43 44  1  0  0  0
 44 45  1  0  0  0
 45 46  1  0  0  0
 46 47  1  0  0  0
 48 49  1  0  0  0
 48 53  1  0  0  0
 49 50  1  0  0  0
 50 51  1  0  0  0
 51 52  1  0  0  0
 52 53  1  0  0  0
 54 55  1  0  0  0
 54 56  1  0  0  0
 54 57  1  0  0  0
 57 58  1  0  0  0
 57 60  1  0  0  0
 58 59  1  0  0  0
 59 60  1  0  0  0
M  END
> <s_m_entry_id>
6813

> <s_m_entry_name>
NS3-4A.354

> <CHEMBLID>
CHEMBL3645669

> <s_m_Source_Path>
/home/liwei/Desktop/Machine/HCV/Active

> <s_m_Source_File>
NS3-4A.sdf

> <i_m_Source_File_Index>
354

$$$$
CHEMBL3645670
                    3D
 Structure written by MMmdl.
 57 62  0  0  1  0            999 V2000
   -3.5052  -12.3115    0.0000 C   0  0  0  0  0  0
   -2.2617  -11.4727    0.0000 C   0  0  0  0  0  0
   -0.9135  -12.1302    0.0000 N   0  0  0  0  0  0
   -0.8089  -13.6266    0.0000 C   0  0  0  0  0  0
   -2.0524  -14.4654    0.0000 C   0  0  0  0  0  0
    0.3301  -11.2914    0.0000 S   0  0  0  0  0  0
    1.1689  -12.5350    0.0000 O   0  0  0  0  0  0
   -0.5087  -10.0479    0.0000 O   0  0  0  0  0  0
    1.5736  -10.4526    0.0000 N   0  0  0  0  0  0
    1.4690   -8.9563    0.0000 C   0  0  0  0  0  0
    0.1208   -8.2987    0.0000 O   0  0  0  0  0  0
    2.7125   -8.1175    0.0000 C   0  0  2  0  0  0
    3.7545   -9.1965    0.0000 C   0  0  0  0  0  0
    4.1680   -7.7546    0.0000 C   0  0  1  0  0  0
    5.2470   -6.7126    0.0000 C   0  0  0  0  0  0
    6.6889   -7.1261    0.0000 C   0  0  0  0  0  0
    2.1024   -6.7472    0.0000 N   0  0  0  0  0  0
    2.9841   -5.5337    0.0000 C   0  0  0  0  0  0
    4.4759   -5.6905    0.0000 O   0  0  0  0  0  0
    2.3740   -4.1633    0.0000 C   0  0  2  0  0  0
    0.9068   -3.8515    0.0000 C   0  0  0  0  0  0
    0.7500   -2.3597    0.0000 C   0  0  2  0  0  0
    2.1203   -1.7496    0.0000 C   0  0  0  0  0  0
    3.1240   -2.8643    0.0000 N   0  0  0  0  0  0
    4.6158   -2.7075    0.0000 C   0  0  0  0  0  0
    5.4975   -3.9210    0.0000 O   0  0  0  0  0  0
    5.2259   -1.3372    0.0000 C   0  0  1  0  0  0
    4.3442   -0.1237    0.0000 N   0  0  0  0  0  0
    4.9543    1.2466    0.0000 C   0  0  0  0  0  0
    6.4461    1.4034    0.0000 O   0  0  0  0  0  0
    4.0727    2.4602    0.0000 C   0  0  3  0  0  0
    2.5809    2.3034    0.0000 N   0  0  0  0  0  0
    1.6992    3.5169    0.0000 C   0  0  0  0  0  0
    2.3093    4.8872    0.0000 O   0  0  0  0  0  0
    0.2074    3.3601    0.0000 C   0  0  2  0  0  0
   -0.5426    2.0611    0.0000 C   0  0  0  0  0  0
   -2.0098    2.3729    0.0000 C   0  0  0  0  0  0
   -2.1666    3.8647    0.0000 C   0  0  0  0  0  0
   -0.7963    4.4748    0.0000 N   0  0  0  0  0  0
   -0.4844    5.9420    0.0000 C   0  0  0  0  0  0
   -1.5991    6.9457    0.0000 C   0  0  0  0  0  0
    4.6828    3.8305    0.0000 C   0  0  0  0  0  0
    3.9328    5.1295    0.0000 C   0  0  0  0  0  0
    4.9365    6.2442    0.0000 C   0  0  0  0  0  0
    6.3068    5.6341    0.0000 C   0  0  0  0  0  0
    6.1500    4.1424    0.0000 C   0  0  0  0  0  0
    6.7177   -1.1804    0.0000 C   0  0  0  0  0  0
    6.5609    0.3114    0.0000 C   0  0  0  0  0  0
    6.8745   -2.6722    0.0000 C   0  0  0  0  0  0
    8.2095   -1.0236    0.0000 C   0  0  0  0  0  0
   -0.7500   -2.3597    0.0000 C   0  0  0  0  0  0
   -1.0105   -3.8369    0.0000 C   0  0  0  0  0  0
   -2.1595   -1.8467    0.0000 C   0  0  0  0  0  0
   -0.0000   -1.0607    0.0000 C   0  0  0  0  0  0
    1.0607    0.0000    0.0000 C   0  0  0  0  0  0
    0.0000    1.0607    0.0000 C   0  0  0  0  0  0
   -1.0607    0.0000    0.0000 C   0  0  0  0  0  0
  1  2  1  0  0  0
  2  3  1  0  0  0
  3  4  1  0  0  0
  3  6  1  0  0  0
  4  5  1  0  0  0
  6  7  2  0  0  0
  6  8  2  0  0  0
  6  9  1  0  0  0
  9 10  1  0  0  0
 10 11  2  0  0  0
 10 12  1  0  0  0
 12 13  1  0  0  0
 12 17  1  0  0  0
 12 14  1  6  0  0
 13 14  1  0  0  0
 14 15  1  6  0  0
 15 16  2  0  0  0
 17 18  1  0  0  0
 18 19  2  0  0  0
 18 20  1  0  0  0
 20 21  1  0  0  0
 20 24  1  1  0  0
 21 22  1  0  0  0
 22 23  1  0  0  0
 22 51  1  0  0  0
 22 54  1  6  0  0
 23 24  1  0  0  0
 24 25  1  0  0  0
 25 26  2  0  0  0
 25 27  1  0  0  0
 27 28  1  0  0  0
 27 47  1  6  0  0
 28 29  1  0  0  0
 29 30  2  0  0  0
 29 31  1  0  0  0
 31 32  1  0  0  0
 31 42  1  0  0  0
 32 33  1  0  0  0
 33 34  2  0  0  0
 33 35  1  0  0  0
 35 36  1  0  0  0
 35 39  1  1  0  0
 36 37  1  0  0  0
 37 38  1  0  0  0
 38 39  1  0  0  0
 39 40  1  0  0  0
 40 41  1  0  0  0
 42 43  1  0  0  0
 42 46  1  0  0  0
 43 44  1  0  0  0
 44 45  1  0  0  0
 45 46  1  0  0  0
 47 48  1  0  0  0
 47 49  1  0  0  0
 47 50  1  0  0  0
 51 52  1  0  0  0
 51 53  1  0  0  0
 51 54  1  0  0  0
 54 55  1  0  0  0
 54 57  1  0  0  0
 55 56  1  0  0  0
 56 57  1  0  0  0
M  END
> <s_m_entry_id>
6814

> <s_m_entry_name>
NS3-4A.355

> <CHEMBLID>
CHEMBL3645670

> <s_m_Source_Path>
/home/liwei/Desktop/Machine/HCV/Active

> <s_m_Source_File>
NS3-4A.sdf

> <i_m_Source_File_Index>
355

$$$$
CHEMBL3645671
                    3D
 Structure written by MMmdl.
 58 63  0  0  1  0            999 V2000
   -1.9478  -15.9617    0.0000 C   0  0  0  0  0  0
   -2.0524  -14.4654    0.0000 C   0  0  0  0  0  0
   -0.8089  -13.6266    0.0000 C   0  0  0  0  0  0
   -0.9135  -12.1302    0.0000 N   0  0  0  0  0  0
   -2.2617  -11.4727    0.0000 C   0  0  0  0  0  0
    0.3301  -11.2914    0.0000 S   0  0  0  0  0  0
    1.1689  -12.5350    0.0000 O   0  0  0  0  0  0
   -0.5087  -10.0479    0.0000 O   0  0  0  0  0  0
    1.5736  -10.4526    0.0000 N   0  0  0  0  0  0
    1.4690   -8.9563    0.0000 C   0  0  0  0  0  0
    0.1208   -8.2987    0.0000 O   0  0  0  0  0  0
    2.7125   -8.1175    0.0000 C   0  0  2  0  0  0
    3.7545   -9.1965    0.0000 C   0  0  0  0  0  0
    4.1680   -7.7546    0.0000 C   0  0  1  0  0  0
    5.2470   -6.7126    0.0000 C   0  0  0  0  0  0
    6.6889   -7.1261    0.0000 C   0  0  0  0  0  0
    2.1024   -6.7472    0.0000 N   0  0  0  0  0  0
    2.9841   -5.5337    0.0000 C   0  0  0  0  0  0
    4.4759   -5.6905    0.0000 O   0  0  0  0  0  0
    2.3740   -4.1633    0.0000 C   0  0  2  0  0  0
    0.9068   -3.8515    0.0000 C   0  0  0  0  0  0
    0.7500   -2.3597    0.0000 C   0  0  2  0  0  0
    2.1203   -1.7496    0.0000 C   0  0  0  0  0  0
    3.1240   -2.8643    0.0000 N   0  0  0  0  0  0
    4.6158   -2.7075    0.0000 C   0  0  0  0  0  0
    5.4975   -3.9210    0.0000 O   0  0  0  0  0  0
    5.2259   -1.3372    0.0000 C   0  0  1  0  0  0
    4.3442   -0.1237    0.0000 N   0  0  0  0  0  0
    4.9543    1.2466    0.0000 C   0  0  0  0  0  0
    6.4461    1.4034    0.0000 O   0  0  0  0  0  0
    4.0727    2.4602    0.0000 C   0  0  1  0  0  0
    2.5809    2.3034    0.0000 N   0  0  0  0  0  0
    1.6992    3.5169    0.0000 C   0  0  0  0  0  0
    2.3093    4.8872    0.0000 O   0  0  0  0  0  0
    0.2074    3.3601    0.0000 C   0  0  2  0  0  0
   -0.5426    2.0611    0.0000 C   0  0  0  0  0  0
   -2.0098    2.3729    0.0000 C   0  0  0  0  0  0
   -2.1666    3.8647    0.0000 C   0  0  0  0  0  0
   -0.7963    4.4748    0.0000 N   0  0  0  0  0  0
   -0.4844    5.9420    0.0000 C   0  0  0  0  0  0
   -1.5991    6.9457    0.0000 C   0  0  0  0  0  0
    4.6828    3.8305    0.0000 C   0  0  0  0  0  0
    6.1745    3.9873    0.0000 C   0  0  0  0  0  0
    6.7846    5.3576    0.0000 C   0  0  0  0  0  0
    5.9030    6.5711    0.0000 C   0  0  0  0  0  0
    4.4112    6.4143    0.0000 C   0  0  0  0  0  0
    3.8011    5.0440    0.0000 C   0  0  0  0  0  0
    6.7177   -1.1804    0.0000 C   0  0  0  0  0  0
    6.5609    0.3114    0.0000 C   0  0  0  0  0  0
    6.8745   -2.6722    0.0000 C   0  0  0  0  0  0
    8.2095   -1.0236    0.0000 C   0  0  0  0  0  0
   -0.7500   -2.3597    0.0000 C   0  0  0  0  0  0
   -1.0105   -3.8369    0.0000 C   0  0  0  0  0  0
   -2.1595   -1.8467    0.0000 C   0  0  0  0  0  0
   -0.0000   -1.0607    0.0000 C   0  0  0  0  0  0
    1.0607    0.0000    0.0000 C   0  0  0  0  0  0
    0.0000    1.0607    0.0000 C   0  0  0  0  0  0
   -1.0607    0.0000    0.0000 C   0  0  0  0  0  0
  1  2  1  0  0  0
  2  3  1  0  0  0
  3  4  1  0  0  0
  4  5  1  0  0  0
  4  6  1  0  0  0
  6  7  2  0  0  0
  6  8  2  0  0  0
  6  9  1  0  0  0
  9 10  1  0  0  0
 10 11  2  0  0  0
 10 12  1  0  0  0
 12 13  1  0  0  0
 12 17  1  0  0  0
 12 14  1  6  0  0
 13 14  1  0  0  0
 14 15  1  6  0  0
 15 16  2  0  0  0
 17 18  1  0  0  0
 18 19  2  0  0  0
 18 20  1  0  0  0
 20 21  1  0  0  0
 20 24  1  1  0  0
 21 22  1  0  0  0
 22 23  1  0  0  0
 22 52  1  0  0  0
 22 55  1  6  0  0
 23 24  1  0  0  0
 24 25  1  0  0  0
 25 26  2  0  0  0
 25 27  1  0  0  0
 27 28  1  0  0  0
 27 48  1  6  0  0
 28 29  1  0  0  0
 29 30  2  0  0  0
 29 31  1  0  0  0
 31 32  1  0  0  0
 31 42  1  6  0  0
 32 33  1  0  0  0
 33 34  2  0  0  0
 33 35  1  0  0  0
 35 36  1  0  0  0
 35 39  1  1  0  0
 36 37  1  0  0  0
 37 38  1  0  0  0
 38 39  1  0  0  0
 39 40  1  0  0  0
 40 41  1  0  0  0
 42 43  1  0  0  0
 42 47  1  0  0  0
 43 44  1  0  0  0
 44 45  1  0  0  0
 45 46  1  0  0  0
 46 47  1  0  0  0
 48 49  1  0  0  0
 48 50  1  0  0  0
 48 51  1  0  0  0
 52 53  1  0  0  0
 52 54  1  0  0  0
 52 55  1  0  0  0
 55 56  1  0  0  0
 55 58  1  0  0  0
 56 57  1  0  0  0
 57 58  1  0  0  0
M  END
> <s_m_entry_id>
6815

> <s_m_entry_name>
NS3-4A.356

> <CHEMBLID>
CHEMBL3645671

> <s_m_Source_Path>
/home/liwei/Desktop/Machine/HCV/Active

> <s_m_Source_File>
NS3-4A.sdf

> <i_m_Source_File_Index>
356

$$$$
CHEMBL3645672
                    3D
 Structure written by MMmdl.
 58 64  0  0  1  0            999 V2000
    6.6889   -7.1261    0.0000 C   0  0  0  0  0  0
    5.2470   -6.7126    0.0000 C   0  0  0  0  0  0
    4.1680   -7.7546    0.0000 C   0  0  2  0  0  0
    3.7545   -9.1965    0.0000 C   0  0  0  0  0  0
    2.7125   -8.1175    0.0000 C   0  0  2  0  0  0
    2.1024   -6.7472    0.0000 N   0  0  0  0  0  0
    2.9841   -5.5337    0.0000 C   0  0  0  0  0  0
    4.4759   -5.6905    0.0000 O   0  0  0  0  0  0
    2.3740   -4.1633    0.0000 C   0  0  2  0  0  0
    0.9068   -3.8515    0.0000 C   0  0  0  0  0  0
    0.7500   -2.3597    0.0000 C   0  0  2  0  0  0
    2.1203   -1.7496    0.0000 C   0  0  0  0  0  0
    3.1240   -2.8643    0.0000 N   0  0  0  0  0  0
    4.6158   -2.7075    0.0000 C   0  0  0  0  0  0
    5.4975   -3.9210    0.0000 O   0  0  0  0  0  0
    5.2259   -1.3372    0.0000 C   0  0  1  0  0  0
    4.3442   -0.1237    0.0000 N   0  0  0  0  0  0
    4.9543    1.2466    0.0000 C   0  0  0  0  0  0
    6.4461    1.4034    0.0000 O   0  0  0  0  0  0
    4.0727    2.4602    0.0000 C   0  0  1  0  0  0
    2.5809    2.3034    0.0000 N   0  0  0  0  0  0
    1.6992    3.5169    0.0000 C   0  0  0  0  0  0
    2.3093    4.8872    0.0000 O   0  0  0  0  0  0
    0.2074    3.3601    0.0000 C   0  0  2  0  0  0
   -0.5426    2.0611    0.0000 C   0  0  0  0  0  0
   -2.0098    2.3729    0.0000 C   0  0  0  0  0  0
   -2.1666    3.8647    0.0000 C   0  0  0  0  0  0
   -0.7963    4.4748    0.0000 N   0  0  0  0  0  0
   -0.4844    5.9420    0.0000 C   0  0  0  0  0  0
   -1.5991    6.9457    0.0000 C   0  0  0  0  0  0
    4.6828    3.8305    0.0000 C   0  0  0  0  0  0
    6.1745    3.9873    0.0000 C   0  0  0  0  0  0
    6.7846    5.3576    0.0000 C   0  0  0  0  0  0
    5.9030    6.5711    0.0000 C   0  0  0  0  0  0
    4.4112    6.4143    0.0000 C   0  0  0  0  0  0
    3.8011    5.0440    0.0000 C   0  0  0  0  0  0
    6.7177   -1.1804    0.0000 C   0  0  0  0  0  0
    6.5609    0.3114    0.0000 C   0  0  0  0  0  0
    6.8745   -2.6722    0.0000 C   0  0  0  0  0  0
    8.2095   -1.0236    0.0000 C   0  0  0  0  0  0
   -0.7500   -2.3597    0.0000 C   0  0  0  0  0  0
   -1.0105   -3.8369    0.0000 C   0  0  0  0  0  0
   -2.1595   -1.8467    0.0000 C   0  0  0  0  0  0
   -0.0000   -1.0607    0.0000 C   0  0  0  0  0  0
    1.0607    0.0000    0.0000 C   0  0  0  0  0  0
    0.0000    1.0607    0.0000 C   0  0  0  0  0  0
   -1.0607    0.0000    0.0000 C   0  0  0  0  0  0
    1.4690   -8.9563    0.0000 C   0  0  0  0  0  0
    0.1208   -8.2987    0.0000 O   0  0  0  0  0  0
    1.5736  -10.4526    0.0000 N   0  0  0  0  0  0
    0.3301  -11.2914    0.0000 S   0  0  0  0  0  0
    1.1689  -12.5350    0.0000 O   0  0  0  0  0  0
   -0.5087  -10.0479    0.0000 O   0  0  0  0  0  0
   -0.9135  -12.1302    0.0000 N   0  0  0  0  0  0
   -2.3230  -11.6172    0.0000 C   0  0  0  0  0  0
   -3.2465  -12.7992    0.0000 C   0  0  0  0  0  0
   -2.4077  -14.0428    0.0000 C   0  0  0  0  0  0
   -0.9658  -13.6293    0.0000 C   0  0  0  0  0  0
  1  2  1  0  0  0
  2  3  1  0  0  0
  3  4  1  0  0  0
  3  5  1  6  0  0
  4  5  1  0  0  0
  5  6  1  0  0  0
  5 48  1  6  0  0
  6  7  1  0  0  0
  7  8  2  0  0  0
  7  9  1  0  0  0
  9 10  1  0  0  0
  9 13  1  1  0  0
 10 11  1  0  0  0
 11 12  1  0  0  0
 11 41  1  0  0  0
 11 44  1  6  0  0
 12 13  1  0  0  0
 13 14  1  0  0  0
 14 15  2  0  0  0
 14 16  1  0  0  0
 16 17  1  0  0  0
 16 37  1  6  0  0
 17 18  1  0  0  0
 18 19  2  0  0  0
 18 20  1  0  0  0
 20 21  1  0  0  0
 20 31  1  6  0  0
 21 22  1  0  0  0
 22 23  2  0  0  0
 22 24  1  0  0  0
 24 25  1  0  0  0
 24 28  1  1  0  0
 25 26  1  0  0  0
 26 27  1  0  0  0
 27 28  1  0  0  0
 28 29  1  0  0  0
 29 30  1  0  0  0
 31 32  1  0  0  0
 31 36  1  0  0  0
 32 33  1  0  0  0
 33 34  1  0  0  0
 34 35  1  0  0  0
 35 36  1  0  0  0
 37 38  1  0  0  0
 37 39  1  0  0  0
 37 40  1  0  0  0
 41 42  1  0  0  0
 41 43  1  0  0  0
 41 44  1  0  0  0
 44 45  1  0  0  0
 44 47  1  0  0  0
 45 46  1  0  0  0
 46 47  1  0  0  0
 48 49  2  0  0  0
 48 50  1  0  0  0
 50 51  1  0  0  0
 51 52  2  0  0  0
 51 53  2  0  0  0
 51 54  1  0  0  0
 54 55  1  0  0  0
 54 58  1  0  0  0
 55 56  1  0  0  0
 56 57  1  0  0  0
 57 58  1  0  0  0
M  END
> <s_m_entry_id>
6816

> <s_m_entry_name>
NS3-4A.357

> <CHEMBLID>
CHEMBL3645672

> <s_m_Source_Path>
/home/liwei/Desktop/Machine/HCV/Active

> <s_m_Source_File>
NS3-4A.sdf

> <i_m_Source_File_Index>
357

$$$$
CHEMBL3645673
                    3D
 Structure written by MMmdl.
 58 63  0  0  1  0            999 V2000
    6.6889   -7.1261    0.0000 C   0  0  0  0  0  0
    5.2470   -6.7126    0.0000 C   0  0  0  0  0  0
    4.1680   -7.7546    0.0000 C   0  0  2  0  0  0
    3.7545   -9.1965    0.0000 C   0  0  0  0  0  0
    2.7125   -8.1175    0.0000 C   0  0  2  0  0  0
    2.1024   -6.7472    0.0000 N   0  0  0  0  0  0
    2.9841   -5.5337    0.0000 C   0  0  0  0  0  0
    4.4759   -5.6905    0.0000 O   0  0  0  0  0  0
    2.3740   -4.1633    0.0000 C   0  0  2  0  0  0
    0.9068   -3.8515    0.0000 C   0  0  0  0  0  0
    0.7500   -2.3597    0.0000 C   0  0  2  0  0  0
    2.1203   -1.7496    0.0000 C   0  0  0  0  0  0
    3.1240   -2.8643    0.0000 N   0  0  0  0  0  0
    4.6158   -2.7075    0.0000 C   0  0  0  0  0  0
    5.4975   -3.9210    0.0000 O   0  0  0  0  0  0
    5.2259   -1.3372    0.0000 C   0  0  1  0  0  0
    4.3442   -0.1237    0.0000 N   0  0  0  0  0  0
    4.9543    1.2466    0.0000 C   0  0  0  0  0  0
    6.4461    1.4034    0.0000 O   0  0  0  0  0  0
    4.0727    2.4602    0.0000 C   0  0  3  0  0  0
    2.5809    2.3034    0.0000 N   0  0  0  0  0  0
    1.6992    3.5169    0.0000 C   0  0  0  0  0  0
    2.3093    4.8872    0.0000 O   0  0  0  0  0  0
    0.2074    3.3601    0.0000 C   0  0  2  0  0  0
   -0.5426    2.0611    0.0000 C   0  0  0  0  0  0
   -2.0098    2.3729    0.0000 C   0  0  0  0  0  0
   -2.1666    3.8647    0.0000 C   0  0  0  0  0  0
   -0.7963    4.4748    0.0000 N   0  0  0  0  0  0
   -0.4844    5.9420    0.0000 C   0  0  0  0  0  0
   -1.5991    6.9457    0.0000 C   0  0  0  0  0  0
    4.6828    3.8305    0.0000 C   0  0  0  0  0  0
    6.1745    3.9873    0.0000 C   0  0  0  0  0  0
    6.7846    5.3576    0.0000 C   0  0  0  0  0  0
    5.9030    6.5711    0.0000 C   0  0  0  0  0  0
    4.4112    6.4143    0.0000 C   0  0  0  0  0  0
    3.8011    5.0440    0.0000 C   0  0  0  0  0  0
    6.7177   -1.1804    0.0000 C   0  0  0  0  0  0
    6.5609    0.3114    0.0000 C   0  0  0  0  0  0
    6.8745   -2.6722    0.0000 C   0  0  0  0  0  0
    8.2095   -1.0236    0.0000 C   0  0  0  0  0  0
   -0.7500   -2.3597    0.0000 C   0  0  0  0  0  0
   -1.0105   -3.8369    0.0000 C   0  0  0  0  0  0
   -2.1595   -1.8467    0.0000 C   0  0  0  0  0  0
   -0.0000   -1.0607    0.0000 C   0  0  0  0  0  0
    1.0607    0.0000    0.0000 C   0  0  0  0  0  0
    0.0000    1.0607    0.0000 C   0  0  0  0  0  0
   -1.0607    0.0000    0.0000 C   0  0  0  0  0  0
    1.4690   -8.9563    0.0000 C   0  0  0  0  0  0
    0.1208   -8.2987    0.0000 O   0  0  0  0  0  0
    1.5736  -10.4526    0.0000 N   0  0  0  0  0  0
    0.3301  -11.2914    0.0000 S   0  0  0  0  0  0
    1.1689  -12.5350    0.0000 O   0  0  0  0  0  0
   -0.5087  -10.0479    0.0000 O   0  0  0  0  0  0
   -0.9135  -12.1302    0.0000 N   0  0  0  0  0  0
   -2.2617  -11.4727    0.0000 C   0  0  0  0  0  0
   -3.5052  -12.3115    0.0000 C   0  0  0  0  0  0
   -0.8089  -13.6266    0.0000 C   0  0  0  0  0  0
   -2.0524  -14.4654    0.0000 C   0  0  0  0  0  0
  1  2  1  0  0  0
  2  3  1  0  0  0
  3  4  1  0  0  0
  3  5  1  6  0  0
  4  5  1  0  0  0
  5  6  1  0  0  0
  5 48  1  6  0  0
  6  7  1  0  0  0
  7  8  2  0  0  0
  7  9  1  0  0  0
  9 10  1  0  0  0
  9 13  1  1  0  0
 10 11  1  0  0  0
 11 12  1  0  0  0
 11 41  1  0  0  0
 11 44  1  6  0  0
 12 13  1  0  0  0
 13 14  1  0  0  0
 14 15  2  0  0  0
 14 16  1  0  0  0
 16 17  1  0  0  0
 16 37  1  6  0  0
 17 18  1  0  0  0
 18 19  2  0  0  0
 18 20  1  0  0  0
 20 21  1  0  0  0
 20 31  1  0  0  0
 21 22  1  0  0  0
 22 23  2  0  0  0
 22 24  1  0  0  0
 24 25  1  0  0  0
 24 28  1  1  0  0
 25 26  1  0  0  0
 26 27  1  0  0  0
 27 28  1  0  0  0
 28 29  1  0  0  0
 29 30  1  0  0  0
 31 32  1  0  0  0
 31 36  1  0  0  0
 32 33  1  0  0  0
 33 34  1  0  0  0
 34 35  1  0  0  0
 35 36  1  0  0  0
 37 38  1  0  0  0
 37 39  1  0  0  0
 37 40  1  0  0  0
 41 42  1  0  0  0
 41 43  1  0  0  0
 41 44  1  0  0  0
 44 45  1  0  0  0
 44 47  1  0  0  0
 45 46  1  0  0  0
 46 47  1  0  0  0
 48 49  2  0  0  0
 48 50  1  0  0  0
 50 51  1  0  0  0
 51 52  2  0  0  0
 51 53  2  0  0  0
 51 54  1  0  0  0
 54 55  1  0  0  0
 54 57  1  0  0  0
 55 56  1  0  0  0
 57 58  1  0  0  0
M  END
> <s_m_entry_id>
6817

> <s_m_entry_name>
NS3-4A.358

> <CHEMBLID>
CHEMBL3645673

> <s_m_Source_Path>
/home/liwei/Desktop/Machine/HCV/Active

> <s_m_Source_File>
NS3-4A.sdf

> <i_m_Source_File_Index>
358

$$$$
CHEMBL3645674
                    3D
 Structure written by MMmdl.
 57 62  0  0  1  0            999 V2000
   -2.0524  -14.4654    0.0000 C   0  0  0  0  0  0
   -0.8089  -13.6266    0.0000 C   0  0  0  0  0  0
   -0.9135  -12.1302    0.0000 N   0  0  0  0  0  0
   -2.2617  -11.4727    0.0000 C   0  0  0  0  0  0
    0.3301  -11.2914    0.0000 S   0  0  0  0  0  0
    1.1689  -12.5350    0.0000 O   0  0  0  0  0  0
   -0.5087  -10.0479    0.0000 O   0  0  0  0  0  0
    1.5736  -10.4526    0.0000 N   0  0  0  0  0  0
    1.4690   -8.9563    0.0000 C   0  0  0  0  0  0
    0.1208   -8.2987    0.0000 O   0  0  0  0  0  0
    2.7125   -8.1175    0.0000 C   0  0  2  0  0  0
    3.7545   -9.1965    0.0000 C   0  0  0  0  0  0
    4.1680   -7.7546    0.0000 C   0  0  1  0  0  0
    5.2470   -6.7126    0.0000 C   0  0  0  0  0  0
    6.6889   -7.1261    0.0000 C   0  0  0  0  0  0
    2.1024   -6.7472    0.0000 N   0  0  0  0  0  0
    2.9841   -5.5337    0.0000 C   0  0  0  0  0  0
    4.4759   -5.6905    0.0000 O   0  0  0  0  0  0
    2.3740   -4.1633    0.0000 C   0  0  2  0  0  0
    0.9068   -3.8515    0.0000 C   0  0  0  0  0  0
    0.7500   -2.3597    0.0000 C   0  0  2  0  0  0
    2.1203   -1.7496    0.0000 C   0  0  0  0  0  0
    3.1240   -2.8643    0.0000 N   0  0  0  0  0  0
    4.6158   -2.7075    0.0000 C   0  0  0  0  0  0
    5.4975   -3.9210    0.0000 O   0  0  0  0  0  0
    5.2259   -1.3372    0.0000 C   0  0  1  0  0  0
    4.3442   -0.1237    0.0000 N   0  0  0  0  0  0
    4.9543    1.2466    0.0000 C   0  0  0  0  0  0
    6.4461    1.4034    0.0000 O   0  0  0  0  0  0
    4.0727    2.4602    0.0000 C   0  0  1  0  0  0
    2.5809    2.3034    0.0000 N   0  0  0  0  0  0
    1.6992    3.5169    0.0000 C   0  0  0  0  0  0
    2.3093    4.8872    0.0000 O   0  0  0  0  0  0
    0.2074    3.3601    0.0000 C   0  0  2  0  0  0
   -0.5426    2.0611    0.0000 C   0  0  0  0  0  0
   -2.0098    2.3729    0.0000 C   0  0  0  0  0  0
   -2.1666    3.8647    0.0000 C   0  0  0  0  0  0
   -0.7963    4.4748    0.0000 N   0  0  0  0  0  0
   -0.4844    5.9420    0.0000 C   0  0  0  0  0  0
   -1.5991    6.9457    0.0000 C   0  0  0  0  0  0
    4.6828    3.8305    0.0000 C   0  0  0  0  0  0
    6.1745    3.9873    0.0000 C   0  0  0  0  0  0
    6.7846    5.3576    0.0000 C   0  0  0  0  0  0
    5.9030    6.5711    0.0000 C   0  0  0  0  0  0
    4.4112    6.4143    0.0000 C   0  0  0  0  0  0
    3.8011    5.0440    0.0000 C   0  0  0  0  0  0
    6.7177   -1.1804    0.0000 C   0  0  0  0  0  0
    6.5609    0.3114    0.0000 C   0  0  0  0  0  0
    6.8745   -2.6722    0.0000 C   0  0  0  0  0  0
    8.2095   -1.0236    0.0000 C   0  0  0  0  0  0
   -0.7500   -2.3597    0.0000 C   0  0  0  0  0  0
   -1.0105   -3.8369    0.0000 C   0  0  0  0  0  0
   -2.1595   -1.8467    0.0000 C   0  0  0  0  0  0
   -0.0000   -1.0607    0.0000 C   0  0  0  0  0  0
    1.0607    0.0000    0.0000 C   0  0  0  0  0  0
    0.0000    1.0607    0.0000 C   0  0  0  0  0  0
   -1.0607    0.0000    0.0000 C   0  0  0  0  0  0
  1  2  1  0  0  0
  2  3  1  0  0  0
  3  4  1  0  0  0
  3  5  1  0  0  0
  5  6  2  0  0  0
  5  7  2  0  0  0
  5  8  1  0  0  0
  8  9  1  0  0  0
  9 10  2  0  0  0
  9 11  1  0  0  0
 11 12  1  0  0  0
 11 16  1  0  0  0
 11 13  1  6  0  0
 12 13  1  0  0  0
 13 14  1  6  0  0
 14 15  2  0  0  0
 16 17  1  0  0  0
 17 18  2  0  0  0
 17 19  1  0  0  0
 19 20  1  0  0  0
 19 23  1  1  0  0
 20 21  1  0  0  0
 21 22  1  0  0  0
 21 51  1  0  0  0
 21 54  1  6  0  0
 22 23  1  0  0  0
 23 24  1  0  0  0
 24 25  2  0  0  0
 24 26  1  0  0  0
 26 27  1  0  0  0
 26 47  1  6  0  0
 27 28  1  0  0  0
 28 29  2  0  0  0
 28 30  1  0  0  0
 30 31  1  0  0  0
 30 41  1  6  0  0
 31 32  1  0  0  0
 32 33  2  0  0  0
 32 34  1  0  0  0
 34 35  1  0  0  0
 34 38  1  1  0  0
 35 36  1  0  0  0
 36 37  1  0  0  0
 37 38  1  0  0  0
 38 39  1  0  0  0
 39 40  1  0  0  0
 41 42  1  0  0  0
 41 46  1  0  0  0
 42 43  1  0  0  0
 43 44  1  0  0  0
 44 45  1  0  0  0
 45 46  1  0  0  0
 47 48  1  0  0  0
 47 49  1  0  0  0
 47 50  1  0  0  0
 51 52  1  0  0  0
 51 53  1  0  0  0
 51 54  1  0  0  0
 54 55  1  0  0  0
 54 57  1  0  0  0
 55 56  1  0  0  0
 56 57  1  0  0  0
M  END
> <s_m_entry_id>
6818

> <s_m_entry_name>
NS3-4A.359

> <CHEMBLID>
CHEMBL3645674

> <s_m_Source_Path>
/home/liwei/Desktop/Machine/HCV/Active

> <s_m_Source_File>
NS3-4A.sdf

> <i_m_Source_File_Index>
359

$$$$
CHEMBL3645675
                    3D
 Structure written by MMmdl.
 58 64  0  0  1  0            999 V2000
   -1.3513   -4.5074    0.0000 C   0  0  0  0  0  0
   -2.2330   -3.2939    0.0000 C   0  0  0  0  0  0
   -3.7248   -3.4507    0.0000 N   0  0  0  0  0  0
   -4.7285   -2.3359    0.0000 C   0  0  0  0  0  0
   -6.0988   -2.9461    0.0000 C   0  0  0  0  0  0
   -5.9420   -4.4378    0.0000 C   0  0  0  0  0  0
   -4.4748   -4.7497    0.0000 C   0  0  1  0  0  0
   -3.8647   -6.1200    0.0000 C   0  0  0  0  0  0
   -4.7464   -7.3335    0.0000 O   0  0  0  0  0  0
   -2.3729   -6.2768    0.0000 N   0  0  0  0  0  0
   -1.7628   -7.6471    0.0000 C   0  0  2  0  0  0
   -0.2710   -7.8039    0.0000 C   0  0  0  0  0  0
    0.3391   -9.1742    0.0000 O   0  0  0  0  0  0
    0.6107   -6.5904    0.0000 N   0  0  0  0  0  0
    2.1024   -6.7472    0.0000 C   0  0  2  0  0  0
    2.9841   -5.5337    0.0000 C   0  0  0  0  0  0
    4.4759   -5.6905    0.0000 O   0  0  0  0  0  0
    2.3740   -4.1633    0.0000 N   0  0  0  0  0  0
    0.9068   -3.8515    0.0000 C   0  0  0  0  0  0
    0.7500   -2.3597    0.0000 C   0  0  1  0  0  0
    2.1203   -1.7496    0.0000 C   0  0  0  0  0  0
    3.1240   -2.8643    0.0000 C   0  0  1  0  0  0
    4.6158   -2.7075    0.0000 C   0  0  0  0  0  0
    5.2259   -1.3372    0.0000 O   0  0  0  0  0  0
    5.4975   -3.9210    0.0000 N   0  0  0  0  0  0
    6.9893   -3.7643    0.0000 C   0  0  1  0  0  0
    8.3374   -3.1067    0.0000 C   0  0  0  0  0  0
    7.0939   -2.2679    0.0000 C   0  0  1  0  0  0
    6.4363   -0.9197    0.0000 C   0  0  0  0  0  0
    7.2751    0.3238    0.0000 C   0  0  0  0  0  0
    7.4027   -5.2061    0.0000 C   0  0  0  0  0  0
    6.3607   -6.2852    0.0000 O   0  0  0  0  0  0
    8.8582   -5.5690    0.0000 N   0  0  0  0  0  0
    9.2716   -7.0109    0.0000 S   0  0  0  0  0  0
   10.7135   -6.5975    0.0000 O   0  0  0  0  0  0
    7.8297   -7.4244    0.0000 O   0  0  0  0  0  0
    9.6851   -8.4528    0.0000 N   0  0  0  0  0  0
    8.7616   -9.6348    0.0000 C   0  0  0  0  0  0
    9.6004  -10.8784    0.0000 C   0  0  0  0  0  0
   11.0423  -10.4649    0.0000 C   0  0  0  0  0  0
   11.0946   -8.9658    0.0000 C   0  0  0  0  0  0
   -0.7500   -2.3597    0.0000 C   0  0  0  0  0  0
   -1.0105   -3.8369    0.0000 C   0  0  0  0  0  0
   -2.1595   -1.8467    0.0000 C   0  0  0  0  0  0
   -0.0000   -1.0607    0.0000 C   0  0  0  0  0  0
    1.0607    0.0000    0.0000 C   0  0  0  0  0  0
    0.0000    1.0607    0.0000 C   0  0  0  0  0  0
   -1.0607    0.0000    0.0000 C   0  0  0  0  0  0
    2.7125   -8.1175    0.0000 C   0  0  0  0  0  0
    1.3422   -8.7276    0.0000 C   0  0  0  0  0  0
    4.0829   -7.5074    0.0000 C   0  0  0  0  0  0
    3.3227   -9.4878    0.0000 C   0  0  0  0  0  0
   -2.6445   -8.8607    0.0000 C   0  0  0  0  0  0
   -4.1363   -8.7039    0.0000 C   0  0  0  0  0  0
   -5.0179   -9.9174    0.0000 C   0  0  0  0  0  0
   -4.4078  -11.2877    0.0000 C   0  0  0  0  0  0
   -2.9161  -11.4445    0.0000 C   0  0  0  0  0  0
   -2.0344  -10.2310    0.0000 C   0  0  0  0  0  0
  1  2  1  0  0  0
  2  3  1  0  0  0
  3  4  1  0  0  0
  3  7  1  0  0  0
  4  5  1  0  0  0
  5  6  1  0  0  0
  6  7  1  0  0  0
  7  8  1  6  0  0
  8  9  2  0  0  0
  8 10  1  0  0  0
 10 11  1  0  0  0
 11 12  1  0  0  0
 11 53  1  1  0  0
 12 13  2  0  0  0
 12 14  1  0  0  0
 14 15  1  0  0  0
 15 16  1  0  0  0
 15 49  1  1  0  0
 16 17  2  0  0  0
 16 18  1  0  0  0
 18 19  1  0  0  0
 18 22  1  0  0  0
 19 20  1  0  0  0
 20 21  1  0  0  0
 20 42  1  0  0  0
 20 45  1  1  0  0
 21 22  1  0  0  0
 22 23  1  6  0  0
 23 24  2  0  0  0
 23 25  1  0  0  0
 25 26  1  0  0  0
 26 27  1  0  0  0
 26 31  1  0  0  0
 26 28  1  1  0  0
 27 28  1  0  0  0
 28 29  1  6  0  0
 29 30  2  0  0  0
 31 32  2  0  0  0
 31 33  1  0  0  0
 33 34  1  0  0  0
 34 35  2  0  0  0
 34 36  2  0  0  0
 34 37  1  0  0  0
 37 38  1  0  0  0
 37 41  1  0  0  0
 38 39  1  0  0  0
 39 40  1  0  0  0
 40 41  1  0  0  0
 42 43  1  0  0  0
 42 44  1  0  0  0
 42 45  1  0  0  0
 45 46  1  0  0  0
 45 48  1  0  0  0
 46 47  1  0  0  0
 47 48  1  0  0  0
 49 50  1  0  0  0
 49 51  1  0  0  0
 49 52  1  0  0  0
 53 54  2  0  0  0
 53 58  1  0  0  0
 54 55  1  0  0  0
 55 56  2  0  0  0
 56 57  1  0  0  0
 57 58  2  0  0  0
M  END
> <s_m_entry_id>
6819

> <s_m_entry_name>
NS3-4A.360

> <CHEMBLID>
CHEMBL3645675

> <s_m_Source_Path>
/home/liwei/Desktop/Machine/HCV/Active

> <s_m_Source_File>
NS3-4A.sdf

> <i_m_Source_File_Index>
360

$$$$
CHEMBL3645676
                    3D
 Structure written by MMmdl.
 59 65  0  0  1  0            999 V2000
   -8.3400   -5.6496    0.0000 C   0  0  0  0  0  0
   -6.8483   -5.8064    0.0000 C   0  0  0  0  0  0
   -5.9666   -4.5929    0.0000 N   0  0  0  0  0  0
   -6.5767   -3.2226    0.0000 C   0  0  0  0  0  0
   -5.6950   -2.0091    0.0000 C   0  0  0  0  0  0
   -4.2032   -2.1659    0.0000 C   0  0  0  0  0  0
   -3.5931   -3.5362    0.0000 C   0  0  0  0  0  0
   -4.4748   -4.7497    0.0000 C   0  0  1  0  0  0
   -3.8647   -6.1200    0.0000 C   0  0  0  0  0  0
   -4.7464   -7.3335    0.0000 O   0  0  0  0  0  0
   -2.3729   -6.2768    0.0000 N   0  0  0  0  0  0
   -1.7628   -7.6471    0.0000 C   0  0  2  0  0  0
   -0.2710   -7.8039    0.0000 C   0  0  0  0  0  0
    0.3391   -9.1742    0.0000 O   0  0  0  0  0  0
    0.6107   -6.5904    0.0000 N   0  0  0  0  0  0
    2.1024   -6.7472    0.0000 C   0  0  2  0  0  0
    2.9841   -5.5337    0.0000 C   0  0  0  0  0  0
    4.4759   -5.6905    0.0000 O   0  0  0  0  0  0
    2.3740   -4.1633    0.0000 N   0  0  0  0  0  0
    0.9068   -3.8515    0.0000 C   0  0  0  0  0  0
    0.7500   -2.3597    0.0000 C   0  0  1  0  0  0
    2.1203   -1.7496    0.0000 C   0  0  0  0  0  0
    3.1240   -2.8643    0.0000 C   0  0  1  0  0  0
    4.6158   -2.7075    0.0000 C   0  0  0  0  0  0
    5.2259   -1.3372    0.0000 O   0  0  0  0  0  0
    5.4975   -3.9210    0.0000 N   0  0  0  0  0  0
    6.9893   -3.7643    0.0000 C   0  0  1  0  0  0
    8.3374   -3.1067    0.0000 C   0  0  0  0  0  0
    7.0939   -2.2679    0.0000 C   0  0  1  0  0  0
    6.4363   -0.9197    0.0000 C   0  0  0  0  0  0
    7.2751    0.3238    0.0000 C   0  0  0  0  0  0
    7.4027   -5.2061    0.0000 C   0  0  0  0  0  0
    6.3607   -6.2852    0.0000 O   0  0  0  0  0  0
    8.8582   -5.5690    0.0000 N   0  0  0  0  0  0
    9.2716   -7.0109    0.0000 S   0  0  0  0  0  0
   10.7135   -6.5975    0.0000 O   0  0  0  0  0  0
    7.8297   -7.4244    0.0000 O   0  0  0  0  0  0
    9.6851   -8.4528    0.0000 N   0  0  0  0  0  0
    8.7616   -9.6348    0.0000 C   0  0  0  0  0  0
    9.6004  -10.8784    0.0000 C   0  0  0  0  0  0
   11.0423  -10.4649    0.0000 C   0  0  0  0  0  0
   11.0946   -8.9658    0.0000 C   0  0  0  0  0  0
   -0.7500   -2.3597    0.0000 C   0  0  0  0  0  0
   -1.0105   -3.8369    0.0000 C   0  0  0  0  0  0
   -2.1595   -1.8467    0.0000 C   0  0  0  0  0  0
   -0.0000   -1.0607    0.0000 C   0  0  0  0  0  0
    1.0607    0.0000    0.0000 C   0  0  0  0  0  0
    0.0000    1.0607    0.0000 C   0  0  0  0  0  0
   -1.0607    0.0000    0.0000 C   0  0  0  0  0  0
    2.7125   -8.1175    0.0000 C   0  0  0  0  0  0
    1.3422   -8.7276    0.0000 C   0  0  0  0  0  0
    4.0829   -7.5074    0.0000 C   0  0  0  0  0  0
    3.3227   -9.4878    0.0000 C   0  0  0  0  0  0
   -2.6445   -8.8607    0.0000 C   0  0  0  0  0  0
   -4.1363   -8.7039    0.0000 C   0  0  0  0  0  0
   -5.0179   -9.9174    0.0000 C   0  0  0  0  0  0
   -4.4078  -11.2877    0.0000 C   0  0  0  0  0  0
   -2.9161  -11.4445    0.0000 C   0  0  0  0  0  0
   -2.0344  -10.2310    0.0000 C   0  0  0  0  0  0
  1  2  1  0  0  0
  2  3  1  0  0  0
  3  4  1  0  0  0
  3  8  1  0  0  0
  4  5  1  0  0  0
  5  6  1  0  0  0
  6  7  1  0  0  0
  7  8  1  0  0  0
  8  9  1  6  0  0
  9 10  2  0  0  0
  9 11  1  0  0  0
 11 12  1  0  0  0
 12 13  1  0  0  0
 12 54  1  1  0  0
 13 14  2  0  0  0
 13 15  1  0  0  0
 15 16  1  0  0  0
 16 17  1  0  0  0
 16 50  1  1  0  0
 17 18  2  0  0  0
 17 19  1  0  0  0
 19 20  1  0  0  0
 19 23  1  0  0  0
 20 21  1  0  0  0
 21 22  1  0  0  0
 21 43  1  0  0  0
 21 46  1  1  0  0
 22 23  1  0  0  0
 23 24  1  6  0  0
 24 25  2  0  0  0
 24 26  1  0  0  0
 26 27  1  0  0  0
 27 28  1  0  0  0
 27 32  1  0  0  0
 27 29  1  1  0  0
 28 29  1  0  0  0
 29 30  1  6  0  0
 30 31  2  0  0  0
 32 33  2  0  0  0
 32 34  1  0  0  0
 34 35  1  0  0  0
 35 36  2  0  0  0
 35 37  2  0  0  0
 35 38  1  0  0  0
 38 39  1  0  0  0
 38 42  1  0  0  0
 39 40  1  0  0  0
 40 41  1  0  0  0
 41 42  1  0  0  0
 43 44  1  0  0  0
 43 45  1  0  0  0
 43 46  1  0  0  0
 46 47  1  0  0  0
 46 49  1  0  0  0
 47 48  1  0  0  0
 48 49  1  0  0  0
 50 51  1  0  0  0
 50 52  1  0  0  0
 50 53  1  0  0  0
 54 55  2  0  0  0
 54 59  1  0  0  0
 55 56  1  0  0  0
 56 57  2  0  0  0
 57 58  1  0  0  0
 58 59  2  0  0  0
M  END
> <s_m_entry_id>
6820

> <s_m_entry_name>
NS3-4A.361

> <CHEMBLID>
CHEMBL3645676

> <s_m_Source_Path>
/home/liwei/Desktop/Machine/HCV/Active

> <s_m_Source_File>
NS3-4A.sdf

> <i_m_Source_File_Index>
361

$$$$
CHEMBL3645677
                    3D
 Structure written by MMmdl.
 60 66  0  0  1  0            999 V2000
   -8.3400   -5.6496    0.0000 C   0  0  0  0  0  0
   -6.8483   -5.8064    0.0000 C   0  0  0  0  0  0
   -6.2382   -7.1768    0.0000 C   0  0  0  0  0  0
   -5.9666   -4.5929    0.0000 N   0  0  0  0  0  0
   -6.5767   -3.2226    0.0000 C   0  0  0  0  0  0
   -5.6950   -2.0091    0.0000 C   0  0  0  0  0  0
   -4.2032   -2.1659    0.0000 C   0  0  0  0  0  0
   -3.5931   -3.5362    0.0000 C   0  0  0  0  0  0
   -4.4748   -4.7497    0.0000 C   0  0  1  0  0  0
   -3.8647   -6.1200    0.0000 C   0  0  0  0  0  0
   -4.7464   -7.3335    0.0000 O   0  0  0  0  0  0
   -2.3729   -6.2768    0.0000 N   0  0  0  0  0  0
   -1.7628   -7.6471    0.0000 C   0  0  2  0  0  0
   -0.2710   -7.8039    0.0000 C   0  0  0  0  0  0
    0.3391   -9.1742    0.0000 O   0  0  0  0  0  0
    0.6107   -6.5904    0.0000 N   0  0  0  0  0  0
    2.1024   -6.7472    0.0000 C   0  0  2  0  0  0
    2.9841   -5.5337    0.0000 C   0  0  0  0  0  0
    4.4759   -5.6905    0.0000 O   0  0  0  0  0  0
    2.3740   -4.1633    0.0000 N   0  0  0  0  0  0
    0.9068   -3.8515    0.0000 C   0  0  0  0  0  0
    0.7500   -2.3597    0.0000 C   0  0  1  0  0  0
    2.1203   -1.7496    0.0000 C   0  0  0  0  0  0
    3.1240   -2.8643    0.0000 C   0  0  1  0  0  0
    4.6158   -2.7075    0.0000 C   0  0  0  0  0  0
    5.2259   -1.3372    0.0000 O   0  0  0  0  0  0
    5.4975   -3.9210    0.0000 N   0  0  0  0  0  0
    6.9893   -3.7643    0.0000 C   0  0  1  0  0  0
    8.3374   -3.1067    0.0000 C   0  0  0  0  0  0
    7.0939   -2.2679    0.0000 C   0  0  1  0  0  0
    6.4363   -0.9197    0.0000 C   0  0  0  0  0  0
    7.2751    0.3238    0.0000 C   0  0  0  0  0  0
    7.4027   -5.2061    0.0000 C   0  0  0  0  0  0
    6.3607   -6.2852    0.0000 O   0  0  0  0  0  0
    8.8582   -5.5690    0.0000 N   0  0  0  0  0  0
    9.2716   -7.0109    0.0000 S   0  0  0  0  0  0
   10.7135   -6.5975    0.0000 O   0  0  0  0  0  0
    7.8297   -7.4244    0.0000 O   0  0  0  0  0  0
    9.6851   -8.4528    0.0000 N   0  0  0  0  0  0
    8.7616   -9.6348    0.0000 C   0  0  0  0  0  0
    9.6004  -10.8784    0.0000 C   0  0  0  0  0  0
   11.0423  -10.4649    0.0000 C   0  0  0  0  0  0
   11.0946   -8.9658    0.0000 C   0  0  0  0  0  0
   -0.7500   -2.3597    0.0000 C   0  0  0  0  0  0
   -1.0105   -3.8369    0.0000 C   0  0  0  0  0  0
   -2.1595   -1.8467    0.0000 C   0  0  0  0  0  0
   -0.0000   -1.0607    0.0000 C   0  0  0  0  0  0
    1.0607    0.0000    0.0000 C   0  0  0  0  0  0
    0.0000    1.0607    0.0000 C   0  0  0  0  0  0
   -1.0607    0.0000    0.0000 C   0  0  0  0  0  0
    2.7125   -8.1175    0.0000 C   0  0  0  0  0  0
    1.3422   -8.7276    0.0000 C   0  0  0  0  0  0
    4.0829   -7.5074    0.0000 C   0  0  0  0  0  0
    3.3227   -9.4878    0.0000 C   0  0  0  0  0  0
   -2.6445   -8.8607    0.0000 C   0  0  0  0  0  0
   -4.1363   -8.7039    0.0000 C   0  0  0  0  0  0
   -5.0179   -9.9174    0.0000 C   0  0  0  0  0  0
   -4.4078  -11.2877    0.0000 C   0  0  0  0  0  0
   -2.9161  -11.4445    0.0000 C   0  0  0  0  0  0
   -2.0344  -10.2310    0.0000 C   0  0  0  0  0  0
  1  2  1  0  0  0
  2  3  1  0  0  0
  2  4  1  0  0  0
  4  5  1  0  0  0
  4  9  1  0  0  0
  5  6  1  0  0  0
  6  7  1  0  0  0
  7  8  1  0  0  0
  8  9  1  0  0  0
  9 10  1  6  0  0
 10 11  2  0  0  0
 10 12  1  0  0  0
 12 13  1  0  0  0
 13 14  1  0  0  0
 13 55  1  1  0  0
 14 15  2  0  0  0
 14 16  1  0  0  0
 16 17  1  0  0  0
 17 18  1  0  0  0
 17 51  1  1  0  0
 18 19  2  0  0  0
 18 20  1  0  0  0
 20 21  1  0  0  0
 20 24  1  0  0  0
 21 22  1  0  0  0
 22 23  1  0  0  0
 22 44  1  0  0  0
 22 47  1  1  0  0
 23 24  1  0  0  0
 24 25  1  6  0  0
 25 26  2  0  0  0
 25 27  1  0  0  0
 27 28  1  0  0  0
 28 29  1  0  0  0
 28 33  1  0  0  0
 28 30  1  1  0  0
 29 30  1  0  0  0
 30 31  1  6  0  0
 31 32  2  0  0  0
 33 34  2  0  0  0
 33 35  1  0  0  0
 35 36  1  0  0  0
 36 37  2  0  0  0
 36 38  2  0  0  0
 36 39  1  0  0  0
 39 40  1  0  0  0
 39 43  1  0  0  0
 40 41  1  0  0  0
 41 42  1  0  0  0
 42 43  1  0  0  0
 44 45  1  0  0  0
 44 46  1  0  0  0
 44 47  1  0  0  0
 47 48  1  0  0  0
 47 50  1  0  0  0
 48 49  1  0  0  0
 49 50  1  0  0  0
 51 52  1  0  0  0
 51 53  1  0  0  0
 51 54  1  0  0  0
 55 56  2  0  0  0
 55 60  1  0  0  0
 56 57  1  0  0  0
 57 58  2  0  0  0
 58 59  1  0  0  0
 59 60  2  0  0  0
M  END
> <s_m_entry_id>
6821

> <s_m_entry_name>
NS3-4A.362

> <CHEMBLID>
CHEMBL3645677

> <s_m_Source_Path>
/home/liwei/Desktop/Machine/HCV/Active

> <s_m_Source_File>
NS3-4A.sdf

> <i_m_Source_File_Index>
362

$$$$
CHEMBL3645678
                    3D
 Structure written by MMmdl.
 62 68  0  0  1  0            999 V2000
   -8.3400   -5.6496    0.0000 C   0  0  0  0  0  0
   -6.8483   -5.8064    0.0000 C   0  0  0  0  0  0
   -6.2382   -7.1768    0.0000 C   0  0  0  0  0  0
   -5.9666   -4.5929    0.0000 N   0  0  0  0  0  0
   -6.5767   -3.2226    0.0000 C   0  0  0  0  0  0
   -5.6950   -2.0091    0.0000 C   0  0  0  0  0  0
   -7.0432   -1.3515    0.0000 F   0  0  0  0  0  0
   -5.2815   -0.5672    0.0000 F   0  0  0  0  0  0
   -4.2032   -2.1659    0.0000 C   0  0  0  0  0  0
   -3.5931   -3.5362    0.0000 C   0  0  0  0  0  0
   -4.4748   -4.7497    0.0000 C   0  0  1  0  0  0
   -3.8647   -6.1200    0.0000 C   0  0  0  0  0  0
   -4.7464   -7.3335    0.0000 O   0  0  0  0  0  0
   -2.3729   -6.2768    0.0000 N   0  0  0  0  0  0
   -1.7628   -7.6471    0.0000 C   0  0  3  0  0  0
   -2.6445   -8.8607    0.0000 C   0  0  0  0  0  0
   -4.1363   -8.7039    0.0000 C   0  0  0  0  0  0
   -5.0179   -9.9174    0.0000 C   0  0  0  0  0  0
   -4.4078  -11.2877    0.0000 C   0  0  0  0  0  0
   -2.9161  -11.4445    0.0000 C   0  0  0  0  0  0
   -2.0344  -10.2310    0.0000 C   0  0  0  0  0  0
   -0.2710   -7.8039    0.0000 C   0  0  0  0  0  0
    0.3391   -9.1742    0.0000 O   0  0  0  0  0  0
    0.6107   -6.5904    0.0000 N   0  0  0  0  0  0
    2.1024   -6.7472    0.0000 C   0  0  2  0  0  0
    2.9841   -5.5337    0.0000 C   0  0  0  0  0  0
    4.4759   -5.6905    0.0000 O   0  0  0  0  0  0
    2.3740   -4.1633    0.0000 N   0  0  0  0  0  0
    0.9068   -3.8515    0.0000 C   0  0  0  0  0  0
    0.7500   -2.3597    0.0000 C   0  0  1  0  0  0
    2.1203   -1.7496    0.0000 C   0  0  0  0  0  0
    3.1240   -2.8643    0.0000 C   0  0  1  0  0  0
    4.6158   -2.7075    0.0000 C   0  0  0  0  0  0
    5.2259   -1.3372    0.0000 O   0  0  0  0  0  0
    5.4975   -3.9210    0.0000 N   0  0  0  0  0  0
    6.9893   -3.7643    0.0000 C   0  0  1  0  0  0
    8.3374   -3.1067    0.0000 C   0  0  0  0  0  0
    7.0939   -2.2679    0.0000 C   0  0  1  0  0  0
    6.4363   -0.9197    0.0000 C   0  0  0  0  0  0
    7.2751    0.3238    0.0000 C   0  0  0  0  0  0
    7.4027   -5.2061    0.0000 C   0  0  0  0  0  0
    6.3607   -6.2852    0.0000 O   0  0  0  0  0  0
    8.8582   -5.5690    0.0000 N   0  0  0  0  0  0
    9.2716   -7.0109    0.0000 S   0  0  0  0  0  0
   10.7135   -6.5975    0.0000 O   0  0  0  0  0  0
    7.8297   -7.4244    0.0000 O   0  0  0  0  0  0
    9.6851   -8.4528    0.0000 N   0  0  0  0  0  0
    8.7616   -9.6348    0.0000 C   0  0  0  0  0  0
    9.6004  -10.8784    0.0000 C   0  0  0  0  0  0
   11.0423  -10.4649    0.0000 C   0  0  0  0  0  0
   11.0946   -8.9658    0.0000 C   0  0  0  0  0  0
   -0.7500   -2.3597    0.0000 C   0  0  0  0  0  0
   -1.0105   -3.8369    0.0000 C   0  0  0  0  0  0
   -2.1595   -1.8467    0.0000 C   0  0  0  0  0  0
   -0.0000   -1.0607    0.0000 C   0  0  0  0  0  0
    1.0607    0.0000    0.0000 C   0  0  0  0  0  0
    0.0000    1.0607    0.0000 C   0  0  0  0  0  0
   -1.0607    0.0000    0.0000 C   0  0  0  0  0  0
    2.7125   -8.1175    0.0000 C   0  0  0  0  0  0
    1.3422   -8.7276    0.0000 C   0  0  0  0  0  0
    4.0829   -7.5074    0.0000 C   0  0  0  0  0  0
    3.3227   -9.4878    0.0000 C   0  0  0  0  0  0
  1  2  1  0  0  0
  2  3  1  0  0  0
  2  4  1  0  0  0
  4  5  1  0  0  0
  4 11  1  0  0  0
  5  6  1  0  0  0
  6  7  1  0  0  0
  6  8  1  0  0  0
  6  9  1  0  0  0
  9 10  1  0  0  0
 10 11  1  0  0  0
 11 12  1  6  0  0
 12 13  2  0  0  0
 12 14  1  0  0  0
 14 15  1  0  0  0
 15 16  1  0  0  0
 15 22  1  0  0  0
 16 17  1  0  0  0
 16 21  1  0  0  0
 17 18  1  0  0  0
 18 19  1  0  0  0
 19 20  1  0  0  0
 20 21  1  0  0  0
 22 23  2  0  0  0
 22 24  1  0  0  0
 24 25  1  0  0  0
 25 26  1  0  0  0
 25 59  1  1  0  0
 26 27  2  0  0  0
 26 28  1  0  0  0
 28 29  1  0  0  0
 28 32  1  0  0  0
 29 30  1  0  0  0
 30 31  1  0  0  0
 30 52  1  0  0  0
 30 55  1  1  0  0
 31 32  1  0  0  0
 32 33  1  6  0  0
 33 34  2  0  0  0
 33 35  1  0  0  0
 35 36  1  0  0  0
 36 37  1  0  0  0
 36 41  1  0  0  0
 36 38  1  1  0  0
 37 38  1  0  0  0
 38 39  1  6  0  0
 39 40  2  0  0  0
 41 42  2  0  0  0
 41 43  1  0  0  0
 43 44  1  0  0  0
 44 45  2  0  0  0
 44 46  2  0  0  0
 44 47  1  0  0  0
 47 48  1  0  0  0
 47 51  1  0  0  0
 48 49  1  0  0  0
 49 50  1  0  0  0
 50 51  1  0  0  0
 52 53  1  0  0  0
 52 54  1  0  0  0
 52 55  1  0  0  0
 55 56  1  0  0  0
 55 58  1  0  0  0
 56 57  1  0  0  0
 57 58  1  0  0  0
 59 60  1  0  0  0
 59 61  1  0  0  0
 59 62  1  0  0  0
M  END
> <s_m_entry_id>
6822

> <s_m_entry_name>
NS3-4A.363

> <CHEMBLID>
CHEMBL3645678

> <s_m_Source_Path>
/home/liwei/Desktop/Machine/HCV/Active

> <s_m_Source_File>
NS3-4A.sdf

> <i_m_Source_File_Index>
363

$$$$
CHEMBL3645679
                    3D
 Structure written by MMmdl.
 61 66  0  0  1  0            999 V2000
   -1.9478  -15.9617    0.0000 C   0  0  0  0  0  0
   -2.0524  -14.4654    0.0000 C   0  0  0  0  0  0
   -0.8089  -13.6266    0.0000 C   0  0  0  0  0  0
   -0.9135  -12.1302    0.0000 N   0  0  0  0  0  0
   -2.2617  -11.4727    0.0000 C   0  0  0  0  0  0
   -3.5052  -12.3115    0.0000 C   0  0  0  0  0  0
    0.3301  -11.2914    0.0000 S   0  0  0  0  0  0
    1.1689  -12.5350    0.0000 O   0  0  0  0  0  0
   -0.5087  -10.0479    0.0000 O   0  0  0  0  0  0
    1.5736  -10.4526    0.0000 N   0  0  0  0  0  0
    1.4690   -8.9563    0.0000 C   0  0  0  0  0  0
    0.1208   -8.2987    0.0000 O   0  0  0  0  0  0
    2.7125   -8.1175    0.0000 C   0  0  2  0  0  0
    3.7545   -9.1965    0.0000 C   0  0  0  0  0  0
    4.1680   -7.7546    0.0000 C   0  0  1  0  0  0
    5.2470   -6.7126    0.0000 C   0  0  0  0  0  0
    6.6889   -7.1261    0.0000 C   0  0  0  0  0  0
    2.1024   -6.7472    0.0000 N   0  0  0  0  0  0
    2.9841   -5.5337    0.0000 C   0  0  0  0  0  0
    4.4759   -5.6905    0.0000 O   0  0  0  0  0  0
    2.3740   -4.1633    0.0000 C   0  0  2  0  0  0
    0.9068   -3.8515    0.0000 C   0  0  0  0  0  0
    0.7500   -2.3597    0.0000 C   0  0  2  0  0  0
    2.1203   -1.7496    0.0000 C   0  0  0  0  0  0
    3.1240   -2.8643    0.0000 N   0  0  0  0  0  0
    4.6158   -2.7075    0.0000 C   0  0  0  0  0  0
    5.4975   -3.9210    0.0000 O   0  0  0  0  0  0
    5.2259   -1.3372    0.0000 C   0  0  1  0  0  0
    6.7177   -1.1804    0.0000 N   0  0  0  0  0  0
    7.3278    0.1899    0.0000 C   0  0  0  0  0  0
    6.4461    1.4034    0.0000 O   0  0  0  0  0  0
    8.8196    0.3467    0.0000 C   0  0  1  0  0  0
    9.7013   -0.8668    0.0000 N   0  0  0  0  0  0
   11.1930   -0.7100    0.0000 C   0  0  0  0  0  0
   11.8031    0.6603    0.0000 O   0  0  0  0  0  0
   12.0747   -1.9236    0.0000 C   0  0  2  0  0  0
   13.5665   -1.7668    0.0000 C   0  0  0  0  0  0
   14.4482   -2.9803    0.0000 C   0  0  0  0  0  0
   13.8381   -4.3506    0.0000 C   0  0  0  0  0  0
   12.3463   -4.5074    0.0000 C   0  0  0  0  0  0
   11.4646   -3.2939    0.0000 N   0  0  0  0  0  0
    9.9728   -3.4507    0.0000 C   0  0  0  0  0  0
    9.0911   -2.2371    0.0000 C   0  0  0  0  0  0
    9.3627   -4.8210    0.0000 C   0  0  0  0  0  0
    9.4297    1.7170    0.0000 C   0  0  0  0  0  0
    8.5480    2.9305    0.0000 C   0  0  0  0  0  0
    9.1581    4.3009    0.0000 C   0  0  0  0  0  0
   10.6499    4.4577    0.0000 C   0  0  0  0  0  0
   11.5316    3.2441    0.0000 C   0  0  0  0  0  0
   10.9215    1.8738    0.0000 C   0  0  0  0  0  0
    4.3442   -0.1237    0.0000 C   0  0  0  0  0  0
    5.5577    0.7580    0.0000 C   0  0  0  0  0  0
    3.1307   -1.0054    0.0000 C   0  0  0  0  0  0
    3.4625    1.0899    0.0000 C   0  0  0  0  0  0
   -0.7500   -2.3597    0.0000 C   0  0  0  0  0  0
   -1.0105   -3.8369    0.0000 C   0  0  0  0  0  0
   -2.1595   -1.8467    0.0000 C   0  0  0  0  0  0
   -0.0000   -1.0607    0.0000 C   0  0  0  0  0  0
    1.0607    0.0000    0.0000 C   0  0  0  0  0  0
    0.0000    1.0607    0.0000 C   0  0  0  0  0  0
   -1.0607    0.0000    0.0000 C   0  0  0  0  0  0
  1  2  1  0  0  0
  2  3  1  0  0  0
  3  4  1  0  0  0
  4  5  1  0  0  0
  4  7  1  0  0  0
  5  6  1  0  0  0
  7  8  2  0  0  0
  7  9  2  0  0  0
  7 10  1  0  0  0
 10 11  1  0  0  0
 11 12  2  0  0  0
 11 13  1  0  0  0
 13 14  1  0  0  0
 13 18  1  0  0  0
 13 15  1  6  0  0
 14 15  1  0  0  0
 15 16  1  6  0  0
 16 17  2  0  0  0
 18 19  1  0  0  0
 19 20  2  0  0  0
 19 21  1  0  0  0
 21 22  1  0  0  0
 21 25  1  1  0  0
 22 23  1  0  0  0
 23 24  1  0  0  0
 23 55  1  0  0  0
 23 58  1  6  0  0
 24 25  1  0  0  0
 25 26  1  0  0  0
 26 27  2  0  0  0
 26 28  1  0  0  0
 28 29  1  0  0  0
 28 51  1  6  0  0
 29 30  1  0  0  0
 30 31  2  0  0  0
 30 32  1  0  0  0
 32 33  1  0  0  0
 32 45  1  6  0  0
 33 34  1  0  0  0
 34 35  2  0  0  0
 34 36  1  0  0  0
 36 37  1  0  0  0
 36 41  1  1  0  0
 37 38  1  0  0  0
 38 39  1  0  0  0
 39 40  1  0  0  0
 40 41  1  0  0  0
 41 42  1  0  0  0
 42 43  1  0  0  0
 42 44  1  0  0  0
 45 46  1  0  0  0
 45 50  1  0  0  0
 46 47  1  0  0  0
 47 48  1  0  0  0
 48 49  1  0  0  0
 49 50  1  0  0  0
 51 52  1  0  0  0
 51 53  1  0  0  0
 51 54  1  0  0  0
 55 56  1  0  0  0
 55 57  1  0  0  0
 55 58  1  0  0  0
 58 59  1  0  0  0
 58 61  1  0  0  0
 59 60  1  0  0  0
 60 61  1  0  0  0
M  END
> <s_m_entry_id>
6823

> <s_m_entry_name>
NS3-4A.364

> <CHEMBLID>
CHEMBL3645679

> <s_m_Source_Path>
/home/liwei/Desktop/Machine/HCV/Active

> <s_m_Source_File>
NS3-4A.sdf

> <i_m_Source_File_Index>
364

$$$$
CHEMBL3645680
                    3D
 Structure written by MMmdl.
 59 64  0  0  1  0            999 V2000
   -1.9478  -15.9617    0.0000 C   0  0  0  0  0  0
   -2.0524  -14.4654    0.0000 C   0  0  0  0  0  0
   -0.8089  -13.6266    0.0000 C   0  0  0  0  0  0
   -0.9135  -12.1302    0.0000 N   0  0  0  0  0  0
   -2.2617  -11.4727    0.0000 C   0  0  0  0  0  0
   -3.5052  -12.3115    0.0000 C   0  0  0  0  0  0
    0.3301  -11.2914    0.0000 S   0  0  0  0  0  0
    1.1689  -12.5350    0.0000 O   0  0  0  0  0  0
   -0.5087  -10.0479    0.0000 O   0  0  0  0  0  0
    1.5736  -10.4526    0.0000 N   0  0  0  0  0  0
    1.4690   -8.9563    0.0000 C   0  0  0  0  0  0
    0.1208   -8.2987    0.0000 O   0  0  0  0  0  0
    2.7125   -8.1175    0.0000 C   0  0  2  0  0  0
    3.7545   -9.1965    0.0000 C   0  0  0  0  0  0
    4.1680   -7.7546    0.0000 C   0  0  1  0  0  0
    5.2470   -6.7126    0.0000 C   0  0  0  0  0  0
    6.6889   -7.1261    0.0000 C   0  0  0  0  0  0
    2.1024   -6.7472    0.0000 N   0  0  0  0  0  0
    2.9841   -5.5337    0.0000 C   0  0  0  0  0  0
    4.4759   -5.6905    0.0000 O   0  0  0  0  0  0
    2.3740   -4.1633    0.0000 C   0  0  2  0  0  0
    0.9068   -3.8515    0.0000 C   0  0  0  0  0  0
    0.7500   -2.3597    0.0000 C   0  0  2  0  0  0
    2.1203   -1.7496    0.0000 C   0  0  0  0  0  0
    3.1240   -2.8643    0.0000 N   0  0  0  0  0  0
    4.6158   -2.7075    0.0000 C   0  0  0  0  0  0
    5.4975   -3.9210    0.0000 O   0  0  0  0  0  0
    5.2259   -1.3372    0.0000 C   0  0  1  0  0  0
    4.3442   -0.1237    0.0000 N   0  0  0  0  0  0
    4.9543    1.2466    0.0000 C   0  0  0  0  0  0
    6.4461    1.4034    0.0000 O   0  0  0  0  0  0
    4.0727    2.4602    0.0000 C   0  0  1  0  0  0
    2.5809    2.3034    0.0000 N   0  0  0  0  0  0
    1.6992    3.5169    0.0000 C   0  0  0  0  0  0
    2.3093    4.8872    0.0000 O   0  0  0  0  0  0
    0.2074    3.3601    0.0000 C   0  0  2  0  0  0
   -0.5426    2.0611    0.0000 C   0  0  0  0  0  0
   -2.0098    2.3729    0.0000 C   0  0  0  0  0  0
   -2.1666    3.8647    0.0000 C   0  0  0  0  0  0
   -0.7963    4.4748    0.0000 N   0  0  0  0  0  0
   -0.4844    5.9420    0.0000 C   0  0  0  0  0  0
   -1.5991    6.9457    0.0000 C   0  0  0  0  0  0
    4.6828    3.8305    0.0000 C   0  0  0  0  0  0
    6.1745    3.9873    0.0000 C   0  0  0  0  0  0
    6.7846    5.3576    0.0000 C   0  0  0  0  0  0
    5.9030    6.5711    0.0000 C   0  0  0  0  0  0
    4.4112    6.4143    0.0000 C   0  0  0  0  0  0
    3.8011    5.0440    0.0000 C   0  0  0  0  0  0
    6.7177   -1.1804    0.0000 C   0  0  0  0  0  0
    6.5609    0.3114    0.0000 C   0  0  0  0  0  0
    6.8745   -2.6722    0.0000 C   0  0  0  0  0  0
    8.2095   -1.0236    0.0000 C   0  0  0  0  0  0
   -0.7500   -2.3597    0.0000 C   0  0  0  0  0  0
   -1.0105   -3.8369    0.0000 C   0  0  0  0  0  0
   -2.1595   -1.8467    0.0000 C   0  0  0  0  0  0
   -0.0000   -1.0607    0.0000 C   0  0  0  0  0  0
    1.0607    0.0000    0.0000 C   0  0  0  0  0  0
    0.0000    1.0607    0.0000 C   0  0  0  0  0  0
   -1.0607    0.0000    0.0000 C   0  0  0  0  0  0
  1  2  1  0  0  0
  2  3  1  0  0  0
  3  4  1  0  0  0
  4  5  1  0  0  0
  4  7  1  0  0  0
  5  6  1  0  0  0
  7  8  2  0  0  0
  7  9  2  0  0  0
  7 10  1  0  0  0
 10 11  1  0  0  0
 11 12  2  0  0  0
 11 13  1  0  0  0
 13 14  1  0  0  0
 13 18  1  0  0  0
 13 15  1  6  0  0
 14 15  1  0  0  0
 15 16  1  6  0  0
 16 17  2  0  0  0
 18 19  1  0  0  0
 19 20  2  0  0  0
 19 21  1  0  0  0
 21 22  1  0  0  0
 21 25  1  1  0  0
 22 23  1  0  0  0
 23 24  1  0  0  0
 23 53  1  0  0  0
 23 56  1  6  0  0
 24 25  1  0  0  0
 25 26  1  0  0  0
 26 27  2  0  0  0
 26 28  1  0  0  0
 28 29  1  0  0  0
 28 49  1  6  0  0
 29 30  1  0  0  0
 30 31  2  0  0  0
 30 32  1  0  0  0
 32 33  1  0  0  0
 32 43  1  6  0  0
 33 34  1  0  0  0
 34 35  2  0  0  0
 34 36  1  0  0  0
 36 37  1  0  0  0
 36 40  1  1  0  0
 37 38  1  0  0  0
 38 39  1  0  0  0
 39 40  1  0  0  0
 40 41  1  0  0  0
 41 42  1  0  0  0
 43 44  1  0  0  0
 43 48  1  0  0  0
 44 45  1  0  0  0
 45 46  1  0  0  0
 46 47  1  0  0  0
 47 48  1  0  0  0
 49 50  1  0  0  0
 49 51  1  0  0  0
 49 52  1  0  0  0
 53 54  1  0  0  0
 53 55  1  0  0  0
 53 56  1  0  0  0
 56 57  1  0  0  0
 56 59  1  0  0  0
 57 58  1  0  0  0
 58 59  1  0  0  0
M  END
> <s_m_entry_id>
6824

> <s_m_entry_name>
NS3-4A.365

> <CHEMBLID>
CHEMBL3645680

> <s_m_Source_Path>
/home/liwei/Desktop/Machine/HCV/Active

> <s_m_Source_File>
NS3-4A.sdf

> <i_m_Source_File_Index>
365

$$$$
CHEMBL3645681
                    3D
 Structure written by MMmdl.
 60 65  0  0  1  0            999 V2000
   -2.0524  -14.4654    0.0000 C   0  0  0  0  0  0
   -0.8089  -13.6266    0.0000 C   0  0  0  0  0  0
    0.5393  -14.2841    0.0000 C   0  0  0  0  0  0
   -0.9135  -12.1302    0.0000 N   0  0  0  0  0  0
   -2.2617  -11.4727    0.0000 C   0  0  0  0  0  0
    0.3301  -11.2914    0.0000 S   0  0  0  0  0  0
    1.1689  -12.5350    0.0000 O   0  0  0  0  0  0
   -0.5087  -10.0479    0.0000 O   0  0  0  0  0  0
    1.5736  -10.4526    0.0000 N   0  0  0  0  0  0
    1.4690   -8.9563    0.0000 C   0  0  0  0  0  0
    0.1208   -8.2987    0.0000 O   0  0  0  0  0  0
    2.7125   -8.1175    0.0000 C   0  0  2  0  0  0
    3.7545   -9.1965    0.0000 C   0  0  0  0  0  0
    4.1680   -7.7546    0.0000 C   0  0  1  0  0  0
    5.2470   -6.7126    0.0000 C   0  0  0  0  0  0
    6.6889   -7.1261    0.0000 C   0  0  0  0  0  0
    2.1024   -6.7472    0.0000 N   0  0  0  0  0  0
    2.9841   -5.5337    0.0000 C   0  0  0  0  0  0
    4.4759   -5.6905    0.0000 O   0  0  0  0  0  0
    2.3740   -4.1633    0.0000 C   0  0  2  0  0  0
    0.9068   -3.8515    0.0000 C   0  0  0  0  0  0
    0.7500   -2.3597    0.0000 C   0  0  2  0  0  0
    2.1203   -1.7496    0.0000 C   0  0  0  0  0  0
    3.1240   -2.8643    0.0000 N   0  0  0  0  0  0
    4.6158   -2.7075    0.0000 C   0  0  0  0  0  0
    5.4975   -3.9210    0.0000 O   0  0  0  0  0  0
    5.2259   -1.3372    0.0000 C   0  0  1  0  0  0
    6.7177   -1.1804    0.0000 N   0  0  0  0  0  0
    7.3278    0.1899    0.0000 C   0  0  0  0  0  0
    6.4461    1.4034    0.0000 O   0  0  0  0  0  0
    8.8196    0.3467    0.0000 C   0  0  1  0  0  0
    9.7013   -0.8668    0.0000 N   0  0  0  0  0  0
   11.1930   -0.7100    0.0000 C   0  0  0  0  0  0
   11.8031    0.6603    0.0000 O   0  0  0  0  0  0
   12.0747   -1.9236    0.0000 C   0  0  2  0  0  0
   13.5665   -1.7668    0.0000 C   0  0  0  0  0  0
   14.4482   -2.9803    0.0000 C   0  0  0  0  0  0
   13.8381   -4.3506    0.0000 C   0  0  0  0  0  0
   12.3463   -4.5074    0.0000 C   0  0  0  0  0  0
   11.4646   -3.2939    0.0000 N   0  0  0  0  0  0
    9.9728   -3.4507    0.0000 C   0  0  0  0  0  0
    9.0911   -2.2371    0.0000 C   0  0  0  0  0  0
    9.3627   -4.8210    0.0000 C   0  0  0  0  0  0
    9.4297    1.7170    0.0000 C   0  0  0  0  0  0
    8.5480    2.9305    0.0000 C   0  0  0  0  0  0
    9.1581    4.3009    0.0000 C   0  0  0  0  0  0
   10.6499    4.4577    0.0000 C   0  0  0  0  0  0
   11.5316    3.2441    0.0000 C   0  0  0  0  0  0
   10.9215    1.8738    0.0000 C   0  0  0  0  0  0
    4.3442   -0.1237    0.0000 C   0  0  0  0  0  0
    5.5577    0.7580    0.0000 C   0  0  0  0  0  0
    3.1307   -1.0054    0.0000 C   0  0  0  0  0  0
    3.4625    1.0899    0.0000 C   0  0  0  0  0  0
   -0.7500   -2.3597    0.0000 C   0  0  0  0  0  0
   -1.0105   -3.8369    0.0000 C   0  0  0  0  0  0
   -2.1595   -1.8467    0.0000 C   0  0  0  0  0  0
   -0.0000   -1.0607    0.0000 C   0  0  0  0  0  0
    1.0607    0.0000    0.0000 C   0  0  0  0  0  0
    0.0000    1.0607    0.0000 C   0  0  0  0  0  0
   -1.0607    0.0000    0.0000 C   0  0  0  0  0  0
  1  2  1  0  0  0
  2  3  1  0  0  0
  2  4  1  0  0  0
  4  5  1  0  0  0
  4  6  1  0  0  0
  6  7  2  0  0  0
  6  8  2  0  0  0
  6  9  1  0  0  0
  9 10  1  0  0  0
 10 11  2  0  0  0
 10 12  1  0  0  0
 12 13  1  0  0  0
 12 17  1  0  0  0
 12 14  1  6  0  0
 13 14  1  0  0  0
 14 15  1  6  0  0
 15 16  2  0  0  0
 17 18  1  0  0  0
 18 19  2  0  0  0
 18 20  1  0  0  0
 20 21  1  0  0  0
 20 24  1  1  0  0
 21 22  1  0  0  0
 22 23  1  0  0  0
 22 54  1  0  0  0
 22 57  1  6  0  0
 23 24  1  0  0  0
 24 25  1  0  0  0
 25 26  2  0  0  0
 25 27  1  0  0  0
 27 28  1  0  0  0
 27 50  1  6  0  0
 28 29  1  0  0  0
 29 30  2  0  0  0
 29 31  1  0  0  0
 31 32  1  0  0  0
 31 44  1  6  0  0
 32 33  1  0  0  0
 33 34  2  0  0  0
 33 35  1  0  0  0
 35 36  1  0  0  0
 35 40  1  1  0  0
 36 37  1  0  0  0
 37 38  1  0  0  0
 38 39  1  0  0  0
 39 40  1  0  0  0
 40 41  1  0  0  0
 41 42  1  0  0  0
 41 43  1  0  0  0
 44 45  1  0  0  0
 44 49  1  0  0  0
 45 46  1  0  0  0
 46 47  1  0  0  0
 47 48  1  0  0  0
 48 49  1  0  0  0
 50 51  1  0  0  0
 50 52  1  0  0  0
 50 53  1  0  0  0
 54 55  1  0  0  0
 54 56  1  0  0  0
 54 57  1  0  0  0
 57 58  1  0  0  0
 57 60  1  0  0  0
 58 59  1  0  0  0
 59 60  1  0  0  0
M  END
> <s_m_entry_id>
6825

> <s_m_entry_name>
NS3-4A.366

> <CHEMBLID>
CHEMBL3645681

> <s_m_Source_Path>
/home/liwei/Desktop/Machine/HCV/Active

> <s_m_Source_File>
NS3-4A.sdf

> <i_m_Source_File_Index>
366

$$$$
CHEMBL3645682
                    3D
 Structure written by MMmdl.
 58 63  0  0  1  0            999 V2000
   -1.3513   -4.5074    0.0000 C   0  0  0  0  0  0
   -2.2330   -3.2939    0.0000 C   0  0  0  0  0  0
   -3.7248   -3.4507    0.0000 N   0  0  0  0  0  0
   -4.7285   -2.3359    0.0000 C   0  0  0  0  0  0
   -6.0988   -2.9461    0.0000 C   0  0  0  0  0  0
   -5.9420   -4.4378    0.0000 C   0  0  0  0  0  0
   -4.4748   -4.7497    0.0000 C   0  0  1  0  0  0
   -3.8647   -6.1200    0.0000 C   0  0  0  0  0  0
   -4.7464   -7.3335    0.0000 O   0  0  0  0  0  0
   -2.3729   -6.2768    0.0000 N   0  0  0  0  0  0
   -1.7628   -7.6471    0.0000 C   0  0  1  0  0  0
   -2.6445   -8.8607    0.0000 C   0  0  0  0  0  0
   -4.1363   -8.7039    0.0000 C   0  0  0  0  0  0
   -5.0179   -9.9174    0.0000 C   0  0  0  0  0  0
   -4.4078  -11.2877    0.0000 C   0  0  0  0  0  0
   -2.9161  -11.4445    0.0000 C   0  0  0  0  0  0
   -2.0344  -10.2310    0.0000 C   0  0  0  0  0  0
   -0.2710   -7.8039    0.0000 C   0  0  0  0  0  0
    0.3391   -9.1742    0.0000 O   0  0  0  0  0  0
    0.6107   -6.5904    0.0000 N   0  0  0  0  0  0
    2.1024   -6.7472    0.0000 C   0  0  2  0  0  0
    2.9841   -5.5337    0.0000 C   0  0  0  0  0  0
    4.4759   -5.6905    0.0000 O   0  0  0  0  0  0
    2.3740   -4.1633    0.0000 N   0  0  0  0  0  0
    0.9068   -3.8515    0.0000 C   0  0  0  0  0  0
    0.7500   -2.3597    0.0000 C   0  0  1  0  0  0
    2.1203   -1.7496    0.0000 C   0  0  0  0  0  0
    3.1240   -2.8643    0.0000 C   0  0  1  0  0  0
    4.6158   -2.7075    0.0000 C   0  0  0  0  0  0
    5.2259   -1.3372    0.0000 O   0  0  0  0  0  0
    5.4975   -3.9210    0.0000 N   0  0  0  0  0  0
    6.9893   -3.7643    0.0000 C   0  0  1  0  0  0
    8.3374   -3.1067    0.0000 C   0  0  0  0  0  0
    7.0939   -2.2679    0.0000 C   0  0  1  0  0  0
    6.4363   -0.9197    0.0000 C   0  0  0  0  0  0
    7.2751    0.3238    0.0000 C   0  0  0  0  0  0
    7.4027   -5.2061    0.0000 C   0  0  0  0  0  0
    6.3607   -6.2852    0.0000 O   0  0  0  0  0  0
    8.8582   -5.5690    0.0000 N   0  0  0  0  0  0
    9.2716   -7.0109    0.0000 S   0  0  0  0  0  0
   10.7135   -6.5975    0.0000 O   0  0  0  0  0  0
    7.8297   -7.4244    0.0000 O   0  0  0  0  0  0
    9.6851   -8.4528    0.0000 N   0  0  0  0  0  0
    8.6431   -9.5318    0.0000 C   0  0  0  0  0  0
   11.1405   -8.8157    0.0000 C   0  0  0  0  0  0
   11.5540  -10.2576    0.0000 C   0  0  0  0  0  0
   12.1825   -7.7367    0.0000 C   0  0  0  0  0  0
   -0.7500   -2.3597    0.0000 C   0  0  0  0  0  0
   -1.0105   -3.8369    0.0000 C   0  0  0  0  0  0
   -2.1595   -1.8467    0.0000 C   0  0  0  0  0  0
   -0.0000   -1.0607    0.0000 C   0  0  0  0  0  0
    1.0607    0.0000    0.0000 C   0  0  0  0  0  0
    0.0000    1.0607    0.0000 C   0  0  0  0  0  0
   -1.0607    0.0000    0.0000 C   0  0  0  0  0  0
    2.7125   -8.1175    0.0000 C   0  0  0  0  0  0
    1.3422   -8.7276    0.0000 C   0  0  0  0  0  0
    4.0829   -7.5074    0.0000 C   0  0  0  0  0  0
    3.3227   -9.4878    0.0000 C   0  0  0  0  0  0
  1  2  1  0  0  0
  2  3  1  0  0  0
  3  4  1  0  0  0
  3  7  1  0  0  0
  4  5  1  0  0  0
  5  6  1  0  0  0
  6  7  1  0  0  0
  7  8  1  6  0  0
  8  9  2  0  0  0
  8 10  1  0  0  0
 10 11  1  0  0  0
 11 12  1  0  0  0
 11 18  1  6  0  0
 12 13  1  0  0  0
 12 17  1  0  0  0
 13 14  1  0  0  0
 14 15  1  0  0  0
 15 16  1  0  0  0
 16 17  1  0  0  0
 18 19  2  0  0  0
 18 20  1  0  0  0
 20 21  1  0  0  0
 21 22  1  0  0  0
 21 55  1  1  0  0
 22 23  2  0  0  0
 22 24  1  0  0  0
 24 25  1  0  0  0
 24 28  1  0  0  0
 25 26  1  0  0  0
 26 27  1  0  0  0
 26 48  1  0  0  0
 26 51  1  1  0  0
 27 28  1  0  0  0
 28 29  1  6  0  0
 29 30  2  0  0  0
 29 31  1  0  0  0
 31 32  1  0  0  0
 32 33  1  0  0  0
 32 37  1  0  0  0
 32 34  1  1  0  0
 33 34  1  0  0  0
 34 35  1  6  0  0
 35 36  2  0  0  0
 37 38  2  0  0  0
 37 39  1  0  0  0
 39 40  1  0  0  0
 40 41  2  0  0  0
 40 42  2  0  0  0
 40 43  1  0  0  0
 43 44  1  0  0  0
 43 45  1  0  0  0
 45 46  1  0  0  0
 45 47  1  0  0  0
 48 49  1  0  0  0
 48 50  1  0  0  0
 48 51  1  0  0  0
 51 52  1  0  0  0
 51 54  1  0  0  0
 52 53  1  0  0  0
 53 54  1  0  0  0
 55 56  1  0  0  0
 55 57  1  0  0  0
 55 58  1  0  0  0
M  END
> <s_m_entry_id>
6826

> <s_m_entry_name>
NS3-4A.367

> <CHEMBLID>
CHEMBL3645682

> <s_m_Source_Path>
/home/liwei/Desktop/Machine/HCV/Active

> <s_m_Source_File>
NS3-4A.sdf

> <i_m_Source_File_Index>
367

$$$$
CHEMBL3645683
                    3D
 Structure written by MMmdl.
 61 66  0  0  1  0            999 V2000
   -3.5052  -12.3115    0.0000 C   0  0  0  0  0  0
   -2.2617  -11.4727    0.0000 C   0  0  0  0  0  0
   -0.9135  -12.1302    0.0000 N   0  0  0  0  0  0
   -0.8089  -13.6266    0.0000 C   0  0  0  0  0  0
   -2.0524  -14.4654    0.0000 C   0  0  0  0  0  0
    0.5393  -14.2841    0.0000 C   0  0  0  0  0  0
    0.3301  -11.2914    0.0000 S   0  0  0  0  0  0
    1.1689  -12.5350    0.0000 O   0  0  0  0  0  0
   -0.5087  -10.0479    0.0000 O   0  0  0  0  0  0
    1.5736  -10.4526    0.0000 N   0  0  0  0  0  0
    1.4690   -8.9563    0.0000 C   0  0  0  0  0  0
    0.1208   -8.2987    0.0000 O   0  0  0  0  0  0
    2.7125   -8.1175    0.0000 C   0  0  2  0  0  0
    3.7545   -9.1965    0.0000 C   0  0  0  0  0  0
    4.1680   -7.7546    0.0000 C   0  0  1  0  0  0
    5.2470   -6.7126    0.0000 C   0  0  0  0  0  0
    6.6889   -7.1261    0.0000 C   0  0  0  0  0  0
    2.1024   -6.7472    0.0000 N   0  0  0  0  0  0
    2.9841   -5.5337    0.0000 C   0  0  0  0  0  0
    4.4759   -5.6905    0.0000 O   0  0  0  0  0  0
    2.3740   -4.1633    0.0000 C   0  0  2  0  0  0
    0.9068   -3.8515    0.0000 C   0  0  0  0  0  0
    0.7500   -2.3597    0.0000 C   0  0  2  0  0  0
    2.1203   -1.7496    0.0000 C   0  0  0  0  0  0
    3.1240   -2.8643    0.0000 N   0  0  0  0  0  0
    4.6158   -2.7075    0.0000 C   0  0  0  0  0  0
    5.4975   -3.9210    0.0000 O   0  0  0  0  0  0
    5.2259   -1.3372    0.0000 C   0  0  1  0  0  0
    6.7177   -1.1804    0.0000 N   0  0  0  0  0  0
    7.3278    0.1899    0.0000 C   0  0  0  0  0  0
    6.4461    1.4034    0.0000 O   0  0  0  0  0  0
    8.8196    0.3467    0.0000 C   0  0  1  0  0  0
    9.7013   -0.8668    0.0000 N   0  0  0  0  0  0
   11.1930   -0.7100    0.0000 C   0  0  0  0  0  0
   11.8031    0.6603    0.0000 O   0  0  0  0  0  0
   12.0747   -1.9236    0.0000 C   0  0  2  0  0  0
   13.5665   -1.7668    0.0000 C   0  0  0  0  0  0
   14.4482   -2.9803    0.0000 C   0  0  0  0  0  0
   13.8381   -4.3506    0.0000 C   0  0  0  0  0  0
   12.3463   -4.5074    0.0000 C   0  0  0  0  0  0
   11.4646   -3.2939    0.0000 N   0  0  0  0  0  0
    9.9728   -3.4507    0.0000 C   0  0  0  0  0  0
    9.0911   -2.2371    0.0000 C   0  0  0  0  0  0
    9.3627   -4.8210    0.0000 C   0  0  0  0  0  0
    9.4297    1.7170    0.0000 C   0  0  0  0  0  0
    8.5480    2.9305    0.0000 C   0  0  0  0  0  0
    9.1581    4.3009    0.0000 C   0  0  0  0  0  0
   10.6499    4.4577    0.0000 C   0  0  0  0  0  0
   11.5316    3.2441    0.0000 C   0  0  0  0  0  0
   10.9215    1.8738    0.0000 C   0  0  0  0  0  0
    4.3442   -0.1237    0.0000 C   0  0  0  0  0  0
    5.5577    0.7580    0.0000 C   0  0  0  0  0  0
    3.1307   -1.0054    0.0000 C   0  0  0  0  0  0
    3.4625    1.0899    0.0000 C   0  0  0  0  0  0
   -0.7500   -2.3597    0.0000 C   0  0  0  0  0  0
   -1.0105   -3.8369    0.0000 C   0  0  0  0  0  0
   -2.1595   -1.8467    0.0000 C   0  0  0  0  0  0
   -0.0000   -1.0607    0.0000 C   0  0  0  0  0  0
    1.0607    0.0000    0.0000 C   0  0  0  0  0  0
    0.0000    1.0607    0.0000 C   0  0  0  0  0  0
   -1.0607    0.0000    0.0000 C   0  0  0  0  0  0
  1  2  1  0  0  0
  2  3  1  0  0  0
  3  4  1  0  0  0
  3  7  1  0  0  0
  4  5  1  0  0  0
  4  6  1  0  0  0
  7  8  2  0  0  0
  7  9  2  0  0  0
  7 10  1  0  0  0
 10 11  1  0  0  0
 11 12  2  0  0  0
 11 13  1  0  0  0
 13 14  1  0  0  0
 13 18  1  0  0  0
 13 15  1  6  0  0
 14 15  1  0  0  0
 15 16  1  6  0  0
 16 17  2  0  0  0
 18 19  1  0  0  0
 19 20  2  0  0  0
 19 21  1  0  0  0
 21 22  1  0  0  0
 21 25  1  1  0  0
 22 23  1  0  0  0
 23 24  1  0  0  0
 23 55  1  0  0  0
 23 58  1  6  0  0
 24 25  1  0  0  0
 25 26  1  0  0  0
 26 27  2  0  0  0
 26 28  1  0  0  0
 28 29  1  0  0  0
 28 51  1  6  0  0
 29 30  1  0  0  0
 30 31  2  0  0  0
 30 32  1  0  0  0
 32 33  1  0  0  0
 32 45  1  6  0  0
 33 34  1  0  0  0
 34 35  2  0  0  0
 34 36  1  0  0  0
 36 37  1  0  0  0
 36 41  1  1  0  0
 37 38  1  0  0  0
 38 39  1  0  0  0
 39 40  1  0  0  0
 40 41  1  0  0  0
 41 42  1  0  0  0
 42 43  1  0  0  0
 42 44  1  0  0  0
 45 46  1  0  0  0
 45 50  1  0  0  0
 46 47  1  0  0  0
 47 48  1  0  0  0
 48 49  1  0  0  0
 49 50  1  0  0  0
 51 52  1  0  0  0
 51 53  1  0  0  0
 51 54  1  0  0  0
 55 56  1  0  0  0
 55 57  1  0  0  0
 55 58  1  0  0  0
 58 59  1  0  0  0
 58 61  1  0  0  0
 59 60  1  0  0  0
 60 61  1  0  0  0
M  END
> <s_m_entry_id>
6827

> <s_m_entry_name>
NS3-4A.368

> <CHEMBLID>
CHEMBL3645683

> <s_m_Source_Path>
/home/liwei/Desktop/Machine/HCV/Active

> <s_m_Source_File>
NS3-4A.sdf

> <i_m_Source_File_Index>
368

$$$$
CHEMBL3645684
                    3D
 Structure written by MMmdl.
 59 64  0  0  1  0            999 V2000
   -3.5052  -12.3115    0.0000 C   0  0  0  0  0  0
   -2.2617  -11.4727    0.0000 C   0  0  0  0  0  0
   -0.9135  -12.1302    0.0000 N   0  0  0  0  0  0
   -0.8089  -13.6266    0.0000 C   0  0  0  0  0  0
   -2.0524  -14.4654    0.0000 C   0  0  0  0  0  0
    0.5393  -14.2841    0.0000 C   0  0  0  0  0  0
    0.3301  -11.2914    0.0000 S   0  0  0  0  0  0
    1.1689  -12.5350    0.0000 O   0  0  0  0  0  0
   -0.5087  -10.0479    0.0000 O   0  0  0  0  0  0
    1.5736  -10.4526    0.0000 N   0  0  0  0  0  0
    1.4690   -8.9563    0.0000 C   0  0  0  0  0  0
    0.1208   -8.2987    0.0000 O   0  0  0  0  0  0
    2.7125   -8.1175    0.0000 C   0  0  2  0  0  0
    3.7545   -9.1965    0.0000 C   0  0  0  0  0  0
    4.1680   -7.7546    0.0000 C   0  0  1  0  0  0
    5.2470   -6.7126    0.0000 C   0  0  0  0  0  0
    6.6889   -7.1261    0.0000 C   0  0  0  0  0  0
    2.1024   -6.7472    0.0000 N   0  0  0  0  0  0
    2.9841   -5.5337    0.0000 C   0  0  0  0  0  0
    4.4759   -5.6905    0.0000 O   0  0  0  0  0  0
    2.3740   -4.1633    0.0000 C   0  0  2  0  0  0
    0.9068   -3.8515    0.0000 C   0  0  0  0  0  0
    0.7500   -2.3597    0.0000 C   0  0  2  0  0  0
    2.1203   -1.7496    0.0000 C   0  0  0  0  0  0
    3.1240   -2.8643    0.0000 N   0  0  0  0  0  0
    4.6158   -2.7075    0.0000 C   0  0  0  0  0  0
    5.4975   -3.9210    0.0000 O   0  0  0  0  0  0
    5.2259   -1.3372    0.0000 C   0  0  1  0  0  0
    4.3442   -0.1237    0.0000 N   0  0  0  0  0  0
    4.9543    1.2466    0.0000 C   0  0  0  0  0  0
    6.4461    1.4034    0.0000 O   0  0  0  0  0  0
    4.0727    2.4602    0.0000 C   0  0  1  0  0  0
    2.5809    2.3034    0.0000 N   0  0  0  0  0  0
    1.6992    3.5169    0.0000 C   0  0  0  0  0  0
    2.3093    4.8872    0.0000 O   0  0  0  0  0  0
    0.2074    3.3601    0.0000 C   0  0  2  0  0  0
   -0.5426    2.0611    0.0000 C   0  0  0  0  0  0
   -2.0098    2.3729    0.0000 C   0  0  0  0  0  0
   -2.1666    3.8647    0.0000 C   0  0  0  0  0  0
   -0.7963    4.4748    0.0000 N   0  0  0  0  0  0
   -0.4844    5.9420    0.0000 C   0  0  0  0  0  0
   -1.5991    6.9457    0.0000 C   0  0  0  0  0  0
    4.6828    3.8305    0.0000 C   0  0  0  0  0  0
    6.1745    3.9873    0.0000 C   0  0  0  0  0  0
    6.7846    5.3576    0.0000 C   0  0  0  0  0  0
    5.9030    6.5711    0.0000 C   0  0  0  0  0  0
    4.4112    6.4143    0.0000 C   0  0  0  0  0  0
    3.8011    5.0440    0.0000 C   0  0  0  0  0  0
    6.7177   -1.1804    0.0000 C   0  0  0  0  0  0
    6.5609    0.3114    0.0000 C   0  0  0  0  0  0
    6.8745   -2.6722    0.0000 C   0  0  0  0  0  0
    8.2095   -1.0236    0.0000 C   0  0  0  0  0  0
   -0.7500   -2.3597    0.0000 C   0  0  0  0  0  0
   -1.0105   -3.8369    0.0000 C   0  0  0  0  0  0
   -2.1595   -1.8467    0.0000 C   0  0  0  0  0  0
   -0.0000   -1.0607    0.0000 C   0  0  0  0  0  0
    1.0607    0.0000    0.0000 C   0  0  0  0  0  0
    0.0000    1.0607    0.0000 C   0  0  0  0  0  0
   -1.0607    0.0000    0.0000 C   0  0  0  0  0  0
  1  2  1  0  0  0
  2  3  1  0  0  0
  3  4  1  0  0  0
  3  7  1  0  0  0
  4  5  1  0  0  0
  4  6  1  0  0  0
  7  8  2  0  0  0
  7  9  2  0  0  0
  7 10  1  0  0  0
 10 11  1  0  0  0
 11 12  2  0  0  0
 11 13  1  0  0  0
 13 14  1  0  0  0
 13 18  1  0  0  0
 13 15  1  6  0  0
 14 15  1  0  0  0
 15 16  1  6  0  0
 16 17  2  0  0  0
 18 19  1  0  0  0
 19 20  2  0  0  0
 19 21  1  0  0  0
 21 22  1  0  0  0
 21 25  1  1  0  0
 22 23  1  0  0  0
 23 24  1  0  0  0
 23 53  1  0  0  0
 23 56  1  6  0  0
 24 25  1  0  0  0
 25 26  1  0  0  0
 26 27  2  0  0  0
 26 28  1  0  0  0
 28 29  1  0  0  0
 28 49  1  6  0  0
 29 30  1  0  0  0
 30 31  2  0  0  0
 30 32  1  0  0  0
 32 33  1  0  0  0
 32 43  1  6  0  0
 33 34  1  0  0  0
 34 35  2  0  0  0
 34 36  1  0  0  0
 36 37  1  0  0  0
 36 40  1  1  0  0
 37 38  1  0  0  0
 38 39  1  0  0  0
 39 40  1  0  0  0
 40 41  1  0  0  0
 41 42  1  0  0  0
 43 44  1  0  0  0
 43 48  1  0  0  0
 44 45  1  0  0  0
 45 46  1  0  0  0
 46 47  1  0  0  0
 47 48  1  0  0  0
 49 50  1  0  0  0
 49 51  1  0  0  0
 49 52  1  0  0  0
 53 54  1  0  0  0
 53 55  1  0  0  0
 53 56  1  0  0  0
 56 57  1  0  0  0
 56 59  1  0  0  0
 57 58  1  0  0  0
 58 59  1  0  0  0
M  END
> <s_m_entry_id>
6828

> <s_m_entry_name>
NS3-4A.369

> <CHEMBLID>
CHEMBL3645684

> <s_m_Source_Path>
/home/liwei/Desktop/Machine/HCV/Active

> <s_m_Source_File>
NS3-4A.sdf

> <i_m_Source_File_Index>
369

$$$$
CHEMBL3645685
                    3D
 Structure written by MMmdl.
 60 65  0  0  1  0            999 V2000
   -1.9478  -15.9617    0.0000 C   0  0  0  0  0  0
   -2.0524  -14.4654    0.0000 C   0  0  0  0  0  0
   -0.8089  -13.6266    0.0000 C   0  0  0  0  0  0
   -0.9135  -12.1302    0.0000 N   0  0  0  0  0  0
   -2.2617  -11.4727    0.0000 C   0  0  0  0  0  0
    0.3301  -11.2914    0.0000 S   0  0  0  0  0  0
    1.1689  -12.5350    0.0000 O   0  0  0  0  0  0
   -0.5087  -10.0479    0.0000 O   0  0  0  0  0  0
    1.5736  -10.4526    0.0000 N   0  0  0  0  0  0
    1.4690   -8.9563    0.0000 C   0  0  0  0  0  0
    0.1208   -8.2987    0.0000 O   0  0  0  0  0  0
    2.7125   -8.1175    0.0000 C   0  0  2  0  0  0
    3.7545   -9.1965    0.0000 C   0  0  0  0  0  0
    4.1680   -7.7546    0.0000 C   0  0  1  0  0  0
    5.2470   -6.7126    0.0000 C   0  0  0  0  0  0
    6.6889   -7.1261    0.0000 C   0  0  0  0  0  0
    2.1024   -6.7472    0.0000 N   0  0  0  0  0  0
    2.9841   -5.5337    0.0000 C   0  0  0  0  0  0
    4.4759   -5.6905    0.0000 O   0  0  0  0  0  0
    2.3740   -4.1633    0.0000 C   0  0  2  0  0  0
    0.9068   -3.8515    0.0000 C   0  0  0  0  0  0
    0.7500   -2.3597    0.0000 C   0  0  2  0  0  0
    2.1203   -1.7496    0.0000 C   0  0  0  0  0  0
    3.1240   -2.8643    0.0000 N   0  0  0  0  0  0
    4.6158   -2.7075    0.0000 C   0  0  0  0  0  0
    5.4975   -3.9210    0.0000 O   0  0  0  0  0  0
    5.2259   -1.3372    0.0000 C   0  0  1  0  0  0
    6.7177   -1.1804    0.0000 N   0  0  0  0  0  0
    7.3278    0.1899    0.0000 C   0  0  0  0  0  0
    6.4461    1.4034    0.0000 O   0  0  0  0  0  0
    8.8196    0.3467    0.0000 C   0  0  1  0  0  0
    9.7013   -0.8668    0.0000 N   0  0  0  0  0  0
   11.1930   -0.7100    0.0000 C   0  0  0  0  0  0
   11.8031    0.6603    0.0000 O   0  0  0  0  0  0
   12.0747   -1.9236    0.0000 C   0  0  2  0  0  0
   13.5665   -1.7668    0.0000 C   0  0  0  0  0  0
   14.4482   -2.9803    0.0000 C   0  0  0  0  0  0
   13.8381   -4.3506    0.0000 C   0  0  0  0  0  0
   12.3463   -4.5074    0.0000 C   0  0  0  0  0  0
   11.4646   -3.2939    0.0000 N   0  0  0  0  0  0
    9.9728   -3.4507    0.0000 C   0  0  0  0  0  0
    9.0911   -2.2371    0.0000 C   0  0  0  0  0  0
    9.3627   -4.8210    0.0000 C   0  0  0  0  0  0
    9.4297    1.7170    0.0000 C   0  0  0  0  0  0
    8.5480    2.9305    0.0000 C   0  0  0  0  0  0
    9.1581    4.3009    0.0000 C   0  0  0  0  0  0
   10.6499    4.4577    0.0000 C   0  0  0  0  0  0
   11.5316    3.2441    0.0000 C   0  0  0  0  0  0
   10.9215    1.8738    0.0000 C   0  0  0  0  0  0
    4.3442   -0.1237    0.0000 C   0  0  0  0  0  0
    5.5577    0.7580    0.0000 C   0  0  0  0  0  0
    3.1307   -1.0054    0.0000 C   0  0  0  0  0  0
    3.4625    1.0899    0.0000 C   0  0  0  0  0  0
   -0.7500   -2.3597    0.0000 C   0  0  0  0  0  0
   -1.0105   -3.8369    0.0000 C   0  0  0  0  0  0
   -2.1595   -1.8467    0.0000 C   0  0  0  0  0  0
   -0.0000   -1.0607    0.0000 C   0  0  0  0  0  0
    1.0607    0.0000    0.0000 C   0  0  0  0  0  0
    0.0000    1.0607    0.0000 C   0  0  0  0  0  0
   -1.0607    0.0000    0.0000 C   0  0  0  0  0  0
  1  2  1  0  0  0
  2  3  1  0  0  0
  3  4  1  0  0  0
  4  5  1  0  0  0
  4  6  1  0  0  0
  6  7  2  0  0  0
  6  8  2  0  0  0
  6  9  1  0  0  0
  9 10  1  0  0  0
 10 11  2  0  0  0
 10 12  1  0  0  0
 12 13  1  0  0  0
 12 17  1  0  0  0
 12 14  1  6  0  0
 13 14  1  0  0  0
 14 15  1  6  0  0
 15 16  2  0  0  0
 17 18  1  0  0  0
 18 19  2  0  0  0
 18 20  1  0  0  0
 20 21  1  0  0  0
 20 24  1  1  0  0
 21 22  1  0  0  0
 22 23  1  0  0  0
 22 54  1  0  0  0
 22 57  1  6  0  0
 23 24  1  0  0  0
 24 25  1  0  0  0
 25 26  2  0  0  0
 25 27  1  0  0  0
 27 28  1  0  0  0
 27 50  1  6  0  0
 28 29  1  0  0  0
 29 30  2  0  0  0
 29 31  1  0  0  0
 31 32  1  0  0  0
 31 44  1  6  0  0
 32 33  1  0  0  0
 33 34  2  0  0  0
 33 35  1  0  0  0
 35 36  1  0  0  0
 35 40  1  1  0  0
 36 37  1  0  0  0
 37 38  1  0  0  0
 38 39  1  0  0  0
 39 40  1  0  0  0
 40 41  1  0  0  0
 41 42  1  0  0  0
 41 43  1  0  0  0
 44 45  1  0  0  0
 44 49  1  0  0  0
 45 46  1  0  0  0
 46 47  1  0  0  0
 47 48  1  0  0  0
 48 49  1  0  0  0
 50 51  1  0  0  0
 50 52  1  0  0  0
 50 53  1  0  0  0
 54 55  1  0  0  0
 54 56  1  0  0  0
 54 57  1  0  0  0
 57 58  1  0  0  0
 57 60  1  0  0  0
 58 59  1  0  0  0
 59 60  1  0  0  0
M  END
> <s_m_entry_id>
6829

> <s_m_entry_name>
NS3-4A.370

> <CHEMBLID>
CHEMBL3645685

> <s_m_Source_Path>
/home/liwei/Desktop/Machine/HCV/Active

> <s_m_Source_File>
NS3-4A.sdf

> <i_m_Source_File_Index>
370

$$$$
CHEMBL3645686
                    3D
 Structure written by MMmdl.
 61 67  0  0  1  0            999 V2000
   -8.3400   -5.6496    0.0000 C   0  0  0  0  0  0
   -6.8483   -5.8064    0.0000 C   0  0  0  0  0  0
   -6.2382   -7.1768    0.0000 C   0  0  0  0  0  0
   -5.9666   -4.5929    0.0000 N   0  0  0  0  0  0
   -6.5767   -3.2226    0.0000 C   0  0  0  0  0  0
   -5.6950   -2.0091    0.0000 C   0  0  0  0  0  0
   -4.2032   -2.1659    0.0000 C   0  0  0  0  0  0
   -3.5931   -3.5362    0.0000 C   0  0  0  0  0  0
   -4.4748   -4.7497    0.0000 C   0  0  1  0  0  0
   -3.8647   -6.1200    0.0000 C   0  0  0  0  0  0
   -4.7464   -7.3335    0.0000 O   0  0  0  0  0  0
   -2.3729   -6.2768    0.0000 N   0  0  0  0  0  0
   -1.7628   -7.6471    0.0000 C   0  0  1  0  0  0
   -2.6445   -8.8607    0.0000 C   0  0  0  0  0  0
   -4.1363   -8.7039    0.0000 C   0  0  0  0  0  0
   -5.0179   -9.9174    0.0000 C   0  0  0  0  0  0
   -4.4078  -11.2877    0.0000 C   0  0  0  0  0  0
   -2.9161  -11.4445    0.0000 C   0  0  0  0  0  0
   -2.0344  -10.2310    0.0000 C   0  0  0  0  0  0
   -0.2710   -7.8039    0.0000 C   0  0  0  0  0  0
    0.3391   -9.1742    0.0000 O   0  0  0  0  0  0
    0.6107   -6.5904    0.0000 N   0  0  0  0  0  0
    2.1024   -6.7472    0.0000 C   0  0  2  0  0  0
    2.9841   -5.5337    0.0000 C   0  0  0  0  0  0
    4.4759   -5.6905    0.0000 O   0  0  0  0  0  0
    2.3740   -4.1633    0.0000 N   0  0  0  0  0  0
    0.9068   -3.8515    0.0000 C   0  0  0  0  0  0
    0.7500   -2.3597    0.0000 C   0  0  1  0  0  0
    2.1203   -1.7496    0.0000 C   0  0  0  0  0  0
    3.1240   -2.8643    0.0000 C   0  0  1  0  0  0
    4.6158   -2.7075    0.0000 C   0  0  0  0  0  0
    5.2259   -1.3372    0.0000 O   0  0  0  0  0  0
    5.4975   -3.9210    0.0000 N   0  0  0  0  0  0
    6.9893   -3.7643    0.0000 C   0  0  1  0  0  0
    8.3374   -3.1067    0.0000 C   0  0  0  0  0  0
    7.0939   -2.2679    0.0000 C   0  0  1  0  0  0
    6.4363   -0.9197    0.0000 C   0  0  0  0  0  0
    7.2751    0.3238    0.0000 C   0  0  0  0  0  0
    7.4027   -5.2061    0.0000 C   0  0  0  0  0  0
    6.3607   -6.2852    0.0000 O   0  0  0  0  0  0
    8.8582   -5.5690    0.0000 N   0  0  0  0  0  0
    9.2716   -7.0109    0.0000 S   0  0  0  0  0  0
   10.7135   -6.5975    0.0000 O   0  0  0  0  0  0
    7.8297   -7.4244    0.0000 O   0  0  0  0  0  0
    9.6851   -8.4528    0.0000 N   0  0  0  0  0  0
   11.1405   -8.8157    0.0000 C   0  0  0  0  0  0
   11.5540  -10.2576    0.0000 C   0  0  0  0  0  0
   10.5120  -11.3366    0.0000 C   0  0  0  0  0  0
    9.0565  -10.9737    0.0000 C   0  0  0  0  0  0
    8.6431   -9.5318    0.0000 C   0  0  0  0  0  0
   -0.7500   -2.3597    0.0000 C   0  0  0  0  0  0
   -1.0105   -3.8369    0.0000 C   0  0  0  0  0  0
   -2.1595   -1.8467    0.0000 C   0  0  0  0  0  0
   -0.0000   -1.0607    0.0000 C   0  0  0  0  0  0
    1.0607    0.0000    0.0000 C   0  0  0  0  0  0
    0.0000    1.0607    0.0000 C   0  0  0  0  0  0
   -1.0607    0.0000    0.0000 C   0  0  0  0  0  0
    2.7125   -8.1175    0.0000 C   0  0  0  0  0  0
    1.3422   -8.7276    0.0000 C   0  0  0  0  0  0
    4.0829   -7.5074    0.0000 C   0  0  0  0  0  0
    3.3227   -9.4878    0.0000 C   0  0  0  0  0  0
  1  2  1  0  0  0
  2  3  1  0  0  0
  2  4  1  0  0  0
  4  5  1  0  0  0
  4  9  1  0  0  0
  5  6  1  0  0  0
  6  7  1  0  0  0
  7  8  1  0  0  0
  8  9  1  0  0  0
  9 10  1  6  0  0
 10 11  2  0  0  0
 10 12  1  0  0  0
 12 13  1  0  0  0
 13 14  1  0  0  0
 13 20  1  6  0  0
 14 15  1  0  0  0
 14 19  1  0  0  0
 15 16  1  0  0  0
 16 17  1  0  0  0
 17 18  1  0  0  0
 18 19  1  0  0  0
 20 21  2  0  0  0
 20 22  1  0  0  0
 22 23  1  0  0  0
 23 24  1  0  0  0
 23 58  1  1  0  0
 24 25  2  0  0  0
 24 26  1  0  0  0
 26 27  1  0  0  0
 26 30  1  0  0  0
 27 28  1  0  0  0
 28 29  1  0  0  0
 28 51  1  0  0  0
 28 54  1  1  0  0
 29 30  1  0  0  0
 30 31  1  6  0  0
 31 32  2  0  0  0
 31 33  1  0  0  0
 33 34  1  0  0  0
 34 35  1  0  0  0
 34 39  1  0  0  0
 34 36  1  1  0  0
 35 36  1  0  0  0
 36 37  1  6  0  0
 37 38  2  0  0  0
 39 40  2  0  0  0
 39 41  1  0  0  0
 41 42  1  0  0  0
 42 43  2  0  0  0
 42 44  2  0  0  0
 42 45  1  0  0  0
 45 46  1  0  0  0
 45 50  1  0  0  0
 46 47  1  0  0  0
 47 48  1  0  0  0
 48 49  1  0  0  0
 49 50  1  0  0  0
 51 52  1  0  0  0
 51 53  1  0  0  0
 51 54  1  0  0  0
 54 55  1  0  0  0
 54 57  1  0  0  0
 55 56  1  0  0  0
 56 57  1  0  0  0
 58 59  1  0  0  0
 58 60  1  0  0  0
 58 61  1  0  0  0
M  END
> <s_m_entry_id>
6830

> <s_m_entry_name>
NS3-4A.371

> <CHEMBLID>
CHEMBL3645686

> <s_m_Source_Path>
/home/liwei/Desktop/Machine/HCV/Active

> <s_m_Source_File>
NS3-4A.sdf

> <i_m_Source_File_Index>
371

$$$$
CHEMBL3645687
                    3D
 Structure written by MMmdl.
 60 65  0  0  1  0            999 V2000
   -1.9478  -15.9617    0.0000 C   0  0  0  0  0  0
   -2.0524  -14.4654    0.0000 C   0  0  0  0  0  0
   -0.8089  -13.6266    0.0000 C   0  0  0  0  0  0
   -0.9135  -12.1302    0.0000 N   0  0  0  0  0  0
   -2.2617  -11.4727    0.0000 C   0  0  0  0  0  0
    0.3301  -11.2914    0.0000 S   0  0  0  0  0  0
    1.1689  -12.5350    0.0000 O   0  0  0  0  0  0
   -0.5087  -10.0479    0.0000 O   0  0  0  0  0  0
    1.5736  -10.4526    0.0000 N   0  0  0  0  0  0
    1.4690   -8.9563    0.0000 C   0  0  0  0  0  0
    0.1208   -8.2987    0.0000 O   0  0  0  0  0  0
    2.7125   -8.1175    0.0000 C   0  0  2  0  0  0
    3.7545   -9.1965    0.0000 C   0  0  0  0  0  0
    4.1680   -7.7546    0.0000 C   0  0  1  0  0  0
    5.2470   -6.7126    0.0000 C   0  0  0  0  0  0
    6.6889   -7.1261    0.0000 C   0  0  0  0  0  0
    2.1024   -6.7472    0.0000 N   0  0  0  0  0  0
    2.9841   -5.5337    0.0000 C   0  0  0  0  0  0
    4.4759   -5.6905    0.0000 O   0  0  0  0  0  0
    2.3740   -4.1633    0.0000 C   0  0  2  0  0  0
    0.9068   -3.8515    0.0000 C   0  0  0  0  0  0
    0.7500   -2.3597    0.0000 C   0  0  2  0  0  0
    2.1203   -1.7496    0.0000 C   0  0  0  0  0  0
    3.1240   -2.8643    0.0000 N   0  0  0  0  0  0
    4.6158   -2.7075    0.0000 C   0  0  0  0  0  0
    5.4975   -3.9210    0.0000 O   0  0  0  0  0  0
    5.2259   -1.3372    0.0000 C   0  0  1  0  0  0
    6.7177   -1.1804    0.0000 N   0  0  0  0  0  0
    7.3278    0.1899    0.0000 C   0  0  0  0  0  0
    6.4461    1.4034    0.0000 O   0  0  0  0  0  0
    8.8196    0.3467    0.0000 C   0  0  1  0  0  0
    9.7013   -0.8668    0.0000 N   0  0  0  0  0  0
   11.1930   -0.7100    0.0000 C   0  0  0  0  0  0
   11.8031    0.6603    0.0000 O   0  0  0  0  0  0
   12.0747   -1.9236    0.0000 C   0  0  1  0  0  0
   13.5665   -1.7668    0.0000 C   0  0  0  0  0  0
   14.4482   -2.9803    0.0000 C   0  0  0  0  0  0
   13.8381   -4.3506    0.0000 C   0  0  0  0  0  0
   12.3463   -4.5074    0.0000 C   0  0  0  0  0  0
   11.4646   -3.2939    0.0000 N   0  0  0  0  0  0
    9.9728   -3.4507    0.0000 C   0  0  0  0  0  0
    9.0911   -2.2371    0.0000 C   0  0  0  0  0  0
    9.3627   -4.8210    0.0000 C   0  0  0  0  0  0
    9.4297    1.7170    0.0000 C   0  0  0  0  0  0
    8.5480    2.9305    0.0000 C   0  0  0  0  0  0
    9.1581    4.3009    0.0000 C   0  0  0  0  0  0
   10.6499    4.4577    0.0000 C   0  0  0  0  0  0
   11.5316    3.2441    0.0000 C   0  0  0  0  0  0
   10.9215    1.8738    0.0000 C   0  0  0  0  0  0
    4.3442   -0.1237    0.0000 C   0  0  0  0  0  0
    5.5577    0.7580    0.0000 C   0  0  0  0  0  0
    3.1307   -1.0054    0.0000 C   0  0  0  0  0  0
    3.4625    1.0899    0.0000 C   0  0  0  0  0  0
   -0.7500   -2.3597    0.0000 C   0  0  0  0  0  0
   -1.0105   -3.8369    0.0000 C   0  0  0  0  0  0
   -2.1595   -1.8467    0.0000 C   0  0  0  0  0  0
   -0.0000   -1.0607    0.0000 C   0  0  0  0  0  0
    1.0607    0.0000    0.0000 C   0  0  0  0  0  0
    0.0000    1.0607    0.0000 C   0  0  0  0  0  0
   -1.0607    0.0000    0.0000 C   0  0  0  0  0  0
  1  2  1  0  0  0
  2  3  1  0  0  0
  3  4  1  0  0  0
  4  5  1  0  0  0
  4  6  1  0  0  0
  6  7  2  0  0  0
  6  8  2  0  0  0
  6  9  1  0  0  0
  9 10  1  0  0  0
 10 11  2  0  0  0
 10 12  1  0  0  0
 12 13  1  0  0  0
 12 17  1  0  0  0
 12 14  1  6  0  0
 13 14  1  0  0  0
 14 15  1  6  0  0
 15 16  2  0  0  0
 17 18  1  0  0  0
 18 19  2  0  0  0
 18 20  1  0  0  0
 20 21  1  0  0  0
 20 24  1  1  0  0
 21 22  1  0  0  0
 22 23  1  0  0  0
 22 54  1  0  0  0
 22 57  1  6  0  0
 23 24  1  0  0  0
 24 25  1  0  0  0
 25 26  2  0  0  0
 25 27  1  0  0  0
 27 28  1  0  0  0
 27 50  1  6  0  0
 28 29  1  0  0  0
 29 30  2  0  0  0
 29 31  1  0  0  0
 31 32  1  0  0  0
 31 44  1  6  0  0
 32 33  1  0  0  0
 33 34  2  0  0  0
 33 35  1  0  0  0
 35 36  1  0  0  0
 35 40  1  1  0  0
 36 37  1  0  0  0
 37 38  1  0  0  0
 38 39  1  0  0  0
 39 40  1  0  0  0
 40 41  1  0  0  0
 41 42  1  0  0  0
 41 43  1  0  0  0
 44 45  1  0  0  0
 44 49  1  0  0  0
 45 46  1  0  0  0
 46 47  1  0  0  0
 47 48  1  0  0  0
 48 49  1  0  0  0
 50 51  1  0  0  0
 50 52  1  0  0  0
 50 53  1  0  0  0
 54 55  1  0  0  0
 54 56  1  0  0  0
 54 57  1  0  0  0
 57 58  1  0  0  0
 57 60  1  0  0  0
 58 59  1  0  0  0
 59 60  1  0  0  0
M  END
> <s_m_entry_id>
6831

> <s_m_entry_name>
NS3-4A.372

> <CHEMBLID>
CHEMBL3645687

> <s_m_Source_Path>
/home/liwei/Desktop/Machine/HCV/Active

> <s_m_Source_File>
NS3-4A.sdf

> <i_m_Source_File_Index>
372

$$$$
CHEMBL3645688
                    3D
 Structure written by MMmdl.
 61 67  0  0  1  0            999 V2000
   -8.3400   -5.6496    0.0000 C   0  0  0  0  0  0
   -6.8483   -5.8064    0.0000 C   0  0  0  0  0  0
   -6.2382   -7.1768    0.0000 C   0  0  0  0  0  0
   -5.9666   -4.5929    0.0000 N   0  0  0  0  0  0
   -6.5767   -3.2226    0.0000 C   0  0  0  0  0  0
   -5.6950   -2.0091    0.0000 C   0  0  0  0  0  0
   -4.2032   -2.1659    0.0000 C   0  0  0  0  0  0
   -3.5931   -3.5362    0.0000 C   0  0  0  0  0  0
   -4.4748   -4.7497    0.0000 C   0  0  2  0  0  0
   -3.8647   -6.1200    0.0000 C   0  0  0  0  0  0
   -4.7464   -7.3335    0.0000 O   0  0  0  0  0  0
   -2.3729   -6.2768    0.0000 N   0  0  0  0  0  0
   -1.7628   -7.6471    0.0000 C   0  0  1  0  0  0
   -2.6445   -8.8607    0.0000 C   0  0  0  0  0  0
   -4.1363   -8.7039    0.0000 C   0  0  0  0  0  0
   -5.0179   -9.9174    0.0000 C   0  0  0  0  0  0
   -4.4078  -11.2877    0.0000 C   0  0  0  0  0  0
   -2.9161  -11.4445    0.0000 C   0  0  0  0  0  0
   -2.0344  -10.2310    0.0000 C   0  0  0  0  0  0
   -0.2710   -7.8039    0.0000 C   0  0  0  0  0  0
    0.3391   -9.1742    0.0000 O   0  0  0  0  0  0
    0.6107   -6.5904    0.0000 N   0  0  0  0  0  0
    2.1024   -6.7472    0.0000 C   0  0  2  0  0  0
    2.9841   -5.5337    0.0000 C   0  0  0  0  0  0
    4.4759   -5.6905    0.0000 O   0  0  0  0  0  0
    2.3740   -4.1633    0.0000 N   0  0  0  0  0  0
    0.9068   -3.8515    0.0000 C   0  0  0  0  0  0
    0.7500   -2.3597    0.0000 C   0  0  1  0  0  0
    2.1203   -1.7496    0.0000 C   0  0  0  0  0  0
    3.1240   -2.8643    0.0000 C   0  0  1  0  0  0
    4.6158   -2.7075    0.0000 C   0  0  0  0  0  0
    5.2259   -1.3372    0.0000 O   0  0  0  0  0  0
    5.4975   -3.9210    0.0000 N   0  0  0  0  0  0
    6.9893   -3.7643    0.0000 C   0  0  1  0  0  0
    8.3374   -3.1067    0.0000 C   0  0  0  0  0  0
    7.0939   -2.2679    0.0000 C   0  0  1  0  0  0
    6.4363   -0.9197    0.0000 C   0  0  0  0  0  0
    7.2751    0.3238    0.0000 C   0  0  0  0  0  0
    7.4027   -5.2061    0.0000 C   0  0  0  0  0  0
    6.3607   -6.2852    0.0000 O   0  0  0  0  0  0
    8.8582   -5.5690    0.0000 N   0  0  0  0  0  0
    9.2716   -7.0109    0.0000 S   0  0  0  0  0  0
   10.7135   -6.5975    0.0000 O   0  0  0  0  0  0
    7.8297   -7.4244    0.0000 O   0  0  0  0  0  0
    9.6851   -8.4528    0.0000 N   0  0  0  0  0  0
   11.1405   -8.8157    0.0000 C   0  0  0  0  0  0
   11.5540  -10.2576    0.0000 C   0  0  0  0  0  0
   10.5120  -11.3366    0.0000 C   0  0  0  0  0  0
    9.0565  -10.9737    0.0000 C   0  0  0  0  0  0
    8.6431   -9.5318    0.0000 C   0  0  0  0  0  0
   -0.7500   -2.3597    0.0000 C   0  0  0  0  0  0
   -1.0105   -3.8369    0.0000 C   0  0  0  0  0  0
   -2.1595   -1.8467    0.0000 C   0  0  0  0  0  0
   -0.0000   -1.0607    0.0000 C   0  0  0  0  0  0
    1.0607    0.0000    0.0000 C   0  0  0  0  0  0
    0.0000    1.0607    0.0000 C   0  0  0  0  0  0
   -1.0607    0.0000    0.0000 C   0  0  0  0  0  0
    2.7125   -8.1175    0.0000 C   0  0  0  0  0  0
    1.3422   -8.7276    0.0000 C   0  0  0  0  0  0
    4.0829   -7.5074    0.0000 C   0  0  0  0  0  0
    3.3227   -9.4878    0.0000 C   0  0  0  0  0  0
  1  2  1  0  0  0
  2  3  1  0  0  0
  2  4  1  0  0  0
  4  5  1  0  0  0
  4  9  1  0  0  0
  5  6  1  0  0  0
  6  7  1  0  0  0
  7  8  1  0  0  0
  8  9  1  0  0  0
  9 10  1  6  0  0
 10 11  2  0  0  0
 10 12  1  0  0  0
 12 13  1  0  0  0
 13 14  1  0  0  0
 13 20  1  6  0  0
 14 15  1  0  0  0
 14 19  1  0  0  0
 15 16  1  0  0  0
 16 17  1  0  0  0
 17 18  1  0  0  0
 18 19  1  0  0  0
 20 21  2  0  0  0
 20 22  1  0  0  0
 22 23  1  0  0  0
 23 24  1  0  0  0
 23 58  1  1  0  0
 24 25  2  0  0  0
 24 26  1  0  0  0
 26 27  1  0  0  0
 26 30  1  0  0  0
 27 28  1  0  0  0
 28 29  1  0  0  0
 28 51  1  0  0  0
 28 54  1  1  0  0
 29 30  1  0  0  0
 30 31  1  6  0  0
 31 32  2  0  0  0
 31 33  1  0  0  0
 33 34  1  0  0  0
 34 35  1  0  0  0
 34 39  1  0  0  0
 34 36  1  1  0  0
 35 36  1  0  0  0
 36 37  1  6  0  0
 37 38  2  0  0  0
 39 40  2  0  0  0
 39 41  1  0  0  0
 41 42  1  0  0  0
 42 43  2  0  0  0
 42 44  2  0  0  0
 42 45  1  0  0  0
 45 46  1  0  0  0
 45 50  1  0  0  0
 46 47  1  0  0  0
 47 48  1  0  0  0
 48 49  1  0  0  0
 49 50  1  0  0  0
 51 52  1  0  0  0
 51 53  1  0  0  0
 51 54  1  0  0  0
 54 55  1  0  0  0
 54 57  1  0  0  0
 55 56  1  0  0  0
 56 57  1  0  0  0
 58 59  1  0  0  0
 58 60  1  0  0  0
 58 61  1  0  0  0
M  END
> <s_m_entry_id>
6832

> <s_m_entry_name>
NS3-4A.373

> <CHEMBLID>
CHEMBL3645688

> <s_m_Source_Path>
/home/liwei/Desktop/Machine/HCV/Active

> <s_m_Source_File>
NS3-4A.sdf

> <i_m_Source_File_Index>
373

$$$$
CHEMBL3645689
                    3D
 Structure written by MMmdl.
 59 65  0  0  1  0            999 V2000
    6.6889   -7.1261    0.0000 C   0  0  0  0  0  0
    5.2470   -6.7126    0.0000 C   0  0  0  0  0  0
    4.1680   -7.7546    0.0000 C   0  0  2  0  0  0
    3.7545   -9.1965    0.0000 C   0  0  0  0  0  0
    2.7125   -8.1175    0.0000 C   0  0  2  0  0  0
    2.1024   -6.7472    0.0000 N   0  0  0  0  0  0
    2.9841   -5.5337    0.0000 C   0  0  0  0  0  0
    4.4759   -5.6905    0.0000 O   0  0  0  0  0  0
    2.3740   -4.1633    0.0000 C   0  0  2  0  0  0
    0.9068   -3.8515    0.0000 C   0  0  0  0  0  0
    0.7500   -2.3597    0.0000 C   0  0  2  0  0  0
    2.1203   -1.7496    0.0000 C   0  0  0  0  0  0
    3.1240   -2.8643    0.0000 N   0  0  0  0  0  0
    4.6158   -2.7075    0.0000 C   0  0  0  0  0  0
    5.4975   -3.9210    0.0000 O   0  0  0  0  0  0
    5.2259   -1.3372    0.0000 C   0  0  1  0  0  0
    4.3442   -0.1237    0.0000 N   0  0  0  0  0  0
    4.9543    1.2466    0.0000 C   0  0  0  0  0  0
    6.4461    1.4034    0.0000 O   0  0  0  0  0  0
    4.0727    2.4602    0.0000 C   0  0  1  0  0  0
    2.5809    2.3034    0.0000 N   0  0  0  0  0  0
    1.6992    3.5169    0.0000 C   0  0  0  0  0  0
    2.3093    4.8872    0.0000 O   0  0  0  0  0  0
    0.2074    3.3601    0.0000 C   0  0  2  0  0  0
   -0.5426    2.0611    0.0000 C   0  0  0  0  0  0
   -2.0098    2.3729    0.0000 C   0  0  0  0  0  0
   -2.1666    3.8647    0.0000 C   0  0  0  0  0  0
   -0.7963    4.4748    0.0000 N   0  0  0  0  0  0
   -0.4844    5.9420    0.0000 C   0  0  0  0  0  0
   -1.5991    6.9457    0.0000 C   0  0  0  0  0  0
    0.9422    6.4056    0.0000 C   0  0  0  0  0  0
    4.6828    3.8305    0.0000 C   0  0  0  0  0  0
    6.1745    3.9873    0.0000 C   0  0  0  0  0  0
    6.7846    5.3576    0.0000 C   0  0  0  0  0  0
    5.9030    6.5711    0.0000 C   0  0  0  0  0  0
    4.4112    6.4143    0.0000 C   0  0  0  0  0  0
    3.8011    5.0440    0.0000 C   0  0  0  0  0  0
    6.7177   -1.1804    0.0000 C   0  0  0  0  0  0
    6.5609    0.3114    0.0000 C   0  0  0  0  0  0
    6.8745   -2.6722    0.0000 C   0  0  0  0  0  0
    8.2095   -1.0236    0.0000 C   0  0  0  0  0  0
   -0.7500   -2.3597    0.0000 C   0  0  0  0  0  0
   -1.0105   -3.8369    0.0000 C   0  0  0  0  0  0
   -2.1595   -1.8467    0.0000 C   0  0  0  0  0  0
   -0.0000   -1.0607    0.0000 C   0  0  0  0  0  0
    1.0607    0.0000    0.0000 C   0  0  0  0  0  0
    0.0000    1.0607    0.0000 C   0  0  0  0  0  0
   -1.0607    0.0000    0.0000 C   0  0  0  0  0  0
    1.4690   -8.9563    0.0000 C   0  0  0  0  0  0
    0.1208   -8.2987    0.0000 O   0  0  0  0  0  0
    1.5736  -10.4526    0.0000 N   0  0  0  0  0  0
    0.3301  -11.2914    0.0000 S   0  0  0  0  0  0
    1.1689  -12.5350    0.0000 O   0  0  0  0  0  0
   -0.5087  -10.0479    0.0000 O   0  0  0  0  0  0
   -0.9135  -12.1302    0.0000 N   0  0  0  0  0  0
   -2.3230  -11.6172    0.0000 C   0  0  0  0  0  0
   -3.2465  -12.7992    0.0000 C   0  0  0  0  0  0
   -2.4077  -14.0428    0.0000 C   0  0  0  0  0  0
   -0.9658  -13.6293    0.0000 C   0  0  0  0  0  0
  1  2  1  0  0  0
  2  3  1  0  0  0
  3  4  1  0  0  0
  3  5  1  6  0  0
  4  5  1  0  0  0
  5  6  1  0  0  0
  5 49  1  6  0  0
  6  7  1  0  0  0
  7  8  2  0  0  0
  7  9  1  0  0  0
  9 10  1  0  0  0
  9 13  1  1  0  0
 10 11  1  0  0  0
 11 12  1  0  0  0
 11 42  1  0  0  0
 11 45  1  6  0  0
 12 13  1  0  0  0
 13 14  1  0  0  0
 14 15  2  0  0  0
 14 16  1  0  0  0
 16 17  1  0  0  0
 16 38  1  6  0  0
 17 18  1  0  0  0
 18 19  2  0  0  0
 18 20  1  0  0  0
 20 21  1  0  0  0
 20 32  1  6  0  0
 21 22  1  0  0  0
 22 23  2  0  0  0
 22 24  1  0  0  0
 24 25  1  0  0  0
 24 28  1  1  0  0
 25 26  1  0  0  0
 26 27  1  0  0  0
 27 28  1  0  0  0
 28 29  1  0  0  0
 29 30  1  0  0  0
 29 31  1  0  0  0
 32 33  1  0  0  0
 32 37  1  0  0  0
 33 34  1  0  0  0
 34 35  1  0  0  0
 35 36  1  0  0  0
 36 37  1  0  0  0
 38 39  1  0  0  0
 38 40  1  0  0  0
 38 41  1  0  0  0
 42 43  1  0  0  0
 42 44  1  0  0  0
 42 45  1  0  0  0
 45 46  1  0  0  0
 45 48  1  0  0  0
 46 47  1  0  0  0
 47 48  1  0  0  0
 49 50  2  0  0  0
 49 51  1  0  0  0
 51 52  1  0  0  0
 52 53  2  0  0  0
 52 54  2  0  0  0
 52 55  1  0  0  0
 55 56  1  0  0  0
 55 59  1  0  0  0
 56 57  1  0  0  0
 57 58  1  0  0  0
 58 59  1  0  0  0
M  END
> <s_m_entry_id>
6833

> <s_m_entry_name>
NS3-4A.374

> <CHEMBLID>
CHEMBL3645689

> <s_m_Source_Path>
/home/liwei/Desktop/Machine/HCV/Active

> <s_m_Source_File>
NS3-4A.sdf

> <i_m_Source_File_Index>
374

$$$$
CHEMBL3645690
                    3D
 Structure written by MMmdl.
 59 64  0  0  1  0            999 V2000
    6.6889   -7.1261    0.0000 C   0  0  0  0  0  0
    5.2470   -6.7126    0.0000 C   0  0  0  0  0  0
    4.1680   -7.7546    0.0000 C   0  0  2  0  0  0
    3.7545   -9.1965    0.0000 C   0  0  0  0  0  0
    2.7125   -8.1175    0.0000 C   0  0  2  0  0  0
    2.1024   -6.7472    0.0000 N   0  0  0  0  0  0
    2.9841   -5.5337    0.0000 C   0  0  0  0  0  0
    4.4759   -5.6905    0.0000 O   0  0  0  0  0  0
    2.3740   -4.1633    0.0000 C   0  0  2  0  0  0
    0.9068   -3.8515    0.0000 C   0  0  0  0  0  0
    0.7500   -2.3597    0.0000 C   0  0  2  0  0  0
    2.1203   -1.7496    0.0000 C   0  0  0  0  0  0
    3.1240   -2.8643    0.0000 N   0  0  0  0  0  0
    4.6158   -2.7075    0.0000 C   0  0  0  0  0  0
    5.4975   -3.9210    0.0000 O   0  0  0  0  0  0
    5.2259   -1.3372    0.0000 C   0  0  1  0  0  0
    4.3442   -0.1237    0.0000 N   0  0  0  0  0  0
    4.9543    1.2466    0.0000 C   0  0  0  0  0  0
    6.4461    1.4034    0.0000 O   0  0  0  0  0  0
    4.0727    2.4602    0.0000 C   0  0  1  0  0  0
    2.5809    2.3034    0.0000 N   0  0  0  0  0  0
    1.6992    3.5169    0.0000 C   0  0  0  0  0  0
    2.3093    4.8872    0.0000 O   0  0  0  0  0  0
    0.2074    3.3601    0.0000 C   0  0  2  0  0  0
   -0.5426    2.0611    0.0000 C   0  0  0  0  0  0
   -2.0098    2.3729    0.0000 C   0  0  0  0  0  0
   -2.1666    3.8647    0.0000 C   0  0  0  0  0  0
   -0.7963    4.4748    0.0000 N   0  0  0  0  0  0
   -0.4844    5.9420    0.0000 C   0  0  0  0  0  0
   -1.5991    6.9457    0.0000 C   0  0  0  0  0  0
    0.9422    6.4056    0.0000 C   0  0  0  0  0  0
    4.6828    3.8305    0.0000 C   0  0  0  0  0  0
    6.1745    3.9873    0.0000 C   0  0  0  0  0  0
    6.7846    5.3576    0.0000 C   0  0  0  0  0  0
    5.9030    6.5711    0.0000 C   0  0  0  0  0  0
    4.4112    6.4143    0.0000 C   0  0  0  0  0  0
    3.8011    5.0440    0.0000 C   0  0  0  0  0  0
    6.7177   -1.1804    0.0000 C   0  0  0  0  0  0
    6.5609    0.3114    0.0000 C   0  0  0  0  0  0
    6.8745   -2.6722    0.0000 C   0  0  0  0  0  0
    8.2095   -1.0236    0.0000 C   0  0  0  0  0  0
   -0.7500   -2.3597    0.0000 C   0  0  0  0  0  0
   -1.0105   -3.8369    0.0000 C   0  0  0  0  0  0
   -2.1595   -1.8467    0.0000 C   0  0  0  0  0  0
   -0.0000   -1.0607    0.0000 C   0  0  0  0  0  0
    1.0607    0.0000    0.0000 C   0  0  0  0  0  0
    0.0000    1.0607    0.0000 C   0  0  0  0  0  0
   -1.0607    0.0000    0.0000 C   0  0  0  0  0  0
    1.4690   -8.9563    0.0000 C   0  0  0  0  0  0
    0.1208   -8.2987    0.0000 O   0  0  0  0  0  0
    1.5736  -10.4526    0.0000 N   0  0  0  0  0  0
    0.3301  -11.2914    0.0000 S   0  0  0  0  0  0
    1.1689  -12.5350    0.0000 O   0  0  0  0  0  0
   -0.5087  -10.0479    0.0000 O   0  0  0  0  0  0
   -0.9135  -12.1302    0.0000 N   0  0  0  0  0  0
   -2.2617  -11.4727    0.0000 C   0  0  0  0  0  0
   -3.5052  -12.3115    0.0000 C   0  0  0  0  0  0
   -0.8089  -13.6266    0.0000 C   0  0  0  0  0  0
   -2.0524  -14.4654    0.0000 C   0  0  0  0  0  0
  1  2  1  0  0  0
  2  3  1  0  0  0
  3  4  1  0  0  0
  3  5  1  6  0  0
  4  5  1  0  0  0
  5  6  1  0  0  0
  5 49  1  6  0  0
  6  7  1  0  0  0
  7  8  2  0  0  0
  7  9  1  0  0  0
  9 10  1  0  0  0
  9 13  1  1  0  0
 10 11  1  0  0  0
 11 12  1  0  0  0
 11 42  1  0  0  0
 11 45  1  6  0  0
 12 13  1  0  0  0
 13 14  1  0  0  0
 14 15  2  0  0  0
 14 16  1  0  0  0
 16 17  1  0  0  0
 16 38  1  6  0  0
 17 18  1  0  0  0
 18 19  2  0  0  0
 18 20  1  0  0  0
 20 21  1  0  0  0
 20 32  1  6  0  0
 21 22  1  0  0  0
 22 23  2  0  0  0
 22 24  1  0  0  0
 24 25  1  0  0  0
 24 28  1  1  0  0
 25 26  1  0  0  0
 26 27  1  0  0  0
 27 28  1  0  0  0
 28 29  1  0  0  0
 29 30  1  0  0  0
 29 31  1  0  0  0
 32 33  1  0  0  0
 32 37  1  0  0  0
 33 34  1  0  0  0
 34 35  1  0  0  0
 35 36  1  0  0  0
 36 37  1  0  0  0
 38 39  1  0  0  0
 38 40  1  0  0  0
 38 41  1  0  0  0
 42 43  1  0  0  0
 42 44  1  0  0  0
 42 45  1  0  0  0
 45 46  1  0  0  0
 45 48  1  0  0  0
 46 47  1  0  0  0
 47 48  1  0  0  0
 49 50  2  0  0  0
 49 51  1  0  0  0
 51 52  1  0  0  0
 52 53  2  0  0  0
 52 54  2  0  0  0
 52 55  1  0  0  0
 55 56  1  0  0  0
 55 58  1  0  0  0
 56 57  1  0  0  0
 58 59  1  0  0  0
M  END
> <s_m_entry_id>
6834

> <s_m_entry_name>
NS3-4A.375

> <CHEMBLID>
CHEMBL3645690

> <s_m_Source_Path>
/home/liwei/Desktop/Machine/HCV/Active

> <s_m_Source_File>
NS3-4A.sdf

> <i_m_Source_File_Index>
375

$$$$
CHEMBL3645691
                    3D
 Structure written by MMmdl.
 58 63  0  0  1  0            999 V2000
   -3.5052  -12.3115    0.0000 C   0  0  0  0  0  0
   -2.2617  -11.4727    0.0000 C   0  0  0  0  0  0
   -0.9135  -12.1302    0.0000 N   0  0  0  0  0  0
   -0.8089  -13.6266    0.0000 C   0  0  0  0  0  0
   -2.0524  -14.4654    0.0000 C   0  0  0  0  0  0
    0.3301  -11.2914    0.0000 S   0  0  0  0  0  0
    1.1689  -12.5350    0.0000 O   0  0  0  0  0  0
   -0.5087  -10.0479    0.0000 O   0  0  0  0  0  0
    1.5736  -10.4526    0.0000 N   0  0  0  0  0  0
    1.4690   -8.9563    0.0000 C   0  0  0  0  0  0
    0.1208   -8.2987    0.0000 O   0  0  0  0  0  0
    2.7125   -8.1175    0.0000 C   0  0  2  0  0  0
    3.7545   -9.1965    0.0000 C   0  0  0  0  0  0
    4.1680   -7.7546    0.0000 C   0  0  1  0  0  0
    5.2470   -6.7126    0.0000 C   0  0  0  0  0  0
    6.6889   -7.1261    0.0000 C   0  0  0  0  0  0
    2.1024   -6.7472    0.0000 N   0  0  0  0  0  0
    2.9841   -5.5337    0.0000 C   0  0  0  0  0  0
    4.4759   -5.6905    0.0000 O   0  0  0  0  0  0
    2.3740   -4.1633    0.0000 C   0  0  2  0  0  0
    0.9068   -3.8515    0.0000 C   0  0  0  0  0  0
    0.7500   -2.3597    0.0000 C   0  0  2  0  0  0
    2.1203   -1.7496    0.0000 C   0  0  0  0  0  0
    3.1240   -2.8643    0.0000 N   0  0  0  0  0  0
    4.6158   -2.7075    0.0000 C   0  0  0  0  0  0
    5.4975   -3.9210    0.0000 O   0  0  0  0  0  0
    5.2259   -1.3372    0.0000 C   0  0  1  0  0  0
    6.7177   -1.1804    0.0000 N   0  0  0  0  0  0
    7.3278    0.1899    0.0000 C   0  0  0  0  0  0
    6.4461    1.4034    0.0000 O   0  0  0  0  0  0
    8.8196    0.3467    0.0000 C   0  0  1  0  0  0
    9.7013   -0.8668    0.0000 N   0  0  0  0  0  0
   11.1930   -0.7100    0.0000 C   0  0  0  0  0  0
   11.8031    0.6603    0.0000 O   0  0  0  0  0  0
   12.0747   -1.9236    0.0000 C   0  0  2  0  0  0
   13.5665   -1.7668    0.0000 C   0  0  0  0  0  0
   14.4482   -2.9803    0.0000 C   0  0  0  0  0  0
   13.8381   -4.3506    0.0000 C   0  0  0  0  0  0
   12.3463   -4.5074    0.0000 C   0  0  0  0  0  0
   11.4646   -3.2939    0.0000 N   0  0  0  0  0  0
    9.9728   -3.4507    0.0000 C   0  0  0  0  0  0
    9.4297    1.7170    0.0000 C   0  0  0  0  0  0
    8.5480    2.9305    0.0000 C   0  0  0  0  0  0
    9.1581    4.3009    0.0000 C   0  0  0  0  0  0
   10.6499    4.4577    0.0000 C   0  0  0  0  0  0
   11.5316    3.2441    0.0000 C   0  0  0  0  0  0
   10.9215    1.8738    0.0000 C   0  0  0  0  0  0
    4.3442   -0.1237    0.0000 C   0  0  0  0  0  0
    5.5577    0.7580    0.0000 C   0  0  0  0  0  0
    3.1307   -1.0054    0.0000 C   0  0  0  0  0  0
    3.4625    1.0899    0.0000 C   0  0  0  0  0  0
   -0.7500   -2.3597    0.0000 C   0  0  0  0  0  0
   -1.0105   -3.8369    0.0000 C   0  0  0  0  0  0
   -2.1595   -1.8467    0.0000 C   0  0  0  0  0  0
   -0.0000   -1.0607    0.0000 C   0  0  0  0  0  0
    1.0607    0.0000    0.0000 C   0  0  0  0  0  0
    0.0000    1.0607    0.0000 C   0  0  0  0  0  0
   -1.0607    0.0000    0.0000 C   0  0  0  0  0  0
  1  2  1  0  0  0
  2  3  1  0  0  0
  3  4  1  0  0  0
  3  6  1  0  0  0
  4  5  1  0  0  0
  6  7  2  0  0  0
  6  8  2  0  0  0
  6  9  1  0  0  0
  9 10  1  0  0  0
 10 11  2  0  0  0
 10 12  1  0  0  0
 12 13  1  0  0  0
 12 17  1  0  0  0
 12 14  1  6  0  0
 13 14  1  0  0  0
 14 15  1  6  0  0
 15 16  2  0  0  0
 17 18  1  0  0  0
 18 19  2  0  0  0
 18 20  1  0  0  0
 20 21  1  0  0  0
 20 24  1  1  0  0
 21 22  1  0  0  0
 22 23  1  0  0  0
 22 52  1  0  0  0
 22 55  1  6  0  0
 23 24  1  0  0  0
 24 25  1  0  0  0
 25 26  2  0  0  0
 25 27  1  0  0  0
 27 28  1  0  0  0
 27 48  1  6  0  0
 28 29  1  0  0  0
 29 30  2  0  0  0
 29 31  1  0  0  0
 31 32  1  0  0  0
 31 42  1  6  0  0
 32 33  1  0  0  0
 33 34  2  0  0  0
 33 35  1  0  0  0
 35 36  1  0  0  0
 35 40  1  1  0  0
 36 37  1  0  0  0
 37 38  1  0  0  0
 38 39  1  0  0  0
 39 40  1  0  0  0
 40 41  1  0  0  0
 42 43  1  0  0  0
 42 47  1  0  0  0
 43 44  1  0  0  0
 44 45  1  0  0  0
 45 46  1  0  0  0
 46 47  1  0  0  0
 48 49  1  0  0  0
 48 50  1  0  0  0
 48 51  1  0  0  0
 52 53  1  0  0  0
 52 54  1  0  0  0
 52 55  1  0  0  0
 55 56  1  0  0  0
 55 58  1  0  0  0
 56 57  1  0  0  0
 57 58  1  0  0  0
M  END
> <s_m_entry_id>
6835

> <s_m_entry_name>
NS3-4A.376

> <CHEMBLID>
CHEMBL3645691

> <s_m_Source_Path>
/home/liwei/Desktop/Machine/HCV/Active

> <s_m_Source_File>
NS3-4A.sdf

> <i_m_Source_File_Index>
376

$$$$
CHEMBL3645692
                    3D
 Structure written by MMmdl.
 60 65  0  0  1  0            999 V2000
   -2.0524  -14.4654    0.0000 C   0  0  0  0  0  0
   -0.8089  -13.6266    0.0000 C   0  0  0  0  0  0
    0.5393  -14.2841    0.0000 C   0  0  0  0  0  0
   -0.9135  -12.1302    0.0000 N   0  0  0  0  0  0
   -2.2617  -11.4727    0.0000 C   0  0  0  0  0  0
    0.3301  -11.2914    0.0000 S   0  0  0  0  0  0
    1.1689  -12.5350    0.0000 O   0  0  0  0  0  0
   -0.5087  -10.0479    0.0000 O   0  0  0  0  0  0
    1.5736  -10.4526    0.0000 N   0  0  0  0  0  0
    1.4690   -8.9563    0.0000 C   0  0  0  0  0  0
    0.1208   -8.2987    0.0000 O   0  0  0  0  0  0
    2.7125   -8.1175    0.0000 C   0  0  2  0  0  0
    3.7545   -9.1965    0.0000 C   0  0  0  0  0  0
    4.1680   -7.7546    0.0000 C   0  0  1  0  0  0
    5.2470   -6.7126    0.0000 C   0  0  0  0  0  0
    6.6889   -7.1261    0.0000 C   0  0  0  0  0  0
    2.1024   -6.7472    0.0000 N   0  0  0  0  0  0
    2.9841   -5.5337    0.0000 C   0  0  0  0  0  0
    4.4759   -5.6905    0.0000 O   0  0  0  0  0  0
    2.3740   -4.1633    0.0000 C   0  0  2  0  0  0
    0.9068   -3.8515    0.0000 C   0  0  0  0  0  0
    0.7500   -2.3597    0.0000 C   0  0  2  0  0  0
    2.1203   -1.7496    0.0000 C   0  0  0  0  0  0
    3.1240   -2.8643    0.0000 N   0  0  0  0  0  0
    4.6158   -2.7075    0.0000 C   0  0  0  0  0  0
    5.4975   -3.9210    0.0000 O   0  0  0  0  0  0
    5.2259   -1.3372    0.0000 C   0  0  1  0  0  0
    6.7177   -1.1804    0.0000 N   0  0  0  0  0  0
    7.3278    0.1899    0.0000 C   0  0  0  0  0  0
    6.4461    1.4034    0.0000 O   0  0  0  0  0  0
    8.8196    0.3467    0.0000 C   0  0  1  0  0  0
    9.7013   -0.8668    0.0000 N   0  0  0  0  0  0
   11.1930   -0.7100    0.0000 C   0  0  0  0  0  0
   11.8031    0.6603    0.0000 O   0  0  0  0  0  0
   12.0747   -1.9236    0.0000 C   0  0  1  0  0  0
   13.5665   -1.7668    0.0000 C   0  0  0  0  0  0
   14.4482   -2.9803    0.0000 C   0  0  0  0  0  0
   13.8381   -4.3506    0.0000 C   0  0  0  0  0  0
   12.3463   -4.5074    0.0000 C   0  0  0  0  0  0
   11.4646   -3.2939    0.0000 N   0  0  0  0  0  0
    9.9728   -3.4507    0.0000 C   0  0  0  0  0  0
    9.0911   -2.2371    0.0000 C   0  0  0  0  0  0
    9.3627   -4.8210    0.0000 C   0  0  0  0  0  0
    9.4297    1.7170    0.0000 C   0  0  0  0  0  0
    8.5480    2.9305    0.0000 C   0  0  0  0  0  0
    9.1581    4.3009    0.0000 C   0  0  0  0  0  0
   10.6499    4.4577    0.0000 C   0  0  0  0  0  0
   11.5316    3.2441    0.0000 C   0  0  0  0  0  0
   10.9215    1.8738    0.0000 C   0  0  0  0  0  0
    4.3442   -0.1237    0.0000 C   0  0  0  0  0  0
    5.5577    0.7580    0.0000 C   0  0  0  0  0  0
    3.1307   -1.0054    0.0000 C   0  0  0  0  0  0
    3.4625    1.0899    0.0000 C   0  0  0  0  0  0
   -0.7500   -2.3597    0.0000 C   0  0  0  0  0  0
   -1.0105   -3.8369    0.0000 C   0  0  0  0  0  0
   -2.1595   -1.8467    0.0000 C   0  0  0  0  0  0
   -0.0000   -1.0607    0.0000 C   0  0  0  0  0  0
    1.0607    0.0000    0.0000 C   0  0  0  0  0  0
    0.0000    1.0607    0.0000 C   0  0  0  0  0  0
   -1.0607    0.0000    0.0000 C   0  0  0  0  0  0
  1  2  1  0  0  0
  2  3  1  0  0  0
  2  4  1  0  0  0
  4  5  1  0  0  0
  4  6  1  0  0  0
  6  7  2  0  0  0
  6  8  2  0  0  0
  6  9  1  0  0  0
  9 10  1  0  0  0
 10 11  2  0  0  0
 10 12  1  0  0  0
 12 13  1  0  0  0
 12 17  1  0  0  0
 12 14  1  6  0  0
 13 14  1  0  0  0
 14 15  1  6  0  0
 15 16  2  0  0  0
 17 18  1  0  0  0
 18 19  2  0  0  0
 18 20  1  0  0  0
 20 21  1  0  0  0
 20 24  1  1  0  0
 21 22  1  0  0  0
 22 23  1  0  0  0
 22 54  1  0  0  0
 22 57  1  6  0  0
 23 24  1  0  0  0
 24 25  1  0  0  0
 25 26  2  0  0  0
 25 27  1  0  0  0
 27 28  1  0  0  0
 27 50  1  6  0  0
 28 29  1  0  0  0
 29 30  2  0  0  0
 29 31  1  0  0  0
 31 32  1  0  0  0
 31 44  1  6  0  0
 32 33  1  0  0  0
 33 34  2  0  0  0
 33 35  1  0  0  0
 35 36  1  0  0  0
 35 40  1  1  0  0
 36 37  1  0  0  0
 37 38  1  0  0  0
 38 39  1  0  0  0
 39 40  1  0  0  0
 40 41  1  0  0  0
 41 42  1  0  0  0
 41 43  1  0  0  0
 44 45  1  0  0  0
 44 49  1  0  0  0
 45 46  1  0  0  0
 46 47  1  0  0  0
 47 48  1  0  0  0
 48 49  1  0  0  0
 50 51  1  0  0  0
 50 52  1  0  0  0
 50 53  1  0  0  0
 54 55  1  0  0  0
 54 56  1  0  0  0
 54 57  1  0  0  0
 57 58  1  0  0  0
 57 60  1  0  0  0
 58 59  1  0  0  0
 59 60  1  0  0  0
M  END
> <s_m_entry_id>
6836

> <s_m_entry_name>
NS3-4A.377

> <CHEMBLID>
CHEMBL3645692

> <s_m_Source_Path>
/home/liwei/Desktop/Machine/HCV/Active

> <s_m_Source_File>
NS3-4A.sdf

> <i_m_Source_File_Index>
377

$$$$
CHEMBL3645693
                    3D
 Structure written by MMmdl.
 61 66  0  0  1  0            999 V2000
   -3.5052  -12.3115    0.0000 C   0  0  0  0  0  0
   -2.2617  -11.4727    0.0000 C   0  0  0  0  0  0
   -0.9135  -12.1302    0.0000 N   0  0  0  0  0  0
   -0.8089  -13.6266    0.0000 C   0  0  0  0  0  0
   -2.0524  -14.4654    0.0000 C   0  0  0  0  0  0
    0.5393  -14.2841    0.0000 C   0  0  0  0  0  0
    0.3301  -11.2914    0.0000 S   0  0  0  0  0  0
    1.1689  -12.5350    0.0000 O   0  0  0  0  0  0
   -0.5087  -10.0479    0.0000 O   0  0  0  0  0  0
    1.5736  -10.4526    0.0000 N   0  0  0  0  0  0
    1.4690   -8.9563    0.0000 C   0  0  0  0  0  0
    0.1208   -8.2987    0.0000 O   0  0  0  0  0  0
    2.7125   -8.1175    0.0000 C   0  0  2  0  0  0
    3.7545   -9.1965    0.0000 C   0  0  0  0  0  0
    4.1680   -7.7546    0.0000 C   0  0  1  0  0  0
    5.2470   -6.7126    0.0000 C   0  0  0  0  0  0
    6.6889   -7.1261    0.0000 C   0  0  0  0  0  0
    2.1024   -6.7472    0.0000 N   0  0  0  0  0  0
    2.9841   -5.5337    0.0000 C   0  0  0  0  0  0
    4.4759   -5.6905    0.0000 O   0  0  0  0  0  0
    2.3740   -4.1633    0.0000 C   0  0  2  0  0  0
    0.9068   -3.8515    0.0000 C   0  0  0  0  0  0
    0.7500   -2.3597    0.0000 C   0  0  2  0  0  0
    2.1203   -1.7496    0.0000 C   0  0  0  0  0  0
    3.1240   -2.8643    0.0000 N   0  0  0  0  0  0
    4.6158   -2.7075    0.0000 C   0  0  0  0  0  0
    5.4975   -3.9210    0.0000 O   0  0  0  0  0  0
    5.2259   -1.3372    0.0000 C   0  0  1  0  0  0
    6.7177   -1.1804    0.0000 N   0  0  0  0  0  0
    7.3278    0.1899    0.0000 C   0  0  0  0  0  0
    6.4461    1.4034    0.0000 O   0  0  0  0  0  0
    8.8196    0.3467    0.0000 C   0  0  1  0  0  0
    9.7013   -0.8668    0.0000 N   0  0  0  0  0  0
   11.1930   -0.7100    0.0000 C   0  0  0  0  0  0
   11.8031    0.6603    0.0000 O   0  0  0  0  0  0
   12.0747   -1.9236    0.0000 C   0  0  1  0  0  0
   13.5665   -1.7668    0.0000 C   0  0  0  0  0  0
   14.4482   -2.9803    0.0000 C   0  0  0  0  0  0
   13.8381   -4.3506    0.0000 C   0  0  0  0  0  0
   12.3463   -4.5074    0.0000 C   0  0  0  0  0  0
   11.4646   -3.2939    0.0000 N   0  0  0  0  0  0
    9.9728   -3.4507    0.0000 C   0  0  0  0  0  0
    9.0911   -2.2371    0.0000 C   0  0  0  0  0  0
    9.3627   -4.8210    0.0000 C   0  0  0  0  0  0
    9.4297    1.7170    0.0000 C   0  0  0  0  0  0
    8.5480    2.9305    0.0000 C   0  0  0  0  0  0
    9.1581    4.3009    0.0000 C   0  0  0  0  0  0
   10.6499    4.4577    0.0000 C   0  0  0  0  0  0
   11.5316    3.2441    0.0000 C   0  0  0  0  0  0
   10.9215    1.8738    0.0000 C   0  0  0  0  0  0
    4.3442   -0.1237    0.0000 C   0  0  0  0  0  0
    5.5577    0.7580    0.0000 C   0  0  0  0  0  0
    3.1307   -1.0054    0.0000 C   0  0  0  0  0  0
    3.4625    1.0899    0.0000 C   0  0  0  0  0  0
   -0.7500   -2.3597    0.0000 C   0  0  0  0  0  0
   -1.0105   -3.8369    0.0000 C   0  0  0  0  0  0
   -2.1595   -1.8467    0.0000 C   0  0  0  0  0  0
   -0.0000   -1.0607    0.0000 C   0  0  0  0  0  0
    1.0607    0.0000    0.0000 C   0  0  0  0  0  0
    0.0000    1.0607    0.0000 C   0  0  0  0  0  0
   -1.0607    0.0000    0.0000 C   0  0  0  0  0  0
  1  2  1  0  0  0
  2  3  1  0  0  0
  3  4  1  0  0  0
  3  7  1  0  0  0
  4  5  1  0  0  0
  4  6  1  0  0  0
  7  8  2  0  0  0
  7  9  2  0  0  0
  7 10  1  0  0  0
 10 11  1  0  0  0
 11 12  2  0  0  0
 11 13  1  0  0  0
 13 14  1  0  0  0
 13 18  1  0  0  0
 13 15  1  6  0  0
 14 15  1  0  0  0
 15 16  1  6  0  0
 16 17  2  0  0  0
 18 19  1  0  0  0
 19 20  2  0  0  0
 19 21  1  0  0  0
 21 22  1  0  0  0
 21 25  1  1  0  0
 22 23  1  0  0  0
 23 24  1  0  0  0
 23 55  1  0  0  0
 23 58  1  6  0  0
 24 25  1  0  0  0
 25 26  1  0  0  0
 26 27  2  0  0  0
 26 28  1  0  0  0
 28 29  1  0  0  0
 28 51  1  6  0  0
 29 30  1  0  0  0
 30 31  2  0  0  0
 30 32  1  0  0  0
 32 33  1  0  0  0
 32 45  1  6  0  0
 33 34  1  0  0  0
 34 35  2  0  0  0
 34 36  1  0  0  0
 36 37  1  0  0  0
 36 41  1  1  0  0
 37 38  1  0  0  0
 38 39  1  0  0  0
 39 40  1  0  0  0
 40 41  1  0  0  0
 41 42  1  0  0  0
 42 43  1  0  0  0
 42 44  1  0  0  0
 45 46  1  0  0  0
 45 50  1  0  0  0
 46 47  1  0  0  0
 47 48  1  0  0  0
 48 49  1  0  0  0
 49 50  1  0  0  0
 51 52  1  0  0  0
 51 53  1  0  0  0
 51 54  1  0  0  0
 55 56  1  0  0  0
 55 57  1  0  0  0
 55 58  1  0  0  0
 58 59  1  0  0  0
 58 61  1  0  0  0
 59 60  1  0  0  0
 60 61  1  0  0  0
M  END
> <s_m_entry_id>
6837

> <s_m_entry_name>
NS3-4A.378

> <CHEMBLID>
CHEMBL3645693

> <s_m_Source_Path>
/home/liwei/Desktop/Machine/HCV/Active

> <s_m_Source_File>
NS3-4A.sdf

> <i_m_Source_File_Index>
378

$$$$
CHEMBL3645694
                    3D
 Structure written by MMmdl.
 60 65  0  0  1  0            999 V2000
    6.6889   -7.1261    0.0000 C   0  0  0  0  0  0
    5.2470   -6.7126    0.0000 C   0  0  0  0  0  0
    4.1680   -7.7546    0.0000 C   0  0  2  0  0  0
    3.7545   -9.1965    0.0000 C   0  0  0  0  0  0
    2.7125   -8.1175    0.0000 C   0  0  2  0  0  0
    2.1024   -6.7472    0.0000 N   0  0  0  0  0  0
    2.9841   -5.5337    0.0000 C   0  0  0  0  0  0
    4.4759   -5.6905    0.0000 O   0  0  0  0  0  0
    2.3740   -4.1633    0.0000 C   0  0  2  0  0  0
    0.9068   -3.8515    0.0000 C   0  0  0  0  0  0
    0.7500   -2.3597    0.0000 C   0  0  2  0  0  0
    2.1203   -1.7496    0.0000 C   0  0  0  0  0  0
    3.1240   -2.8643    0.0000 N   0  0  0  0  0  0
    4.6158   -2.7075    0.0000 C   0  0  0  0  0  0
    5.4975   -3.9210    0.0000 O   0  0  0  0  0  0
    5.2259   -1.3372    0.0000 C   0  0  1  0  0  0
    6.7177   -1.1804    0.0000 N   0  0  0  0  0  0
    7.3278    0.1899    0.0000 C   0  0  0  0  0  0
    6.4461    1.4034    0.0000 O   0  0  0  0  0  0
    8.8196    0.3467    0.0000 C   0  0  1  0  0  0
    9.7013   -0.8668    0.0000 N   0  0  0  0  0  0
   11.1930   -0.7100    0.0000 C   0  0  0  0  0  0
   11.8031    0.6603    0.0000 O   0  0  0  0  0  0
   12.0747   -1.9236    0.0000 C   0  0  1  0  0  0
   13.5665   -1.7668    0.0000 C   0  0  0  0  0  0
   14.4482   -2.9803    0.0000 C   0  0  0  0  0  0
   13.8381   -4.3506    0.0000 C   0  0  0  0  0  0
   12.3463   -4.5074    0.0000 C   0  0  0  0  0  0
   11.4646   -3.2939    0.0000 N   0  0  0  0  0  0
    9.9728   -3.4507    0.0000 C   0  0  0  0  0  0
    9.0911   -2.2371    0.0000 C   0  0  0  0  0  0
    9.3627   -4.8210    0.0000 C   0  0  0  0  0  0
    9.4297    1.7170    0.0000 C   0  0  0  0  0  0
    8.5480    2.9305    0.0000 C   0  0  0  0  0  0
    9.1581    4.3009    0.0000 C   0  0  0  0  0  0
   10.6499    4.4577    0.0000 C   0  0  0  0  0  0
   11.5316    3.2441    0.0000 C   0  0  0  0  0  0
   10.9215    1.8738    0.0000 C   0  0  0  0  0  0
    4.3442   -0.1237    0.0000 C   0  0  0  0  0  0
    5.5577    0.7580    0.0000 C   0  0  0  0  0  0
    3.1307   -1.0054    0.0000 C   0  0  0  0  0  0
    3.4625    1.0899    0.0000 C   0  0  0  0  0  0
   -0.7500   -2.3597    0.0000 C   0  0  0  0  0  0
   -1.0105   -3.8369    0.0000 C   0  0  0  0  0  0
   -2.1595   -1.8467    0.0000 C   0  0  0  0  0  0
   -0.0000   -1.0607    0.0000 C   0  0  0  0  0  0
    1.0607    0.0000    0.0000 C   0  0  0  0  0  0
    0.0000    1.0607    0.0000 C   0  0  0  0  0  0
   -1.0607    0.0000    0.0000 C   0  0  0  0  0  0
    1.4690   -8.9563    0.0000 C   0  0  0  0  0  0
    0.1208   -8.2987    0.0000 O   0  0  0  0  0  0
    1.5736  -10.4526    0.0000 N   0  0  0  0  0  0
    0.3301  -11.2914    0.0000 S   0  0  0  0  0  0
    1.1689  -12.5350    0.0000 O   0  0  0  0  0  0
   -0.5087  -10.0479    0.0000 O   0  0  0  0  0  0
   -0.9135  -12.1302    0.0000 N   0  0  0  0  0  0
   -2.2617  -11.4727    0.0000 C   0  0  0  0  0  0
   -3.5052  -12.3115    0.0000 C   0  0  0  0  0  0
   -0.8089  -13.6266    0.0000 C   0  0  0  0  0  0
   -2.0524  -14.4654    0.0000 C   0  0  0  0  0  0
  1  2  1  0  0  0
  2  3  1  0  0  0
  3  4  1  0  0  0
  3  5  1  6  0  0
  4  5  1  0  0  0
  5  6  1  0  0  0
  5 50  1  6  0  0
  6  7  1  0  0  0
  7  8  2  0  0  0
  7  9  1  0  0  0
  9 10  1  0  0  0
  9 13  1  1  0  0
 10 11  1  0  0  0
 11 12  1  0  0  0
 11 43  1  0  0  0
 11 46  1  6  0  0
 12 13  1  0  0  0
 13 14  1  0  0  0
 14 15  2  0  0  0
 14 16  1  0  0  0
 16 17  1  0  0  0
 16 39  1  6  0  0
 17 18  1  0  0  0
 18 19  2  0  0  0
 18 20  1  0  0  0
 20 21  1  0  0  0
 20 33  1  6  0  0
 21 22  1  0  0  0
 22 23  2  0  0  0
 22 24  1  0  0  0
 24 25  1  0  0  0
 24 29  1  1  0  0
 25 26  1  0  0  0
 26 27  1  0  0  0
 27 28  1  0  0  0
 28 29  1  0  0  0
 29 30  1  0  0  0
 30 31  1  0  0  0
 30 32  1  0  0  0
 33 34  1  0  0  0
 33 38  1  0  0  0
 34 35  1  0  0  0
 35 36  1  0  0  0
 36 37  1  0  0  0
 37 38  1  0  0  0
 39 40  1  0  0  0
 39 41  1  0  0  0
 39 42  1  0  0  0
 43 44  1  0  0  0
 43 45  1  0  0  0
 43 46  1  0  0  0
 46 47  1  0  0  0
 46 49  1  0  0  0
 47 48  1  0  0  0
 48 49  1  0  0  0
 50 51  2  0  0  0
 50 52  1  0  0  0
 52 53  1  0  0  0
 53 54  2  0  0  0
 53 55  2  0  0  0
 53 56  1  0  0  0
 56 57  1  0  0  0
 56 59  1  0  0  0
 57 58  1  0  0  0
 59 60  1  0  0  0
M  END
> <s_m_entry_id>
6838

> <s_m_entry_name>
NS3-4A.379

> <CHEMBLID>
CHEMBL3645694

> <s_m_Source_Path>
/home/liwei/Desktop/Machine/HCV/Active

> <s_m_Source_File>
NS3-4A.sdf

> <i_m_Source_File_Index>
379

$$$$
CHEMBL3645695
                    3D
 Structure written by MMmdl.
 57 61  0  0  1  0            999 V2000
   -3.5052  -12.3115    0.0000 C   0  0  0  0  0  0
   -2.2617  -11.4727    0.0000 C   0  0  0  0  0  0
   -0.9135  -12.1302    0.0000 N   0  0  0  0  0  0
   -0.8089  -13.6266    0.0000 C   0  0  0  0  0  0
   -2.0524  -14.4654    0.0000 C   0  0  0  0  0  0
    0.3301  -11.2914    0.0000 S   0  0  0  0  0  0
    1.1689  -12.5350    0.0000 O   0  0  0  0  0  0
   -0.5087  -10.0479    0.0000 O   0  0  0  0  0  0
    1.5736  -10.4526    0.0000 N   0  0  0  0  0  0
    1.4690   -8.9563    0.0000 C   0  0  0  0  0  0
    0.1208   -8.2987    0.0000 O   0  0  0  0  0  0
    2.7125   -8.1175    0.0000 C   0  0  2  0  0  0
    3.7545   -9.1965    0.0000 C   0  0  0  0  0  0
    4.1680   -7.7546    0.0000 C   0  0  1  0  0  0
    5.2470   -6.7126    0.0000 C   0  0  0  0  0  0
    6.6889   -7.1261    0.0000 C   0  0  0  0  0  0
    2.1024   -6.7472    0.0000 N   0  0  0  0  0  0
    2.9841   -5.5337    0.0000 C   0  0  0  0  0  0
    4.4759   -5.6905    0.0000 O   0  0  0  0  0  0
    2.3740   -4.1633    0.0000 C   0  0  2  0  0  0
    0.9068   -3.8515    0.0000 C   0  0  0  0  0  0
    0.7500   -2.3597    0.0000 C   0  0  2  0  0  0
    2.1203   -1.7496    0.0000 C   0  0  0  0  0  0
    3.1240   -2.8643    0.0000 N   0  0  0  0  0  0
    4.6158   -2.7075    0.0000 C   0  0  0  0  0  0
    5.4975   -3.9210    0.0000 O   0  0  0  0  0  0
    5.2259   -1.3372    0.0000 C   0  0  1  0  0  0
    6.7177   -1.1804    0.0000 N   0  0  0  0  0  0
    7.3278    0.1899    0.0000 C   0  0  0  0  0  0
    6.4461    1.4034    0.0000 O   0  0  0  0  0  0
    8.8196    0.3467    0.0000 C   0  0  1  0  0  0
    9.7013   -0.8668    0.0000 N   0  0  0  0  0  0
   11.1930   -0.7100    0.0000 C   0  0  0  0  0  0
   11.8031    0.6603    0.0000 O   0  0  0  0  0  0
   12.0747   -1.9236    0.0000 C   0  0  2  0  0  0
   13.5665   -1.7668    0.0000 C   0  0  0  0  0  0
   14.4482   -2.9803    0.0000 C   0  0  0  0  0  0
   13.8381   -4.3506    0.0000 C   0  0  0  0  0  0
   12.3463   -4.5074    0.0000 C   0  0  0  0  0  0
   11.4646   -3.2939    0.0000 N   0  0  0  0  0  0
    9.9728   -3.4507    0.0000 C   0  0  0  0  0  0
    9.0911   -2.2371    0.0000 C   0  0  0  0  0  0
    9.3627   -4.8210    0.0000 C   0  0  0  0  0  0
    9.4297    1.7170    0.0000 C   0  0  0  0  0  0
   10.9215    1.8738    0.0000 C   0  0  0  0  0  0
    8.5480    2.9305    0.0000 C   0  0  0  0  0  0
    4.3442   -0.1237    0.0000 C   0  0  0  0  0  0
    5.5577    0.7580    0.0000 C   0  0  0  0  0  0
    3.1307   -1.0054    0.0000 C   0  0  0  0  0  0
    3.4625    1.0899    0.0000 C   0  0  0  0  0  0
   -0.7500   -2.3597    0.0000 C   0  0  0  0  0  0
   -1.0105   -3.8369    0.0000 C   0  0  0  0  0  0
   -2.1595   -1.8467    0.0000 C   0  0  0  0  0  0
   -0.0000   -1.0607    0.0000 C   0  0  0  0  0  0
    1.0607    0.0000    0.0000 C   0  0  0  0  0  0
    0.0000    1.0607    0.0000 C   0  0  0  0  0  0
   -1.0607    0.0000    0.0000 C   0  0  0  0  0  0
  1  2  1  0  0  0
  2  3  1  0  0  0
  3  4  1  0  0  0
  3  6  1  0  0  0
  4  5  1  0  0  0
  6  7  2  0  0  0
  6  8  2  0  0  0
  6  9  1  0  0  0
  9 10  1  0  0  0
 10 11  2  0  0  0
 10 12  1  0  0  0
 12 13  1  0  0  0
 12 17  1  0  0  0
 12 14  1  6  0  0
 13 14  1  0  0  0
 14 15  1  6  0  0
 15 16  2  0  0  0
 17 18  1  0  0  0
 18 19  2  0  0  0
 18 20  1  0  0  0
 20 21  1  0  0  0
 20 24  1  1  0  0
 21 22  1  0  0  0
 22 23  1  0  0  0
 22 51  1  0  0  0
 22 54  1  6  0  0
 23 24  1  0  0  0
 24 25  1  0  0  0
 25 26  2  0  0  0
 25 27  1  0  0  0
 27 28  1  0  0  0
 27 47  1  6  0  0
 28 29  1  0  0  0
 29 30  2  0  0  0
 29 31  1  0  0  0
 31 32  1  0  0  0
 31 44  1  6  0  0
 32 33  1  0  0  0
 33 34  2  0  0  0
 33 35  1  0  0  0
 35 36  1  0  0  0
 35 40  1  1  0  0
 36 37  1  0  0  0
 37 38  1  0  0  0
 38 39  1  0  0  0
 39 40  1  0  0  0
 40 41  1  0  0  0
 41 42  1  0  0  0
 41 43  1  0  0  0
 44 45  1  0  0  0
 44 46  1  0  0  0
 47 48  1  0  0  0
 47 49  1  0  0  0
 47 50  1  0  0  0
 51 52  1  0  0  0
 51 53  1  0  0  0
 51 54  1  0  0  0
 54 55  1  0  0  0
 54 57  1  0  0  0
 55 56  1  0  0  0
 56 57  1  0  0  0
M  END
> <s_m_entry_id>
6839

> <s_m_entry_name>
NS3-4A.380

> <CHEMBLID>
CHEMBL3645695

> <s_m_Source_Path>
/home/liwei/Desktop/Machine/HCV/Active

> <s_m_Source_File>
NS3-4A.sdf

> <i_m_Source_File_Index>
380

$$$$
CHEMBL3645696
                    3D
 Structure written by MMmdl.
 60 66  0  0  1  0            999 V2000
    6.6889   -7.1261    0.0000 C   0  0  0  0  0  0
    5.2470   -6.7126    0.0000 C   0  0  0  0  0  0
    4.1680   -7.7546    0.0000 C   0  0  2  0  0  0
    3.7545   -9.1965    0.0000 C   0  0  0  0  0  0
    2.7125   -8.1175    0.0000 C   0  0  2  0  0  0
    2.1024   -6.7472    0.0000 N   0  0  0  0  0  0
    2.9841   -5.5337    0.0000 C   0  0  0  0  0  0
    4.4759   -5.6905    0.0000 O   0  0  0  0  0  0
    2.3740   -4.1633    0.0000 C   0  0  2  0  0  0
    0.9068   -3.8515    0.0000 C   0  0  0  0  0  0
    0.7500   -2.3597    0.0000 C   0  0  2  0  0  0
    2.1203   -1.7496    0.0000 C   0  0  0  0  0  0
    3.1240   -2.8643    0.0000 N   0  0  0  0  0  0
    4.6158   -2.7075    0.0000 C   0  0  0  0  0  0
    5.4975   -3.9210    0.0000 O   0  0  0  0  0  0
    5.2259   -1.3372    0.0000 C   0  0  1  0  0  0
    6.7177   -1.1804    0.0000 N   0  0  0  0  0  0
    7.3278    0.1899    0.0000 C   0  0  0  0  0  0
    6.4461    1.4034    0.0000 O   0  0  0  0  0  0
    8.8196    0.3467    0.0000 C   0  0  1  0  0  0
    9.7013   -0.8668    0.0000 N   0  0  0  0  0  0
   11.1930   -0.7100    0.0000 C   0  0  0  0  0  0
   11.8031    0.6603    0.0000 O   0  0  0  0  0  0
   12.0747   -1.9236    0.0000 C   0  0  1  0  0  0
   13.5665   -1.7668    0.0000 C   0  0  0  0  0  0
   14.4482   -2.9803    0.0000 C   0  0  0  0  0  0
   13.8381   -4.3506    0.0000 C   0  0  0  0  0  0
   12.3463   -4.5074    0.0000 C   0  0  0  0  0  0
   11.4646   -3.2939    0.0000 N   0  0  0  0  0  0
    9.9728   -3.4507    0.0000 C   0  0  0  0  0  0
    9.0911   -2.2371    0.0000 C   0  0  0  0  0  0
    9.3627   -4.8210    0.0000 C   0  0  0  0  0  0
    9.4297    1.7170    0.0000 C   0  0  0  0  0  0
    8.5480    2.9305    0.0000 C   0  0  0  0  0  0
    9.1581    4.3009    0.0000 C   0  0  0  0  0  0
   10.6499    4.4577    0.0000 C   0  0  0  0  0  0
   11.5316    3.2441    0.0000 C   0  0  0  0  0  0
   10.9215    1.8738    0.0000 C   0  0  0  0  0  0
    4.3442   -0.1237    0.0000 C   0  0  0  0  0  0
    5.5577    0.7580    0.0000 C   0  0  0  0  0  0
    3.1307   -1.0054    0.0000 C   0  0  0  0  0  0
    3.4625    1.0899    0.0000 C   0  0  0  0  0  0
   -0.7500   -2.3597    0.0000 C   0  0  0  0  0  0
   -1.0105   -3.8369    0.0000 C   0  0  0  0  0  0
   -2.1595   -1.8467    0.0000 C   0  0  0  0  0  0
   -0.0000   -1.0607    0.0000 C   0  0  0  0  0  0
    1.0607    0.0000    0.0000 C   0  0  0  0  0  0
    0.0000    1.0607    0.0000 C   0  0  0  0  0  0
   -1.0607    0.0000    0.0000 C   0  0  0  0  0  0
    1.4690   -8.9563    0.0000 C   0  0  0  0  0  0
    0.1208   -8.2987    0.0000 O   0  0  0  0  0  0
    1.5736  -10.4526    0.0000 N   0  0  0  0  0  0
    0.3301  -11.2914    0.0000 S   0  0  0  0  0  0
    1.1689  -12.5350    0.0000 O   0  0  0  0  0  0
   -0.5087  -10.0479    0.0000 O   0  0  0  0  0  0
   -0.9135  -12.1302    0.0000 N   0  0  0  0  0  0
   -2.3230  -11.6172    0.0000 C   0  0  0  0  0  0
   -3.2465  -12.7992    0.0000 C   0  0  0  0  0  0
   -2.4077  -14.0428    0.0000 C   0  0  0  0  0  0
   -0.9658  -13.6293    0.0000 C   0  0  0  0  0  0
  1  2  1  0  0  0
  2  3  1  0  0  0
  3  4  1  0  0  0
  3  5  1  6  0  0
  4  5  1  0  0  0
  5  6  1  0  0  0
  5 50  1  6  0  0
  6  7  1  0  0  0
  7  8  2  0  0  0
  7  9  1  0  0  0
  9 10  1  0  0  0
  9 13  1  1  0  0
 10 11  1  0  0  0
 11 12  1  0  0  0
 11 43  1  0  0  0
 11 46  1  6  0  0
 12 13  1  0  0  0
 13 14  1  0  0  0
 14 15  2  0  0  0
 14 16  1  0  0  0
 16 17  1  0  0  0
 16 39  1  6  0  0
 17 18  1  0  0  0
 18 19  2  0  0  0
 18 20  1  0  0  0
 20 21  1  0  0  0
 20 33  1  6  0  0
 21 22  1  0  0  0
 22 23  2  0  0  0
 22 24  1  0  0  0
 24 25  1  0  0  0
 24 29  1  1  0  0
 25 26  1  0  0  0
 26 27  1  0  0  0
 27 28  1  0  0  0
 28 29  1  0  0  0
 29 30  1  0  0  0
 30 31  1  0  0  0
 30 32  1  0  0  0
 33 34  1  0  0  0
 33 38  1  0  0  0
 34 35  1  0  0  0
 35 36  1  0  0  0
 36 37  1  0  0  0
 37 38  1  0  0  0
 39 40  1  0  0  0
 39 41  1  0  0  0
 39 42  1  0  0  0
 43 44  1  0  0  0
 43 45  1  0  0  0
 43 46  1  0  0  0
 46 47  1  0  0  0
 46 49  1  0  0  0
 47 48  1  0  0  0
 48 49  1  0  0  0
 50 51  2  0  0  0
 50 52  1  0  0  0
 52 53  1  0  0  0
 53 54  2  0  0  0
 53 55  2  0  0  0
 53 56  1  0  0  0
 56 57  1  0  0  0
 56 60  1  0  0  0
 57 58  1  0  0  0
 58 59  1  0  0  0
 59 60  1  0  0  0
M  END
> <s_m_entry_id>
6840

> <s_m_entry_name>
NS3-4A.381

> <CHEMBLID>
CHEMBL3645696

> <s_m_Source_Path>
/home/liwei/Desktop/Machine/HCV/Active

> <s_m_Source_File>
NS3-4A.sdf

> <i_m_Source_File_Index>
381

$$$$
CHEMBL3645697
                    3D
 Structure written by MMmdl.
 63 70  0  0  1  0            999 V2000
   -8.3400   -5.6496    0.0000 C   0  0  0  0  0  0
   -6.8483   -5.8064    0.0000 C   0  0  0  0  0  0
   -6.2382   -7.1768    0.0000 C   0  0  0  0  0  0
   -5.9666   -4.5929    0.0000 N   0  0  0  0  0  0
   -6.5767   -3.2226    0.0000 C   0  0  0  0  0  0
   -5.6950   -2.0091    0.0000 C   0  0  0  0  0  0
   -4.2032   -2.1659    0.0000 C   0  0  0  0  0  0
   -3.5931   -3.5362    0.0000 C   0  0  0  0  0  0
   -4.4748   -4.7497    0.0000 C   0  0  1  0  0  0
   -3.8647   -6.1200    0.0000 C   0  0  0  0  0  0
   -4.7464   -7.3335    0.0000 O   0  0  0  0  0  0
   -2.3729   -6.2768    0.0000 N   0  0  0  0  0  0
   -1.7628   -7.6471    0.0000 C   0  0  1  0  0  0
   -2.6445   -8.8607    0.0000 C   0  0  0  0  0  0
   -4.1363   -8.7039    0.0000 C   0  0  0  0  0  0
   -5.0179   -9.9174    0.0000 C   0  0  0  0  0  0
   -4.4078  -11.2877    0.0000 C   0  0  0  0  0  0
   -2.9161  -11.4445    0.0000 C   0  0  0  0  0  0
   -2.0344  -10.2310    0.0000 C   0  0  0  0  0  0
   -0.2710   -7.8039    0.0000 C   0  0  0  0  0  0
    0.3391   -9.1742    0.0000 O   0  0  0  0  0  0
    0.6107   -6.5904    0.0000 N   0  0  0  0  0  0
    2.1024   -6.7472    0.0000 C   0  0  2  0  0  0
    2.9841   -5.5337    0.0000 C   0  0  0  0  0  0
    4.4759   -5.6905    0.0000 O   0  0  0  0  0  0
    2.3740   -4.1633    0.0000 N   0  0  0  0  0  0
    0.9068   -3.8515    0.0000 C   0  0  0  0  0  0
    0.7500   -2.3597    0.0000 C   0  0  1  0  0  0
    2.1203   -1.7496    0.0000 C   0  0  0  0  0  0
    3.1240   -2.8643    0.0000 C   0  0  1  0  0  0
    4.6158   -2.7075    0.0000 C   0  0  0  0  0  0
    5.2259   -1.3372    0.0000 O   0  0  0  0  0  0
    5.4975   -3.9210    0.0000 N   0  0  0  0  0  0
    6.9893   -3.7643    0.0000 C   0  0  1  0  0  0
    8.3374   -3.1067    0.0000 C   0  0  0  0  0  0
    7.0939   -2.2679    0.0000 C   0  0  1  0  0  0
    6.4363   -0.9197    0.0000 C   0  0  0  0  0  0
    7.2751    0.3238    0.0000 C   0  0  0  0  0  0
    7.4027   -5.2061    0.0000 C   0  0  0  0  0  0
    6.3607   -6.2852    0.0000 O   0  0  0  0  0  0
    8.8582   -5.5690    0.0000 N   0  0  0  0  0  0
    9.2716   -7.0109    0.0000 S   0  0  0  0  0  0
   10.7135   -6.5975    0.0000 O   0  0  0  0  0  0
    7.8297   -7.4244    0.0000 O   0  0  0  0  0  0
    9.6851   -8.4528    0.0000 N   0  0  0  0  0  0
    8.7616   -9.6348    0.0000 C   0  0  0  0  0  0
    9.6004  -10.8784    0.0000 C   0  0  0  0  0  0
   11.0423  -10.4649    0.0000 C   0  0  0  0  0  0
   11.0946   -8.9658    0.0000 C   0  0  0  0  0  0
   -0.7500   -2.3597    0.0000 C   0  0  0  0  0  0
   -1.0105   -3.8369    0.0000 C   0  0  0  0  0  0
   -2.1595   -1.8467    0.0000 C   0  0  0  0  0  0
   -0.0000   -1.0607    0.0000 C   0  0  0  0  0  0
    1.0607    0.0000    0.0000 C   0  0  0  0  0  0
    0.0000    1.0607    0.0000 C   0  0  0  0  0  0
   -1.0607    0.0000    0.0000 C   0  0  0  0  0  0
    2.7125   -8.1175    0.0000 C   0  0  0  0  0  0
    3.9561   -7.2787    0.0000 C   0  0  0  0  0  0
    1.2571   -8.4804    0.0000 C   0  0  0  0  0  0
    0.8436   -9.9223    0.0000 C   0  0  0  0  0  0
    1.8856  -11.0013    0.0000 O   0  0  0  0  0  0
    3.3411  -10.6384    0.0000 C   0  0  0  0  0  0
    3.7545   -9.1965    0.0000 C   0  0  0  0  0  0
  1  2  1  0  0  0
  2  3  1  0  0  0
  2  4  1  0  0  0
  4  5  1  0  0  0
  4  9  1  0  0  0
  5  6  1  0  0  0
  6  7  1  0  0  0
  7  8  1  0  0  0
  8  9  1  0  0  0
  9 10  1  6  0  0
 10 11  2  0  0  0
 10 12  1  0  0  0
 12 13  1  0  0  0
 13 14  1  0  0  0
 13 20  1  6  0  0
 14 15  1  0  0  0
 14 19  1  0  0  0
 15 16  1  0  0  0
 16 17  1  0  0  0
 17 18  1  0  0  0
 18 19  1  0  0  0
 20 21  2  0  0  0
 20 22  1  0  0  0
 22 23  1  0  0  0
 23 24  1  0  0  0
 23 57  1  1  0  0
 24 25  2  0  0  0
 24 26  1  0  0  0
 26 27  1  0  0  0
 26 30  1  0  0  0
 27 28  1  0  0  0
 28 29  1  0  0  0
 28 50  1  0  0  0
 28 53  1  1  0  0
 29 30  1  0  0  0
 30 31  1  6  0  0
 31 32  2  0  0  0
 31 33  1  0  0  0
 33 34  1  0  0  0
 34 35  1  0  0  0
 34 39  1  0  0  0
 34 36  1  1  0  0
 35 36  1  0  0  0
 36 37  1  6  0  0
 37 38  2  0  0  0
 39 40  2  0  0  0
 39 41  1  0  0  0
 41 42  1  0  0  0
 42 43  2  0  0  0
 42 44  2  0  0  0
 42 45  1  0  0  0
 45 46  1  0  0  0
 45 49  1  0  0  0
 46 47  1  0  0  0
 47 48  1  0  0  0
 48 49  1  0  0  0
 50 51  1  0  0  0
 50 52  1  0  0  0
 50 53  1  0  0  0
 53 54  1  0  0  0
 53 56  1  0  0  0
 54 55  1  0  0  0
 55 56  1  0  0  0
 57 58  1  0  0  0
 57 59  1  0  0  0
 57 63  1  0  0  0
 59 60  1  0  0  0
 60 61  1  0  0  0
 61 62  1  0  0  0
 62 63  1  0  0  0
M  END
> <s_m_entry_id>
6841

> <s_m_entry_name>
NS3-4A.382

> <CHEMBLID>
CHEMBL3645697

> <s_m_Source_Path>
/home/liwei/Desktop/Machine/HCV/Active

> <s_m_Source_File>
NS3-4A.sdf

> <i_m_Source_File_Index>
382

$$$$
CHEMBL3645698
                    3D
 Structure written by MMmdl.
 61 68  0  0  1  0            999 V2000
   -1.3513   -4.5074    0.0000 C   0  0  0  0  0  0
   -2.2330   -3.2939    0.0000 C   0  0  0  0  0  0
   -3.7248   -3.4507    0.0000 N   0  0  0  0  0  0
   -4.7285   -2.3359    0.0000 C   0  0  0  0  0  0
   -6.0988   -2.9461    0.0000 C   0  0  0  0  0  0
   -5.9420   -4.4378    0.0000 C   0  0  0  0  0  0
   -4.4748   -4.7497    0.0000 C   0  0  1  0  0  0
   -3.8647   -6.1200    0.0000 C   0  0  0  0  0  0
   -4.7464   -7.3335    0.0000 O   0  0  0  0  0  0
   -2.3729   -6.2768    0.0000 N   0  0  0  0  0  0
   -1.7628   -7.6471    0.0000 C   0  0  1  0  0  0
   -2.6445   -8.8607    0.0000 C   0  0  0  0  0  0
   -4.1363   -8.7039    0.0000 C   0  0  0  0  0  0
   -5.0179   -9.9174    0.0000 C   0  0  0  0  0  0
   -4.4078  -11.2877    0.0000 C   0  0  0  0  0  0
   -2.9161  -11.4445    0.0000 C   0  0  0  0  0  0
   -2.0344  -10.2310    0.0000 C   0  0  0  0  0  0
   -0.2710   -7.8039    0.0000 C   0  0  0  0  0  0
    0.3391   -9.1742    0.0000 O   0  0  0  0  0  0
    0.6107   -6.5904    0.0000 N   0  0  0  0  0  0
    2.1024   -6.7472    0.0000 C   0  0  2  0  0  0
    2.9841   -5.5337    0.0000 C   0  0  0  0  0  0
    4.4759   -5.6905    0.0000 O   0  0  0  0  0  0
    2.3740   -4.1633    0.0000 N   0  0  0  0  0  0
    0.9068   -3.8515    0.0000 C   0  0  0  0  0  0
    0.7500   -2.3597    0.0000 C   0  0  1  0  0  0
    2.1203   -1.7496    0.0000 C   0  0  0  0  0  0
    3.1240   -2.8643    0.0000 C   0  0  1  0  0  0
    4.6158   -2.7075    0.0000 C   0  0  0  0  0  0
    5.2259   -1.3372    0.0000 O   0  0  0  0  0  0
    5.4975   -3.9210    0.0000 N   0  0  0  0  0  0
    6.9893   -3.7643    0.0000 C   0  0  1  0  0  0
    8.3374   -3.1067    0.0000 C   0  0  0  0  0  0
    7.0939   -2.2679    0.0000 C   0  0  1  0  0  0
    6.4363   -0.9197    0.0000 C   0  0  0  0  0  0
    7.2751    0.3238    0.0000 C   0  0  0  0  0  0
    7.4027   -5.2061    0.0000 C   0  0  0  0  0  0
    6.3607   -6.2852    0.0000 O   0  0  0  0  0  0
    8.8582   -5.5690    0.0000 N   0  0  0  0  0  0
    9.2716   -7.0109    0.0000 S   0  0  0  0  0  0
   10.7135   -6.5975    0.0000 O   0  0  0  0  0  0
    7.8297   -7.4244    0.0000 O   0  0  0  0  0  0
    9.6851   -8.4528    0.0000 N   0  0  0  0  0  0
    8.7616   -9.6348    0.0000 C   0  0  0  0  0  0
    9.6004  -10.8784    0.0000 C   0  0  0  0  0  0
   11.0423  -10.4649    0.0000 C   0  0  0  0  0  0
   11.0946   -8.9658    0.0000 C   0  0  0  0  0  0
   -0.7500   -2.3597    0.0000 C   0  0  0  0  0  0
   -1.0105   -3.8369    0.0000 C   0  0  0  0  0  0
   -2.1595   -1.8467    0.0000 C   0  0  0  0  0  0
   -0.0000   -1.0607    0.0000 C   0  0  0  0  0  0
    1.0607    0.0000    0.0000 C   0  0  0  0  0  0
    0.0000    1.0607    0.0000 C   0  0  0  0  0  0
   -1.0607    0.0000    0.0000 C   0  0  0  0  0  0
    2.7125   -8.1175    0.0000 C   0  0  0  0  0  0
    3.9561   -7.2787    0.0000 C   0  0  0  0  0  0
    1.2571   -8.4804    0.0000 C   0  0  0  0  0  0
    0.8436   -9.9223    0.0000 C   0  0  0  0  0  0
    1.8856  -11.0013    0.0000 O   0  0  0  0  0  0
    3.3411  -10.6384    0.0000 C   0  0  0  0  0  0
    3.7545   -9.1965    0.0000 C   0  0  0  0  0  0
  1  2  1  0  0  0
  2  3  1  0  0  0
  3  4  1  0  0  0
  3  7  1  0  0  0
  4  5  1  0  0  0
  5  6  1  0  0  0
  6  7  1  0  0  0
  7  8  1  6  0  0
  8  9  2  0  0  0
  8 10  1  0  0  0
 10 11  1  0  0  0
 11 12  1  0  0  0
 11 18  1  6  0  0
 12 13  1  0  0  0
 12 17  1  0  0  0
 13 14  1  0  0  0
 14 15  1  0  0  0
 15 16  1  0  0  0
 16 17  1  0  0  0
 18 19  2  0  0  0
 18 20  1  0  0  0
 20 21  1  0  0  0
 21 22  1  0  0  0
 21 55  1  1  0  0
 22 23  2  0  0  0
 22 24  1  0  0  0
 24 25  1  0  0  0
 24 28  1  0  0  0
 25 26  1  0  0  0
 26 27  1  0  0  0
 26 48  1  0  0  0
 26 51  1  1  0  0
 27 28  1  0  0  0
 28 29  1  6  0  0
 29 30  2  0  0  0
 29 31  1  0  0  0
 31 32  1  0  0  0
 32 33  1  0  0  0
 32 37  1  0  0  0
 32 34  1  1  0  0
 33 34  1  0  0  0
 34 35  1  6  0  0
 35 36  2  0  0  0
 37 38  2  0  0  0
 37 39  1  0  0  0
 39 40  1  0  0  0
 40 41  2  0  0  0
 40 42  2  0  0  0
 40 43  1  0  0  0
 43 44  1  0  0  0
 43 47  1  0  0  0
 44 45  1  0  0  0
 45 46  1  0  0  0
 46 47  1  0  0  0
 48 49  1  0  0  0
 48 50  1  0  0  0
 48 51  1  0  0  0
 51 52  1  0  0  0
 51 54  1  0  0  0
 52 53  1  0  0  0
 53 54  1  0  0  0
 55 56  1  0  0  0
 55 57  1  0  0  0
 55 61  1  0  0  0
 57 58  1  0  0  0
 58 59  1  0  0  0
 59 60  1  0  0  0
 60 61  1  0  0  0
M  END
> <s_m_entry_id>
6842

> <s_m_entry_name>
NS3-4A.383

> <CHEMBLID>
CHEMBL3645698

> <s_m_Source_Path>
/home/liwei/Desktop/Machine/HCV/Active

> <s_m_Source_File>
NS3-4A.sdf

> <i_m_Source_File_Index>
383

$$$$
CHEMBL3645699
                    3D
 Structure written by MMmdl.
 59 65  0  0  1  0            999 V2000
   -1.3513   -4.5074    0.0000 C   0  0  0  0  0  0
   -2.2330   -3.2939    0.0000 C   0  0  0  0  0  0
   -3.7248   -3.4507    0.0000 N   0  0  0  0  0  0
   -4.7285   -2.3359    0.0000 C   0  0  0  0  0  0
   -6.0988   -2.9461    0.0000 C   0  0  0  0  0  0
   -5.9420   -4.4378    0.0000 C   0  0  0  0  0  0
   -4.4748   -4.7497    0.0000 C   0  0  1  0  0  0
   -3.8647   -6.1200    0.0000 C   0  0  0  0  0  0
   -4.7464   -7.3335    0.0000 O   0  0  0  0  0  0
   -2.3729   -6.2768    0.0000 N   0  0  0  0  0  0
   -1.7628   -7.6471    0.0000 C   0  0  2  0  0  0
   -0.2710   -7.8039    0.0000 C   0  0  0  0  0  0
    0.3391   -9.1742    0.0000 O   0  0  0  0  0  0
    0.6107   -6.5904    0.0000 N   0  0  0  0  0  0
    2.1024   -6.7472    0.0000 C   0  0  2  0  0  0
    2.9841   -5.5337    0.0000 C   0  0  0  0  0  0
    4.4759   -5.6905    0.0000 O   0  0  0  0  0  0
    2.3740   -4.1633    0.0000 N   0  0  0  0  0  0
    0.9068   -3.8515    0.0000 C   0  0  0  0  0  0
    0.7500   -2.3597    0.0000 C   0  0  1  0  0  0
    2.1203   -1.7496    0.0000 C   0  0  0  0  0  0
    3.1240   -2.8643    0.0000 C   0  0  1  0  0  0
    4.6158   -2.7075    0.0000 C   0  0  0  0  0  0
    5.2259   -1.3372    0.0000 O   0  0  0  0  0  0
    5.4975   -3.9210    0.0000 N   0  0  0  0  0  0
    6.9893   -3.7643    0.0000 C   0  0  1  0  0  0
    8.3374   -3.1067    0.0000 C   0  0  0  0  0  0
    7.0939   -2.2679    0.0000 C   0  0  1  0  0  0
    6.4363   -0.9197    0.0000 C   0  0  0  0  0  0
    7.2751    0.3238    0.0000 C   0  0  0  0  0  0
    7.4027   -5.2061    0.0000 C   0  0  0  0  0  0
    6.3607   -6.2852    0.0000 O   0  0  0  0  0  0
    8.8582   -5.5690    0.0000 N   0  0  0  0  0  0
    9.2716   -7.0109    0.0000 S   0  0  0  0  0  0
   10.7135   -6.5975    0.0000 O   0  0  0  0  0  0
    7.8297   -7.4244    0.0000 O   0  0  0  0  0  0
    9.6851   -8.4528    0.0000 N   0  0  0  0  0  0
    8.7616   -9.6348    0.0000 C   0  0  0  0  0  0
    9.6004  -10.8784    0.0000 C   0  0  0  0  0  0
   11.0423  -10.4649    0.0000 C   0  0  0  0  0  0
   11.0946   -8.9658    0.0000 C   0  0  0  0  0  0
   -0.7500   -2.3597    0.0000 C   0  0  0  0  0  0
   -1.0105   -3.8369    0.0000 C   0  0  0  0  0  0
   -2.1595   -1.8467    0.0000 C   0  0  0  0  0  0
   -0.0000   -1.0607    0.0000 C   0  0  0  0  0  0
    1.0607    0.0000    0.0000 C   0  0  0  0  0  0
    0.0000    1.0607    0.0000 C   0  0  0  0  0  0
   -1.0607    0.0000    0.0000 C   0  0  0  0  0  0
    2.7125   -8.1175    0.0000 C   0  0  0  0  0  0
    3.9561   -7.2787    0.0000 C   0  0  0  0  0  0
    1.2571   -8.4804    0.0000 C   0  0  0  0  0  0
    0.8436   -9.9223    0.0000 C   0  0  0  0  0  0
    1.8856  -11.0013    0.0000 O   0  0  0  0  0  0
    3.3411  -10.6384    0.0000 C   0  0  0  0  0  0
    3.7545   -9.1965    0.0000 C   0  0  0  0  0  0
   -2.6445   -8.8607    0.0000 C   0  0  0  0  0  0
   -3.8580   -7.9790    0.0000 C   0  0  0  0  0  0
   -1.4310   -9.7423    0.0000 C   0  0  0  0  0  0
   -3.5262  -10.0742    0.0000 C   0  0  0  0  0  0
  1  2  1  0  0  0
  2  3  1  0  0  0
  3  4  1  0  0  0
  3  7  1  0  0  0
  4  5  1  0  0  0
  5  6  1  0  0  0
  6  7  1  0  0  0
  7  8  1  6  0  0
  8  9  2  0  0  0
  8 10  1  0  0  0
 10 11  1  0  0  0
 11 12  1  0  0  0
 11 56  1  1  0  0
 12 13  2  0  0  0
 12 14  1  0  0  0
 14 15  1  0  0  0
 15 16  1  0  0  0
 15 49  1  1  0  0
 16 17  2  0  0  0
 16 18  1  0  0  0
 18 19  1  0  0  0
 18 22  1  0  0  0
 19 20  1  0  0  0
 20 21  1  0  0  0
 20 42  1  0  0  0
 20 45  1  1  0  0
 21 22  1  0  0  0
 22 23  1  6  0  0
 23 24  2  0  0  0
 23 25  1  0  0  0
 25 26  1  0  0  0
 26 27  1  0  0  0
 26 31  1  0  0  0
 26 28  1  1  0  0
 27 28  1  0  0  0
 28 29  1  6  0  0
 29 30  2  0  0  0
 31 32  2  0  0  0
 31 33  1  0  0  0
 33 34  1  0  0  0
 34 35  2  0  0  0
 34 36  2  0  0  0
 34 37  1  0  0  0
 37 38  1  0  0  0
 37 41  1  0  0  0
 38 39  1  0  0  0
 39 40  1  0  0  0
 40 41  1  0  0  0
 42 43  1  0  0  0
 42 44  1  0  0  0
 42 45  1  0  0  0
 45 46  1  0  0  0
 45 48  1  0  0  0
 46 47  1  0  0  0
 47 48  1  0  0  0
 49 50  1  0  0  0
 49 51  1  0  0  0
 49 55  1  0  0  0
 51 52  1  0  0  0
 52 53  1  0  0  0
 53 54  1  0  0  0
 54 55  1  0  0  0
 56 57  1  0  0  0
 56 58  1  0  0  0
 56 59  1  0  0  0
M  END
> <s_m_entry_id>
6843

> <s_m_entry_name>
NS3-4A.384

> <CHEMBLID>
CHEMBL3645699

> <s_m_Source_Path>
/home/liwei/Desktop/Machine/HCV/Active

> <s_m_Source_File>
NS3-4A.sdf

> <i_m_Source_File_Index>
384

$$$$
CHEMBL3645700
                    3D
 Structure written by MMmdl.
 63 70  0  0  1  0            999 V2000
   -8.3400   -5.6496    0.0000 C   0  0  0  0  0  0
   -6.8483   -5.8064    0.0000 C   0  0  0  0  0  0
   -6.2382   -7.1768    0.0000 C   0  0  0  0  0  0
   -5.9666   -4.5929    0.0000 N   0  0  0  0  0  0
   -6.5767   -3.2226    0.0000 C   0  0  0  0  0  0
   -5.6950   -2.0091    0.0000 C   0  0  0  0  0  0
   -4.2032   -2.1659    0.0000 C   0  0  0  0  0  0
   -3.5931   -3.5362    0.0000 C   0  0  0  0  0  0
   -4.4748   -4.7497    0.0000 C   0  0  1  0  0  0
   -3.8647   -6.1200    0.0000 C   0  0  0  0  0  0
   -4.7464   -7.3335    0.0000 O   0  0  0  0  0  0
   -2.3729   -6.2768    0.0000 N   0  0  0  0  0  0
   -1.7628   -7.6471    0.0000 C   0  0  1  0  0  0
   -2.6445   -8.8607    0.0000 C   0  0  0  0  0  0
   -4.1363   -8.7039    0.0000 C   0  0  0  0  0  0
   -5.0179   -9.9174    0.0000 C   0  0  0  0  0  0
   -4.4078  -11.2877    0.0000 O   0  0  0  0  0  0
   -2.9161  -11.4445    0.0000 C   0  0  0  0  0  0
   -2.0344  -10.2310    0.0000 C   0  0  0  0  0  0
   -0.2710   -7.8039    0.0000 C   0  0  0  0  0  0
    0.3391   -9.1742    0.0000 O   0  0  0  0  0  0
    0.6107   -6.5904    0.0000 N   0  0  0  0  0  0
    2.1024   -6.7472    0.0000 C   0  0  2  0  0  0
    2.9841   -5.5337    0.0000 C   0  0  0  0  0  0
    4.4759   -5.6905    0.0000 O   0  0  0  0  0  0
    2.3740   -4.1633    0.0000 N   0  0  0  0  0  0
    0.9068   -3.8515    0.0000 C   0  0  0  0  0  0
    0.7500   -2.3597    0.0000 C   0  0  1  0  0  0
    2.1203   -1.7496    0.0000 C   0  0  0  0  0  0
    3.1240   -2.8643    0.0000 C   0  0  1  0  0  0
    4.6158   -2.7075    0.0000 C   0  0  0  0  0  0
    5.2259   -1.3372    0.0000 O   0  0  0  0  0  0
    5.4975   -3.9210    0.0000 N   0  0  0  0  0  0
    6.9893   -3.7643    0.0000 C   0  0  1  0  0  0
    8.3374   -3.1067    0.0000 C   0  0  0  0  0  0
    7.0939   -2.2679    0.0000 C   0  0  1  0  0  0
    6.4363   -0.9197    0.0000 C   0  0  0  0  0  0
    7.2751    0.3238    0.0000 C   0  0  0  0  0  0
    7.4027   -5.2061    0.0000 C   0  0  0  0  0  0
    6.3607   -6.2852    0.0000 O   0  0  0  0  0  0
    8.8582   -5.5690    0.0000 N   0  0  0  0  0  0
    9.2716   -7.0109    0.0000 S   0  0  0  0  0  0
   10.7135   -6.5975    0.0000 O   0  0  0  0  0  0
    7.8297   -7.4244    0.0000 O   0  0  0  0  0  0
    9.6851   -8.4528    0.0000 N   0  0  0  0  0  0
    8.7616   -9.6348    0.0000 C   0  0  0  0  0  0
    9.6004  -10.8784    0.0000 C   0  0  0  0  0  0
   11.0423  -10.4649    0.0000 C   0  0  0  0  0  0
   11.0946   -8.9658    0.0000 C   0  0  0  0  0  0
   -0.7500   -2.3597    0.0000 C   0  0  0  0  0  0
   -1.0105   -3.8369    0.0000 C   0  0  0  0  0  0
   -2.1595   -1.8467    0.0000 C   0  0  0  0  0  0
   -0.0000   -1.0607    0.0000 C   0  0  0  0  0  0
    1.0607    0.0000    0.0000 C   0  0  0  0  0  0
    0.0000    1.0607    0.0000 C   0  0  0  0  0  0
   -1.0607    0.0000    0.0000 C   0  0  0  0  0  0
    2.7125   -8.1175    0.0000 C   0  0  0  0  0  0
    3.9561   -7.2787    0.0000 C   0  0  0  0  0  0
    1.2571   -8.4804    0.0000 C   0  0  0  0  0  0
    0.8436   -9.9223    0.0000 C   0  0  0  0  0  0
    1.8856  -11.0013    0.0000 O   0  0  0  0  0  0
    3.3411  -10.6384    0.0000 C   0  0  0  0  0  0
    3.7545   -9.1965    0.0000 C   0  0  0  0  0  0
  1  2  1  0  0  0
  2  3  1  0  0  0
  2  4  1  0  0  0
  4  5  1  0  0  0
  4  9  1  0  0  0
  5  6  1  0  0  0
  6  7  1  0  0  0
  7  8  1  0  0  0
  8  9  1  0  0  0
  9 10  1  6  0  0
 10 11  2  0  0  0
 10 12  1  0  0  0
 12 13  1  0  0  0
 13 14  1  0  0  0
 13 20  1  6  0  0
 14 15  1  0  0  0
 14 19  1  0  0  0
 15 16  1  0  0  0
 16 17  1  0  0  0
 17 18  1  0  0  0
 18 19  1  0  0  0
 20 21  2  0  0  0
 20 22  1  0  0  0
 22 23  1  0  0  0
 23 24  1  0  0  0
 23 57  1  1  0  0
 24 25  2  0  0  0
 24 26  1  0  0  0
 26 27  1  0  0  0
 26 30  1  0  0  0
 27 28  1  0  0  0
 28 29  1  0  0  0
 28 50  1  0  0  0
 28 53  1  1  0  0
 29 30  1  0  0  0
 30 31  1  6  0  0
 31 32  2  0  0  0
 31 33  1  0  0  0
 33 34  1  0  0  0
 34 35  1  0  0  0
 34 39  1  0  0  0
 34 36  1  1  0  0
 35 36  1  0  0  0
 36 37  1  6  0  0
 37 38  2  0  0  0
 39 40  2  0  0  0
 39 41  1  0  0  0
 41 42  1  0  0  0
 42 43  2  0  0  0
 42 44  2  0  0  0
 42 45  1  0  0  0
 45 46  1  0  0  0
 45 49  1  0  0  0
 46 47  1  0  0  0
 47 48  1  0  0  0
 48 49  1  0  0  0
 50 51  1  0  0  0
 50 52  1  0  0  0
 50 53  1  0  0  0
 53 54  1  0  0  0
 53 56  1  0  0  0
 54 55  1  0  0  0
 55 56  1  0  0  0
 57 58  1  0  0  0
 57 59  1  0  0  0
 57 63  1  0  0  0
 59 60  1  0  0  0
 60 61  1  0  0  0
 61 62  1  0  0  0
 62 63  1  0  0  0
M  END
> <s_m_entry_id>
6844

> <s_m_entry_name>
NS3-4A.385

> <CHEMBLID>
CHEMBL3645700

> <s_m_Source_Path>
/home/liwei/Desktop/Machine/HCV/Active

> <s_m_Source_File>
NS3-4A.sdf

> <i_m_Source_File_Index>
385

$$$$
CHEMBL3645701
                    3D
 Structure written by MMmdl.
 61 67  0  0  1  0            999 V2000
   -8.3400   -5.6496    0.0000 C   0  0  0  0  0  0
   -6.8483   -5.8064    0.0000 C   0  0  0  0  0  0
   -6.2382   -7.1768    0.0000 C   0  0  0  0  0  0
   -5.9666   -4.5929    0.0000 N   0  0  0  0  0  0
   -6.5767   -3.2226    0.0000 C   0  0  0  0  0  0
   -5.6950   -2.0091    0.0000 C   0  0  0  0  0  0
   -4.2032   -2.1659    0.0000 C   0  0  0  0  0  0
   -3.5931   -3.5362    0.0000 C   0  0  0  0  0  0
   -4.4748   -4.7497    0.0000 C   0  0  1  0  0  0
   -3.8647   -6.1200    0.0000 C   0  0  0  0  0  0
   -4.7464   -7.3335    0.0000 O   0  0  0  0  0  0
   -2.3729   -6.2768    0.0000 N   0  0  0  0  0  0
   -1.7628   -7.6471    0.0000 C   0  0  2  0  0  0
   -0.2710   -7.8039    0.0000 C   0  0  0  0  0  0
    0.3391   -9.1742    0.0000 O   0  0  0  0  0  0
    0.6107   -6.5904    0.0000 N   0  0  0  0  0  0
    2.1024   -6.7472    0.0000 C   0  0  2  0  0  0
    2.9841   -5.5337    0.0000 C   0  0  0  0  0  0
    4.4759   -5.6905    0.0000 O   0  0  0  0  0  0
    2.3740   -4.1633    0.0000 N   0  0  0  0  0  0
    0.9068   -3.8515    0.0000 C   0  0  0  0  0  0
    0.7500   -2.3597    0.0000 C   0  0  1  0  0  0
    2.1203   -1.7496    0.0000 C   0  0  0  0  0  0
    3.1240   -2.8643    0.0000 C   0  0  1  0  0  0
    4.6158   -2.7075    0.0000 C   0  0  0  0  0  0
    5.2259   -1.3372    0.0000 O   0  0  0  0  0  0
    5.4975   -3.9210    0.0000 N   0  0  0  0  0  0
    6.9893   -3.7643    0.0000 C   0  0  1  0  0  0
    8.3374   -3.1067    0.0000 C   0  0  0  0  0  0
    7.0939   -2.2679    0.0000 C   0  0  1  0  0  0
    6.4363   -0.9197    0.0000 C   0  0  0  0  0  0
    7.2751    0.3238    0.0000 C   0  0  0  0  0  0
    7.4027   -5.2061    0.0000 C   0  0  0  0  0  0
    6.3607   -6.2852    0.0000 O   0  0  0  0  0  0
    8.8582   -5.5690    0.0000 N   0  0  0  0  0  0
    9.2716   -7.0109    0.0000 S   0  0  0  0  0  0
   10.7135   -6.5975    0.0000 O   0  0  0  0  0  0
    7.8297   -7.4244    0.0000 O   0  0  0  0  0  0
    9.6851   -8.4528    0.0000 N   0  0  0  0  0  0
    8.7616   -9.6348    0.0000 C   0  0  0  0  0  0
    9.6004  -10.8784    0.0000 C   0  0  0  0  0  0
   11.0423  -10.4649    0.0000 C   0  0  0  0  0  0
   11.0946   -8.9658    0.0000 C   0  0  0  0  0  0
   -0.7500   -2.3597    0.0000 C   0  0  0  0  0  0
   -1.0105   -3.8369    0.0000 C   0  0  0  0  0  0
   -2.1595   -1.8467    0.0000 C   0  0  0  0  0  0
   -0.0000   -1.0607    0.0000 C   0  0  0  0  0  0
    1.0607    0.0000    0.0000 C   0  0  0  0  0  0
    0.0000    1.0607    0.0000 C   0  0  0  0  0  0
   -1.0607    0.0000    0.0000 C   0  0  0  0  0  0
    2.7125   -8.1175    0.0000 C   0  0  0  0  0  0
    3.9561   -7.2787    0.0000 C   0  0  0  0  0  0
    1.2571   -8.4804    0.0000 C   0  0  0  0  0  0
    0.8436   -9.9223    0.0000 C   0  0  0  0  0  0
    1.8856  -11.0013    0.0000 O   0  0  0  0  0  0
    3.3411  -10.6384    0.0000 C   0  0  0  0  0  0
    3.7545   -9.1965    0.0000 C   0  0  0  0  0  0
   -2.6445   -8.8607    0.0000 C   0  0  0  0  0  0
   -3.8580   -7.9790    0.0000 C   0  0  0  0  0  0
   -1.4310   -9.7423    0.0000 C   0  0  0  0  0  0
   -3.5262  -10.0742    0.0000 C   0  0  0  0  0  0
  1  2  1  0  0  0
  2  3  1  0  0  0
  2  4  1  0  0  0
  4  5  1  0  0  0
  4  9  1  0  0  0
  5  6  1  0  0  0
  6  7  1  0  0  0
  7  8  1  0  0  0
  8  9  1  0  0  0
  9 10  1  6  0  0
 10 11  2  0  0  0
 10 12  1  0  0  0
 12 13  1  0  0  0
 13 14  1  0  0  0
 13 58  1  1  0  0
 14 15  2  0  0  0
 14 16  1  0  0  0
 16 17  1  0  0  0
 17 18  1  0  0  0
 17 51  1  1  0  0
 18 19  2  0  0  0
 18 20  1  0  0  0
 20 21  1  0  0  0
 20 24  1  0  0  0
 21 22  1  0  0  0
 22 23  1  0  0  0
 22 44  1  0  0  0
 22 47  1  1  0  0
 23 24  1  0  0  0
 24 25  1  6  0  0
 25 26  2  0  0  0
 25 27  1  0  0  0
 27 28  1  0  0  0
 28 29  1  0  0  0
 28 33  1  0  0  0
 28 30  1  1  0  0
 29 30  1  0  0  0
 30 31  1  6  0  0
 31 32  2  0  0  0
 33 34  2  0  0  0
 33 35  1  0  0  0
 35 36  1  0  0  0
 36 37  2  0  0  0
 36 38  2  0  0  0
 36 39  1  0  0  0
 39 40  1  0  0  0
 39 43  1  0  0  0
 40 41  1  0  0  0
 41 42  1  0  0  0
 42 43  1  0  0  0
 44 45  1  0  0  0
 44 46  1  0  0  0
 44 47  1  0  0  0
 47 48  1  0  0  0
 47 50  1  0  0  0
 48 49  1  0  0  0
 49 50  1  0  0  0
 51 52  1  0  0  0
 51 53  1  0  0  0
 51 57  1  0  0  0
 53 54  1  0  0  0
 54 55  1  0  0  0
 55 56  1  0  0  0
 56 57  1  0  0  0
 58 59  1  0  0  0
 58 60  1  0  0  0
 58 61  1  0  0  0
M  END
> <s_m_entry_id>
6845

> <s_m_entry_name>
NS3-4A.386

> <CHEMBLID>
CHEMBL3645701

> <s_m_Source_Path>
/home/liwei/Desktop/Machine/HCV/Active

> <s_m_Source_File>
NS3-4A.sdf

> <i_m_Source_File_Index>
386

$$$$
CHEMBL3645702
                    3D
 Structure written by MMmdl.
 61 68  0  0  1  0            999 V2000
   -1.3513   -4.5074    0.0000 C   0  0  0  0  0  0
   -2.2330   -3.2939    0.0000 C   0  0  0  0  0  0
   -3.7248   -3.4507    0.0000 N   0  0  0  0  0  0
   -4.7285   -2.3359    0.0000 C   0  0  0  0  0  0
   -6.0988   -2.9461    0.0000 C   0  0  0  0  0  0
   -5.9420   -4.4378    0.0000 C   0  0  0  0  0  0
   -4.4748   -4.7497    0.0000 C   0  0  1  0  0  0
   -3.8647   -6.1200    0.0000 C   0  0  0  0  0  0
   -4.7464   -7.3335    0.0000 O   0  0  0  0  0  0
   -2.3729   -6.2768    0.0000 N   0  0  0  0  0  0
   -1.7628   -7.6471    0.0000 C   0  0  1  0  0  0
   -2.6445   -8.8607    0.0000 C   0  0  0  0  0  0
   -4.1363   -8.7039    0.0000 C   0  0  0  0  0  0
   -5.0179   -9.9174    0.0000 C   0  0  0  0  0  0
   -4.4078  -11.2877    0.0000 O   0  0  0  0  0  0
   -2.9161  -11.4445    0.0000 C   0  0  0  0  0  0
   -2.0344  -10.2310    0.0000 C   0  0  0  0  0  0
   -0.2710   -7.8039    0.0000 C   0  0  0  0  0  0
    0.3391   -9.1742    0.0000 O   0  0  0  0  0  0
    0.6107   -6.5904    0.0000 N   0  0  0  0  0  0
    2.1024   -6.7472    0.0000 C   0  0  2  0  0  0
    2.9841   -5.5337    0.0000 C   0  0  0  0  0  0
    4.4759   -5.6905    0.0000 O   0  0  0  0  0  0
    2.3740   -4.1633    0.0000 N   0  0  0  0  0  0
    0.9068   -3.8515    0.0000 C   0  0  0  0  0  0
    0.7500   -2.3597    0.0000 C   0  0  1  0  0  0
    2.1203   -1.7496    0.0000 C   0  0  0  0  0  0
    3.1240   -2.8643    0.0000 C   0  0  1  0  0  0
    4.6158   -2.7075    0.0000 C   0  0  0  0  0  0
    5.2259   -1.3372    0.0000 O   0  0  0  0  0  0
    5.4975   -3.9210    0.0000 N   0  0  0  0  0  0
    6.9893   -3.7643    0.0000 C   0  0  1  0  0  0
    8.3374   -3.1067    0.0000 C   0  0  0  0  0  0
    7.0939   -2.2679    0.0000 C   0  0  1  0  0  0
    6.4363   -0.9197    0.0000 C   0  0  0  0  0  0
    7.2751    0.3238    0.0000 C   0  0  0  0  0  0
    7.4027   -5.2061    0.0000 C   0  0  0  0  0  0
    6.3607   -6.2852    0.0000 O   0  0  0  0  0  0
    8.8582   -5.5690    0.0000 N   0  0  0  0  0  0
    9.2716   -7.0109    0.0000 S   0  0  0  0  0  0
   10.7135   -6.5975    0.0000 O   0  0  0  0  0  0
    7.8297   -7.4244    0.0000 O   0  0  0  0  0  0
    9.6851   -8.4528    0.0000 N   0  0  0  0  0  0
    8.7616   -9.6348    0.0000 C   0  0  0  0  0  0
    9.6004  -10.8784    0.0000 C   0  0  0  0  0  0
   11.0423  -10.4649    0.0000 C   0  0  0  0  0  0
   11.0946   -8.9658    0.0000 C   0  0  0  0  0  0
   -0.7500   -2.3597    0.0000 C   0  0  0  0  0  0
   -1.0105   -3.8369    0.0000 C   0  0  0  0  0  0
   -2.1595   -1.8467    0.0000 C   0  0  0  0  0  0
   -0.0000   -1.0607    0.0000 C   0  0  0  0  0  0
    1.0607    0.0000    0.0000 C   0  0  0  0  0  0
    0.0000    1.0607    0.0000 C   0  0  0  0  0  0
   -1.0607    0.0000    0.0000 C   0  0  0  0  0  0
    2.7125   -8.1175    0.0000 C   0  0  0  0  0  0
    3.9561   -7.2787    0.0000 C   0  0  0  0  0  0
    1.2571   -8.4804    0.0000 C   0  0  0  0  0  0
    0.8436   -9.9223    0.0000 C   0  0  0  0  0  0
    1.8856  -11.0013    0.0000 O   0  0  0  0  0  0
    3.3411  -10.6384    0.0000 C   0  0  0  0  0  0
    3.7545   -9.1965    0.0000 C   0  0  0  0  0  0
  1  2  1  0  0  0
  2  3  1  0  0  0
  3  4  1  0  0  0
  3  7  1  0  0  0
  4  5  1  0  0  0
  5  6  1  0  0  0
  6  7  1  0  0  0
  7  8  1  6  0  0
  8  9  2  0  0  0
  8 10  1  0  0  0
 10 11  1  0  0  0
 11 12  1  0  0  0
 11 18  1  6  0  0
 12 13  1  0  0  0
 12 17  1  0  0  0
 13 14  1  0  0  0
 14 15  1  0  0  0
 15 16  1  0  0  0
 16 17  1  0  0  0
 18 19  2  0  0  0
 18 20  1  0  0  0
 20 21  1  0  0  0
 21 22  1  0  0  0
 21 55  1  1  0  0
 22 23  2  0  0  0
 22 24  1  0  0  0
 24 25  1  0  0  0
 24 28  1  0  0  0
 25 26  1  0  0  0
 26 27  1  0  0  0
 26 48  1  0  0  0
 26 51  1  1  0  0
 27 28  1  0  0  0
 28 29  1  6  0  0
 29 30  2  0  0  0
 29 31  1  0  0  0
 31 32  1  0  0  0
 32 33  1  0  0  0
 32 37  1  0  0  0
 32 34  1  1  0  0
 33 34  1  0  0  0
 34 35  1  6  0  0
 35 36  2  0  0  0
 37 38  2  0  0  0
 37 39  1  0  0  0
 39 40  1  0  0  0
 40 41  2  0  0  0
 40 42  2  0  0  0
 40 43  1  0  0  0
 43 44  1  0  0  0
 43 47  1  0  0  0
 44 45  1  0  0  0
 45 46  1  0  0  0
 46 47  1  0  0  0
 48 49  1  0  0  0
 48 50  1  0  0  0
 48 51  1  0  0  0
 51 52  1  0  0  0
 51 54  1  0  0  0
 52 53  1  0  0  0
 53 54  1  0  0  0
 55 56  1  0  0  0
 55 57  1  0  0  0
 55 61  1  0  0  0
 57 58  1  0  0  0
 58 59  1  0  0  0
 59 60  1  0  0  0
 60 61  1  0  0  0
M  END
> <s_m_entry_id>
6846

> <s_m_entry_name>
NS3-4A.387

> <CHEMBLID>
CHEMBL3645702

> <s_m_Source_Path>
/home/liwei/Desktop/Machine/HCV/Active

> <s_m_Source_File>
NS3-4A.sdf

> <i_m_Source_File_Index>
387

$$$$
CHEMBL3645703
                    3D
 Structure written by MMmdl.
 56 60  0  0  1  0            999 V2000
   -3.5052  -12.3115    0.0000 C   0  0  0  0  0  0
   -2.2617  -11.4727    0.0000 C   0  0  0  0  0  0
   -0.9135  -12.1302    0.0000 N   0  0  0  0  0  0
   -0.8089  -13.6266    0.0000 C   0  0  0  0  0  0
   -2.0524  -14.4654    0.0000 C   0  0  0  0  0  0
    0.3301  -11.2914    0.0000 S   0  0  0  0  0  0
    1.1689  -12.5350    0.0000 O   0  0  0  0  0  0
   -0.5087  -10.0479    0.0000 O   0  0  0  0  0  0
    1.5736  -10.4526    0.0000 N   0  0  0  0  0  0
    1.4690   -8.9563    0.0000 C   0  0  0  0  0  0
    0.1208   -8.2987    0.0000 O   0  0  0  0  0  0
    2.7125   -8.1175    0.0000 C   0  0  2  0  0  0
    3.7545   -9.1965    0.0000 C   0  0  0  0  0  0
    4.1680   -7.7546    0.0000 C   0  0  1  0  0  0
    5.2470   -6.7126    0.0000 C   0  0  0  0  0  0
    6.6889   -7.1261    0.0000 C   0  0  0  0  0  0
    2.1024   -6.7472    0.0000 N   0  0  0  0  0  0
    2.9841   -5.5337    0.0000 C   0  0  0  0  0  0
    4.4759   -5.6905    0.0000 O   0  0  0  0  0  0
    2.3740   -4.1633    0.0000 C   0  0  2  0  0  0
    0.9068   -3.8515    0.0000 C   0  0  0  0  0  0
    0.7500   -2.3597    0.0000 C   0  0  2  0  0  0
    2.1203   -1.7496    0.0000 C   0  0  0  0  0  0
    3.1240   -2.8643    0.0000 N   0  0  0  0  0  0
    4.6158   -2.7075    0.0000 C   0  0  0  0  0  0
    5.4975   -3.9210    0.0000 O   0  0  0  0  0  0
    5.2259   -1.3372    0.0000 C   0  0  1  0  0  0
    6.7177   -1.1804    0.0000 N   0  0  0  0  0  0
    7.3278    0.1899    0.0000 C   0  0  0  0  0  0
    6.4461    1.4034    0.0000 O   0  0  0  0  0  0
    8.8196    0.3467    0.0000 C   0  0  1  0  0  0
    9.7013   -0.8668    0.0000 N   0  0  0  0  0  0
   11.1930   -0.7100    0.0000 C   0  0  0  0  0  0
   11.8031    0.6603    0.0000 O   0  0  0  0  0  0
   12.0747   -1.9236    0.0000 C   0  0  2  0  0  0
   13.5665   -1.7668    0.0000 C   0  0  0  0  0  0
   14.4482   -2.9803    0.0000 C   0  0  0  0  0  0
   13.8381   -4.3506    0.0000 C   0  0  0  0  0  0
   12.3463   -4.5074    0.0000 C   0  0  0  0  0  0
   11.4646   -3.2939    0.0000 N   0  0  0  0  0  0
    9.9728   -3.4507    0.0000 C   0  0  0  0  0  0
    9.0911   -2.2371    0.0000 C   0  0  0  0  0  0
    9.3627   -4.8210    0.0000 C   0  0  0  0  0  0
    9.4297    1.7170    0.0000 C   0  0  0  0  0  0
   10.9215    1.8738    0.0000 C   0  0  0  0  0  0
    8.5480    2.9305    0.0000 C   0  0  0  0  0  0
    4.3442   -0.1237    0.0000 C   0  0  0  0  0  0
    4.9543    1.2466    0.0000 C   0  0  0  0  0  0
    2.8524   -0.2805    0.0000 C   0  0  0  0  0  0
   -0.7500   -2.3597    0.0000 C   0  0  0  0  0  0
   -1.0105   -3.8369    0.0000 C   0  0  0  0  0  0
   -2.1595   -1.8467    0.0000 C   0  0  0  0  0  0
   -0.0000   -1.0607    0.0000 C   0  0  0  0  0  0
    1.0607    0.0000    0.0000 C   0  0  0  0  0  0
    0.0000    1.0607    0.0000 C   0  0  0  0  0  0
   -1.0607    0.0000    0.0000 C   0  0  0  0  0  0
  1  2  1  0  0  0
  2  3  1  0  0  0
  3  4  1  0  0  0
  3  6  1  0  0  0
  4  5  1  0  0  0
  6  7  2  0  0  0
  6  8  2  0  0  0
  6  9  1  0  0  0
  9 10  1  0  0  0
 10 11  2  0  0  0
 10 12  1  0  0  0
 12 13  1  0  0  0
 12 17  1  0  0  0
 12 14  1  6  0  0
 13 14  1  0  0  0
 14 15  1  6  0  0
 15 16  2  0  0  0
 17 18  1  0  0  0
 18 19  2  0  0  0
 18 20  1  0  0  0
 20 21  1  0  0  0
 20 24  1  1  0  0
 21 22  1  0  0  0
 22 23  1  0  0  0
 22 50  1  0  0  0
 22 53  1  6  0  0
 23 24  1  0  0  0
 24 25  1  0  0  0
 25 26  2  0  0  0
 25 27  1  0  0  0
 27 28  1  0  0  0
 27 47  1  6  0  0
 28 29  1  0  0  0
 29 30  2  0  0  0
 29 31  1  0  0  0
 31 32  1  0  0  0
 31 44  1  6  0  0
 32 33  1  0  0  0
 33 34  2  0  0  0
 33 35  1  0  0  0
 35 36  1  0  0  0
 35 40  1  1  0  0
 36 37  1  0  0  0
 37 38  1  0  0  0
 38 39  1  0  0  0
 39 40  1  0  0  0
 40 41  1  0  0  0
 41 42  1  0  0  0
 41 43  1  0  0  0
 44 45  1  0  0  0
 44 46  1  0  0  0
 47 48  1  0  0  0
 47 49  1  0  0  0
 50 51  1  0  0  0
 50 52  1  0  0  0
 50 53  1  0  0  0
 53 54  1  0  0  0
 53 56  1  0  0  0
 54 55  1  0  0  0
 55 56  1  0  0  0
M  END
> <s_m_entry_id>
6847

> <s_m_entry_name>
NS3-4A.388

> <CHEMBLID>
CHEMBL3645703

> <s_m_Source_Path>
/home/liwei/Desktop/Machine/HCV/Active

> <s_m_Source_File>
NS3-4A.sdf

> <i_m_Source_File_Index>
388

$$$$
CHEMBL3645704
                    3D
 Structure written by MMmdl.
 57 61  0  0  1  0            999 V2000
   -3.5052  -12.3115    0.0000 C   0  0  0  0  0  0
   -2.2617  -11.4727    0.0000 C   0  0  0  0  0  0
   -0.9135  -12.1302    0.0000 N   0  0  0  0  0  0
   -0.8089  -13.6266    0.0000 C   0  0  0  0  0  0
   -2.0524  -14.4654    0.0000 C   0  0  0  0  0  0
    0.3301  -11.2914    0.0000 S   0  0  0  0  0  0
    1.1689  -12.5350    0.0000 O   0  0  0  0  0  0
   -0.5087  -10.0479    0.0000 O   0  0  0  0  0  0
    1.5736  -10.4526    0.0000 N   0  0  0  0  0  0
    1.4690   -8.9563    0.0000 C   0  0  0  0  0  0
    0.1208   -8.2987    0.0000 O   0  0  0  0  0  0
    2.7125   -8.1175    0.0000 C   0  0  2  0  0  0
    3.7545   -9.1965    0.0000 C   0  0  0  0  0  0
    4.1680   -7.7546    0.0000 C   0  0  1  0  0  0
    5.2470   -6.7126    0.0000 C   0  0  0  0  0  0
    6.6889   -7.1261    0.0000 C   0  0  0  0  0  0
    2.1024   -6.7472    0.0000 N   0  0  0  0  0  0
    2.9841   -5.5337    0.0000 C   0  0  0  0  0  0
    4.4759   -5.6905    0.0000 O   0  0  0  0  0  0
    2.3740   -4.1633    0.0000 C   0  0  2  0  0  0
    0.9068   -3.8515    0.0000 C   0  0  0  0  0  0
    0.7500   -2.3597    0.0000 C   0  0  2  0  0  0
    2.1203   -1.7496    0.0000 C   0  0  0  0  0  0
    3.1240   -2.8643    0.0000 N   0  0  0  0  0  0
    4.6158   -2.7075    0.0000 C   0  0  0  0  0  0
    5.4975   -3.9210    0.0000 O   0  0  0  0  0  0
    5.2259   -1.3372    0.0000 C   0  0  1  0  0  0
    6.7177   -1.1804    0.0000 N   0  0  0  0  0  0
    7.3278    0.1899    0.0000 C   0  0  0  0  0  0
    6.4461    1.4034    0.0000 O   0  0  0  0  0  0
    8.8196    0.3467    0.0000 C   0  0  1  0  0  0
    9.7013   -0.8668    0.0000 N   0  0  0  0  0  0
   11.1930   -0.7100    0.0000 C   0  0  0  0  0  0
   11.8031    0.6603    0.0000 O   0  0  0  0  0  0
   12.0747   -1.9236    0.0000 C   0  0  2  0  0  0
   13.5665   -1.7668    0.0000 C   0  0  0  0  0  0
   14.4482   -2.9803    0.0000 C   0  0  0  0  0  0
   13.8381   -4.3506    0.0000 C   0  0  0  0  0  0
   12.3463   -4.5074    0.0000 C   0  0  0  0  0  0
   11.4646   -3.2939    0.0000 N   0  0  0  0  0  0
    9.9728   -3.4507    0.0000 C   0  0  0  0  0  0
    9.0911   -2.2371    0.0000 C   0  0  0  0  0  0
    9.3627   -4.8210    0.0000 C   0  0  0  0  0  0
    9.4297    1.7170    0.0000 C   0  0  0  0  0  0
   10.8000    1.1069    0.0000 C   0  0  0  0  0  0
    8.0594    2.3271    0.0000 C   0  0  0  0  0  0
   10.0398    3.0873    0.0000 C   0  0  0  0  0  0
    4.3442   -0.1237    0.0000 C   0  0  0  0  0  0
    4.9543    1.2466    0.0000 C   0  0  0  0  0  0
    2.8524   -0.2805    0.0000 C   0  0  0  0  0  0
   -0.7500   -2.3597    0.0000 C   0  0  0  0  0  0
   -1.0105   -3.8369    0.0000 C   0  0  0  0  0  0
   -2.1595   -1.8467    0.0000 C   0  0  0  0  0  0
   -0.0000   -1.0607    0.0000 C   0  0  0  0  0  0
    1.0607    0.0000    0.0000 C   0  0  0  0  0  0
    0.0000    1.0607    0.0000 C   0  0  0  0  0  0
   -1.0607    0.0000    0.0000 C   0  0  0  0  0  0
  1  2  1  0  0  0
  2  3  1  0  0  0
  3  4  1  0  0  0
  3  6  1  0  0  0
  4  5  1  0  0  0
  6  7  2  0  0  0
  6  8  2  0  0  0
  6  9  1  0  0  0
  9 10  1  0  0  0
 10 11  2  0  0  0
 10 12  1  0  0  0
 12 13  1  0  0  0
 12 17  1  0  0  0
 12 14  1  6  0  0
 13 14  1  0  0  0
 14 15  1  6  0  0
 15 16  2  0  0  0
 17 18  1  0  0  0
 18 19  2  0  0  0
 18 20  1  0  0  0
 20 21  1  0  0  0
 20 24  1  1  0  0
 21 22  1  0  0  0
 22 23  1  0  0  0
 22 51  1  0  0  0
 22 54  1  6  0  0
 23 24  1  0  0  0
 24 25  1  0  0  0
 25 26  2  0  0  0
 25 27  1  0  0  0
 27 28  1  0  0  0
 27 48  1  6  0  0
 28 29  1  0  0  0
 29 30  2  0  0  0
 29 31  1  0  0  0
 31 32  1  0  0  0
 31 44  1  6  0  0
 32 33  1  0  0  0
 33 34  2  0  0  0
 33 35  1  0  0  0
 35 36  1  0  0  0
 35 40  1  1  0  0
 36 37  1  0  0  0
 37 38  1  0  0  0
 38 39  1  0  0  0
 39 40  1  0  0  0
 40 41  1  0  0  0
 41 42  1  0  0  0
 41 43  1  0  0  0
 44 45  1  0  0  0
 44 46  1  0  0  0
 44 47  1  0  0  0
 48 49  1  0  0  0
 48 50  1  0  0  0
 51 52  1  0  0  0
 51 53  1  0  0  0
 51 54  1  0  0  0
 54 55  1  0  0  0
 54 57  1  0  0  0
 55 56  1  0  0  0
 56 57  1  0  0  0
M  END
> <s_m_entry_id>
6848

> <s_m_entry_name>
NS3-4A.389

> <CHEMBLID>
CHEMBL3645704

> <s_m_Source_Path>
/home/liwei/Desktop/Machine/HCV/Active

> <s_m_Source_File>
NS3-4A.sdf

> <i_m_Source_File_Index>
389

$$$$
CHEMBL3645705
                    3D
 Structure written by MMmdl.
 59 64  0  0  1  0            999 V2000
   -3.5052  -12.3115    0.0000 C   0  0  0  0  0  0
   -2.2617  -11.4727    0.0000 C   0  0  0  0  0  0
   -0.9135  -12.1302    0.0000 N   0  0  0  0  0  0
   -0.8089  -13.6266    0.0000 C   0  0  0  0  0  0
   -2.0524  -14.4654    0.0000 C   0  0  0  0  0  0
    0.3301  -11.2914    0.0000 S   0  0  0  0  0  0
    1.1689  -12.5350    0.0000 O   0  0  0  0  0  0
   -0.5087  -10.0479    0.0000 O   0  0  0  0  0  0
    1.5736  -10.4526    0.0000 N   0  0  0  0  0  0
    1.4690   -8.9563    0.0000 C   0  0  0  0  0  0
    0.1208   -8.2987    0.0000 O   0  0  0  0  0  0
    2.7125   -8.1175    0.0000 C   0  0  2  0  0  0
    3.7545   -9.1965    0.0000 C   0  0  0  0  0  0
    4.1680   -7.7546    0.0000 C   0  0  1  0  0  0
    5.2470   -6.7126    0.0000 C   0  0  0  0  0  0
    6.6889   -7.1261    0.0000 C   0  0  0  0  0  0
    2.1024   -6.7472    0.0000 N   0  0  0  0  0  0
    2.9841   -5.5337    0.0000 C   0  0  0  0  0  0
    4.4759   -5.6905    0.0000 O   0  0  0  0  0  0
    2.3740   -4.1633    0.0000 C   0  0  2  0  0  0
    0.9068   -3.8515    0.0000 C   0  0  0  0  0  0
    0.7500   -2.3597    0.0000 C   0  0  2  0  0  0
    2.1203   -1.7496    0.0000 C   0  0  0  0  0  0
    3.1240   -2.8643    0.0000 N   0  0  0  0  0  0
    4.6158   -2.7075    0.0000 C   0  0  0  0  0  0
    5.4975   -3.9210    0.0000 O   0  0  0  0  0  0
    5.2259   -1.3372    0.0000 C   0  0  1  0  0  0
    6.7177   -1.1804    0.0000 N   0  0  0  0  0  0
    7.3278    0.1899    0.0000 C   0  0  0  0  0  0
    6.4461    1.4034    0.0000 O   0  0  0  0  0  0
    8.8196    0.3467    0.0000 C   0  0  1  0  0  0
    9.7013   -0.8668    0.0000 N   0  0  0  0  0  0
   11.1930   -0.7100    0.0000 C   0  0  0  0  0  0
   11.8031    0.6603    0.0000 O   0  0  0  0  0  0
   12.0747   -1.9236    0.0000 C   0  0  2  0  0  0
   13.5665   -1.7668    0.0000 C   0  0  0  0  0  0
   14.4482   -2.9803    0.0000 C   0  0  0  0  0  0
   13.8381   -4.3506    0.0000 C   0  0  0  0  0  0
   12.3463   -4.5074    0.0000 C   0  0  0  0  0  0
   11.4646   -3.2939    0.0000 N   0  0  0  0  0  0
    9.9728   -3.4507    0.0000 C   0  0  0  0  0  0
    9.0911   -2.2371    0.0000 C   0  0  0  0  0  0
    9.3627   -4.8210    0.0000 C   0  0  0  0  0  0
    9.4297    1.7170    0.0000 C   0  0  0  0  0  0
    8.5480    2.9305    0.0000 C   0  0  0  0  0  0
    9.1581    4.3009    0.0000 C   0  0  0  0  0  0
   10.6499    4.4577    0.0000 C   0  0  0  0  0  0
   11.5316    3.2441    0.0000 C   0  0  0  0  0  0
   10.9215    1.8738    0.0000 C   0  0  0  0  0  0
    4.3442   -0.1237    0.0000 C   0  0  0  0  0  0
    4.9543    1.2466    0.0000 C   0  0  0  0  0  0
    2.8524   -0.2805    0.0000 C   0  0  0  0  0  0
   -0.7500   -2.3597    0.0000 C   0  0  0  0  0  0
   -1.0105   -3.8369    0.0000 C   0  0  0  0  0  0
   -2.1595   -1.8467    0.0000 C   0  0  0  0  0  0
   -0.0000   -1.0607    0.0000 C   0  0  0  0  0  0
    1.0607    0.0000    0.0000 C   0  0  0  0  0  0
    0.0000    1.0607    0.0000 C   0  0  0  0  0  0
   -1.0607    0.0000    0.0000 C   0  0  0  0  0  0
  1  2  1  0  0  0
  2  3  1  0  0  0
  3  4  1  0  0  0
  3  6  1  0  0  0
  4  5  1  0  0  0
  6  7  2  0  0  0
  6  8  2  0  0  0
  6  9  1  0  0  0
  9 10  1  0  0  0
 10 11  2  0  0  0
 10 12  1  0  0  0
 12 13  1  0  0  0
 12 17  1  0  0  0
 12 14  1  6  0  0
 13 14  1  0  0  0
 14 15  1  6  0  0
 15 16  2  0  0  0
 17 18  1  0  0  0
 18 19  2  0  0  0
 18 20  1  0  0  0
 20 21  1  0  0  0
 20 24  1  1  0  0
 21 22  1  0  0  0
 22 23  1  0  0  0
 22 53  1  0  0  0
 22 56  1  6  0  0
 23 24  1  0  0  0
 24 25  1  0  0  0
 25 26  2  0  0  0
 25 27  1  0  0  0
 27 28  1  0  0  0
 27 50  1  6  0  0
 28 29  1  0  0  0
 29 30  2  0  0  0
 29 31  1  0  0  0
 31 32  1  0  0  0
 31 44  1  6  0  0
 32 33  1  0  0  0
 33 34  2  0  0  0
 33 35  1  0  0  0
 35 36  1  0  0  0
 35 40  1  1  0  0
 36 37  1  0  0  0
 37 38  1  0  0  0
 38 39  1  0  0  0
 39 40  1  0  0  0
 40 41  1  0  0  0
 41 42  1  0  0  0
 41 43  1  0  0  0
 44 45  1  0  0  0
 44 49  1  0  0  0
 45 46  1  0  0  0
 46 47  1  0  0  0
 47 48  1  0  0  0
 48 49  1  0  0  0
 50 51  1  0  0  0
 50 52  1  0  0  0
 53 54  1  0  0  0
 53 55  1  0  0  0
 53 56  1  0  0  0
 56 57  1  0  0  0
 56 59  1  0  0  0
 57 58  1  0  0  0
 58 59  1  0  0  0
M  END
> <s_m_entry_id>
6849

> <s_m_entry_name>
NS3-4A.390

> <CHEMBLID>
CHEMBL3645705

> <s_m_Source_Path>
/home/liwei/Desktop/Machine/HCV/Active

> <s_m_Source_File>
NS3-4A.sdf

> <i_m_Source_File_Index>
390

$$$$
CHEMBL3645706
                    3D
 Structure written by MMmdl.
 61 66  0  0  1  0            999 V2000
   -3.5052  -12.3115    0.0000 C   0  0  0  0  0  0
   -2.2617  -11.4727    0.0000 C   0  0  0  0  0  0
   -0.9135  -12.1302    0.0000 N   0  0  0  0  0  0
   -0.8089  -13.6266    0.0000 C   0  0  0  0  0  0
   -2.0524  -14.4654    0.0000 C   0  0  0  0  0  0
    0.3301  -11.2914    0.0000 S   0  0  0  0  0  0
    1.1689  -12.5350    0.0000 O   0  0  0  0  0  0
   -0.5087  -10.0479    0.0000 O   0  0  0  0  0  0
    1.5736  -10.4526    0.0000 N   0  0  0  0  0  0
    1.4690   -8.9563    0.0000 C   0  0  0  0  0  0
    0.1208   -8.2987    0.0000 O   0  0  0  0  0  0
    2.7125   -8.1175    0.0000 C   0  0  2  0  0  0
    3.7545   -9.1965    0.0000 C   0  0  0  0  0  0
    4.1680   -7.7546    0.0000 C   0  0  1  0  0  0
    5.2470   -6.7126    0.0000 C   0  0  0  0  0  0
    6.6889   -7.1261    0.0000 C   0  0  0  0  0  0
    2.1024   -6.7472    0.0000 N   0  0  0  0  0  0
    2.9841   -5.5337    0.0000 C   0  0  0  0  0  0
    4.4759   -5.6905    0.0000 O   0  0  0  0  0  0
    2.3740   -4.1633    0.0000 C   0  0  2  0  0  0
    0.9068   -3.8515    0.0000 C   0  0  0  0  0  0
    0.7500   -2.3597    0.0000 C   0  0  2  0  0  0
    2.1203   -1.7496    0.0000 C   0  0  0  0  0  0
    3.1240   -2.8643    0.0000 N   0  0  0  0  0  0
    4.6158   -2.7075    0.0000 C   0  0  0  0  0  0
    5.4975   -3.9210    0.0000 O   0  0  0  0  0  0
    5.2259   -1.3372    0.0000 C   0  0  1  0  0  0
    6.7177   -1.1804    0.0000 N   0  0  0  0  0  0
    7.3278    0.1899    0.0000 C   0  0  0  0  0  0
    6.4461    1.4034    0.0000 O   0  0  0  0  0  0
    8.8196    0.3467    0.0000 C   0  0  1  0  0  0
    9.7013   -0.8668    0.0000 N   0  0  0  0  0  0
   11.1930   -0.7100    0.0000 C   0  0  0  0  0  0
   11.8031    0.6603    0.0000 O   0  0  0  0  0  0
   12.0747   -1.9236    0.0000 C   0  0  2  0  0  0
   13.5665   -1.7668    0.0000 C   0  0  0  0  0  0
   14.4482   -2.9803    0.0000 C   0  0  0  0  0  0
   13.8381   -4.3506    0.0000 C   0  0  0  0  0  0
   12.3463   -4.5074    0.0000 C   0  0  0  0  0  0
   11.4646   -3.2939    0.0000 N   0  0  0  0  0  0
    9.9728   -3.4507    0.0000 C   0  0  0  0  0  0
    9.0911   -2.2371    0.0000 C   0  0  0  0  0  0
    9.3627   -4.8210    0.0000 C   0  0  0  0  0  0
    9.4297    1.7170    0.0000 C   0  0  0  0  0  0
    7.9742    2.0799    0.0000 C   0  0  0  0  0  0
   10.6732    0.8782    0.0000 C   0  0  0  0  0  0
   12.0214    1.5358    0.0000 C   0  0  0  0  0  0
   12.1261    3.0321    0.0000 C   0  0  0  0  0  0
   10.8825    3.8709    0.0000 C   0  0  0  0  0  0
    9.5343    3.2134    0.0000 C   0  0  0  0  0  0
    4.3442   -0.1237    0.0000 C   0  0  0  0  0  0
    5.5577    0.7580    0.0000 C   0  0  0  0  0  0
    3.1307   -1.0054    0.0000 C   0  0  0  0  0  0
    3.4625    1.0899    0.0000 C   0  0  0  0  0  0
   -0.7500   -2.3597    0.0000 C   0  0  0  0  0  0
   -1.0105   -3.8369    0.0000 C   0  0  0  0  0  0
   -2.1595   -1.8467    0.0000 C   0  0  0  0  0  0
   -0.0000   -1.0607    0.0000 C   0  0  0  0  0  0
    1.0607    0.0000    0.0000 C   0  0  0  0  0  0
    0.0000    1.0607    0.0000 C   0  0  0  0  0  0
   -1.0607    0.0000    0.0000 C   0  0  0  0  0  0
  1  2  1  0  0  0
  2  3  1  0  0  0
  3  4  1  0  0  0
  3  6  1  0  0  0
  4  5  1  0  0  0
  6  7  2  0  0  0
  6  8  2  0  0  0
  6  9  1  0  0  0
  9 10  1  0  0  0
 10 11  2  0  0  0
 10 12  1  0  0  0
 12 13  1  0  0  0
 12 17  1  0  0  0
 12 14  1  6  0  0
 13 14  1  0  0  0
 14 15  1  6  0  0
 15 16  2  0  0  0
 17 18  1  0  0  0
 18 19  2  0  0  0
 18 20  1  0  0  0
 20 21  1  0  0  0
 20 24  1  1  0  0
 21 22  1  0  0  0
 22 23  1  0  0  0
 22 55  1  0  0  0
 22 58  1  6  0  0
 23 24  1  0  0  0
 24 25  1  0  0  0
 25 26  2  0  0  0
 25 27  1  0  0  0
 27 28  1  0  0  0
 27 51  1  6  0  0
 28 29  1  0  0  0
 29 30  2  0  0  0
 29 31  1  0  0  0
 31 32  1  0  0  0
 31 44  1  6  0  0
 32 33  1  0  0  0
 33 34  2  0  0  0
 33 35  1  0  0  0
 35 36  1  0  0  0
 35 40  1  1  0  0
 36 37  1  0  0  0
 37 38  1  0  0  0
 38 39  1  0  0  0
 39 40  1  0  0  0
 40 41  1  0  0  0
 41 42  1  0  0  0
 41 43  1  0  0  0
 44 45  1  0  0  0
 44 46  1  0  0  0
 44 50  1  0  0  0
 46 47  1  0  0  0
 47 48  1  0  0  0
 48 49  1  0  0  0
 49 50  1  0  0  0
 51 52  1  0  0  0
 51 53  1  0  0  0
 51 54  1  0  0  0
 55 56  1  0  0  0
 55 57  1  0  0  0
 55 58  1  0  0  0
 58 59  1  0  0  0
 58 61  1  0  0  0
 59 60  1  0  0  0
 60 61  1  0  0  0
M  END
> <s_m_entry_id>
6850

> <s_m_entry_name>
NS3-4A.391

> <CHEMBLID>
CHEMBL3645706

> <s_m_Source_Path>
/home/liwei/Desktop/Machine/HCV/Active

> <s_m_Source_File>
NS3-4A.sdf

> <i_m_Source_File_Index>
391

$$$$
CHEMBL3645707
                    3D
 Structure written by MMmdl.
 59 64  0  0  1  0            999 V2000
   -3.5052  -12.3115    0.0000 C   0  0  0  0  0  0
   -2.2617  -11.4727    0.0000 C   0  0  0  0  0  0
   -0.9135  -12.1302    0.0000 N   0  0  0  0  0  0
   -0.8089  -13.6266    0.0000 C   0  0  0  0  0  0
   -2.0524  -14.4654    0.0000 C   0  0  0  0  0  0
    0.3301  -11.2914    0.0000 S   0  0  0  0  0  0
    1.1689  -12.5350    0.0000 O   0  0  0  0  0  0
   -0.5087  -10.0479    0.0000 O   0  0  0  0  0  0
    1.5736  -10.4526    0.0000 N   0  0  0  0  0  0
    1.4690   -8.9563    0.0000 C   0  0  0  0  0  0
    0.1208   -8.2987    0.0000 O   0  0  0  0  0  0
    2.7125   -8.1175    0.0000 C   0  0  2  0  0  0
    3.7545   -9.1965    0.0000 C   0  0  0  0  0  0
    4.1680   -7.7546    0.0000 C   0  0  1  0  0  0
    5.2470   -6.7126    0.0000 C   0  0  0  0  0  0
    6.6889   -7.1261    0.0000 C   0  0  0  0  0  0
    2.1024   -6.7472    0.0000 N   0  0  0  0  0  0
    2.9841   -5.5337    0.0000 C   0  0  0  0  0  0
    4.4759   -5.6905    0.0000 O   0  0  0  0  0  0
    2.3740   -4.1633    0.0000 C   0  0  2  0  0  0
    0.9068   -3.8515    0.0000 C   0  0  0  0  0  0
    0.7500   -2.3597    0.0000 C   0  0  2  0  0  0
    2.1203   -1.7496    0.0000 C   0  0  0  0  0  0
    3.1240   -2.8643    0.0000 N   0  0  0  0  0  0
    4.6158   -2.7075    0.0000 C   0  0  0  0  0  0
    5.4975   -3.9210    0.0000 O   0  0  0  0  0  0
    5.2259   -1.3372    0.0000 C   0  0  1  0  0  0
    4.3442   -0.1237    0.0000 N   0  0  0  0  0  0
    4.9543    1.2466    0.0000 C   0  0  0  0  0  0
    6.4461    1.4034    0.0000 O   0  0  0  0  0  0
    4.0727    2.4602    0.0000 C   0  0  1  0  0  0
    2.5809    2.3034    0.0000 N   0  0  0  0  0  0
    1.6992    3.5169    0.0000 C   0  0  0  0  0  0
    2.3093    4.8872    0.0000 O   0  0  0  0  0  0
    0.2074    3.3601    0.0000 C   0  0  2  0  0  0
   -0.5426    2.0611    0.0000 C   0  0  0  0  0  0
   -2.0098    2.3729    0.0000 C   0  0  0  0  0  0
   -2.1666    3.8647    0.0000 C   0  0  0  0  0  0
   -0.7963    4.4748    0.0000 N   0  0  0  0  0  0
   -0.4844    5.9420    0.0000 C   0  0  0  0  0  0
   -1.5991    6.9457    0.0000 C   0  0  0  0  0  0
    4.6828    3.8305    0.0000 C   0  0  0  0  0  0
    5.9263    2.9917    0.0000 C   0  0  0  0  0  0
    3.2273    4.1934    0.0000 C   0  0  0  0  0  0
    2.8139    5.6353    0.0000 C   0  0  0  0  0  0
    3.8558    6.7143    0.0000 C   0  0  0  0  0  0
    5.3113    6.3514    0.0000 C   0  0  0  0  0  0
    5.7247    4.9095    0.0000 C   0  0  0  0  0  0
    6.7177   -1.1804    0.0000 C   0  0  0  0  0  0
    6.5609    0.3114    0.0000 C   0  0  0  0  0  0
    6.8745   -2.6722    0.0000 C   0  0  0  0  0  0
    8.2095   -1.0236    0.0000 C   0  0  0  0  0  0
   -0.7500   -2.3597    0.0000 C   0  0  0  0  0  0
   -1.0105   -3.8369    0.0000 C   0  0  0  0  0  0
   -2.1595   -1.8467    0.0000 C   0  0  0  0  0  0
   -0.0000   -1.0607    0.0000 C   0  0  0  0  0  0
    1.0607    0.0000    0.0000 C   0  0  0  0  0  0
    0.0000    1.0607    0.0000 C   0  0  0  0  0  0
   -1.0607    0.0000    0.0000 C   0  0  0  0  0  0
  1  2  1  0  0  0
  2  3  1  0  0  0
  3  4  1  0  0  0
  3  6  1  0  0  0
  4  5  1  0  0  0
  6  7  2  0  0  0
  6  8  2  0  0  0
  6  9  1  0  0  0
  9 10  1  0  0  0
 10 11  2  0  0  0
 10 12  1  0  0  0
 12 13  1  0  0  0
 12 17  1  0  0  0
 12 14  1  6  0  0
 13 14  1  0  0  0
 14 15  1  6  0  0
 15 16  2  0  0  0
 17 18  1  0  0  0
 18 19  2  0  0  0
 18 20  1  0  0  0
 20 21  1  0  0  0
 20 24  1  1  0  0
 21 22  1  0  0  0
 22 23  1  0  0  0
 22 53  1  0  0  0
 22 56  1  6  0  0
 23 24  1  0  0  0
 24 25  1  0  0  0
 25 26  2  0  0  0
 25 27  1  0  0  0
 27 28  1  0  0  0
 27 49  1  6  0  0
 28 29  1  0  0  0
 29 30  2  0  0  0
 29 31  1  0  0  0
 31 32  1  0  0  0
 31 42  1  6  0  0
 32 33  1  0  0  0
 33 34  2  0  0  0
 33 35  1  0  0  0
 35 36  1  0  0  0
 35 39  1  1  0  0
 36 37  1  0  0  0
 37 38  1  0  0  0
 38 39  1  0  0  0
 39 40  1  0  0  0
 40 41  1  0  0  0
 42 43  1  0  0  0
 42 44  1  0  0  0
 42 48  1  0  0  0
 44 45  1  0  0  0
 45 46  1  0  0  0
 46 47  1  0  0  0
 47 48  1  0  0  0
 49 50  1  0  0  0
 49 51  1  0  0  0
 49 52  1  0  0  0
 53 54  1  0  0  0
 53 55  1  0  0  0
 53 56  1  0  0  0
 56 57  1  0  0  0
 56 59  1  0  0  0
 57 58  1  0  0  0
 58 59  1  0  0  0
M  END
> <s_m_entry_id>
6851

> <s_m_entry_name>
NS3-4A.392

> <CHEMBLID>
CHEMBL3645707

> <s_m_Source_Path>
/home/liwei/Desktop/Machine/HCV/Active

> <s_m_Source_File>
NS3-4A.sdf

> <i_m_Source_File_Index>
392

$$$$
CHEMBL3645708
                    3D
 Structure written by MMmdl.
 61 67  0  0  1  0            999 V2000
    7.1879   -8.5879    0.0000 C   0  0  0  0  0  0
    6.3062   -9.8014    0.0000 C   0  0  0  0  0  0
    4.8144   -9.6446    0.0000 C   0  0  0  0  0  0
    6.9163  -11.1717    0.0000 N   0  0  0  0  0  0
    8.4081  -11.3285    0.0000 C   0  0  0  0  0  0
    9.0182  -12.6988    0.0000 C   0  0  0  0  0  0
    8.1365  -13.9124    0.0000 C   0  0  0  0  0  0
    6.6447  -13.7556    0.0000 C   0  0  0  0  0  0
    6.0346  -12.3853    0.0000 C   0  0  1  0  0  0
    4.5429  -12.2285    0.0000 C   0  0  0  0  0  0
    3.6612  -13.4420    0.0000 O   0  0  0  0  0  0
    3.9328  -10.8581    0.0000 N   0  0  0  0  0  0
    2.4410  -10.7014    0.0000 C   0  0  2  0  0  0
    1.8309   -9.3310    0.0000 C   0  0  0  0  0  0
    0.3391   -9.1742    0.0000 O   0  0  0  0  0  0
    2.7125   -8.1175    0.0000 N   0  0  0  0  0  0
    2.1024   -6.7472    0.0000 C   0  0  2  0  0  0
    2.9841   -5.5337    0.0000 C   0  0  0  0  0  0
    4.4759   -5.6905    0.0000 O   0  0  0  0  0  0
    2.3740   -4.1633    0.0000 N   0  0  0  0  0  0
    0.9068   -3.8515    0.0000 C   0  0  0  0  0  0
    0.7500   -2.3597    0.0000 C   0  0  1  0  0  0
    2.1203   -1.7496    0.0000 C   0  0  0  0  0  0
    3.1240   -2.8643    0.0000 C   0  0  1  0  0  0
    4.6158   -2.7075    0.0000 C   0  0  0  0  0  0
    5.2259   -1.3372    0.0000 O   0  0  0  0  0  0
    5.4975   -3.9210    0.0000 N   0  0  0  0  0  0
    6.9893   -3.7643    0.0000 C   0  0  1  0  0  0
    8.3374   -3.1067    0.0000 C   0  0  0  0  0  0
    7.0939   -2.2679    0.0000 C   0  0  1  0  0  0
    6.4363   -0.9197    0.0000 C   0  0  0  0  0  0
    7.2751    0.3238    0.0000 C   0  0  0  0  0  0
    7.4027   -5.2061    0.0000 C   0  0  0  0  0  0
    6.3607   -6.2852    0.0000 O   0  0  0  0  0  0
    8.8582   -5.5690    0.0000 N   0  0  0  0  0  0
    9.2716   -7.0109    0.0000 S   0  0  0  0  0  0
   10.7135   -6.5975    0.0000 O   0  0  0  0  0  0
    7.8297   -7.4244    0.0000 O   0  0  0  0  0  0
    9.6851   -8.4528    0.0000 N   0  0  0  0  0  0
    8.7616   -9.6348    0.0000 C   0  0  0  0  0  0
    9.6004  -10.8784    0.0000 C   0  0  0  0  0  0
   11.0423  -10.4649    0.0000 C   0  0  0  0  0  0
   11.0946   -8.9658    0.0000 C   0  0  0  0  0  0
   -0.7500   -2.3597    0.0000 C   0  0  0  0  0  0
   -1.0105   -3.8369    0.0000 C   0  0  0  0  0  0
   -2.1595   -1.8467    0.0000 C   0  0  0  0  0  0
   -0.0000   -1.0607    0.0000 C   0  0  0  0  0  0
    1.0607    0.0000    0.0000 C   0  0  0  0  0  0
    0.0000    1.0607    0.0000 C   0  0  0  0  0  0
   -1.0607    0.0000    0.0000 C   0  0  0  0  0  0
    0.6107   -6.5904    0.0000 C   0  0  0  0  0  0
    0.4539   -8.0822    0.0000 C   0  0  0  0  0  0
    0.7675   -5.0986    0.0000 C   0  0  0  0  0  0
   -0.8811   -6.4336    0.0000 C   0  0  0  0  0  0
    1.5593  -11.9149    0.0000 C   0  0  0  0  0  0
    0.5173  -10.8359    0.0000 C   0  0  0  0  0  0
    2.9075  -12.5724    0.0000 C   0  0  0  0  0  0
    3.0121  -14.0688    0.0000 C   0  0  0  0  0  0
    1.7686  -14.9076    0.0000 C   0  0  0  0  0  0
    0.4204  -14.2500    0.0000 C   0  0  0  0  0  0
    0.3157  -12.7537    0.0000 C   0  0  0  0  0  0
  1  2  1  0  0  0
  2  3  1  0  0  0
  2  4  1  0  0  0
  4  5  1  0  0  0
  4  9  1  0  0  0
  5  6  1  0  0  0
  6  7  1  0  0  0
  7  8  1  0  0  0
  8  9  1  0  0  0
  9 10  1  6  0  0
 10 11  2  0  0  0
 10 12  1  0  0  0
 12 13  1  0  0  0
 13 14  1  0  0  0
 13 55  1  1  0  0
 14 15  2  0  0  0
 14 16  1  0  0  0
 16 17  1  0  0  0
 17 18  1  0  0  0
 17 51  1  1  0  0
 18 19  2  0  0  0
 18 20  1  0  0  0
 20 21  1  0  0  0
 20 24  1  0  0  0
 21 22  1  0  0  0
 22 23  1  0  0  0
 22 44  1  0  0  0
 22 47  1  1  0  0
 23 24  1  0  0  0
 24 25  1  6  0  0
 25 26  2  0  0  0
 25 27  1  0  0  0
 27 28  1  0  0  0
 28 29  1  0  0  0
 28 33  1  0  0  0
 28 30  1  1  0  0
 29 30  1  0  0  0
 30 31  1  6  0  0
 31 32  2  0  0  0
 33 34  2  0  0  0
 33 35  1  0  0  0
 35 36  1  0  0  0
 36 37  2  0  0  0
 36 38  2  0  0  0
 36 39  1  0  0  0
 39 40  1  0  0  0
 39 43  1  0  0  0
 40 41  1  0  0  0
 41 42  1  0  0  0
 42 43  1  0  0  0
 44 45  1  0  0  0
 44 46  1  0  0  0
 44 47  1  0  0  0
 47 48  1  0  0  0
 47 50  1  0  0  0
 48 49  1  0  0  0
 49 50  1  0  0  0
 51 52  1  0  0  0
 51 53  1  0  0  0
 51 54  1  0  0  0
 55 56  1  0  0  0
 55 57  1  0  0  0
 55 61  1  0  0  0
 57 58  1  0  0  0
 58 59  1  0  0  0
 59 60  1  0  0  0
 60 61  1  0  0  0
M  END
> <s_m_entry_id>
6852

> <s_m_entry_name>
NS3-4A.393

> <CHEMBLID>
CHEMBL3645708

> <s_m_Source_Path>
/home/liwei/Desktop/Machine/HCV/Active

> <s_m_Source_File>
NS3-4A.sdf

> <i_m_Source_File_Index>
393

$$$$
CHEMBL3645709
                    3D
 Structure written by MMmdl.
 59 65  0  0  1  0            999 V2000
    5.5715   -6.7559    0.0000 C   0  0  0  0  0  0
    6.9980   -7.2195    0.0000 C   0  0  0  0  0  0
    7.3099   -8.6867    0.0000 N   0  0  0  0  0  0
    8.6802   -9.2968    0.0000 C   0  0  0  0  0  0
    8.5234  -10.7886    0.0000 C   0  0  0  0  0  0
    7.0562  -11.1005    0.0000 C   0  0  0  0  0  0
    6.3062   -9.8014    0.0000 C   0  0  1  0  0  0
    4.8144   -9.6446    0.0000 C   0  0  0  0  0  0
    4.2043   -8.2743    0.0000 O   0  0  0  0  0  0
    3.9328  -10.8581    0.0000 N   0  0  0  0  0  0
    2.4410  -10.7014    0.0000 C   0  0  2  0  0  0
    1.8309   -9.3310    0.0000 C   0  0  0  0  0  0
    0.3391   -9.1742    0.0000 O   0  0  0  0  0  0
    2.7125   -8.1175    0.0000 N   0  0  0  0  0  0
    2.1024   -6.7472    0.0000 C   0  0  2  0  0  0
    2.9841   -5.5337    0.0000 C   0  0  0  0  0  0
    4.4759   -5.6905    0.0000 O   0  0  0  0  0  0
    2.3740   -4.1633    0.0000 N   0  0  0  0  0  0
    0.9068   -3.8515    0.0000 C   0  0  0  0  0  0
    0.7500   -2.3597    0.0000 C   0  0  1  0  0  0
    2.1203   -1.7496    0.0000 C   0  0  0  0  0  0
    3.1240   -2.8643    0.0000 C   0  0  1  0  0  0
    4.6158   -2.7075    0.0000 C   0  0  0  0  0  0
    5.2259   -1.3372    0.0000 O   0  0  0  0  0  0
    5.4975   -3.9210    0.0000 N   0  0  0  0  0  0
    6.9893   -3.7643    0.0000 C   0  0  1  0  0  0
    8.3374   -3.1067    0.0000 C   0  0  0  0  0  0
    7.0939   -2.2679    0.0000 C   0  0  1  0  0  0
    6.4363   -0.9197    0.0000 C   0  0  0  0  0  0
    7.2751    0.3238    0.0000 C   0  0  0  0  0  0
    7.4027   -5.2061    0.0000 C   0  0  0  0  0  0
    6.3607   -6.2852    0.0000 O   0  0  0  0  0  0
    8.8582   -5.5690    0.0000 N   0  0  0  0  0  0
    9.9001   -4.4900    0.0000 S   0  0  0  0  0  0
    9.1848   -3.3451    0.0000 O   0  0  0  0  0  0
   10.9792   -5.5320    0.0000 O   0  0  0  0  0  0
   10.9421   -3.4110    0.0000 N   0  0  0  0  0  0
   12.4275   -3.6198    0.0000 C   0  0  0  0  0  0
   13.0851   -2.2716    0.0000 C   0  0  0  0  0  0
   12.0061   -1.2296    0.0000 C   0  0  0  0  0  0
   10.6817   -1.9338    0.0000 C   0  0  0  0  0  0
   -0.7500   -2.3597    0.0000 C   0  0  0  0  0  0
   -1.0105   -3.8369    0.0000 C   0  0  0  0  0  0
   -2.1595   -1.8467    0.0000 C   0  0  0  0  0  0
   -0.0000   -1.0607    0.0000 C   0  0  0  0  0  0
    1.0607    0.0000    0.0000 C   0  0  0  0  0  0
    0.0000    1.0607    0.0000 C   0  0  0  0  0  0
   -1.0607    0.0000    0.0000 C   0  0  0  0  0  0
    0.6107   -6.5904    0.0000 C   0  0  0  0  0  0
    0.4539   -8.0822    0.0000 C   0  0  0  0  0  0
    0.7675   -5.0986    0.0000 C   0  0  0  0  0  0
   -0.8811   -6.4336    0.0000 C   0  0  0  0  0  0
    1.5593  -11.9149    0.0000 C   0  0  0  0  0  0
    0.5173  -10.8359    0.0000 C   0  0  0  0  0  0
    2.9075  -12.5724    0.0000 C   0  0  0  0  0  0
    3.0121  -14.0688    0.0000 C   0  0  0  0  0  0
    1.7686  -14.9076    0.0000 C   0  0  0  0  0  0
    0.4204  -14.2500    0.0000 C   0  0  0  0  0  0
    0.3157  -12.7537    0.0000 C   0  0  0  0  0  0
  1  2  1  0  0  0
  2  3  1  0  0  0
  3  4  1  0  0  0
  3  7  1  0  0  0
  4  5  1  0  0  0
  5  6  1  0  0  0
  6  7  1  0  0  0
  7  8  1  6  0  0
  8  9  2  0  0  0
  8 10  1  0  0  0
 10 11  1  0  0  0
 11 12  1  0  0  0
 11 53  1  1  0  0
 12 13  2  0  0  0
 12 14  1  0  0  0
 14 15  1  0  0  0
 15 16  1  0  0  0
 15 49  1  1  0  0
 16 17  2  0  0  0
 16 18  1  0  0  0
 18 19  1  0  0  0
 18 22  1  0  0  0
 19 20  1  0  0  0
 20 21  1  0  0  0
 20 42  1  0  0  0
 20 45  1  1  0  0
 21 22  1  0  0  0
 22 23  1  6  0  0
 23 24  2  0  0  0
 23 25  1  0  0  0
 25 26  1  0  0  0
 26 27  1  0  0  0
 26 31  1  0  0  0
 26 28  1  1  0  0
 27 28  1  0  0  0
 28 29  1  6  0  0
 29 30  2  0  0  0
 31 32  2  0  0  0
 31 33  1  0  0  0
 33 34  1  0  0  0
 34 35  2  0  0  0
 34 36  2  0  0  0
 34 37  1  0  0  0
 37 38  1  0  0  0
 37 41  1  0  0  0
 38 39  1  0  0  0
 39 40  1  0  0  0
 40 41  1  0  0  0
 42 43  1  0  0  0
 42 44  1  0  0  0
 42 45  1  0  0  0
 45 46  1  0  0  0
 45 48  1  0  0  0
 46 47  1  0  0  0
 47 48  1  0  0  0
 49 50  1  0  0  0
 49 51  1  0  0  0
 49 52  1  0  0  0
 53 54  1  0  0  0
 53 55  1  0  0  0
 53 59  1  0  0  0
 55 56  1  0  0  0
 56 57  1  0  0  0
 57 58  1  0  0  0
 58 59  1  0  0  0
M  END
> <s_m_entry_id>
6853

> <s_m_entry_name>
NS3-4A.394

> <CHEMBLID>
CHEMBL3645709

> <s_m_Source_Path>
/home/liwei/Desktop/Machine/HCV/Active

> <s_m_Source_File>
NS3-4A.sdf

> <i_m_Source_File_Index>
394

$$$$
CHEMBL3645710
                    3D
 Structure written by MMmdl.
 61 66  0  0  1  0            999 V2000
   -1.9478  -15.9617    0.0000 C   0  0  0  0  0  0
   -2.0524  -14.4654    0.0000 C   0  0  0  0  0  0
   -0.8089  -13.6266    0.0000 C   0  0  0  0  0  0
   -0.9135  -12.1302    0.0000 N   0  0  0  0  0  0
   -2.2617  -11.4727    0.0000 C   0  0  0  0  0  0
   -3.5052  -12.3115    0.0000 C   0  0  0  0  0  0
    0.3301  -11.2914    0.0000 S   0  0  0  0  0  0
    1.1689  -12.5350    0.0000 O   0  0  0  0  0  0
   -0.5087  -10.0479    0.0000 O   0  0  0  0  0  0
    1.5736  -10.4526    0.0000 N   0  0  0  0  0  0
    1.4690   -8.9563    0.0000 C   0  0  0  0  0  0
    0.1208   -8.2987    0.0000 O   0  0  0  0  0  0
    2.7125   -8.1175    0.0000 C   0  0  2  0  0  0
    3.7545   -9.1965    0.0000 C   0  0  0  0  0  0
    4.1680   -7.7546    0.0000 C   0  0  1  0  0  0
    5.2470   -6.7126    0.0000 C   0  0  0  0  0  0
    6.6889   -7.1261    0.0000 C   0  0  0  0  0  0
    2.1024   -6.7472    0.0000 N   0  0  0  0  0  0
    2.9841   -5.5337    0.0000 C   0  0  0  0  0  0
    4.4759   -5.6905    0.0000 O   0  0  0  0  0  0
    2.3740   -4.1633    0.0000 C   0  0  2  0  0  0
    0.9068   -3.8515    0.0000 C   0  0  0  0  0  0
    0.7500   -2.3597    0.0000 C   0  0  2  0  0  0
    2.1203   -1.7496    0.0000 C   0  0  0  0  0  0
    3.1240   -2.8643    0.0000 N   0  0  0  0  0  0
    4.6158   -2.7075    0.0000 C   0  0  0  0  0  0
    5.4975   -3.9210    0.0000 O   0  0  0  0  0  0
    5.2259   -1.3372    0.0000 C   0  0  1  0  0  0
    6.7177   -1.1804    0.0000 N   0  0  0  0  0  0
    7.3278    0.1899    0.0000 C   0  0  0  0  0  0
    6.4461    1.4034    0.0000 O   0  0  0  0  0  0
    8.8196    0.3467    0.0000 C   0  0  1  0  0  0
    9.7013   -0.8668    0.0000 N   0  0  0  0  0  0
   11.1930   -0.7100    0.0000 C   0  0  0  0  0  0
   11.8031    0.6603    0.0000 O   0  0  0  0  0  0
   12.0747   -1.9236    0.0000 C   0  0  1  0  0  0
   13.5665   -1.7668    0.0000 C   0  0  0  0  0  0
   14.4482   -2.9803    0.0000 C   0  0  0  0  0  0
   13.8381   -4.3506    0.0000 C   0  0  0  0  0  0
   12.3463   -4.5074    0.0000 C   0  0  0  0  0  0
   11.4646   -3.2939    0.0000 N   0  0  0  0  0  0
    9.9728   -3.4507    0.0000 C   0  0  0  0  0  0
    9.0911   -2.2371    0.0000 C   0  0  0  0  0  0
    9.3627   -4.8210    0.0000 C   0  0  0  0  0  0
    9.4297    1.7170    0.0000 C   0  0  0  0  0  0
    8.5480    2.9305    0.0000 C   0  0  0  0  0  0
    9.1581    4.3009    0.0000 C   0  0  0  0  0  0
   10.6499    4.4577    0.0000 C   0  0  0  0  0  0
   11.5316    3.2441    0.0000 C   0  0  0  0  0  0
   10.9215    1.8738    0.0000 C   0  0  0  0  0  0
    4.3442   -0.1237    0.0000 C   0  0  0  0  0  0
    5.5577    0.7580    0.0000 C   0  0  0  0  0  0
    3.1307   -1.0054    0.0000 C   0  0  0  0  0  0
    3.4625    1.0899    0.0000 C   0  0  0  0  0  0
   -0.7500   -2.3597    0.0000 C   0  0  0  0  0  0
   -1.0105   -3.8369    0.0000 C   0  0  0  0  0  0
   -2.1595   -1.8467    0.0000 C   0  0  0  0  0  0
   -0.0000   -1.0607    0.0000 C   0  0  0  0  0  0
    1.0607    0.0000    0.0000 C   0  0  0  0  0  0
    0.0000    1.0607    0.0000 C   0  0  0  0  0  0
   -1.0607    0.0000    0.0000 C   0  0  0  0  0  0
  1  2  1  0  0  0
  2  3  1  0  0  0
  3  4  1  0  0  0
  4  5  1  0  0  0
  4  7  1  0  0  0
  5  6  1  0  0  0
  7  8  2  0  0  0
  7  9  2  0  0  0
  7 10  1  0  0  0
 10 11  1  0  0  0
 11 12  2  0  0  0
 11 13  1  0  0  0
 13 14  1  0  0  0
 13 18  1  0  0  0
 13 15  1  6  0  0
 14 15  1  0  0  0
 15 16  1  6  0  0
 16 17  2  0  0  0
 18 19  1  0  0  0
 19 20  2  0  0  0
 19 21  1  0  0  0
 21 22  1  0  0  0
 21 25  1  1  0  0
 22 23  1  0  0  0
 23 24  1  0  0  0
 23 55  1  0  0  0
 23 58  1  6  0  0
 24 25  1  0  0  0
 25 26  1  0  0  0
 26 27  2  0  0  0
 26 28  1  0  0  0
 28 29  1  0  0  0
 28 51  1  6  0  0
 29 30  1  0  0  0
 30 31  2  0  0  0
 30 32  1  0  0  0
 32 33  1  0  0  0
 32 45  1  6  0  0
 33 34  1  0  0  0
 34 35  2  0  0  0
 34 36  1  0  0  0
 36 37  1  0  0  0
 36 41  1  1  0  0
 37 38  1  0  0  0
 38 39  1  0  0  0
 39 40  1  0  0  0
 40 41  1  0  0  0
 41 42  1  0  0  0
 42 43  1  0  0  0
 42 44  1  0  0  0
 45 46  1  0  0  0
 45 50  1  0  0  0
 46 47  1  0  0  0
 47 48  1  0  0  0
 48 49  1  0  0  0
 49 50  1  0  0  0
 51 52  1  0  0  0
 51 53  1  0  0  0
 51 54  1  0  0  0
 55 56  1  0  0  0
 55 57  1  0  0  0
 55 58  1  0  0  0
 58 59  1  0  0  0
 58 61  1  0  0  0
 59 60  1  0  0  0
 60 61  1  0  0  0
M  END
> <s_m_entry_id>
6854

> <s_m_entry_name>
NS3-4A.395

> <CHEMBLID>
CHEMBL3645710

> <s_m_Source_Path>
/home/liwei/Desktop/Machine/HCV/Active

> <s_m_Source_File>
NS3-4A.sdf

> <i_m_Source_File_Index>
395

$$$$
CHEMBL3645711
                    3D
 Structure written by MMmdl.
 60 65  0  0  1  0            999 V2000
    6.6889   -7.1261    0.0000 C   0  0  0  0  0  0
    5.2470   -6.7126    0.0000 C   0  0  0  0  0  0
    4.1680   -7.7546    0.0000 C   0  0  2  0  0  0
    3.7545   -9.1965    0.0000 C   0  0  0  0  0  0
    2.7125   -8.1175    0.0000 C   0  0  2  0  0  0
    2.1024   -6.7472    0.0000 N   0  0  0  0  0  0
    2.9841   -5.5337    0.0000 C   0  0  0  0  0  0
    4.4759   -5.6905    0.0000 O   0  0  0  0  0  0
    2.3740   -4.1633    0.0000 C   0  0  2  0  0  0
    0.9068   -3.8515    0.0000 C   0  0  0  0  0  0
    0.7500   -2.3597    0.0000 C   0  0  2  0  0  0
    2.1203   -1.7496    0.0000 C   0  0  0  0  0  0
    3.1240   -2.8643    0.0000 N   0  0  0  0  0  0
    4.6158   -2.7075    0.0000 C   0  0  0  0  0  0
    5.4975   -3.9210    0.0000 O   0  0  0  0  0  0
    5.2259   -1.3372    0.0000 C   0  0  1  0  0  0
    6.7177   -1.1804    0.0000 N   0  0  0  0  0  0
    7.3278    0.1899    0.0000 C   0  0  0  0  0  0
    6.4461    1.4034    0.0000 O   0  0  0  0  0  0
    8.8196    0.3467    0.0000 C   0  0  1  0  0  0
    9.7013   -0.8668    0.0000 N   0  0  0  0  0  0
   11.1930   -0.7100    0.0000 C   0  0  0  0  0  0
   11.8031    0.6603    0.0000 O   0  0  0  0  0  0
   12.0747   -1.9236    0.0000 C   0  0  2  0  0  0
   13.5665   -1.7668    0.0000 C   0  0  0  0  0  0
   14.4482   -2.9803    0.0000 C   0  0  0  0  0  0
   13.8381   -4.3506    0.0000 C   0  0  0  0  0  0
   12.3463   -4.5074    0.0000 C   0  0  0  0  0  0
   11.4646   -3.2939    0.0000 N   0  0  0  0  0  0
    9.9728   -3.4507    0.0000 C   0  0  0  0  0  0
    9.0911   -2.2371    0.0000 C   0  0  0  0  0  0
    9.3627   -4.8210    0.0000 C   0  0  0  0  0  0
    9.4297    1.7170    0.0000 C   0  0  0  0  0  0
    8.5480    2.9305    0.0000 C   0  0  0  0  0  0
    9.1581    4.3009    0.0000 C   0  0  0  0  0  0
   10.6499    4.4577    0.0000 C   0  0  0  0  0  0
   11.5316    3.2441    0.0000 C   0  0  0  0  0  0
   10.9215    1.8738    0.0000 C   0  0  0  0  0  0
    4.3442   -0.1237    0.0000 C   0  0  0  0  0  0
    5.5577    0.7580    0.0000 C   0  0  0  0  0  0
    3.1307   -1.0054    0.0000 C   0  0  0  0  0  0
    3.4625    1.0899    0.0000 C   0  0  0  0  0  0
   -0.7500   -2.3597    0.0000 C   0  0  0  0  0  0
   -1.0105   -3.8369    0.0000 C   0  0  0  0  0  0
   -2.1595   -1.8467    0.0000 C   0  0  0  0  0  0
   -0.0000   -1.0607    0.0000 C   0  0  0  0  0  0
    1.0607    0.0000    0.0000 C   0  0  0  0  0  0
    0.0000    1.0607    0.0000 C   0  0  0  0  0  0
   -1.0607    0.0000    0.0000 C   0  0  0  0  0  0
    1.4690   -8.9563    0.0000 C   0  0  0  0  0  0
    0.1208   -8.2987    0.0000 O   0  0  0  0  0  0
    1.5736  -10.4526    0.0000 N   0  0  0  0  0  0
    0.3301  -11.2914    0.0000 S   0  0  0  0  0  0
    1.1689  -12.5350    0.0000 O   0  0  0  0  0  0
   -0.5087  -10.0479    0.0000 O   0  0  0  0  0  0
   -0.9135  -12.1302    0.0000 N   0  0  0  0  0  0
   -2.2617  -11.4727    0.0000 C   0  0  0  0  0  0
   -0.8089  -13.6266    0.0000 C   0  0  0  0  0  0
   -2.0524  -14.4654    0.0000 C   0  0  0  0  0  0
    0.5393  -14.2841    0.0000 C   0  0  0  0  0  0
  1  2  1  0  0  0
  2  3  1  0  0  0
  3  4  1  0  0  0
  3  5  1  6  0  0
  4  5  1  0  0  0
  5  6  1  0  0  0
  5 50  1  6  0  0
  6  7  1  0  0  0
  7  8  2  0  0  0
  7  9  1  0  0  0
  9 10  1  0  0  0
  9 13  1  1  0  0
 10 11  1  0  0  0
 11 12  1  0  0  0
 11 43  1  0  0  0
 11 46  1  6  0  0
 12 13  1  0  0  0
 13 14  1  0  0  0
 14 15  2  0  0  0
 14 16  1  0  0  0
 16 17  1  0  0  0
 16 39  1  6  0  0
 17 18  1  0  0  0
 18 19  2  0  0  0
 18 20  1  0  0  0
 20 21  1  0  0  0
 20 33  1  6  0  0
 21 22  1  0  0  0
 22 23  2  0  0  0
 22 24  1  0  0  0
 24 25  1  0  0  0
 24 29  1  1  0  0
 25 26  1  0  0  0
 26 27  1  0  0  0
 27 28  1  0  0  0
 28 29  1  0  0  0
 29 30  1  0  0  0
 30 31  1  0  0  0
 30 32  1  0  0  0
 33 34  1  0  0  0
 33 38  1  0  0  0
 34 35  1  0  0  0
 35 36  1  0  0  0
 36 37  1  0  0  0
 37 38  1  0  0  0
 39 40  1  0  0  0
 39 41  1  0  0  0
 39 42  1  0  0  0
 43 44  1  0  0  0
 43 45  1  0  0  0
 43 46  1  0  0  0
 46 47  1  0  0  0
 46 49  1  0  0  0
 47 48  1  0  0  0
 48 49  1  0  0  0
 50 51  2  0  0  0
 50 52  1  0  0  0
 52 53  1  0  0  0
 53 54  2  0  0  0
 53 55  2  0  0  0
 53 56  1  0  0  0
 56 57  1  0  0  0
 56 58  1  0  0  0
 58 59  1  0  0  0
 58 60  1  0  0  0
M  END
> <s_m_entry_id>
6855

> <s_m_entry_name>
NS3-4A.396

> <CHEMBLID>
CHEMBL3645711

> <s_m_Source_Path>
/home/liwei/Desktop/Machine/HCV/Active

> <s_m_Source_File>
NS3-4A.sdf

> <i_m_Source_File_Index>
396

$$$$
CHEMBL3645712
                    3D
 Structure written by MMmdl.
 60 65  0  0  1  0            999 V2000
   -1.9478  -15.9617    0.0000 C   0  0  0  0  0  0
   -2.0524  -14.4654    0.0000 C   0  0  0  0  0  0
   -0.8089  -13.6266    0.0000 C   0  0  0  0  0  0
   -0.9135  -12.1302    0.0000 N   0  0  0  0  0  0
   -2.2617  -11.4727    0.0000 C   0  0  0  0  0  0
    0.3301  -11.2914    0.0000 S   0  0  0  0  0  0
    1.1689  -12.5350    0.0000 O   0  0  0  0  0  0
   -0.5087  -10.0479    0.0000 O   0  0  0  0  0  0
    1.5736  -10.4526    0.0000 N   0  0  0  0  0  0
    1.4690   -8.9563    0.0000 C   0  0  0  0  0  0
    0.1208   -8.2987    0.0000 O   0  0  0  0  0  0
    2.7125   -8.1175    0.0000 C   0  0  2  0  0  0
    3.7545   -9.1965    0.0000 C   0  0  0  0  0  0
    4.1680   -7.7546    0.0000 C   0  0  1  0  0  0
    5.2470   -6.7126    0.0000 C   0  0  0  0  0  0
    6.6889   -7.1261    0.0000 C   0  0  0  0  0  0
    2.1024   -6.7472    0.0000 N   0  0  0  0  0  0
    2.9841   -5.5337    0.0000 C   0  0  0  0  0  0
    4.4759   -5.6905    0.0000 O   0  0  0  0  0  0
    2.3740   -4.1633    0.0000 C   0  0  2  0  0  0
    0.9068   -3.8515    0.0000 C   0  0  0  0  0  0
    0.7500   -2.3597    0.0000 C   0  0  2  0  0  0
    2.1203   -1.7496    0.0000 C   0  0  0  0  0  0
    3.1240   -2.8643    0.0000 N   0  0  0  0  0  0
    4.6158   -2.7075    0.0000 C   0  0  0  0  0  0
    5.4975   -3.9210    0.0000 O   0  0  0  0  0  0
    5.2259   -1.3372    0.0000 C   0  0  1  0  0  0
    6.7177   -1.1804    0.0000 N   0  0  0  0  0  0
    7.3278    0.1899    0.0000 C   0  0  0  0  0  0
    6.4461    1.4034    0.0000 O   0  0  0  0  0  0
    8.8196    0.3467    0.0000 C   0  0  1  0  0  0
    9.7013   -0.8668    0.0000 N   0  0  0  0  0  0
   11.1930   -0.7100    0.0000 C   0  0  0  0  0  0
   11.8031    0.6603    0.0000 O   0  0  0  0  0  0
   12.0747   -1.9236    0.0000 C   0  0  2  0  0  0
   13.5665   -1.7668    0.0000 C   0  0  0  0  0  0
   14.4482   -2.9803    0.0000 C   0  0  0  0  0  0
   13.8381   -4.3506    0.0000 C   0  0  0  0  0  0
   12.3463   -4.5074    0.0000 C   0  0  0  0  0  0
   11.4646   -3.2939    0.0000 N   0  0  0  0  0  0
    9.9728   -3.4507    0.0000 C   0  0  0  0  0  0
    9.0911   -2.2371    0.0000 C   0  0  0  0  0  0
    9.3627   -4.8210    0.0000 C   0  0  0  0  0  0
    9.4297    1.7170    0.0000 C   0  0  0  0  0  0
    8.5480    2.9305    0.0000 C   0  0  0  0  0  0
    9.1581    4.3009    0.0000 C   0  0  0  0  0  0
   10.6499    4.4577    0.0000 C   0  0  0  0  0  0
   11.5316    3.2441    0.0000 C   0  0  0  0  0  0
   10.9215    1.8738    0.0000 C   0  0  0  0  0  0
    4.3442   -0.1237    0.0000 C   0  0  0  0  0  0
    5.5577    0.7580    0.0000 C   0  0  0  0  0  0
    3.1307   -1.0054    0.0000 C   0  0  0  0  0  0
    3.4625    1.0899    0.0000 C   0  0  0  0  0  0
   -0.7500   -2.3597    0.0000 C   0  0  0  0  0  0
   -1.0105   -3.8369    0.0000 C   0  0  0  0  0  0
   -2.1595   -1.8467    0.0000 C   0  0  0  0  0  0
   -0.0000   -1.0607    0.0000 C   0  0  0  0  0  0
    1.0607    0.0000    0.0000 C   0  0  0  0  0  0
    0.0000    1.0607    0.0000 C   0  0  0  0  0  0
   -1.0607    0.0000    0.0000 C   0  0  0  0  0  0
  1  2  1  0  0  0
  2  3  1  0  0  0
  3  4  1  0  0  0
  4  5  1  0  0  0
  4  6  1  0  0  0
  6  7  2  0  0  0
  6  8  2  0  0  0
  6  9  1  0  0  0
  9 10  1  0  0  0
 10 11  2  0  0  0
 10 12  1  0  0  0
 12 13  1  0  0  0
 12 17  1  0  0  0
 12 14  1  6  0  0
 13 14  1  0  0  0
 14 15  1  1  0  0
 15 16  1  0  0  0
 17 18  1  0  0  0
 18 19  2  0  0  0
 18 20  1  0  0  0
 20 21  1  0  0  0
 20 24  1  1  0  0
 21 22  1  0  0  0
 22 23  1  0  0  0
 22 54  1  0  0  0
 22 57  1  6  0  0
 23 24  1  0  0  0
 24 25  1  0  0  0
 25 26  2  0  0  0
 25 27  1  0  0  0
 27 28  1  0  0  0
 27 50  1  6  0  0
 28 29  1  0  0  0
 29 30  2  0  0  0
 29 31  1  0  0  0
 31 32  1  0  0  0
 31 44  1  6  0  0
 32 33  1  0  0  0
 33 34  2  0  0  0
 33 35  1  0  0  0
 35 36  1  0  0  0
 35 40  1  1  0  0
 36 37  1  0  0  0
 37 38  1  0  0  0
 38 39  1  0  0  0
 39 40  1  0  0  0
 40 41  1  0  0  0
 41 42  1  0  0  0
 41 43  1  0  0  0
 44 45  1  0  0  0
 44 49  1  0  0  0
 45 46  1  0  0  0
 46 47  1  0  0  0
 47 48  1  0  0  0
 48 49  1  0  0  0
 50 51  1  0  0  0
 50 52  1  0  0  0
 50 53  1  0  0  0
 54 55  1  0  0  0
 54 56  1  0  0  0
 54 57  1  0  0  0
 57 58  1  0  0  0
 57 60  1  0  0  0
 58 59  1  0  0  0
 59 60  1  0  0  0
M  END
> <s_m_entry_id>
6856

> <s_m_entry_name>
NS3-4A.397

> <CHEMBLID>
CHEMBL3645712

> <s_m_Source_Path>
/home/liwei/Desktop/Machine/HCV/Active

> <s_m_Source_File>
NS3-4A.sdf

> <i_m_Source_File_Index>
397

$$$$
CHEMBL3645713
                    3D
 Structure written by MMmdl.
 62 68  0  0  1  0            999 V2000
   -8.3400   -5.6496    0.0000 C   0  0  0  0  0  0
   -6.8483   -5.8064    0.0000 C   0  0  0  0  0  0
   -6.2382   -7.1768    0.0000 C   0  0  0  0  0  0
   -5.9666   -4.5929    0.0000 N   0  0  0  0  0  0
   -6.5767   -3.2226    0.0000 C   0  0  0  0  0  0
   -5.6950   -2.0091    0.0000 C   0  0  0  0  0  0
   -4.2032   -2.1659    0.0000 C   0  0  0  0  0  0
   -3.5931   -3.5362    0.0000 C   0  0  0  0  0  0
   -4.4748   -4.7497    0.0000 C   0  0  1  0  0  0
   -3.8647   -6.1200    0.0000 C   0  0  0  0  0  0
   -4.7464   -7.3335    0.0000 O   0  0  0  0  0  0
   -2.3729   -6.2768    0.0000 N   0  0  0  0  0  0
   -1.7628   -7.6471    0.0000 C   0  0  1  0  0  0
   -2.6445   -8.8607    0.0000 C   0  0  0  0  0  0
   -4.1363   -8.7039    0.0000 C   0  0  0  0  0  0
   -5.0179   -9.9174    0.0000 C   0  0  0  0  0  0
   -4.4078  -11.2877    0.0000 C   0  0  0  0  0  0
   -2.9161  -11.4445    0.0000 C   0  0  0  0  0  0
   -2.0344  -10.2310    0.0000 C   0  0  0  0  0  0
   -0.2710   -7.8039    0.0000 C   0  0  0  0  0  0
    0.3391   -9.1742    0.0000 O   0  0  0  0  0  0
    0.6107   -6.5904    0.0000 N   0  0  0  0  0  0
    2.1024   -6.7472    0.0000 C   0  0  2  0  0  0
    2.9841   -5.5337    0.0000 C   0  0  0  0  0  0
    4.4759   -5.6905    0.0000 O   0  0  0  0  0  0
    2.3740   -4.1633    0.0000 N   0  0  0  0  0  0
    0.9068   -3.8515    0.0000 C   0  0  0  0  0  0
    0.7500   -2.3597    0.0000 C   0  0  1  0  0  0
    2.1203   -1.7496    0.0000 C   0  0  0  0  0  0
    3.1240   -2.8643    0.0000 C   0  0  1  0  0  0
    4.6158   -2.7075    0.0000 C   0  0  0  0  0  0
    5.2259   -1.3372    0.0000 O   0  0  0  0  0  0
    5.4975   -3.9210    0.0000 N   0  0  0  0  0  0
    6.9893   -3.7643    0.0000 C   0  0  1  0  0  0
    8.3374   -3.1067    0.0000 C   0  0  0  0  0  0
    7.0939   -2.2679    0.0000 C   0  0  1  0  0  0
    6.4363   -0.9197    0.0000 C   0  0  0  0  0  0
    7.2751    0.3238    0.0000 C   0  0  0  0  0  0
    7.4027   -5.2061    0.0000 C   0  0  0  0  0  0
    6.3607   -6.2852    0.0000 O   0  0  0  0  0  0
    8.8582   -5.5690    0.0000 N   0  0  0  0  0  0
    9.2716   -7.0109    0.0000 S   0  0  0  0  0  0
   10.7135   -6.5975    0.0000 O   0  0  0  0  0  0
    7.8297   -7.4244    0.0000 O   0  0  0  0  0  0
    9.6851   -8.4528    0.0000 N   0  0  0  0  0  0
    8.7616   -9.6348    0.0000 C   0  0  0  0  0  0
    9.6004  -10.8784    0.0000 C   0  0  0  0  0  0
   11.0423  -10.4649    0.0000 C   0  0  0  0  0  0
   11.3027  -11.9421    0.0000 F   0  0  0  0  0  0
   12.5386  -10.3603    0.0000 F   0  0  0  0  0  0
   11.0946   -8.9658    0.0000 C   0  0  0  0  0  0
   -0.7500   -2.3597    0.0000 C   0  0  0  0  0  0
   -1.0105   -3.8369    0.0000 C   0  0  0  0  0  0
   -2.1595   -1.8467    0.0000 C   0  0  0  0  0  0
   -0.0000   -1.0607    0.0000 C   0  0  0  0  0  0
    1.0607    0.0000    0.0000 C   0  0  0  0  0  0
    0.0000    1.0607    0.0000 C   0  0  0  0  0  0
   -1.0607    0.0000    0.0000 C   0  0  0  0  0  0
    2.7125   -8.1175    0.0000 C   0  0  0  0  0  0
    1.3422   -8.7276    0.0000 C   0  0  0  0  0  0
    4.0829   -7.5074    0.0000 C   0  0  0  0  0  0
    3.3227   -9.4878    0.0000 C   0  0  0  0  0  0
  1  2  1  0  0  0
  2  3  1  0  0  0
  2  4  1  0  0  0
  4  5  1  0  0  0
  4  9  1  0  0  0
  5  6  1  0  0  0
  6  7  1  0  0  0
  7  8  1  0  0  0
  8  9  1  0  0  0
  9 10  1  6  0  0
 10 11  2  0  0  0
 10 12  1  0  0  0
 12 13  1  0  0  0
 13 14  1  0  0  0
 13 20  1  6  0  0
 14 15  1  0  0  0
 14 19  1  0  0  0
 15 16  1  0  0  0
 16 17  1  0  0  0
 17 18  1  0  0  0
 18 19  1  0  0  0
 20 21  2  0  0  0
 20 22  1  0  0  0
 22 23  1  0  0  0
 23 24  1  0  0  0
 23 59  1  1  0  0
 24 25  2  0  0  0
 24 26  1  0  0  0
 26 27  1  0  0  0
 26 30  1  0  0  0
 27 28  1  0  0  0
 28 29  1  0  0  0
 28 52  1  0  0  0
 28 55  1  1  0  0
 29 30  1  0  0  0
 30 31  1  6  0  0
 31 32  2  0  0  0
 31 33  1  0  0  0
 33 34  1  0  0  0
 34 35  1  0  0  0
 34 39  1  0  0  0
 34 36  1  1  0  0
 35 36  1  0  0  0
 36 37  1  6  0  0
 37 38  2  0  0  0
 39 40  2  0  0  0
 39 41  1  0  0  0
 41 42  1  0  0  0
 42 43  2  0  0  0
 42 44  2  0  0  0
 42 45  1  0  0  0
 45 46  1  0  0  0
 45 51  1  0  0  0
 46 47  1  0  0  0
 47 48  1  0  0  0
 48 49  1  0  0  0
 48 50  1  0  0  0
 48 51  1  0  0  0
 52 53  1  0  0  0
 52 54  1  0  0  0
 52 55  1  0  0  0
 55 56  1  0  0  0
 55 58  1  0  0  0
 56 57  1  0  0  0
 57 58  1  0  0  0
 59 60  1  0  0  0
 59 61  1  0  0  0
 59 62  1  0  0  0
M  END
> <s_m_entry_id>
6857

> <s_m_entry_name>
NS3-4A.398

> <CHEMBLID>
CHEMBL3645713

> <s_m_Source_Path>
/home/liwei/Desktop/Machine/HCV/Active

> <s_m_Source_File>
NS3-4A.sdf

> <i_m_Source_File_Index>
398

$$$$
CHEMBL3645714
                    3D
 Structure written by MMmdl.
 58 64  0  0  1  0            999 V2000
   -1.3513   -4.5074    0.0000 C   0  0  0  0  0  0
   -2.2330   -3.2939    0.0000 C   0  0  0  0  0  0
   -3.7248   -3.4507    0.0000 N   0  0  0  0  0  0
   -4.7285   -2.3359    0.0000 C   0  0  0  0  0  0
   -6.0988   -2.9461    0.0000 C   0  0  0  0  0  0
   -5.9420   -4.4378    0.0000 S   0  0  0  0  0  0
   -4.4748   -4.7497    0.0000 C   0  0  1  0  0  0
   -3.8647   -6.1200    0.0000 C   0  0  0  0  0  0
   -4.7464   -7.3335    0.0000 O   0  0  0  0  0  0
   -2.3729   -6.2768    0.0000 N   0  0  0  0  0  0
   -1.7628   -7.6471    0.0000 C   0  0  3  0  0  0
   -2.6445   -8.8607    0.0000 C   0  0  0  0  0  0
   -4.1363   -8.7039    0.0000 C   0  0  0  0  0  0
   -5.0179   -9.9174    0.0000 C   0  0  0  0  0  0
   -4.4078  -11.2877    0.0000 C   0  0  0  0  0  0
   -2.9161  -11.4445    0.0000 C   0  0  0  0  0  0
   -2.0344  -10.2310    0.0000 C   0  0  0  0  0  0
   -0.2710   -7.8039    0.0000 C   0  0  0  0  0  0
    0.3391   -9.1742    0.0000 O   0  0  0  0  0  0
    0.6107   -6.5904    0.0000 N   0  0  0  0  0  0
    2.1024   -6.7472    0.0000 C   0  0  2  0  0  0
    2.9841   -5.5337    0.0000 C   0  0  0  0  0  0
    4.4759   -5.6905    0.0000 O   0  0  0  0  0  0
    2.3740   -4.1633    0.0000 N   0  0  0  0  0  0
    0.9068   -3.8515    0.0000 C   0  0  0  0  0  0
    0.7500   -2.3597    0.0000 C   0  0  1  0  0  0
    2.1203   -1.7496    0.0000 C   0  0  0  0  0  0
    3.1240   -2.8643    0.0000 C   0  0  1  0  0  0
    4.6158   -2.7075    0.0000 C   0  0  0  0  0  0
    5.2259   -1.3372    0.0000 O   0  0  0  0  0  0
    5.4975   -3.9210    0.0000 N   0  0  0  0  0  0
    6.9893   -3.7643    0.0000 C   0  0  1  0  0  0
    8.3374   -3.1067    0.0000 C   0  0  0  0  0  0
    7.0939   -2.2679    0.0000 C   0  0  1  0  0  0
    6.4363   -0.9197    0.0000 C   0  0  0  0  0  0
    7.2751    0.3238    0.0000 C   0  0  0  0  0  0
    7.4027   -5.2061    0.0000 C   0  0  0  0  0  0
    6.3607   -6.2852    0.0000 O   0  0  0  0  0  0
    8.8582   -5.5690    0.0000 N   0  0  0  0  0  0
    9.2716   -7.0109    0.0000 S   0  0  0  0  0  0
   10.7135   -6.5975    0.0000 O   0  0  0  0  0  0
    7.8297   -7.4244    0.0000 O   0  0  0  0  0  0
    9.6851   -8.4528    0.0000 N   0  0  0  0  0  0
    8.7616   -9.6348    0.0000 C   0  0  0  0  0  0
    9.6004  -10.8784    0.0000 C   0  0  0  0  0  0
   11.0423  -10.4649    0.0000 C   0  0  0  0  0  0
   11.0946   -8.9658    0.0000 C   0  0  0  0  0  0
   -0.7500   -2.3597    0.0000 C   0  0  0  0  0  0
   -1.0105   -3.8369    0.0000 C   0  0  0  0  0  0
   -2.1595   -1.8467    0.0000 C   0  0  0  0  0  0
   -0.0000   -1.0607    0.0000 C   0  0  0  0  0  0
    1.0607    0.0000    0.0000 C   0  0  0  0  0  0
    0.0000    1.0607    0.0000 C   0  0  0  0  0  0
   -1.0607    0.0000    0.0000 C   0  0  0  0  0  0
    2.7125   -8.1175    0.0000 C   0  0  0  0  0  0
    1.3422   -8.7276    0.0000 C   0  0  0  0  0  0
    4.0829   -7.5074    0.0000 C   0  0  0  0  0  0
    3.3227   -9.4878    0.0000 C   0  0  0  0  0  0
  1  2  1  0  0  0
  2  3  1  0  0  0
  3  4  1  0  0  0
  3  7  1  0  0  0
  4  5  1  0  0  0
  5  6  1  0  0  0
  6  7  1  0  0  0
  7  8  1  6  0  0
  8  9  2  0  0  0
  8 10  1  0  0  0
 10 11  1  0  0  0
 11 12  1  0  0  0
 11 18  1  0  0  0
 12 13  1  0  0  0
 12 17  1  0  0  0
 13 14  1  0  0  0
 14 15  1  0  0  0
 15 16  1  0  0  0
 16 17  1  0  0  0
 18 19  2  0  0  0
 18 20  1  0  0  0
 20 21  1  0  0  0
 21 22  1  0  0  0
 21 55  1  1  0  0
 22 23  2  0  0  0
 22 24  1  0  0  0
 24 25  1  0  0  0
 24 28  1  0  0  0
 25 26  1  0  0  0
 26 27  1  0  0  0
 26 48  1  0  0  0
 26 51  1  1  0  0
 27 28  1  0  0  0
 28 29  1  6  0  0
 29 30  2  0  0  0
 29 31  1  0  0  0
 31 32  1  0  0  0
 32 33  1  0  0  0
 32 37  1  0  0  0
 32 34  1  1  0  0
 33 34  1  0  0  0
 34 35  1  6  0  0
 35 36  2  0  0  0
 37 38  2  0  0  0
 37 39  1  0  0  0
 39 40  1  0  0  0
 40 41  2  0  0  0
 40 42  2  0  0  0
 40 43  1  0  0  0
 43 44  1  0  0  0
 43 47  1  0  0  0
 44 45  1  0  0  0
 45 46  1  0  0  0
 46 47  1  0  0  0
 48 49  1  0  0  0
 48 50  1  0  0  0
 48 51  1  0  0  0
 51 52  1  0  0  0
 51 54  1  0  0  0
 52 53  1  0  0  0
 53 54  1  0  0  0
 55 56  1  0  0  0
 55 57  1  0  0  0
 55 58  1  0  0  0
M  END
> <s_m_entry_id>
6858

> <s_m_entry_name>
NS3-4A.399

> <CHEMBLID>
CHEMBL3645714

> <s_m_Source_Path>
/home/liwei/Desktop/Machine/HCV/Active

> <s_m_Source_File>
NS3-4A.sdf

> <i_m_Source_File_Index>
399

$$$$
CHEMBL3645715
                    3D
 Structure written by MMmdl.
 62 69  0  0  1  0            999 V2000
    5.5715   -6.7559    0.0000 C   0  0  0  0  0  0
    6.9980   -7.2195    0.0000 C   0  0  0  0  0  0
    7.3099   -8.6867    0.0000 N   0  0  0  0  0  0
    8.6802   -9.2968    0.0000 C   0  0  0  0  0  0
    8.5234  -10.7886    0.0000 C   0  0  0  0  0  0
    7.0562  -11.1005    0.0000 C   0  0  0  0  0  0
    6.3062   -9.8014    0.0000 C   0  0  1  0  0  0
    4.8144   -9.6446    0.0000 C   0  0  0  0  0  0
    4.2043   -8.2743    0.0000 O   0  0  0  0  0  0
    3.9328  -10.8581    0.0000 N   0  0  0  0  0  0
    2.4410  -10.7014    0.0000 C   0  0  2  0  0  0
    1.8309   -9.3310    0.0000 C   0  0  0  0  0  0
    0.3391   -9.1742    0.0000 O   0  0  0  0  0  0
    2.7125   -8.1175    0.0000 N   0  0  0  0  0  0
    2.1024   -6.7472    0.0000 C   0  0  2  0  0  0
    2.9841   -5.5337    0.0000 C   0  0  0  0  0  0
    4.4759   -5.6905    0.0000 O   0  0  0  0  0  0
    2.3740   -4.1633    0.0000 N   0  0  0  0  0  0
    0.9068   -3.8515    0.0000 C   0  0  0  0  0  0
    0.7500   -2.3597    0.0000 C   0  0  1  0  0  0
    2.1203   -1.7496    0.0000 C   0  0  0  0  0  0
    3.1240   -2.8643    0.0000 C   0  0  1  0  0  0
    4.6158   -2.7075    0.0000 C   0  0  0  0  0  0
    5.2259   -1.3372    0.0000 O   0  0  0  0  0  0
    5.4975   -3.9210    0.0000 N   0  0  0  0  0  0
    6.9893   -3.7643    0.0000 C   0  0  1  0  0  0
    8.3374   -3.1067    0.0000 C   0  0  0  0  0  0
    7.0939   -2.2679    0.0000 C   0  0  1  0  0  0
    6.4363   -0.9197    0.0000 C   0  0  0  0  0  0
    7.2751    0.3238    0.0000 C   0  0  0  0  0  0
    7.4027   -5.2061    0.0000 C   0  0  0  0  0  0
    6.3607   -6.2852    0.0000 O   0  0  0  0  0  0
    8.8582   -5.5690    0.0000 N   0  0  0  0  0  0
    9.9001   -4.4900    0.0000 S   0  0  0  0  0  0
   10.9792   -5.5320    0.0000 O   0  0  0  0  0  0
    9.1848   -3.3451    0.0000 O   0  0  0  0  0  0
   10.9421   -3.4110    0.0000 N   0  0  0  0  0  0
   12.4275   -3.6198    0.0000 C   0  0  0  0  0  0
   13.0851   -2.2716    0.0000 C   0  0  0  0  0  0
   12.0061   -1.2296    0.0000 C   0  0  0  0  0  0
   10.6817   -1.9338    0.0000 C   0  0  0  0  0  0
   -0.7500   -2.3597    0.0000 C   0  0  0  0  0  0
   -1.0105   -3.8369    0.0000 C   0  0  0  0  0  0
   -2.1595   -1.8467    0.0000 C   0  0  0  0  0  0
   -0.0000   -1.0607    0.0000 C   0  0  0  0  0  0
    1.0607   -0.0000    0.0000 C   0  0  0  0  0  0
   -0.0000    1.0607    0.0000 C   0  0  0  0  0  0
   -1.0607   -0.0000    0.0000 C   0  0  0  0  0  0
    0.6107   -6.5904    0.0000 C   0  0  0  0  0  0
    1.0241   -5.1485    0.0000 C   0  0  0  0  0  0
    0.7153   -8.0867    0.0000 C   0  0  0  0  0  0
   -0.5283   -8.9255    0.0000 C   0  0  0  0  0  0
   -1.8765   -8.2680    0.0000 O   0  0  0  0  0  0
   -1.9811   -6.7716    0.0000 C   0  0  0  0  0  0
   -0.7375   -5.9328    0.0000 C   0  0  0  0  0  0
    1.5593  -11.9149    0.0000 C   0  0  0  0  0  0
    0.5173  -10.8359    0.0000 C   0  0  0  0  0  0
    2.9075  -12.5724    0.0000 C   0  0  0  0  0  0
    3.0121  -14.0688    0.0000 C   0  0  0  0  0  0
    1.7686  -14.9076    0.0000 C   0  0  0  0  0  0
    0.4204  -14.2500    0.0000 C   0  0  0  0  0  0
    0.3157  -12.7537    0.0000 C   0  0  0  0  0  0
  1  2  1  0  0  0
  2  3  1  0  0  0
  3  4  1  0  0  0
  3  7  1  0  0  0
  4  5  1  0  0  0
  5  6  1  0  0  0
  6  7  1  0  0  0
  7  8  1  6  0  0
  8  9  2  0  0  0
  8 10  1  0  0  0
 10 11  1  0  0  0
 11 12  1  0  0  0
 11 56  1  1  0  0
 12 13  2  0  0  0
 12 14  1  0  0  0
 14 15  1  0  0  0
 15 16  1  0  0  0
 15 49  1  1  0  0
 16 17  2  0  0  0
 16 18  1  0  0  0
 18 19  1  0  0  0
 18 22  1  0  0  0
 19 20  1  0  0  0
 20 21  1  0  0  0
 20 42  1  0  0  0
 20 45  1  1  0  0
 21 22  1  0  0  0
 22 23  1  6  0  0
 23 24  2  0  0  0
 23 25  1  0  0  0
 25 26  1  0  0  0
 26 27  1  0  0  0
 26 31  1  0  0  0
 26 28  1  1  0  0
 27 28  1  0  0  0
 28 29  1  6  0  0
 29 30  2  0  0  0
 31 32  2  0  0  0
 31 33  1  0  0  0
 33 34  1  0  0  0
 34 35  2  0  0  0
 34 36  2  0  0  0
 34 37  1  0  0  0
 37 38  1  0  0  0
 37 41  1  0  0  0
 38 39  1  0  0  0
 39 40  1  0  0  0
 40 41  1  0  0  0
 42 43  1  0  0  0
 42 44  1  0  0  0
 42 45  1  0  0  0
 45 46  1  0  0  0
 45 48  1  0  0  0
 46 47  1  0  0  0
 47 48  1  0  0  0
 49 50  1  0  0  0
 49 51  1  0  0  0
 49 55  1  0  0  0
 51 52  1  0  0  0
 52 53  1  0  0  0
 53 54  1  0  0  0
 54 55  1  0  0  0
 56 57  1  0  0  0
 56 58  1  0  0  0
 56 62  1  0  0  0
 58 59  1  0  0  0
 59 60  1  0  0  0
 60 61  1  0  0  0
 61 62  1  0  0  0
M  END
> <s_m_entry_id>
6859

> <s_m_entry_name>
NS3-4A.400

> <CHEMBLID>
CHEMBL3645715

> <s_m_Source_Path>
/home/liwei/Desktop/Machine/HCV/Active

> <s_m_Source_File>
NS3-4A.sdf

> <i_m_Source_File_Index>
400

$$$$
CHEMBL3645716
                    3D
 Structure written by MMmdl.
 64 71  0  0  1  0            999 V2000
    7.1879   -8.5879    0.0000 C   0  0  0  0  0  0
    6.3062   -9.8014    0.0000 C   0  0  0  0  0  0
    4.8144   -9.6446    0.0000 C   0  0  0  0  0  0
    6.9163  -11.1717    0.0000 N   0  0  0  0  0  0
    8.4081  -11.3285    0.0000 C   0  0  0  0  0  0
    9.0182  -12.6988    0.0000 C   0  0  0  0  0  0
    8.1365  -13.9124    0.0000 C   0  0  0  0  0  0
    6.6447  -13.7556    0.0000 C   0  0  0  0  0  0
    6.0346  -12.3853    0.0000 C   0  0  1  0  0  0
    4.5429  -12.2285    0.0000 C   0  0  0  0  0  0
    3.6612  -13.4420    0.0000 O   0  0  0  0  0  0
    3.9328  -10.8581    0.0000 N   0  0  0  0  0  0
    2.4410  -10.7014    0.0000 C   0  0  2  0  0  0
    1.8309   -9.3310    0.0000 C   0  0  0  0  0  0
    0.3391   -9.1742    0.0000 O   0  0  0  0  0  0
    2.7125   -8.1175    0.0000 N   0  0  0  0  0  0
    2.1024   -6.7472    0.0000 C   0  0  2  0  0  0
    2.9841   -5.5337    0.0000 C   0  0  0  0  0  0
    4.4759   -5.6905    0.0000 O   0  0  0  0  0  0
    2.3740   -4.1633    0.0000 N   0  0  0  0  0  0
    0.9068   -3.8515    0.0000 C   0  0  0  0  0  0
    0.7500   -2.3597    0.0000 C   0  0  1  0  0  0
    2.1203   -1.7496    0.0000 C   0  0  0  0  0  0
    3.1240   -2.8643    0.0000 C   0  0  1  0  0  0
    4.6158   -2.7075    0.0000 C   0  0  0  0  0  0
    5.2259   -1.3372    0.0000 O   0  0  0  0  0  0
    5.4975   -3.9210    0.0000 N   0  0  0  0  0  0
    6.9893   -3.7643    0.0000 C   0  0  1  0  0  0
    8.3374   -3.1067    0.0000 C   0  0  0  0  0  0
    7.0939   -2.2679    0.0000 C   0  0  1  0  0  0
    6.4363   -0.9197    0.0000 C   0  0  0  0  0  0
    7.2751    0.3238    0.0000 C   0  0  0  0  0  0
    7.4027   -5.2061    0.0000 C   0  0  0  0  0  0
    6.3607   -6.2852    0.0000 O   0  0  0  0  0  0
    8.8582   -5.5690    0.0000 N   0  0  0  0  0  0
    9.2716   -7.0109    0.0000 S   0  0  0  0  0  0
   10.7135   -6.5975    0.0000 O   0  0  0  0  0  0
    7.8297   -7.4244    0.0000 O   0  0  0  0  0  0
    9.6851   -8.4528    0.0000 N   0  0  0  0  0  0
    8.7616   -9.6348    0.0000 C   0  0  0  0  0  0
    9.6004  -10.8784    0.0000 C   0  0  0  0  0  0
   11.0423  -10.4649    0.0000 C   0  0  0  0  0  0
   11.0946   -8.9658    0.0000 C   0  0  0  0  0  0
   -0.7500   -2.3597    0.0000 C   0  0  0  0  0  0
   -1.0105   -3.8369    0.0000 C   0  0  0  0  0  0
   -2.1595   -1.8467    0.0000 C   0  0  0  0  0  0
   -0.0000   -1.0607    0.0000 C   0  0  0  0  0  0
    1.0607   -0.0000    0.0000 C   0  0  0  0  0  0
   -0.0000    1.0607    0.0000 C   0  0  0  0  0  0
   -1.0607   -0.0000    0.0000 C   0  0  0  0  0  0
    0.6107   -6.5904    0.0000 C   0  0  0  0  0  0
    1.0241   -5.1485    0.0000 C   0  0  0  0  0  0
    0.7153   -8.0867    0.0000 C   0  0  0  0  0  0
   -0.5283   -8.9255    0.0000 C   0  0  0  0  0  0
   -1.8765   -8.2680    0.0000 O   0  0  0  0  0  0
   -1.9811   -6.7716    0.0000 C   0  0  0  0  0  0
   -0.7375   -5.9328    0.0000 C   0  0  0  0  0  0
    1.5593  -11.9149    0.0000 C   0  0  0  0  0  0
    0.5173  -10.8359    0.0000 C   0  0  0  0  0  0
    2.9075  -12.5724    0.0000 C   0  0  0  0  0  0
    3.0121  -14.0688    0.0000 C   0  0  0  0  0  0
    1.7686  -14.9076    0.0000 C   0  0  0  0  0  0
    0.4204  -14.2500    0.0000 C   0  0  0  0  0  0
    0.3157  -12.7537    0.0000 C   0  0  0  0  0  0
  1  2  1  0  0  0
  2  3  1  0  0  0
  2  4  1  0  0  0
  4  5  1  0  0  0
  4  9  1  0  0  0
  5  6  1  0  0  0
  6  7  1  0  0  0
  7  8  1  0  0  0
  8  9  1  0  0  0
  9 10  1  6  0  0
 10 11  2  0  0  0
 10 12  1  0  0  0
 12 13  1  0  0  0
 13 14  1  0  0  0
 13 58  1  1  0  0
 14 15  2  0  0  0
 14 16  1  0  0  0
 16 17  1  0  0  0
 17 18  1  0  0  0
 17 51  1  1  0  0
 18 19  2  0  0  0
 18 20  1  0  0  0
 20 21  1  0  0  0
 20 24  1  0  0  0
 21 22  1  0  0  0
 22 23  1  0  0  0
 22 44  1  0  0  0
 22 47  1  1  0  0
 23 24  1  0  0  0
 24 25  1  6  0  0
 25 26  2  0  0  0
 25 27  1  0  0  0
 27 28  1  0  0  0
 28 29  1  0  0  0
 28 33  1  0  0  0
 28 30  1  1  0  0
 29 30  1  0  0  0
 30 31  1  6  0  0
 31 32  2  0  0  0
 33 34  2  0  0  0
 33 35  1  0  0  0
 35 36  1  0  0  0
 36 37  2  0  0  0
 36 38  2  0  0  0
 36 39  1  0  0  0
 39 40  1  0  0  0
 39 43  1  0  0  0
 40 41  1  0  0  0
 41 42  1  0  0  0
 42 43  1  0  0  0
 44 45  1  0  0  0
 44 46  1  0  0  0
 44 47  1  0  0  0
 47 48  1  0  0  0
 47 50  1  0  0  0
 48 49  1  0  0  0
 49 50  1  0  0  0
 51 52  1  0  0  0
 51 53  1  0  0  0
 51 57  1  0  0  0
 53 54  1  0  0  0
 54 55  1  0  0  0
 55 56  1  0  0  0
 56 57  1  0  0  0
 58 59  1  0  0  0
 58 60  1  0  0  0
 58 64  1  0  0  0
 60 61  1  0  0  0
 61 62  1  0  0  0
 62 63  1  0  0  0
 63 64  1  0  0  0
M  END
> <s_m_entry_id>
6860

> <s_m_entry_name>
NS3-4A.401

> <CHEMBLID>
CHEMBL3645716

> <s_m_Source_Path>
/home/liwei/Desktop/Machine/HCV/Active

> <s_m_Source_File>
NS3-4A.sdf

> <i_m_Source_File_Index>
401

$$$$
CHEMBL3645717
                    3D
 Structure written by MMmdl.
 63 69  0  0  1  0            999 V2000
   -3.5052  -12.3115    0.0000 C   0  0  0  0  0  0
   -2.2617  -11.4727    0.0000 C   0  0  0  0  0  0
   -0.9135  -12.1302    0.0000 N   0  0  0  0  0  0
   -0.8089  -13.6266    0.0000 C   0  0  0  0  0  0
   -2.0524  -14.4654    0.0000 C   0  0  0  0  0  0
    0.3301  -11.2914    0.0000 S   0  0  0  0  0  0
    1.1689  -12.5350    0.0000 O   0  0  0  0  0  0
   -0.5087  -10.0479    0.0000 O   0  0  0  0  0  0
    1.5736  -10.4526    0.0000 N   0  0  0  0  0  0
    1.4690   -8.9563    0.0000 C   0  0  0  0  0  0
    0.1208   -8.2987    0.0000 O   0  0  0  0  0  0
    2.7125   -8.1175    0.0000 C   0  0  2  0  0  0
    3.7545   -9.1965    0.0000 C   0  0  0  0  0  0
    4.1680   -7.7546    0.0000 C   0  0  1  0  0  0
    5.2470   -6.7126    0.0000 C   0  0  0  0  0  0
    6.6889   -7.1261    0.0000 C   0  0  0  0  0  0
    2.1024   -6.7472    0.0000 N   0  0  0  0  0  0
    2.9841   -5.5337    0.0000 C   0  0  0  0  0  0
    4.4759   -5.6905    0.0000 O   0  0  0  0  0  0
    2.3740   -4.1633    0.0000 C   0  0  2  0  0  0
    0.9068   -3.8515    0.0000 C   0  0  0  0  0  0
    0.7500   -2.3597    0.0000 C   0  0  2  0  0  0
    2.1203   -1.7496    0.0000 C   0  0  0  0  0  0
    3.1240   -2.8643    0.0000 N   0  0  0  0  0  0
    4.6158   -2.7075    0.0000 C   0  0  0  0  0  0
    5.4975   -3.9210    0.0000 O   0  0  0  0  0  0
    5.2259   -1.3372    0.0000 C   0  0  1  0  0  0
    6.7177   -1.1804    0.0000 N   0  0  0  0  0  0
    7.3278    0.1899    0.0000 C   0  0  0  0  0  0
    6.4461    1.4034    0.0000 O   0  0  0  0  0  0
    8.8196    0.3467    0.0000 C   0  0  1  0  0  0
    9.7013   -0.8668    0.0000 N   0  0  0  0  0  0
   11.1930   -0.7100    0.0000 C   0  0  0  0  0  0
   11.8031    0.6603    0.0000 O   0  0  0  0  0  0
   12.0747   -1.9236    0.0000 C   0  0  2  0  0  0
   13.5665   -1.7668    0.0000 C   0  0  0  0  0  0
   14.4482   -2.9803    0.0000 C   0  0  0  0  0  0
   13.8381   -4.3506    0.0000 C   0  0  0  0  0  0
   12.3463   -4.5074    0.0000 C   0  0  0  0  0  0
   11.4646   -3.2939    0.0000 N   0  0  0  0  0  0
    9.9728   -3.4507    0.0000 C   0  0  0  0  0  0
    9.0911   -2.2371    0.0000 C   0  0  0  0  0  0
    9.3627   -4.8210    0.0000 C   0  0  0  0  0  0
    9.4297    1.7170    0.0000 C   0  0  0  0  0  0
    8.5480    2.9305    0.0000 C   0  0  0  0  0  0
    9.1581    4.3009    0.0000 C   0  0  0  0  0  0
   10.6499    4.4577    0.0000 C   0  0  0  0  0  0
   11.5316    3.2441    0.0000 C   0  0  0  0  0  0
   10.9215    1.8738    0.0000 C   0  0  0  0  0  0
    4.3442   -0.1237    0.0000 C   0  0  0  0  0  0
    3.3022   -1.2027    0.0000 C   0  0  0  0  0  0
    5.6924    0.5339    0.0000 C   0  0  0  0  0  0
    5.7970    2.0302    0.0000 C   0  0  0  0  0  0
    4.5535    2.8690    0.0000 O   0  0  0  0  0  0
    3.2053    2.2115    0.0000 C   0  0  0  0  0  0
    3.1007    0.7151    0.0000 C   0  0  0  0  0  0
   -0.7500   -2.3597    0.0000 C   0  0  0  0  0  0
   -1.0105   -3.8369    0.0000 C   0  0  0  0  0  0
   -2.1595   -1.8467    0.0000 C   0  0  0  0  0  0
    0.0000   -1.0607    0.0000 C   0  0  0  0  0  0
    1.0607    0.0000    0.0000 C   0  0  0  0  0  0
    0.0000    1.0607    0.0000 C   0  0  0  0  0  0
   -1.0607    0.0000    0.0000 C   0  0  0  0  0  0
  1  2  1  0  0  0
  2  3  1  0  0  0
  3  4  1  0  0  0
  3  6  1  0  0  0
  4  5  1  0  0  0
  6  7  2  0  0  0
  6  8  2  0  0  0
  6  9  1  0  0  0
  9 10  1  0  0  0
 10 11  2  0  0  0
 10 12  1  0  0  0
 12 13  1  0  0  0
 12 17  1  0  0  0
 12 14  1  6  0  0
 13 14  1  0  0  0
 14 15  1  6  0  0
 15 16  2  0  0  0
 17 18  1  0  0  0
 18 19  2  0  0  0
 18 20  1  0  0  0
 20 21  1  0  0  0
 20 24  1  1  0  0
 21 22  1  0  0  0
 22 23  1  0  0  0
 22 57  1  0  0  0
 22 60  1  6  0  0
 23 24  1  0  0  0
 24 25  1  0  0  0
 25 26  2  0  0  0
 25 27  1  0  0  0
 27 28  1  0  0  0
 27 50  1  6  0  0
 28 29  1  0  0  0
 29 30  2  0  0  0
 29 31  1  0  0  0
 31 32  1  0  0  0
 31 44  1  6  0  0
 32 33  1  0  0  0
 33 34  2  0  0  0
 33 35  1  0  0  0
 35 36  1  0  0  0
 35 40  1  1  0  0
 36 37  1  0  0  0
 37 38  1  0  0  0
 38 39  1  0  0  0
 39 40  1  0  0  0
 40 41  1  0  0  0
 41 42  1  0  0  0
 41 43  1  0  0  0
 44 45  1  0  0  0
 44 49  1  0  0  0
 45 46  1  0  0  0
 46 47  1  0  0  0
 47 48  1  0  0  0
 48 49  1  0  0  0
 50 51  1  0  0  0
 50 52  1  0  0  0
 50 56  1  0  0  0
 52 53  1  0  0  0
 53 54  1  0  0  0
 54 55  1  0  0  0
 55 56  1  0  0  0
 57 58  1  0  0  0
 57 59  1  0  0  0
 57 60  1  0  0  0
 60 61  1  0  0  0
 60 63  1  0  0  0
 61 62  1  0  0  0
 62 63  1  0  0  0
M  END
> <s_m_entry_id>
6861

> <s_m_entry_name>
NS3-4A.402

> <CHEMBLID>
CHEMBL3645717

> <s_m_Source_Path>
/home/liwei/Desktop/Machine/HCV/Active

> <s_m_Source_File>
NS3-4A.sdf

> <i_m_Source_File_Index>
402

$$$$
CHEMBL3645718
                    3D
 Structure written by MMmdl.
 62 68  0  0  1  0            999 V2000
   -3.5052  -12.3115    0.0000 C   0  0  0  0  0  0
   -2.2617  -11.4727    0.0000 C   0  0  0  0  0  0
   -0.9135  -12.1302    0.0000 N   0  0  0  0  0  0
   -0.8089  -13.6266    0.0000 C   0  0  0  0  0  0
   -2.0524  -14.4654    0.0000 C   0  0  0  0  0  0
    0.3301  -11.2914    0.0000 S   0  0  0  0  0  0
    1.1689  -12.5350    0.0000 O   0  0  0  0  0  0
   -0.5087  -10.0479    0.0000 O   0  0  0  0  0  0
    1.5736  -10.4526    0.0000 N   0  0  0  0  0  0
    1.4690   -8.9563    0.0000 C   0  0  0  0  0  0
    0.1208   -8.2987    0.0000 O   0  0  0  0  0  0
    2.7125   -8.1175    0.0000 C   0  0  2  0  0  0
    3.7545   -9.1965    0.0000 C   0  0  0  0  0  0
    4.1680   -7.7546    0.0000 C   0  0  1  0  0  0
    5.2470   -6.7126    0.0000 C   0  0  0  0  0  0
    6.6889   -7.1261    0.0000 C   0  0  0  0  0  0
    2.1024   -6.7472    0.0000 N   0  0  0  0  0  0
    2.9841   -5.5337    0.0000 C   0  0  0  0  0  0
    4.4759   -5.6905    0.0000 O   0  0  0  0  0  0
    2.3740   -4.1633    0.0000 C   0  0  2  0  0  0
    0.9068   -3.8515    0.0000 C   0  0  0  0  0  0
    0.7500   -2.3597    0.0000 C   0  0  2  0  0  0
    2.1203   -1.7496    0.0000 C   0  0  0  0  0  0
    3.1240   -2.8643    0.0000 N   0  0  0  0  0  0
    4.6158   -2.7075    0.0000 C   0  0  0  0  0  0
    5.4975   -3.9210    0.0000 O   0  0  0  0  0  0
    5.2259   -1.3372    0.0000 C   0  0  1  0  0  0
    6.7177   -1.1804    0.0000 N   0  0  0  0  0  0
    7.3278    0.1899    0.0000 C   0  0  0  0  0  0
    6.4461    1.4034    0.0000 O   0  0  0  0  0  0
    8.8196    0.3467    0.0000 C   0  0  1  0  0  0
    9.7013   -0.8668    0.0000 N   0  0  0  0  0  0
   11.1930   -0.7100    0.0000 C   0  0  0  0  0  0
   11.8031    0.6603    0.0000 O   0  0  0  0  0  0
   12.0747   -1.9236    0.0000 C   0  0  2  0  0  0
   13.5665   -1.7668    0.0000 C   0  0  0  0  0  0
   14.4482   -2.9803    0.0000 C   0  0  0  0  0  0
   13.8381   -4.3506    0.0000 C   0  0  0  0  0  0
   12.3463   -4.5074    0.0000 C   0  0  0  0  0  0
   11.4646   -3.2939    0.0000 N   0  0  0  0  0  0
    9.9728   -3.4507    0.0000 C   0  0  0  0  0  0
    9.0911   -2.2371    0.0000 C   0  0  0  0  0  0
    9.4297    1.7170    0.0000 C   0  0  0  0  0  0
    8.5480    2.9305    0.0000 C   0  0  0  0  0  0
    9.1581    4.3009    0.0000 C   0  0  0  0  0  0
   10.6499    4.4577    0.0000 C   0  0  0  0  0  0
   11.5316    3.2441    0.0000 C   0  0  0  0  0  0
   10.9215    1.8738    0.0000 C   0  0  0  0  0  0
    4.3442   -0.1237    0.0000 C   0  0  0  0  0  0
    3.3022   -1.2027    0.0000 C   0  0  0  0  0  0
    5.6924    0.5339    0.0000 C   0  0  0  0  0  0
    5.7970    2.0302    0.0000 C   0  0  0  0  0  0
    4.5535    2.8690    0.0000 O   0  0  0  0  0  0
    3.2053    2.2115    0.0000 C   0  0  0  0  0  0
    3.1007    0.7151    0.0000 C   0  0  0  0  0  0
   -0.7500   -2.3597    0.0000 C   0  0  0  0  0  0
   -1.0105   -3.8369    0.0000 C   0  0  0  0  0  0
   -2.1595   -1.8467    0.0000 C   0  0  0  0  0  0
    0.0000   -1.0607    0.0000 C   0  0  0  0  0  0
    1.0607    0.0000    0.0000 C   0  0  0  0  0  0
    0.0000    1.0607    0.0000 C   0  0  0  0  0  0
   -1.0607    0.0000    0.0000 C   0  0  0  0  0  0
  1  2  1  0  0  0
  2  3  1  0  0  0
  3  4  1  0  0  0
  3  6  1  0  0  0
  4  5  1  0  0  0
  6  7  2  0  0  0
  6  8  2  0  0  0
  6  9  1  0  0  0
  9 10  1  0  0  0
 10 11  2  0  0  0
 10 12  1  0  0  0
 12 13  1  0  0  0
 12 17  1  0  0  0
 12 14  1  6  0  0
 13 14  1  0  0  0
 14 15  1  6  0  0
 15 16  2  0  0  0
 17 18  1  0  0  0
 18 19  2  0  0  0
 18 20  1  0  0  0
 20 21  1  0  0  0
 20 24  1  1  0  0
 21 22  1  0  0  0
 22 23  1  0  0  0
 22 56  1  0  0  0
 22 59  1  6  0  0
 23 24  1  0  0  0
 24 25  1  0  0  0
 25 26  2  0  0  0
 25 27  1  0  0  0
 27 28  1  0  0  0
 27 49  1  6  0  0
 28 29  1  0  0  0
 29 30  2  0  0  0
 29 31  1  0  0  0
 31 32  1  0  0  0
 31 43  1  6  0  0
 32 33  1  0  0  0
 33 34  2  0  0  0
 33 35  1  0  0  0
 35 36  1  0  0  0
 35 40  1  1  0  0
 36 37  1  0  0  0
 37 38  1  0  0  0
 38 39  1  0  0  0
 39 40  1  0  0  0
 40 41  1  0  0  0
 41 42  1  0  0  0
 43 44  1  0  0  0
 43 48  1  0  0  0
 44 45  1  0  0  0
 45 46  1  0  0  0
 46 47  1  0  0  0
 47 48  1  0  0  0
 49 50  1  0  0  0
 49 51  1  0  0  0
 49 55  1  0  0  0
 51 52  1  0  0  0
 52 53  1  0  0  0
 53 54  1  0  0  0
 54 55  1  0  0  0
 56 57  1  0  0  0
 56 58  1  0  0  0
 56 59  1  0  0  0
 59 60  1  0  0  0
 59 62  1  0  0  0
 60 61  1  0  0  0
 61 62  1  0  0  0
M  END
> <s_m_entry_id>
6862

> <s_m_entry_name>
NS3-4A.403

> <CHEMBLID>
CHEMBL3645718

> <s_m_Source_Path>
/home/liwei/Desktop/Machine/HCV/Active

> <s_m_Source_File>
NS3-4A.sdf

> <i_m_Source_File_Index>
403

$$$$
CHEMBL3645719
                    3D
 Structure written by MMmdl.
 64 70  0  0  1  0            999 V2000
   -3.5052  -12.3115    0.0000 C   0  0  0  0  0  0
   -2.2617  -11.4727    0.0000 C   0  0  0  0  0  0
   -0.9135  -12.1302    0.0000 N   0  0  0  0  0  0
   -0.8089  -13.6266    0.0000 C   0  0  0  0  0  0
   -2.0524  -14.4654    0.0000 C   0  0  0  0  0  0
    0.3301  -11.2914    0.0000 S   0  0  0  0  0  0
    1.1689  -12.5350    0.0000 O   0  0  0  0  0  0
   -0.5087  -10.0479    0.0000 O   0  0  0  0  0  0
    1.5736  -10.4526    0.0000 N   0  0  0  0  0  0
    1.4690   -8.9563    0.0000 C   0  0  0  0  0  0
    0.1208   -8.2987    0.0000 O   0  0  0  0  0  0
    2.7125   -8.1175    0.0000 C   0  0  2  0  0  0
    3.7545   -9.1965    0.0000 C   0  0  0  0  0  0
    4.1680   -7.7546    0.0000 C   0  0  1  0  0  0
    5.2470   -6.7126    0.0000 C   0  0  0  0  0  0
    6.6889   -7.1261    0.0000 C   0  0  0  0  0  0
    2.1024   -6.7472    0.0000 N   0  0  0  0  0  0
    2.9841   -5.5337    0.0000 C   0  0  0  0  0  0
    4.4759   -5.6905    0.0000 O   0  0  0  0  0  0
    2.3740   -4.1633    0.0000 C   0  0  2  0  0  0
    0.9068   -3.8515    0.0000 C   0  0  0  0  0  0
    0.7500   -2.3597    0.0000 C   0  0  2  0  0  0
    2.1203   -1.7496    0.0000 C   0  0  0  0  0  0
    3.1240   -2.8643    0.0000 N   0  0  0  0  0  0
    4.6158   -2.7075    0.0000 C   0  0  0  0  0  0
    5.4975   -3.9210    0.0000 O   0  0  0  0  0  0
    5.2259   -1.3372    0.0000 C   0  0  1  0  0  0
    6.7177   -1.1804    0.0000 N   0  0  0  0  0  0
    7.3278    0.1899    0.0000 C   0  0  0  0  0  0
    6.4461    1.4034    0.0000 O   0  0  0  0  0  0
    8.8196    0.3467    0.0000 C   0  0  1  0  0  0
    9.7013   -0.8668    0.0000 N   0  0  0  0  0  0
   11.1930   -0.7100    0.0000 C   0  0  0  0  0  0
   11.8031    0.6603    0.0000 O   0  0  0  0  0  0
   12.0747   -1.9236    0.0000 C   0  0  2  0  0  0
   13.5665   -1.7668    0.0000 C   0  0  0  0  0  0
   14.4482   -2.9803    0.0000 C   0  0  0  0  0  0
   13.8381   -4.3506    0.0000 C   0  0  0  0  0  0
   12.3463   -4.5074    0.0000 C   0  0  0  0  0  0
   11.4646   -3.2939    0.0000 N   0  0  0  0  0  0
    9.9728   -3.4507    0.0000 C   0  0  0  0  0  0
    9.0911   -2.2371    0.0000 C   0  0  0  0  0  0
    9.3627   -4.8210    0.0000 C   0  0  0  0  0  0
    9.4297    1.7170    0.0000 C   0  0  0  0  0  0
    7.9742    2.0799    0.0000 C   0  0  0  0  0  0
   10.6732    0.8782    0.0000 C   0  0  0  0  0  0
   12.0214    1.5358    0.0000 C   0  0  0  0  0  0
   12.1261    3.0321    0.0000 C   0  0  0  0  0  0
   10.8825    3.8709    0.0000 C   0  0  0  0  0  0
    9.5343    3.2134    0.0000 C   0  0  0  0  0  0
    4.3442   -0.1237    0.0000 C   0  0  0  0  0  0
    3.3022   -1.2027    0.0000 C   0  0  0  0  0  0
    5.6924    0.5339    0.0000 C   0  0  0  0  0  0
    5.7970    2.0302    0.0000 C   0  0  0  0  0  0
    4.5535    2.8690    0.0000 O   0  0  0  0  0  0
    3.2053    2.2115    0.0000 C   0  0  0  0  0  0
    3.1007    0.7151    0.0000 C   0  0  0  0  0  0
   -0.7500   -2.3597    0.0000 C   0  0  0  0  0  0
   -1.0105   -3.8369    0.0000 C   0  0  0  0  0  0
   -2.1595   -1.8467    0.0000 C   0  0  0  0  0  0
    0.0000   -1.0607    0.0000 C   0  0  0  0  0  0
    1.0607    0.0000    0.0000 C   0  0  0  0  0  0
    0.0000    1.0607    0.0000 C   0  0  0  0  0  0
   -1.0607    0.0000    0.0000 C   0  0  0  0  0  0
  1  2  1  0  0  0
  2  3  1  0  0  0
  3  4  1  0  0  0
  3  6  1  0  0  0
  4  5  1  0  0  0
  6  7  2  0  0  0
  6  8  2  0  0  0
  6  9  1  0  0  0
  9 10  1  0  0  0
 10 11  2  0  0  0
 10 12  1  0  0  0
 12 13  1  0  0  0
 12 17  1  0  0  0
 12 14  1  6  0  0
 13 14  1  0  0  0
 14 15  1  6  0  0
 15 16  2  0  0  0
 17 18  1  0  0  0
 18 19  2  0  0  0
 18 20  1  0  0  0
 20 21  1  0  0  0
 20 24  1  1  0  0
 21 22  1  0  0  0
 22 23  1  0  0  0
 22 58  1  0  0  0
 22 61  1  6  0  0
 23 24  1  0  0  0
 24 25  1  0  0  0
 25 26  2  0  0  0
 25 27  1  0  0  0
 27 28  1  0  0  0
 27 51  1  6  0  0
 28 29  1  0  0  0
 29 30  2  0  0  0
 29 31  1  0  0  0
 31 32  1  0  0  0
 31 44  1  6  0  0
 32 33  1  0  0  0
 33 34  2  0  0  0
 33 35  1  0  0  0
 35 36  1  0  0  0
 35 40  1  1  0  0
 36 37  1  0  0  0
 37 38  1  0  0  0
 38 39  1  0  0  0
 39 40  1  0  0  0
 40 41  1  0  0  0
 41 42  1  0  0  0
 41 43  1  0  0  0
 44 45  1  0  0  0
 44 46  1  0  0  0
 44 50  1  0  0  0
 46 47  1  0  0  0
 47 48  1  0  0  0
 48 49  1  0  0  0
 49 50  1  0  0  0
 51 52  1  0  0  0
 51 53  1  0  0  0
 51 57  1  0  0  0
 53 54  1  0  0  0
 54 55  1  0  0  0
 55 56  1  0  0  0
 56 57  1  0  0  0
 58 59  1  0  0  0
 58 60  1  0  0  0
 58 61  1  0  0  0
 61 62  1  0  0  0
 61 64  1  0  0  0
 62 63  1  0  0  0
 63 64  1  0  0  0
M  END
> <s_m_entry_id>
6863

> <s_m_entry_name>
NS3-4A.404

> <CHEMBLID>
CHEMBL3645719

> <s_m_Source_Path>
/home/liwei/Desktop/Machine/HCV/Active

> <s_m_Source_File>
NS3-4A.sdf

> <i_m_Source_File_Index>
404

$$$$
CHEMBL3645720
                    3D
 Structure written by MMmdl.
 62 68  0  0  1  0            999 V2000
   -3.5052  -12.3115    0.0000 C   0  0  0  0  0  0
   -2.2617  -11.4727    0.0000 C   0  0  0  0  0  0
   -0.9135  -12.1302    0.0000 N   0  0  0  0  0  0
   -0.8089  -13.6266    0.0000 C   0  0  0  0  0  0
   -2.0524  -14.4654    0.0000 C   0  0  0  0  0  0
    0.3301  -11.2914    0.0000 S   0  0  0  0  0  0
    1.1689  -12.5350    0.0000 O   0  0  0  0  0  0
   -0.5087  -10.0479    0.0000 O   0  0  0  0  0  0
    1.5736  -10.4526    0.0000 N   0  0  0  0  0  0
    1.4690   -8.9563    0.0000 C   0  0  0  0  0  0
    0.1208   -8.2987    0.0000 O   0  0  0  0  0  0
    2.7125   -8.1175    0.0000 C   0  0  2  0  0  0
    3.7545   -9.1965    0.0000 C   0  0  0  0  0  0
    4.1680   -7.7546    0.0000 C   0  0  1  0  0  0
    5.2470   -6.7126    0.0000 C   0  0  0  0  0  0
    6.6889   -7.1261    0.0000 C   0  0  0  0  0  0
    2.1024   -6.7472    0.0000 N   0  0  0  0  0  0
    2.9841   -5.5337    0.0000 C   0  0  0  0  0  0
    4.4759   -5.6905    0.0000 O   0  0  0  0  0  0
    2.3740   -4.1633    0.0000 C   0  0  2  0  0  0
    0.9068   -3.8515    0.0000 C   0  0  0  0  0  0
    0.7500   -2.3597    0.0000 C   0  0  2  0  0  0
    2.1203   -1.7496    0.0000 C   0  0  0  0  0  0
    3.1240   -2.8643    0.0000 N   0  0  0  0  0  0
    4.6158   -2.7075    0.0000 C   0  0  0  0  0  0
    5.4975   -3.9210    0.0000 O   0  0  0  0  0  0
    5.2259   -1.3372    0.0000 C   0  0  1  0  0  0
    4.3442   -0.1237    0.0000 N   0  0  0  0  0  0
    4.9543    1.2466    0.0000 C   0  0  0  0  0  0
    6.4461    1.4034    0.0000 O   0  0  0  0  0  0
    4.0727    2.4602    0.0000 C   0  0  1  0  0  0
    2.5809    2.3034    0.0000 N   0  0  0  0  0  0
    1.6992    3.5169    0.0000 C   0  0  0  0  0  0
    2.3093    4.8872    0.0000 O   0  0  0  0  0  0
    0.2074    3.3601    0.0000 C   0  0  2  0  0  0
   -0.5426    2.0611    0.0000 C   0  0  0  0  0  0
   -2.0098    2.3729    0.0000 C   0  0  0  0  0  0
   -2.1666    3.8647    0.0000 C   0  0  0  0  0  0
   -0.7963    4.4748    0.0000 N   0  0  0  0  0  0
   -0.4844    5.9420    0.0000 C   0  0  0  0  0  0
   -1.5991    6.9457    0.0000 C   0  0  0  0  0  0
    4.6828    3.8305    0.0000 C   0  0  0  0  0  0
    5.9263    2.9917    0.0000 C   0  0  0  0  0  0
    3.2273    4.1934    0.0000 C   0  0  0  0  0  0
    2.8139    5.6353    0.0000 C   0  0  0  0  0  0
    3.8558    6.7143    0.0000 C   0  0  0  0  0  0
    5.3113    6.3514    0.0000 C   0  0  0  0  0  0
    5.7247    4.9095    0.0000 C   0  0  0  0  0  0
    6.7177   -1.1804    0.0000 C   0  0  0  0  0  0
    6.6131   -2.6768    0.0000 C   0  0  0  0  0  0
    6.3042    0.2615    0.0000 C   0  0  0  0  0  0
    7.3462    1.3405    0.0000 C   0  0  0  0  0  0
    8.8017    0.9776    0.0000 O   0  0  0  0  0  0
    9.2151   -0.4643    0.0000 C   0  0  0  0  0  0
    8.1731   -1.5433    0.0000 C   0  0  0  0  0  0
   -0.7500   -2.3597    0.0000 C   0  0  0  0  0  0
   -1.0105   -3.8369    0.0000 C   0  0  0  0  0  0
   -2.1595   -1.8467    0.0000 C   0  0  0  0  0  0
   -0.0000   -1.0607    0.0000 C   0  0  0  0  0  0
    1.0607    0.0000    0.0000 C   0  0  0  0  0  0
    0.0000    1.0607    0.0000 C   0  0  0  0  0  0
   -1.0607    0.0000    0.0000 C   0  0  0  0  0  0
  1  2  1  0  0  0
  2  3  1  0  0  0
  3  4  1  0  0  0
  3  6  1  0  0  0
  4  5  1  0  0  0
  6  7  2  0  0  0
  6  8  2  0  0  0
  6  9  1  0  0  0
  9 10  1  0  0  0
 10 11  2  0  0  0
 10 12  1  0  0  0
 12 13  1  0  0  0
 12 17  1  0  0  0
 12 14  1  6  0  0
 13 14  1  0  0  0
 14 15  1  6  0  0
 15 16  2  0  0  0
 17 18  1  0  0  0
 18 19  2  0  0  0
 18 20  1  0  0  0
 20 21  1  0  0  0
 20 24  1  1  0  0
 21 22  1  0  0  0
 22 23  1  0  0  0
 22 56  1  0  0  0
 22 59  1  6  0  0
 23 24  1  0  0  0
 24 25  1  0  0  0
 25 26  2  0  0  0
 25 27  1  0  0  0
 27 28  1  0  0  0
 27 49  1  6  0  0
 28 29  1  0  0  0
 29 30  2  0  0  0
 29 31  1  0  0  0
 31 32  1  0  0  0
 31 42  1  6  0  0
 32 33  1  0  0  0
 33 34  2  0  0  0
 33 35  1  0  0  0
 35 36  1  0  0  0
 35 39  1  1  0  0
 36 37  1  0  0  0
 37 38  1  0  0  0
 38 39  1  0  0  0
 39 40  1  0  0  0
 40 41  1  0  0  0
 42 43  1  0  0  0
 42 44  1  0  0  0
 42 48  1  0  0  0
 44 45  1  0  0  0
 45 46  1  0  0  0
 46 47  1  0  0  0
 47 48  1  0  0  0
 49 50  1  0  0  0
 49 51  1  0  0  0
 49 55  1  0  0  0
 51 52  1  0  0  0
 52 53  1  0  0  0
 53 54  1  0  0  0
 54 55  1  0  0  0
 56 57  1  0  0  0
 56 58  1  0  0  0
 56 59  1  0  0  0
 59 60  1  0  0  0
 59 62  1  0  0  0
 60 61  1  0  0  0
 61 62  1  0  0  0
M  END
> <s_m_entry_id>
6864

> <s_m_entry_name>
NS3-4A.405

> <CHEMBLID>
CHEMBL3645720

> <s_m_Source_Path>
/home/liwei/Desktop/Machine/HCV/Active

> <s_m_Source_File>
NS3-4A.sdf

> <i_m_Source_File_Index>
405

$$$$
CHEMBL3645721
                    3D
 Structure written by MMmdl.
 61 67  0  0  1  0            999 V2000
   -3.5052  -12.3115    0.0000 C   0  0  0  0  0  0
   -2.2617  -11.4727    0.0000 C   0  0  0  0  0  0
   -0.9135  -12.1302    0.0000 N   0  0  0  0  0  0
   -0.8089  -13.6266    0.0000 C   0  0  0  0  0  0
   -2.0524  -14.4654    0.0000 C   0  0  0  0  0  0
    0.3301  -11.2914    0.0000 S   0  0  0  0  0  0
    1.1689  -12.5350    0.0000 O   0  0  0  0  0  0
   -0.5087  -10.0479    0.0000 O   0  0  0  0  0  0
    1.5736  -10.4526    0.0000 N   0  0  0  0  0  0
    1.4690   -8.9563    0.0000 C   0  0  0  0  0  0
    0.1208   -8.2987    0.0000 O   0  0  0  0  0  0
    2.7125   -8.1175    0.0000 C   0  0  2  0  0  0
    3.7545   -9.1965    0.0000 C   0  0  0  0  0  0
    4.1680   -7.7546    0.0000 C   0  0  1  0  0  0
    5.2470   -6.7126    0.0000 C   0  0  0  0  0  0
    6.6889   -7.1261    0.0000 C   0  0  0  0  0  0
    2.1024   -6.7472    0.0000 N   0  0  0  0  0  0
    2.9841   -5.5337    0.0000 C   0  0  0  0  0  0
    4.4759   -5.6905    0.0000 O   0  0  0  0  0  0
    2.3740   -4.1633    0.0000 C   0  0  2  0  0  0
    0.9068   -3.8515    0.0000 C   0  0  0  0  0  0
    0.7500   -2.3597    0.0000 C   0  0  2  0  0  0
    2.1203   -1.7496    0.0000 C   0  0  0  0  0  0
    3.1240   -2.8643    0.0000 N   0  0  0  0  0  0
    4.6158   -2.7075    0.0000 C   0  0  0  0  0  0
    5.4975   -3.9210    0.0000 O   0  0  0  0  0  0
    5.2259   -1.3372    0.0000 C   0  0  1  0  0  0
    4.3442   -0.1237    0.0000 N   0  0  0  0  0  0
    4.9543    1.2466    0.0000 C   0  0  0  0  0  0
    6.4461    1.4034    0.0000 O   0  0  0  0  0  0
    4.0727    2.4602    0.0000 C   0  0  1  0  0  0
    2.5809    2.3034    0.0000 N   0  0  0  0  0  0
    1.6992    3.5169    0.0000 C   0  0  0  0  0  0
    2.3093    4.8872    0.0000 O   0  0  0  0  0  0
    0.2074    3.3601    0.0000 C   0  0  2  0  0  0
   -0.5426    2.0611    0.0000 C   0  0  0  0  0  0
   -2.0098    2.3729    0.0000 C   0  0  0  0  0  0
   -2.1666    3.8647    0.0000 C   0  0  0  0  0  0
   -0.7963    4.4748    0.0000 N   0  0  0  0  0  0
   -0.4844    5.9420    0.0000 C   0  0  0  0  0  0
   -1.5991    6.9457    0.0000 C   0  0  0  0  0  0
    4.6828    3.8305    0.0000 C   0  0  0  0  0  0
    6.1745    3.9873    0.0000 C   0  0  0  0  0  0
    6.7846    5.3576    0.0000 C   0  0  0  0  0  0
    5.9030    6.5711    0.0000 C   0  0  0  0  0  0
    4.4112    6.4143    0.0000 C   0  0  0  0  0  0
    3.8011    5.0440    0.0000 C   0  0  0  0  0  0
    6.7177   -1.1804    0.0000 C   0  0  0  0  0  0
    6.6131   -2.6768    0.0000 C   0  0  0  0  0  0
    6.3042    0.2615    0.0000 C   0  0  0  0  0  0
    7.3462    1.3405    0.0000 C   0  0  0  0  0  0
    8.8017    0.9776    0.0000 O   0  0  0  0  0  0
    9.2151   -0.4643    0.0000 C   0  0  0  0  0  0
    8.1731   -1.5433    0.0000 C   0  0  0  0  0  0
   -0.7500   -2.3597    0.0000 C   0  0  0  0  0  0
   -1.0105   -3.8369    0.0000 C   0  0  0  0  0  0
   -2.1595   -1.8467    0.0000 C   0  0  0  0  0  0
   -0.0000   -1.0607    0.0000 C   0  0  0  0  0  0
    1.0607    0.0000    0.0000 C   0  0  0  0  0  0
    0.0000    1.0607    0.0000 C   0  0  0  0  0  0
   -1.0607    0.0000    0.0000 C   0  0  0  0  0  0
  1  2  1  0  0  0
  2  3  1  0  0  0
  3  4  1  0  0  0
  3  6  1  0  0  0
  4  5  1  0  0  0
  6  7  2  0  0  0
  6  8  2  0  0  0
  6  9  1  0  0  0
  9 10  1  0  0  0
 10 11  2  0  0  0
 10 12  1  0  0  0
 12 13  1  0  0  0
 12 17  1  0  0  0
 12 14  1  6  0  0
 13 14  1  0  0  0
 14 15  1  6  0  0
 15 16  2  0  0  0
 17 18  1  0  0  0
 18 19  2  0  0  0
 18 20  1  0  0  0
 20 21  1  0  0  0
 20 24  1  1  0  0
 21 22  1  0  0  0
 22 23  1  0  0  0
 22 55  1  0  0  0
 22 58  1  6  0  0
 23 24  1  0  0  0
 24 25  1  0  0  0
 25 26  2  0  0  0
 25 27  1  0  0  0
 27 28  1  0  0  0
 27 48  1  6  0  0
 28 29  1  0  0  0
 29 30  2  0  0  0
 29 31  1  0  0  0
 31 32  1  0  0  0
 31 42  1  6  0  0
 32 33  1  0  0  0
 33 34  2  0  0  0
 33 35  1  0  0  0
 35 36  1  0  0  0
 35 39  1  1  0  0
 36 37  1  0  0  0
 37 38  1  0  0  0
 38 39  1  0  0  0
 39 40  1  0  0  0
 40 41  1  0  0  0
 42 43  1  0  0  0
 42 47  1  0  0  0
 43 44  1  0  0  0
 44 45  1  0  0  0
 45 46  1  0  0  0
 46 47  1  0  0  0
 48 49  1  0  0  0
 48 50  1  0  0  0
 48 54  1  0  0  0
 50 51  1  0  0  0
 51 52  1  0  0  0
 52 53  1  0  0  0
 53 54  1  0  0  0
 55 56  1  0  0  0
 55 57  1  0  0  0
 55 58  1  0  0  0
 58 59  1  0  0  0
 58 61  1  0  0  0
 59 60  1  0  0  0
 60 61  1  0  0  0
M  END
> <s_m_entry_id>
6865

> <s_m_entry_name>
NS3-4A.406

> <CHEMBLID>
CHEMBL3645721

> <s_m_Source_Path>
/home/liwei/Desktop/Machine/HCV/Active

> <s_m_Source_File>
NS3-4A.sdf

> <i_m_Source_File_Index>
406

$$$$
CHEMBL3645722
                    3D
 Structure written by MMmdl.
 62 67  0  0  1  0            999 V2000
   -3.5052  -12.3115    0.0000 C   0  0  0  0  0  0
   -2.2617  -11.4727    0.0000 C   0  0  0  0  0  0
   -0.9135  -12.1302    0.0000 N   0  0  0  0  0  0
   -0.8089  -13.6266    0.0000 C   0  0  0  0  0  0
   -2.0524  -14.4654    0.0000 C   0  0  0  0  0  0
   -1.9478  -15.9617    0.0000 F   0  0  0  0  0  0
   -3.4006  -13.8078    0.0000 F   0  0  0  0  0  0
    0.3301  -11.2914    0.0000 S   0  0  0  0  0  0
    1.1689  -12.5350    0.0000 O   0  0  0  0  0  0
   -0.5087  -10.0479    0.0000 O   0  0  0  0  0  0
    1.5736  -10.4526    0.0000 N   0  0  0  0  0  0
    1.4690   -8.9563    0.0000 C   0  0  0  0  0  0
    0.1208   -8.2987    0.0000 O   0  0  0  0  0  0
    2.7125   -8.1175    0.0000 C   0  0  2  0  0  0
    3.7545   -9.1965    0.0000 C   0  0  0  0  0  0
    4.1680   -7.7546    0.0000 C   0  0  1  0  0  0
    5.2470   -6.7126    0.0000 C   0  0  0  0  0  0
    6.6889   -7.1261    0.0000 C   0  0  0  0  0  0
    2.1024   -6.7472    0.0000 N   0  0  0  0  0  0
    2.9841   -5.5337    0.0000 C   0  0  0  0  0  0
    4.4759   -5.6905    0.0000 O   0  0  0  0  0  0
    2.3740   -4.1633    0.0000 C   0  0  2  0  0  0
    0.9068   -3.8515    0.0000 C   0  0  0  0  0  0
    0.7500   -2.3597    0.0000 C   0  0  2  0  0  0
    2.1203   -1.7496    0.0000 C   0  0  0  0  0  0
    3.1240   -2.8643    0.0000 N   0  0  0  0  0  0
    4.6158   -2.7075    0.0000 C   0  0  0  0  0  0
    5.4975   -3.9210    0.0000 O   0  0  0  0  0  0
    5.2259   -1.3372    0.0000 C   0  0  1  0  0  0
    6.7177   -1.1804    0.0000 N   0  0  0  0  0  0
    7.3278    0.1899    0.0000 C   0  0  0  0  0  0
    6.4461    1.4034    0.0000 O   0  0  0  0  0  0
    8.8196    0.3467    0.0000 C   0  0  1  0  0  0
    9.7013   -0.8668    0.0000 N   0  0  0  0  0  0
   11.1930   -0.7100    0.0000 C   0  0  0  0  0  0
   11.8031    0.6603    0.0000 O   0  0  0  0  0  0
   12.0747   -1.9236    0.0000 C   0  0  2  0  0  0
   13.5665   -1.7668    0.0000 C   0  0  0  0  0  0
   14.4482   -2.9803    0.0000 C   0  0  0  0  0  0
   13.8381   -4.3506    0.0000 C   0  0  0  0  0  0
   12.3463   -4.5074    0.0000 C   0  0  0  0  0  0
   11.4646   -3.2939    0.0000 N   0  0  0  0  0  0
    9.9728   -3.4507    0.0000 C   0  0  0  0  0  0
    9.0911   -2.2371    0.0000 C   0  0  0  0  0  0
    9.3627   -4.8210    0.0000 C   0  0  0  0  0  0
    9.4297    1.7170    0.0000 C   0  0  0  0  0  0
    8.5480    2.9305    0.0000 C   0  0  0  0  0  0
    9.1581    4.3009    0.0000 C   0  0  0  0  0  0
   10.6499    4.4577    0.0000 C   0  0  0  0  0  0
   11.5316    3.2441    0.0000 C   0  0  0  0  0  0
   10.9215    1.8738    0.0000 C   0  0  0  0  0  0
    4.3442   -0.1237    0.0000 C   0  0  0  0  0  0
    5.5577    0.7580    0.0000 C   0  0  0  0  0  0
    3.1307   -1.0054    0.0000 C   0  0  0  0  0  0
    3.4625    1.0899    0.0000 C   0  0  0  0  0  0
   -0.7500   -2.3597    0.0000 C   0  0  0  0  0  0
   -1.0105   -3.8369    0.0000 C   0  0  0  0  0  0
   -2.1595   -1.8467    0.0000 C   0  0  0  0  0  0
   -0.0000   -1.0607    0.0000 C   0  0  0  0  0  0
    1.0607    0.0000    0.0000 C   0  0  0  0  0  0
    0.0000    1.0607    0.0000 C   0  0  0  0  0  0
   -1.0607    0.0000    0.0000 C   0  0  0  0  0  0
  1  2  1  0  0  0
  2  3  1  0  0  0
  3  4  1  0  0  0
  3  8  1  0  0  0
  4  5  1  0  0  0
  5  6  1  0  0  0
  5  7  1  0  0  0
  8  9  2  0  0  0
  8 10  2  0  0  0
  8 11  1  0  0  0
 11 12  1  0  0  0
 12 13  2  0  0  0
 12 14  1  0  0  0
 14 15  1  0  0  0
 14 19  1  0  0  0
 14 16  1  6  0  0
 15 16  1  0  0  0
 16 17  1  6  0  0
 17 18  2  0  0  0
 19 20  1  0  0  0
 20 21  2  0  0  0
 20 22  1  0  0  0
 22 23  1  0  0  0
 22 26  1  1  0  0
 23 24  1  0  0  0
 24 25  1  0  0  0
 24 56  1  0  0  0
 24 59  1  6  0  0
 25 26  1  0  0  0
 26 27  1  0  0  0
 27 28  2  0  0  0
 27 29  1  0  0  0
 29 30  1  0  0  0
 29 52  1  6  0  0
 30 31  1  0  0  0
 31 32  2  0  0  0
 31 33  1  0  0  0
 33 34  1  0  0  0
 33 46  1  6  0  0
 34 35  1  0  0  0
 35 36  2  0  0  0
 35 37  1  0  0  0
 37 38  1  0  0  0
 37 42  1  1  0  0
 38 39  1  0  0  0
 39 40  1  0  0  0
 40 41  1  0  0  0
 41 42  1  0  0  0
 42 43  1  0  0  0
 43 44  1  0  0  0
 43 45  1  0  0  0
 46 47  1  0  0  0
 46 51  1  0  0  0
 47 48  1  0  0  0
 48 49  1  0  0  0
 49 50  1  0  0  0
 50 51  1  0  0  0
 52 53  1  0  0  0
 52 54  1  0  0  0
 52 55  1  0  0  0
 56 57  1  0  0  0
 56 58  1  0  0  0
 56 59  1  0  0  0
 59 60  1  0  0  0
 59 62  1  0  0  0
 60 61  1  0  0  0
 61 62  1  0  0  0
M  END
> <s_m_entry_id>
6866

> <s_m_entry_name>
NS3-4A.407

> <CHEMBLID>
CHEMBL3645722

> <s_m_Source_Path>
/home/liwei/Desktop/Machine/HCV/Active

> <s_m_Source_File>
NS3-4A.sdf

> <i_m_Source_File_Index>
407

$$$$
CHEMBL3645723
                    3D
 Structure written by MMmdl.
 61 66  0  0  1  0            999 V2000
   -3.5052  -12.3115    0.0000 C   0  0  0  0  0  0
   -2.2617  -11.4727    0.0000 C   0  0  0  0  0  0
   -0.9135  -12.1302    0.0000 N   0  0  0  0  0  0
   -0.8089  -13.6266    0.0000 C   0  0  0  0  0  0
   -2.0524  -14.4654    0.0000 C   0  0  0  0  0  0
   -1.9478  -15.9617    0.0000 F   0  0  0  0  0  0
    0.3301  -11.2914    0.0000 S   0  0  0  0  0  0
    1.1689  -12.5350    0.0000 O   0  0  0  0  0  0
   -0.5087  -10.0479    0.0000 O   0  0  0  0  0  0
    1.5736  -10.4526    0.0000 N   0  0  0  0  0  0
    1.4690   -8.9563    0.0000 C   0  0  0  0  0  0
    0.1208   -8.2987    0.0000 O   0  0  0  0  0  0
    2.7125   -8.1175    0.0000 C   0  0  2  0  0  0
    3.7545   -9.1965    0.0000 C   0  0  0  0  0  0
    4.1680   -7.7546    0.0000 C   0  0  1  0  0  0
    5.2470   -6.7126    0.0000 C   0  0  0  0  0  0
    6.6889   -7.1261    0.0000 C   0  0  0  0  0  0
    2.1024   -6.7472    0.0000 N   0  0  0  0  0  0
    2.9841   -5.5337    0.0000 C   0  0  0  0  0  0
    4.4759   -5.6905    0.0000 O   0  0  0  0  0  0
    2.3740   -4.1633    0.0000 C   0  0  2  0  0  0
    0.9068   -3.8515    0.0000 C   0  0  0  0  0  0
    0.7500   -2.3597    0.0000 C   0  0  2  0  0  0
    2.1203   -1.7496    0.0000 C   0  0  0  0  0  0
    3.1240   -2.8643    0.0000 N   0  0  0  0  0  0
    4.6158   -2.7075    0.0000 C   0  0  0  0  0  0
    5.4975   -3.9210    0.0000 O   0  0  0  0  0  0
    5.2259   -1.3372    0.0000 C   0  0  1  0  0  0
    6.7177   -1.1804    0.0000 N   0  0  0  0  0  0
    7.3278    0.1899    0.0000 C   0  0  0  0  0  0
    6.4461    1.4034    0.0000 O   0  0  0  0  0  0
    8.8196    0.3467    0.0000 C   0  0  1  0  0  0
    9.7013   -0.8668    0.0000 N   0  0  0  0  0  0
   11.1930   -0.7100    0.0000 C   0  0  0  0  0  0
   11.8031    0.6603    0.0000 O   0  0  0  0  0  0
   12.0747   -1.9236    0.0000 C   0  0  2  0  0  0
   13.5665   -1.7668    0.0000 C   0  0  0  0  0  0
   14.4482   -2.9803    0.0000 C   0  0  0  0  0  0
   13.8381   -4.3506    0.0000 C   0  0  0  0  0  0
   12.3463   -4.5074    0.0000 C   0  0  0  0  0  0
   11.4646   -3.2939    0.0000 N   0  0  0  0  0  0
    9.9728   -3.4507    0.0000 C   0  0  0  0  0  0
    9.0911   -2.2371    0.0000 C   0  0  0  0  0  0
    9.3627   -4.8210    0.0000 C   0  0  0  0  0  0
    9.4297    1.7170    0.0000 C   0  0  0  0  0  0
    8.5480    2.9305    0.0000 C   0  0  0  0  0  0
    9.1581    4.3009    0.0000 C   0  0  0  0  0  0
   10.6499    4.4577    0.0000 C   0  0  0  0  0  0
   11.5316    3.2441    0.0000 C   0  0  0  0  0  0
   10.9215    1.8738    0.0000 C   0  0  0  0  0  0
    4.3442   -0.1237    0.0000 C   0  0  0  0  0  0
    5.5577    0.7580    0.0000 C   0  0  0  0  0  0
    3.1307   -1.0054    0.0000 C   0  0  0  0  0  0
    3.4625    1.0899    0.0000 C   0  0  0  0  0  0
   -0.7500   -2.3597    0.0000 C   0  0  0  0  0  0
   -1.0105   -3.8369    0.0000 C   0  0  0  0  0  0
   -2.1595   -1.8467    0.0000 C   0  0  0  0  0  0
   -0.0000   -1.0607    0.0000 C   0  0  0  0  0  0
    1.0607    0.0000    0.0000 C   0  0  0  0  0  0
    0.0000    1.0607    0.0000 C   0  0  0  0  0  0
   -1.0607    0.0000    0.0000 C   0  0  0  0  0  0
  1  2  1  0  0  0
  2  3  1  0  0  0
  3  4  1  0  0  0
  3  7  1  0  0  0
  4  5  1  0  0  0
  5  6  1  0  0  0
  7  8  2  0  0  0
  7  9  2  0  0  0
  7 10  1  0  0  0
 10 11  1  0  0  0
 11 12  2  0  0  0
 11 13  1  0  0  0
 13 14  1  0  0  0
 13 18  1  0  0  0
 13 15  1  6  0  0
 14 15  1  0  0  0
 15 16  1  6  0  0
 16 17  2  0  0  0
 18 19  1  0  0  0
 19 20  2  0  0  0
 19 21  1  0  0  0
 21 22  1  0  0  0
 21 25  1  1  0  0
 22 23  1  0  0  0
 23 24  1  0  0  0
 23 55  1  0  0  0
 23 58  1  6  0  0
 24 25  1  0  0  0
 25 26  1  0  0  0
 26 27  2  0  0  0
 26 28  1  0  0  0
 28 29  1  0  0  0
 28 51  1  6  0  0
 29 30  1  0  0  0
 30 31  2  0  0  0
 30 32  1  0  0  0
 32 33  1  0  0  0
 32 45  1  6  0  0
 33 34  1  0  0  0
 34 35  2  0  0  0
 34 36  1  0  0  0
 36 37  1  0  0  0
 36 41  1  1  0  0
 37 38  1  0  0  0
 38 39  1  0  0  0
 39 40  1  0  0  0
 40 41  1  0  0  0
 41 42  1  0  0  0
 42 43  1  0  0  0
 42 44  1  0  0  0
 45 46  1  0  0  0
 45 50  1  0  0  0
 46 47  1  0  0  0
 47 48  1  0  0  0
 48 49  1  0  0  0
 49 50  1  0  0  0
 51 52  1  0  0  0
 51 53  1  0  0  0
 51 54  1  0  0  0
 55 56  1  0  0  0
 55 57  1  0  0  0
 55 58  1  0  0  0
 58 59  1  0  0  0
 58 61  1  0  0  0
 59 60  1  0  0  0
 60 61  1  0  0  0
M  END
> <s_m_entry_id>
6867

> <s_m_entry_name>
NS3-4A.408

> <CHEMBLID>
CHEMBL3645723

> <s_m_Source_Path>
/home/liwei/Desktop/Machine/HCV/Active

> <s_m_Source_File>
NS3-4A.sdf

> <i_m_Source_File_Index>
408

$$$$
CHEMBL3645724
                    3D
 Structure written by MMmdl.
 62 68  0  0  1  0            999 V2000
   -3.5052  -12.3115    0.0000 C   0  0  0  0  0  0
   -2.2617  -11.4727    0.0000 C   0  0  0  0  0  0
   -0.9135  -12.1302    0.0000 N   0  0  0  0  0  0
   -0.8089  -13.6266    0.0000 C   0  0  0  0  0  0
   -2.0524  -14.4654    0.0000 C   0  0  0  0  0  0
    0.3301  -11.2914    0.0000 S   0  0  0  0  0  0
    1.1689  -12.5350    0.0000 O   0  0  0  0  0  0
   -0.5087  -10.0479    0.0000 O   0  0  0  0  0  0
    1.5736  -10.4526    0.0000 N   0  0  0  0  0  0
    1.4690   -8.9563    0.0000 C   0  0  0  0  0  0
    0.1208   -8.2987    0.0000 O   0  0  0  0  0  0
    2.7125   -8.1175    0.0000 C   0  0  2  0  0  0
    3.7545   -9.1965    0.0000 C   0  0  0  0  0  0
    4.1680   -7.7546    0.0000 C   0  0  1  0  0  0
    5.2470   -6.7126    0.0000 C   0  0  0  0  0  0
    6.6889   -7.1261    0.0000 C   0  0  0  0  0  0
    2.1024   -6.7472    0.0000 N   0  0  0  0  0  0
    2.9841   -5.5337    0.0000 C   0  0  0  0  0  0
    4.4759   -5.6905    0.0000 O   0  0  0  0  0  0
    2.3740   -4.1633    0.0000 C   0  0  2  0  0  0
    0.9068   -3.8515    0.0000 C   0  0  0  0  0  0
    0.7500   -2.3597    0.0000 C   0  0  2  0  0  0
    2.1203   -1.7496    0.0000 C   0  0  0  0  0  0
    3.1240   -2.8643    0.0000 N   0  0  0  0  0  0
    4.6158   -2.7075    0.0000 C   0  0  0  0  0  0
    5.4975   -3.9210    0.0000 O   0  0  0  0  0  0
    5.2259   -1.3372    0.0000 C   0  0  1  0  0  0
    4.3442   -0.1237    0.0000 N   0  0  0  0  0  0
    4.9543    1.2466    0.0000 C   0  0  0  0  0  0
    6.4461    1.4034    0.0000 O   0  0  0  0  0  0
    4.0727    2.4602    0.0000 C   0  0  1  0  0  0
    2.5809    2.3034    0.0000 N   0  0  0  0  0  0
    1.6992    3.5169    0.0000 C   0  0  0  0  0  0
    2.3093    4.8872    0.0000 O   0  0  0  0  0  0
    0.2074    3.3601    0.0000 C   0  0  2  0  0  0
   -0.5426    2.0611    0.0000 C   0  0  0  0  0  0
   -2.0098    2.3729    0.0000 C   0  0  0  0  0  0
   -2.1666    3.8647    0.0000 C   0  0  0  0  0  0
   -0.7963    4.4748    0.0000 N   0  0  0  0  0  0
   -0.4844    5.9420    0.0000 C   0  0  0  0  0  0
   -1.5991    6.9457    0.0000 C   0  0  0  0  0  0
    4.6828    3.8305    0.0000 C   0  0  0  0  0  0
    5.9263    2.9917    0.0000 C   0  0  0  0  0  0
    3.2273    4.1934    0.0000 C   0  0  0  0  0  0
    2.8139    5.6353    0.0000 C   0  0  0  0  0  0
    3.8558    6.7143    0.0000 O   0  0  0  0  0  0
    5.3113    6.3514    0.0000 C   0  0  0  0  0  0
    5.7247    4.9095    0.0000 C   0  0  0  0  0  0
    6.7177   -1.1804    0.0000 C   0  0  0  0  0  0
    6.6131   -2.6768    0.0000 C   0  0  0  0  0  0
    6.3042    0.2615    0.0000 C   0  0  0  0  0  0
    7.3462    1.3405    0.0000 C   0  0  0  0  0  0
    8.8017    0.9776    0.0000 C   0  0  0  0  0  0
    9.2151   -0.4643    0.0000 C   0  0  0  0  0  0
    8.1731   -1.5433    0.0000 C   0  0  0  0  0  0
   -0.7500   -2.3597    0.0000 C   0  0  0  0  0  0
   -1.0105   -3.8369    0.0000 C   0  0  0  0  0  0
   -2.1595   -1.8467    0.0000 C   0  0  0  0  0  0
   -0.0000   -1.0607    0.0000 C   0  0  0  0  0  0
    1.0607    0.0000    0.0000 C   0  0  0  0  0  0
    0.0000    1.0607    0.0000 C   0  0  0  0  0  0
   -1.0607    0.0000    0.0000 C   0  0  0  0  0  0
  1  2  1  0  0  0
  2  3  1  0  0  0
  3  4  1  0  0  0
  3  6  1  0  0  0
  4  5  1  0  0  0
  6  7  2  0  0  0
  6  8  2  0  0  0
  6  9  1  0  0  0
  9 10  1  0  0  0
 10 11  2  0  0  0
 10 12  1  0  0  0
 12 13  1  0  0  0
 12 17  1  0  0  0
 12 14  1  6  0  0
 13 14  1  0  0  0
 14 15  1  6  0  0
 15 16  2  0  0  0
 17 18  1  0  0  0
 18 19  2  0  0  0
 18 20  1  0  0  0
 20 21  1  0  0  0
 20 24  1  1  0  0
 21 22  1  0  0  0
 22 23  1  0  0  0
 22 56  1  0  0  0
 22 59  1  6  0  0
 23 24  1  0  0  0
 24 25  1  0  0  0
 25 26  2  0  0  0
 25 27  1  0  0  0
 27 28  1  0  0  0
 27 49  1  6  0  0
 28 29  1  0  0  0
 29 30  2  0  0  0
 29 31  1  0  0  0
 31 32  1  0  0  0
 31 42  1  6  0  0
 32 33  1  0  0  0
 33 34  2  0  0  0
 33 35  1  0  0  0
 35 36  1  0  0  0
 35 39  1  1  0  0
 36 37  1  0  0  0
 37 38  1  0  0  0
 38 39  1  0  0  0
 39 40  1  0  0  0
 40 41  1  0  0  0
 42 43  1  0  0  0
 42 44  1  0  0  0
 42 48  1  0  0  0
 44 45  1  0  0  0
 45 46  1  0  0  0
 46 47  1  0  0  0
 47 48  1  0  0  0
 49 50  1  0  0  0
 49 51  1  0  0  0
 49 55  1  0  0  0
 51 52  1  0  0  0
 52 53  1  0  0  0
 53 54  1  0  0  0
 54 55  1  0  0  0
 56 57  1  0  0  0
 56 58  1  0  0  0
 56 59  1  0  0  0
 59 60  1  0  0  0
 59 62  1  0  0  0
 60 61  1  0  0  0
 61 62  1  0  0  0
M  END
> <s_m_entry_id>
6868

> <s_m_entry_name>
NS3-4A.409

> <CHEMBLID>
CHEMBL3645724

> <s_m_Source_Path>
/home/liwei/Desktop/Machine/HCV/Active

> <s_m_Source_File>
NS3-4A.sdf

> <i_m_Source_File_Index>
409

$$$$
CHEMBL3645725
                    3D
 Structure written by MMmdl.
 64 70  0  0  1  0            999 V2000
   -3.5052  -12.3115    0.0000 C   0  0  0  0  0  0
   -2.2617  -11.4727    0.0000 C   0  0  0  0  0  0
   -0.9135  -12.1302    0.0000 N   0  0  0  0  0  0
   -0.8089  -13.6266    0.0000 C   0  0  0  0  0  0
   -2.0524  -14.4654    0.0000 C   0  0  0  0  0  0
    0.3301  -11.2914    0.0000 S   0  0  0  0  0  0
    1.1689  -12.5350    0.0000 O   0  0  0  0  0  0
   -0.5087  -10.0479    0.0000 O   0  0  0  0  0  0
    1.5736  -10.4526    0.0000 N   0  0  0  0  0  0
    1.4690   -8.9563    0.0000 C   0  0  0  0  0  0
    0.1208   -8.2987    0.0000 O   0  0  0  0  0  0
    2.7125   -8.1175    0.0000 C   0  0  2  0  0  0
    3.7545   -9.1965    0.0000 C   0  0  0  0  0  0
    4.1680   -7.7546    0.0000 C   0  0  1  0  0  0
    5.2470   -6.7126    0.0000 C   0  0  0  0  0  0
    6.6889   -7.1261    0.0000 C   0  0  0  0  0  0
    2.1024   -6.7472    0.0000 N   0  0  0  0  0  0
    2.9841   -5.5337    0.0000 C   0  0  0  0  0  0
    4.4759   -5.6905    0.0000 O   0  0  0  0  0  0
    2.3740   -4.1633    0.0000 C   0  0  2  0  0  0
    0.9068   -3.8515    0.0000 C   0  0  0  0  0  0
    0.7500   -2.3597    0.0000 C   0  0  2  0  0  0
    2.1203   -1.7496    0.0000 C   0  0  0  0  0  0
    3.1240   -2.8643    0.0000 N   0  0  0  0  0  0
    4.6158   -2.7075    0.0000 C   0  0  0  0  0  0
    5.4975   -3.9210    0.0000 O   0  0  0  0  0  0
    5.2259   -1.3372    0.0000 C   0  0  1  0  0  0
    6.7177   -1.1804    0.0000 N   0  0  0  0  0  0
    7.3278    0.1899    0.0000 C   0  0  0  0  0  0
    6.4461    1.4034    0.0000 O   0  0  0  0  0  0
    8.8196    0.3467    0.0000 C   0  0  1  0  0  0
    9.7013   -0.8668    0.0000 N   0  0  0  0  0  0
   11.1930   -0.7100    0.0000 C   0  0  0  0  0  0
   11.8031    0.6603    0.0000 O   0  0  0  0  0  0
   12.0747   -1.9236    0.0000 C   0  0  2  0  0  0
   13.5665   -1.7668    0.0000 C   0  0  0  0  0  0
   14.4482   -2.9803    0.0000 C   0  0  0  0  0  0
   13.8381   -4.3506    0.0000 C   0  0  0  0  0  0
   12.3463   -4.5074    0.0000 C   0  0  0  0  0  0
   11.4646   -3.2939    0.0000 N   0  0  0  0  0  0
    9.9728   -3.4507    0.0000 C   0  0  0  0  0  0
    9.0911   -2.2371    0.0000 C   0  0  0  0  0  0
    9.3627   -4.8210    0.0000 C   0  0  0  0  0  0
    9.4297    1.7170    0.0000 C   0  0  0  0  0  0
    7.9742    2.0799    0.0000 C   0  0  0  0  0  0
   10.6732    0.8782    0.0000 C   0  0  0  0  0  0
   12.0214    1.5358    0.0000 C   0  0  0  0  0  0
   12.1261    3.0321    0.0000 O   0  0  0  0  0  0
   10.8825    3.8709    0.0000 C   0  0  0  0  0  0
    9.5343    3.2134    0.0000 C   0  0  0  0  0  0
    4.3442   -0.1237    0.0000 C   0  0  0  0  0  0
    3.3022   -1.2027    0.0000 C   0  0  0  0  0  0
    5.6924    0.5339    0.0000 C   0  0  0  0  0  0
    5.7970    2.0302    0.0000 C   0  0  0  0  0  0
    4.5535    2.8690    0.0000 C   0  0  0  0  0  0
    3.2053    2.2115    0.0000 C   0  0  0  0  0  0
    3.1007    0.7151    0.0000 C   0  0  0  0  0  0
   -0.7500   -2.3597    0.0000 C   0  0  0  0  0  0
   -1.0105   -3.8369    0.0000 C   0  0  0  0  0  0
   -2.1595   -1.8467    0.0000 C   0  0  0  0  0  0
    0.0000   -1.0607    0.0000 C   0  0  0  0  0  0
    1.0607    0.0000    0.0000 C   0  0  0  0  0  0
    0.0000    1.0607    0.0000 C   0  0  0  0  0  0
   -1.0607    0.0000    0.0000 C   0  0  0  0  0  0
  1  2  1  0  0  0
  2  3  1  0  0  0
  3  4  1  0  0  0
  3  6  1  0  0  0
  4  5  1  0  0  0
  6  7  2  0  0  0
  6  8  2  0  0  0
  6  9  1  0  0  0
  9 10  1  0  0  0
 10 11  2  0  0  0
 10 12  1  0  0  0
 12 13  1  0  0  0
 12 17  1  0  0  0
 12 14  1  6  0  0
 13 14  1  0  0  0
 14 15  1  6  0  0
 15 16  2  0  0  0
 17 18  1  0  0  0
 18 19  2  0  0  0
 18 20  1  0  0  0
 20 21  1  0  0  0
 20 24  1  1  0  0
 21 22  1  0  0  0
 22 23  1  0  0  0
 22 58  1  0  0  0
 22 61  1  6  0  0
 23 24  1  0  0  0
 24 25  1  0  0  0
 25 26  2  0  0  0
 25 27  1  0  0  0
 27 28  1  0  0  0
 27 51  1  6  0  0
 28 29  1  0  0  0
 29 30  2  0  0  0
 29 31  1  0  0  0
 31 32  1  0  0  0
 31 44  1  6  0  0
 32 33  1  0  0  0
 33 34  2  0  0  0
 33 35  1  0  0  0
 35 36  1  0  0  0
 35 40  1  1  0  0
 36 37  1  0  0  0
 37 38  1  0  0  0
 38 39  1  0  0  0
 39 40  1  0  0  0
 40 41  1  0  0  0
 41 42  1  0  0  0
 41 43  1  0  0  0
 44 45  1  0  0  0
 44 46  1  0  0  0
 44 50  1  0  0  0
 46 47  1  0  0  0
 47 48  1  0  0  0
 48 49  1  0  0  0
 49 50  1  0  0  0
 51 52  1  0  0  0
 51 53  1  0  0  0
 51 57  1  0  0  0
 53 54  1  0  0  0
 54 55  1  0  0  0
 55 56  1  0  0  0
 56 57  1  0  0  0
 58 59  1  0  0  0
 58 60  1  0  0  0
 58 61  1  0  0  0
 61 62  1  0  0  0
 61 64  1  0  0  0
 62 63  1  0  0  0
 63 64  1  0  0  0
M  END
> <s_m_entry_id>
6869

> <s_m_entry_name>
NS3-4A.410

> <CHEMBLID>
CHEMBL3645725

> <s_m_Source_Path>
/home/liwei/Desktop/Machine/HCV/Active

> <s_m_Source_File>
NS3-4A.sdf

> <i_m_Source_File_Index>
410

$$$$
CHEMBL3645726
                    3D
 Structure written by MMmdl.
 62 68  0  0  1  0            999 V2000
   -3.5052  -12.3115    0.0000 C   0  0  0  0  0  0
   -2.2617  -11.4727    0.0000 C   0  0  0  0  0  0
   -0.9135  -12.1302    0.0000 N   0  0  0  0  0  0
   -0.8089  -13.6266    0.0000 C   0  0  0  0  0  0
   -2.0524  -14.4654    0.0000 C   0  0  0  0  0  0
    0.3301  -11.2914    0.0000 S   0  0  0  0  0  0
    1.1689  -12.5350    0.0000 O   0  0  0  0  0  0
   -0.5087  -10.0479    0.0000 O   0  0  0  0  0  0
    1.5736  -10.4526    0.0000 N   0  0  0  0  0  0
    1.4690   -8.9563    0.0000 C   0  0  0  0  0  0
    0.1208   -8.2987    0.0000 O   0  0  0  0  0  0
    2.7125   -8.1175    0.0000 C   0  0  2  0  0  0
    3.7545   -9.1965    0.0000 C   0  0  0  0  0  0
    4.1680   -7.7546    0.0000 C   0  0  1  0  0  0
    5.2470   -6.7126    0.0000 C   0  0  0  0  0  0
    6.6889   -7.1261    0.0000 C   0  0  0  0  0  0
    2.1024   -6.7472    0.0000 N   0  0  0  0  0  0
    2.9841   -5.5337    0.0000 C   0  0  0  0  0  0
    4.4759   -5.6905    0.0000 O   0  0  0  0  0  0
    2.3740   -4.1633    0.0000 C   0  0  2  0  0  0
    0.9068   -3.8515    0.0000 C   0  0  0  0  0  0
    0.7500   -2.3597    0.0000 C   0  0  2  0  0  0
    2.1203   -1.7496    0.0000 C   0  0  0  0  0  0
    3.1240   -2.8643    0.0000 N   0  0  0  0  0  0
    4.6158   -2.7075    0.0000 C   0  0  0  0  0  0
    5.4975   -3.9210    0.0000 O   0  0  0  0  0  0
    5.2259   -1.3372    0.0000 C   0  0  1  0  0  0
    4.3442   -0.1237    0.0000 N   0  0  0  0  0  0
    4.9543    1.2466    0.0000 C   0  0  0  0  0  0
    6.4461    1.4034    0.0000 O   0  0  0  0  0  0
    4.0727    2.4602    0.0000 C   0  0  1  0  0  0
    2.5809    2.3034    0.0000 N   0  0  0  0  0  0
    1.6992    3.5169    0.0000 C   0  0  0  0  0  0
    2.3093    4.8872    0.0000 O   0  0  0  0  0  0
    0.2074    3.3601    0.0000 C   0  0  2  0  0  0
   -0.5426    2.0611    0.0000 C   0  0  0  0  0  0
   -2.0098    2.3729    0.0000 C   0  0  0  0  0  0
   -2.1666    3.8647    0.0000 C   0  0  0  0  0  0
   -0.7963    4.4748    0.0000 N   0  0  0  0  0  0
   -0.4844    5.9420    0.0000 C   0  0  0  0  0  0
   -1.5991    6.9457    0.0000 C   0  0  0  0  0  0
    4.6828    3.8305    0.0000 C   0  0  0  0  0  0
    5.9263    2.9917    0.0000 C   0  0  0  0  0  0
    3.2273    4.1934    0.0000 C   0  0  0  0  0  0
    2.8139    5.6353    0.0000 C   0  0  0  0  0  0
    3.8558    6.7143    0.0000 C   0  0  0  0  0  0
    5.3113    6.3514    0.0000 C   0  0  0  0  0  0
    5.7247    4.9095    0.0000 C   0  0  0  0  0  0
    6.7177   -1.1804    0.0000 C   0  0  0  0  0  0
    6.6131   -2.6768    0.0000 C   0  0  0  0  0  0
    6.3042    0.2615    0.0000 C   0  0  0  0  0  0
    7.3462    1.3405    0.0000 C   0  0  0  0  0  0
    8.8017    0.9776    0.0000 C   0  0  0  0  0  0
    9.2151   -0.4643    0.0000 C   0  0  0  0  0  0
    8.1731   -1.5433    0.0000 C   0  0  0  0  0  0
   -0.7500   -2.3597    0.0000 C   0  0  0  0  0  0
   -1.0105   -3.8369    0.0000 C   0  0  0  0  0  0
   -2.1595   -1.8467    0.0000 C   0  0  0  0  0  0
   -0.0000   -1.0607    0.0000 C   0  0  0  0  0  0
    1.0607    0.0000    0.0000 C   0  0  0  0  0  0
    0.0000    1.0607    0.0000 C   0  0  0  0  0  0
   -1.0607    0.0000    0.0000 C   0  0  0  0  0  0
  1  2  1  0  0  0
  2  3  1  0  0  0
  3  4  1  0  0  0
  3  6  1  0  0  0
  4  5  1  0  0  0
  6  7  2  0  0  0
  6  8  2  0  0  0
  6  9  1  0  0  0
  9 10  1  0  0  0
 10 11  2  0  0  0
 10 12  1  0  0  0
 12 13  1  0  0  0
 12 17  1  0  0  0
 12 14  1  6  0  0
 13 14  1  0  0  0
 14 15  1  6  0  0
 15 16  2  0  0  0
 17 18  1  0  0  0
 18 19  2  0  0  0
 18 20  1  0  0  0
 20 21  1  0  0  0
 20 24  1  1  0  0
 21 22  1  0  0  0
 22 23  1  0  0  0
 22 56  1  0  0  0
 22 59  1  6  0  0
 23 24  1  0  0  0
 24 25  1  0  0  0
 25 26  2  0  0  0
 25 27  1  0  0  0
 27 28  1  0  0  0
 27 49  1  6  0  0
 28 29  1  0  0  0
 29 30  2  0  0  0
 29 31  1  0  0  0
 31 32  1  0  0  0
 31 42  1  6  0  0
 32 33  1  0  0  0
 33 34  2  0  0  0
 33 35  1  0  0  0
 35 36  1  0  0  0
 35 39  1  1  0  0
 36 37  1  0  0  0
 37 38  1  0  0  0
 38 39  1  0  0  0
 39 40  1  0  0  0
 40 41  1  0  0  0
 42 43  1  0  0  0
 42 44  1  0  0  0
 42 48  1  0  0  0
 44 45  1  0  0  0
 45 46  1  0  0  0
 46 47  1  0  0  0
 47 48  1  0  0  0
 49 50  1  0  0  0
 49 51  1  0  0  0
 49 55  1  0  0  0
 51 52  1  0  0  0
 52 53  1  0  0  0
 53 54  1  0  0  0
 54 55  1  0  0  0
 56 57  1  0  0  0
 56 58  1  0  0  0
 56 59  1  0  0  0
 59 60  1  0  0  0
 59 62  1  0  0  0
 60 61  1  0  0  0
 61 62  1  0  0  0
M  END
> <s_m_entry_id>
6870

> <s_m_entry_name>
NS3-4A.411

> <CHEMBLID>
CHEMBL3645726

> <s_m_Source_Path>
/home/liwei/Desktop/Machine/HCV/Active

> <s_m_Source_File>
NS3-4A.sdf

> <i_m_Source_File_Index>
411

$$$$
CHEMBL3645727
                    3D
 Structure written by MMmdl.
 64 70  0  0  1  0            999 V2000
   -3.5052  -12.3115    0.0000 C   0  0  0  0  0  0
   -2.2617  -11.4727    0.0000 C   0  0  0  0  0  0
   -0.9135  -12.1302    0.0000 N   0  0  0  0  0  0
   -0.8089  -13.6266    0.0000 C   0  0  0  0  0  0
   -2.0524  -14.4654    0.0000 C   0  0  0  0  0  0
    0.3301  -11.2914    0.0000 S   0  0  0  0  0  0
    1.1689  -12.5350    0.0000 O   0  0  0  0  0  0
   -0.5087  -10.0479    0.0000 O   0  0  0  0  0  0
    1.5736  -10.4526    0.0000 N   0  0  0  0  0  0
    1.4690   -8.9563    0.0000 C   0  0  0  0  0  0
    0.1208   -8.2987    0.0000 O   0  0  0  0  0  0
    2.7125   -8.1175    0.0000 C   0  0  2  0  0  0
    3.7545   -9.1965    0.0000 C   0  0  0  0  0  0
    4.1680   -7.7546    0.0000 C   0  0  1  0  0  0
    5.2470   -6.7126    0.0000 C   0  0  0  0  0  0
    6.6889   -7.1261    0.0000 C   0  0  0  0  0  0
    2.1024   -6.7472    0.0000 N   0  0  0  0  0  0
    2.9841   -5.5337    0.0000 C   0  0  0  0  0  0
    4.4759   -5.6905    0.0000 O   0  0  0  0  0  0
    2.3740   -4.1633    0.0000 C   0  0  2  0  0  0
    0.9068   -3.8515    0.0000 C   0  0  0  0  0  0
    0.7500   -2.3597    0.0000 C   0  0  2  0  0  0
    2.1203   -1.7496    0.0000 C   0  0  0  0  0  0
    3.1240   -2.8643    0.0000 N   0  0  0  0  0  0
    4.6158   -2.7075    0.0000 C   0  0  0  0  0  0
    5.4975   -3.9210    0.0000 O   0  0  0  0  0  0
    5.2259   -1.3372    0.0000 C   0  0  1  0  0  0
    6.7177   -1.1804    0.0000 N   0  0  0  0  0  0
    7.3278    0.1899    0.0000 C   0  0  0  0  0  0
    6.4461    1.4034    0.0000 O   0  0  0  0  0  0
    8.8196    0.3467    0.0000 C   0  0  1  0  0  0
    9.7013   -0.8668    0.0000 N   0  0  0  0  0  0
   11.1930   -0.7100    0.0000 C   0  0  0  0  0  0
   11.8031    0.6603    0.0000 O   0  0  0  0  0  0
   12.0747   -1.9236    0.0000 C   0  0  2  0  0  0
   13.5665   -1.7668    0.0000 C   0  0  0  0  0  0
   14.4482   -2.9803    0.0000 C   0  0  0  0  0  0
   13.8381   -4.3506    0.0000 C   0  0  0  0  0  0
   12.3463   -4.5074    0.0000 C   0  0  0  0  0  0
   11.4646   -3.2939    0.0000 N   0  0  0  0  0  0
    9.9728   -3.4507    0.0000 C   0  0  0  0  0  0
    9.0911   -2.2371    0.0000 C   0  0  0  0  0  0
    9.3627   -4.8210    0.0000 C   0  0  0  0  0  0
    9.4297    1.7170    0.0000 C   0  0  0  0  0  0
    7.9742    2.0799    0.0000 C   0  0  0  0  0  0
   10.6732    0.8782    0.0000 C   0  0  0  0  0  0
   12.0214    1.5358    0.0000 C   0  0  0  0  0  0
   12.1261    3.0321    0.0000 C   0  0  0  0  0  0
   10.8825    3.8709    0.0000 C   0  0  0  0  0  0
    9.5343    3.2134    0.0000 C   0  0  0  0  0  0
    4.3442   -0.1237    0.0000 C   0  0  0  0  0  0
    3.3022   -1.2027    0.0000 C   0  0  0  0  0  0
    5.6924    0.5339    0.0000 C   0  0  0  0  0  0
    5.7970    2.0302    0.0000 C   0  0  0  0  0  0
    4.5535    2.8690    0.0000 C   0  0  0  0  0  0
    3.2053    2.2115    0.0000 C   0  0  0  0  0  0
    3.1007    0.7151    0.0000 C   0  0  0  0  0  0
   -0.7500   -2.3597    0.0000 C   0  0  0  0  0  0
   -1.0105   -3.8369    0.0000 C   0  0  0  0  0  0
   -2.1595   -1.8467    0.0000 C   0  0  0  0  0  0
    0.0000   -1.0607    0.0000 C   0  0  0  0  0  0
    1.0607    0.0000    0.0000 C   0  0  0  0  0  0
    0.0000    1.0607    0.0000 C   0  0  0  0  0  0
   -1.0607    0.0000    0.0000 C   0  0  0  0  0  0
  1  2  1  0  0  0
  2  3  1  0  0  0
  3  4  1  0  0  0
  3  6  1  0  0  0
  4  5  1  0  0  0
  6  7  2  0  0  0
  6  8  2  0  0  0
  6  9  1  0  0  0
  9 10  1  0  0  0
 10 11  2  0  0  0
 10 12  1  0  0  0
 12 13  1  0  0  0
 12 17  1  0  0  0
 12 14  1  6  0  0
 13 14  1  0  0  0
 14 15  1  6  0  0
 15 16  2  0  0  0
 17 18  1  0  0  0
 18 19  2  0  0  0
 18 20  1  0  0  0
 20 21  1  0  0  0
 20 24  1  1  0  0
 21 22  1  0  0  0
 22 23  1  0  0  0
 22 58  1  0  0  0
 22 61  1  6  0  0
 23 24  1  0  0  0
 24 25  1  0  0  0
 25 26  2  0  0  0
 25 27  1  0  0  0
 27 28  1  0  0  0
 27 51  1  6  0  0
 28 29  1  0  0  0
 29 30  2  0  0  0
 29 31  1  0  0  0
 31 32  1  0  0  0
 31 44  1  6  0  0
 32 33  1  0  0  0
 33 34  2  0  0  0
 33 35  1  0  0  0
 35 36  1  0  0  0
 35 40  1  1  0  0
 36 37  1  0  0  0
 37 38  1  0  0  0
 38 39  1  0  0  0
 39 40  1  0  0  0
 40 41  1  0  0  0
 41 42  1  0  0  0
 41 43  1  0  0  0
 44 45  1  0  0  0
 44 46  1  0  0  0
 44 50  1  0  0  0
 46 47  1  0  0  0
 47 48  1  0  0  0
 48 49  1  0  0  0
 49 50  1  0  0  0
 51 52  1  0  0  0
 51 53  1  0  0  0
 51 57  1  0  0  0
 53 54  1  0  0  0
 54 55  1  0  0  0
 55 56  1  0  0  0
 56 57  1  0  0  0
 58 59  1  0  0  0
 58 60  1  0  0  0
 58 61  1  0  0  0
 61 62  1  0  0  0
 61 64  1  0  0  0
 62 63  1  0  0  0
 63 64  1  0  0  0
M  END
> <s_m_entry_id>
6871

> <s_m_entry_name>
NS3-4A.412

> <CHEMBLID>
CHEMBL3645727

> <s_m_Source_Path>
/home/liwei/Desktop/Machine/HCV/Active

> <s_m_Source_File>
NS3-4A.sdf

> <i_m_Source_File_Index>
412

$$$$
CHEMBL3645728
                    3D
 Structure written by MMmdl.
 57 62  0  0  1  0            999 V2000
    5.2999   -9.3398    0.0000 C   0  0  0  0  0  0
    6.7265   -9.8033    0.0000 C   0  0  0  0  0  0
    7.8412   -8.7996    0.0000 O   0  0  0  0  0  0
    7.0383  -11.2705    0.0000 C   0  0  0  0  0  0
    8.4087  -11.8806    0.0000 C   0  0  0  0  0  0
    9.7077  -11.1306    0.0000 C   0  0  0  0  0  0
    8.2519  -13.3724    0.0000 C   0  0  0  0  0  0
    9.3666  -14.3761    0.0000 C   0  0  0  0  0  0
    6.7846  -13.6843    0.0000 N   0  0  0  0  0  0
    6.0346  -12.3853    0.0000 C   0  0  0  0  0  0
    4.5429  -12.2285    0.0000 C   0  0  0  0  0  0
    3.6612  -13.4420    0.0000 O   0  0  0  0  0  0
    3.9328  -10.8581    0.0000 N   0  0  0  0  0  0
    2.4410  -10.7014    0.0000 C   0  0  2  0  0  0
    1.8309   -9.3310    0.0000 C   0  0  0  0  0  0
    0.3391   -9.1742    0.0000 O   0  0  0  0  0  0
    2.7125   -8.1175    0.0000 N   0  0  0  0  0  0
    2.1024   -6.7472    0.0000 C   0  0  2  0  0  0
    2.9841   -5.5337    0.0000 C   0  0  0  0  0  0
    4.4759   -5.6905    0.0000 O   0  0  0  0  0  0
    2.3740   -4.1633    0.0000 N   0  0  0  0  0  0
    0.9068   -3.8515    0.0000 C   0  0  0  0  0  0
    0.7500   -2.3597    0.0000 C   0  0  1  0  0  0
    2.1203   -1.7496    0.0000 C   0  0  0  0  0  0
    3.1240   -2.8643    0.0000 C   0  0  1  0  0  0
    4.6158   -2.7075    0.0000 C   0  0  0  0  0  0
    5.2259   -1.3372    0.0000 O   0  0  0  0  0  0
    5.4975   -3.9210    0.0000 N   0  0  0  0  0  0
    6.9893   -3.7643    0.0000 C   0  0  1  0  0  0
    8.3374   -3.1067    0.0000 C   0  0  0  0  0  0
    7.0939   -2.2679    0.0000 C   0  0  1  0  0  0
    6.4363   -0.9197    0.0000 C   0  0  0  0  0  0
    7.2751    0.3238    0.0000 C   0  0  0  0  0  0
    7.4027   -5.2061    0.0000 C   0  0  0  0  0  0
    6.3607   -6.2852    0.0000 O   0  0  0  0  0  0
    8.8582   -5.5690    0.0000 N   0  0  0  0  0  0
    9.2716   -7.0109    0.0000 S   0  0  0  0  0  0
    7.8297   -7.4244    0.0000 O   0  0  0  0  0  0
   10.7135   -6.5975    0.0000 O   0  0  0  0  0  0
    9.6851   -8.4528    0.0000 C   0  0  0  0  0  0
    9.3222   -9.9083    0.0000 C   0  0  0  0  0  0
   10.7641   -9.4948    0.0000 C   0  0  0  0  0  0
   -0.7500   -2.3597    0.0000 C   0  0  0  0  0  0
   -1.0105   -3.8369    0.0000 C   0  0  0  0  0  0
   -2.1595   -1.8467    0.0000 C   0  0  0  0  0  0
   -0.0000   -1.0607    0.0000 C   0  0  0  0  0  0
    1.0607    0.0000    0.0000 C   0  0  0  0  0  0
    0.0000    1.0607    0.0000 C   0  0  0  0  0  0
   -1.0607    0.0000    0.0000 C   0  0  0  0  0  0
    0.6107   -6.5904    0.0000 C   0  0  0  0  0  0
    0.4539   -8.0822    0.0000 C   0  0  0  0  0  0
    0.7675   -5.0986    0.0000 C   0  0  0  0  0  0
   -0.8811   -6.4336    0.0000 C   0  0  0  0  0  0
    1.5593  -11.9149    0.0000 C   0  0  0  0  0  0
    2.7728  -12.7966    0.0000 C   0  0  0  0  0  0
    0.3458  -11.0332    0.0000 C   0  0  0  0  0  0
    0.6776  -13.1284    0.0000 C   0  0  0  0  0  0
  1  2  1  0  0  0
  2  3  2  0  0  0
  2  4  1  0  0  0
  4  5  1  0  0  0
  4 10  2  0  0  0
  5  6  1  0  0  0
  5  7  2  0  0  0
  7  8  1  0  0  0
  7  9  1  0  0  0
  9 10  1  0  0  0
 10 11  1  0  0  0
 11 12  2  0  0  0
 11 13  1  0  0  0
 13 14  1  0  0  0
 14 15  1  0  0  0
 14 54  1  1  0  0
 15 16  2  0  0  0
 15 17  1  0  0  0
 17 18  1  0  0  0
 18 19  1  0  0  0
 18 50  1  1  0  0
 19 20  2  0  0  0
 19 21  1  0  0  0
 21 22  1  0  0  0
 21 25  1  0  0  0
 22 23  1  0  0  0
 23 24  1  0  0  0
 23 43  1  0  0  0
 23 46  1  1  0  0
 24 25  1  0  0  0
 25 26  1  6  0  0
 26 27  2  0  0  0
 26 28  1  0  0  0
 28 29  1  0  0  0
 29 30  1  0  0  0
 29 34  1  0  0  0
 29 31  1  1  0  0
 30 31  1  0  0  0
 31 32  1  6  0  0
 32 33  2  0  0  0
 34 35  2  0  0  0
 34 36  1  0  0  0
 36 37  1  0  0  0
 37 38  2  0  0  0
 37 39  2  0  0  0
 37 40  1  0  0  0
 40 41  1  0  0  0
 40 42  1  0  0  0
 41 42  1  0  0  0
 43 44  1  0  0  0
 43 45  1  0  0  0
 43 46  1  0  0  0
 46 47  1  0  0  0
 46 49  1  0  0  0
 47 48  1  0  0  0
 48 49  1  0  0  0
 50 51  1  0  0  0
 50 52  1  0  0  0
 50 53  1  0  0  0
 54 55  1  0  0  0
 54 56  1  0  0  0
 54 57  1  0  0  0
M  END
> <s_m_entry_id>
6872

> <s_m_entry_name>
NS3-4A.413

> <CHEMBLID>
CHEMBL3645728

> <s_m_Source_Path>
/home/liwei/Desktop/Machine/HCV/Active

> <s_m_Source_File>
NS3-4A.sdf

> <i_m_Source_File_Index>
413

$$$$
CHEMBL3645729
                    3D
 Structure written by MMmdl.
 58 63  0  0  1  0            999 V2000
   -8.3400   -5.6496    0.0000 C   0  0  0  0  0  0
   -6.8483   -5.8064    0.0000 C   0  0  0  0  0  0
   -6.2382   -7.1768    0.0000 C   0  0  0  0  0  0
   -5.9666   -4.5929    0.0000 N   0  0  0  0  0  0
   -6.5767   -3.2226    0.0000 C   0  0  0  0  0  0
   -5.6950   -2.0091    0.0000 C   0  0  0  0  0  0
   -4.2032   -2.1659    0.0000 C   0  0  0  0  0  0
   -3.5931   -3.5362    0.0000 C   0  0  0  0  0  0
   -4.4748   -4.7497    0.0000 C   0  0  1  0  0  0
   -3.8647   -6.1200    0.0000 C   0  0  0  0  0  0
   -4.7464   -7.3335    0.0000 O   0  0  0  0  0  0
   -2.3729   -6.2768    0.0000 N   0  0  0  0  0  0
   -1.7628   -7.6471    0.0000 C   0  0  1  0  0  0
   -2.6445   -8.8607    0.0000 C   0  0  0  0  0  0
   -4.1363   -8.7039    0.0000 C   0  0  0  0  0  0
   -5.0179   -9.9174    0.0000 C   0  0  0  0  0  0
   -4.4078  -11.2877    0.0000 C   0  0  0  0  0  0
   -2.9161  -11.4445    0.0000 C   0  0  0  0  0  0
   -2.0344  -10.2310    0.0000 C   0  0  0  0  0  0
   -0.2710   -7.8039    0.0000 C   0  0  0  0  0  0
    0.3391   -9.1742    0.0000 O   0  0  0  0  0  0
    0.6107   -6.5904    0.0000 N   0  0  0  0  0  0
    2.1024   -6.7472    0.0000 C   0  0  2  0  0  0
    2.9841   -5.5337    0.0000 C   0  0  0  0  0  0
    4.4759   -5.6905    0.0000 O   0  0  0  0  0  0
    2.3740   -4.1633    0.0000 N   0  0  0  0  0  0
    0.9068   -3.8515    0.0000 C   0  0  0  0  0  0
    0.7500   -2.3597    0.0000 C   0  0  1  0  0  0
    2.1203   -1.7496    0.0000 C   0  0  0  0  0  0
    3.1240   -2.8643    0.0000 C   0  0  1  0  0  0
    4.6158   -2.7075    0.0000 C   0  0  0  0  0  0
    5.2259   -1.3372    0.0000 O   0  0  0  0  0  0
    5.4975   -3.9210    0.0000 N   0  0  0  0  0  0
    6.9893   -3.7643    0.0000 C   0  0  1  0  0  0
    8.3374   -3.1067    0.0000 C   0  0  0  0  0  0
    7.0939   -2.2679    0.0000 C   0  0  1  0  0  0
    6.4363   -0.9197    0.0000 C   0  0  0  0  0  0
    7.2751    0.3238    0.0000 C   0  0  0  0  0  0
    7.4027   -5.2061    0.0000 C   0  0  0  0  0  0
    6.3607   -6.2852    0.0000 O   0  0  0  0  0  0
    8.8582   -5.5690    0.0000 N   0  0  0  0  0  0
    9.2716   -7.0109    0.0000 S   0  0  0  0  0  0
   10.7135   -6.5975    0.0000 O   0  0  0  0  0  0
    7.8297   -7.4244    0.0000 O   0  0  0  0  0  0
    9.6851   -8.4528    0.0000 N   0  0  0  0  0  0
    8.6431   -9.5318    0.0000 C   0  0  0  0  0  0
   11.1405   -8.8157    0.0000 C   0  0  0  0  0  0
   -0.7500   -2.3597    0.0000 C   0  0  0  0  0  0
   -1.0105   -3.8369    0.0000 C   0  0  0  0  0  0
   -2.1595   -1.8467    0.0000 C   0  0  0  0  0  0
   -0.0000   -1.0607    0.0000 C   0  0  0  0  0  0
    1.0607    0.0000    0.0000 C   0  0  0  0  0  0
    0.0000    1.0607    0.0000 C   0  0  0  0  0  0
   -1.0607    0.0000    0.0000 C   0  0  0  0  0  0
    2.7125   -8.1175    0.0000 C   0  0  0  0  0  0
    1.3422   -8.7276    0.0000 C   0  0  0  0  0  0
    4.0829   -7.5074    0.0000 C   0  0  0  0  0  0
    3.3227   -9.4878    0.0000 C   0  0  0  0  0  0
  1  2  1  0  0  0
  2  3  1  0  0  0
  2  4  1  0  0  0
  4  5  1  0  0  0
  4  9  1  0  0  0
  5  6  1  0  0  0
  6  7  1  0  0  0
  7  8  1  0  0  0
  8  9  1  0  0  0
  9 10  1  6  0  0
 10 11  2  0  0  0
 10 12  1  0  0  0
 12 13  1  0  0  0
 13 14  1  0  0  0
 13 20  1  6  0  0
 14 15  1  0  0  0
 14 19  1  0  0  0
 15 16  1  0  0  0
 16 17  1  0  0  0
 17 18  1  0  0  0
 18 19  1  0  0  0
 20 21  2  0  0  0
 20 22  1  0  0  0
 22 23  1  0  0  0
 23 24  1  0  0  0
 23 55  1  1  0  0
 24 25  2  0  0  0
 24 26  1  0  0  0
 26 27  1  0  0  0
 26 30  1  0  0  0
 27 28  1  0  0  0
 28 29  1  0  0  0
 28 48  1  0  0  0
 28 51  1  1  0  0
 29 30  1  0  0  0
 30 31  1  6  0  0
 31 32  2  0  0  0
 31 33  1  0  0  0
 33 34  1  0  0  0
 34 35  1  0  0  0
 34 39  1  0  0  0
 34 36  1  1  0  0
 35 36  1  0  0  0
 36 37  1  6  0  0
 37 38  2  0  0  0
 39 40  2  0  0  0
 39 41  1  0  0  0
 41 42  1  0  0  0
 42 43  2  0  0  0
 42 44  2  0  0  0
 42 45  1  0  0  0
 45 46  1  0  0  0
 45 47  1  0  0  0
 48 49  1  0  0  0
 48 50  1  0  0  0
 48 51  1  0  0  0
 51 52  1  0  0  0
 51 54  1  0  0  0
 52 53  1  0  0  0
 53 54  1  0  0  0
 55 56  1  0  0  0
 55 57  1  0  0  0
 55 58  1  0  0  0
M  END
> <s_m_entry_id>
6873

> <s_m_entry_name>
NS3-4A.414

> <CHEMBLID>
CHEMBL3645729

> <s_m_Source_Path>
/home/liwei/Desktop/Machine/HCV/Active

> <s_m_Source_File>
NS3-4A.sdf

> <i_m_Source_File_Index>
414

$$$$
CHEMBL3645730
                    3D
 Structure written by MMmdl.
 60 65  0  0  1  0            999 V2000
   -8.3400   -5.6496    0.0000 C   0  0  0  0  0  0
   -6.8483   -5.8064    0.0000 C   0  0  0  0  0  0
   -6.2382   -7.1768    0.0000 C   0  0  0  0  0  0
   -5.9666   -4.5929    0.0000 N   0  0  0  0  0  0
   -6.5767   -3.2226    0.0000 C   0  0  0  0  0  0
   -5.6950   -2.0091    0.0000 C   0  0  0  0  0  0
   -4.2032   -2.1659    0.0000 C   0  0  0  0  0  0
   -3.5931   -3.5362    0.0000 C   0  0  0  0  0  0
   -4.4748   -4.7497    0.0000 C   0  0  3  0  0  0
   -3.8647   -6.1200    0.0000 C   0  0  0  0  0  0
   -4.7464   -7.3335    0.0000 O   0  0  0  0  0  0
   -2.3729   -6.2768    0.0000 N   0  0  0  0  0  0
   -1.7628   -7.6471    0.0000 C   0  0  2  0  0  0
   -0.2710   -7.8039    0.0000 C   0  0  0  0  0  0
    0.3391   -9.1742    0.0000 O   0  0  0  0  0  0
    0.6107   -6.5904    0.0000 N   0  0  0  0  0  0
    2.1024   -6.7472    0.0000 C   0  0  2  0  0  0
    2.9841   -5.5337    0.0000 C   0  0  0  0  0  0
    4.4759   -5.6905    0.0000 O   0  0  0  0  0  0
    2.3740   -4.1633    0.0000 N   0  0  0  0  0  0
    0.9068   -3.8515    0.0000 C   0  0  0  0  0  0
    0.7500   -2.3597    0.0000 C   0  0  1  0  0  0
    2.1203   -1.7496    0.0000 C   0  0  0  0  0  0
    3.1240   -2.8643    0.0000 C   0  0  1  0  0  0
    4.6158   -2.7075    0.0000 C   0  0  0  0  0  0
    5.2259   -1.3372    0.0000 O   0  0  0  0  0  0
    5.4975   -3.9210    0.0000 N   0  0  0  0  0  0
    6.9893   -3.7643    0.0000 C   0  0  3  0  0  0
    8.3374   -3.1067    0.0000 C   0  0  0  0  0  0
    7.0939   -2.2679    0.0000 C   0  0  3  0  0  0
    6.4363   -0.9197    0.0000 C   0  0  0  0  0  0
    7.2751    0.3238    0.0000 C   0  0  0  0  0  0
    7.4027   -5.2061    0.0000 C   0  0  0  0  0  0
    6.3607   -6.2852    0.0000 O   0  0  0  0  0  0
    8.8582   -5.5690    0.0000 N   0  0  0  0  0  0
    9.2716   -7.0109    0.0000 S   0  0  0  0  0  0
   10.7135   -6.5975    0.0000 O   0  0  0  0  0  0
    7.8297   -7.4244    0.0000 O   0  0  0  0  0  0
    9.6851   -8.4528    0.0000 N   0  0  0  0  0  0
    8.7616   -9.6348    0.0000 C   0  0  0  0  0  0
    9.6004  -10.8784    0.0000 C   0  0  0  0  0  0
   11.0423  -10.4649    0.0000 C   0  0  0  0  0  0
   11.0946   -8.9658    0.0000 C   0  0  1  0  0  0
   12.3382   -8.1271    0.0000 C   0  0  0  0  0  0
   13.6864   -8.7846    0.0000 O   0  0  0  0  0  0
   -0.7500   -2.3597    0.0000 C   0  0  0  0  0  0
   -1.0105   -3.8369    0.0000 C   0  0  0  0  0  0
   -2.1595   -1.8467    0.0000 C   0  0  0  0  0  0
   -0.0000   -1.0607    0.0000 C   0  0  0  0  0  0
    1.0607    0.0000    0.0000 C   0  0  0  0  0  0
    0.0000    1.0607    0.0000 C   0  0  0  0  0  0
   -1.0607    0.0000    0.0000 C   0  0  0  0  0  0
    2.7125   -8.1175    0.0000 C   0  0  0  0  0  0
    1.3422   -8.7276    0.0000 C   0  0  0  0  0  0
    4.0829   -7.5074    0.0000 C   0  0  0  0  0  0
    3.3227   -9.4878    0.0000 C   0  0  0  0  0  0
   -2.6445   -8.8607    0.0000 C   0  0  0  0  0  0
   -3.8580   -7.9790    0.0000 C   0  0  0  0  0  0
   -1.4310   -9.7423    0.0000 C   0  0  0  0  0  0
   -3.5262  -10.0742    0.0000 C   0  0  0  0  0  0
  1  2  1  0  0  0
  2  3  1  0  0  0
  2  4  1  0  0  0
  4  5  1  0  0  0
  4  9  1  0  0  0
  5  6  1  0  0  0
  6  7  1  0  0  0
  7  8  1  0  0  0
  8  9  1  0  0  0
  9 10  1  0  0  0
 10 11  2  0  0  0
 10 12  1  0  0  0
 12 13  1  0  0  0
 13 14  1  0  0  0
 13 57  1  1  0  0
 14 15  2  0  0  0
 14 16  1  0  0  0
 16 17  1  0  0  0
 17 18  1  0  0  0
 17 53  1  1  0  0
 18 19  2  0  0  0
 18 20  1  0  0  0
 20 21  1  0  0  0
 20 24  1  0  0  0
 21 22  1  0  0  0
 22 23  1  0  0  0
 22 46  1  0  0  0
 22 49  1  1  0  0
 23 24  1  0  0  0
 24 25  1  6  0  0
 25 26  2  0  0  0
 25 27  1  0  0  0
 27 28  1  0  0  0
 28 29  1  0  0  0
 28 33  1  0  0  0
 28 30  1  0  0  0
 29 30  1  0  0  0
 30 31  1  0  0  0
 31 32  2  0  0  0
 33 34  2  0  0  0
 33 35  1  0  0  0
 35 36  1  0  0  0
 36 37  2  0  0  0
 36 38  2  0  0  0
 36 39  1  0  0  0
 39 40  1  0  0  0
 39 43  1  0  0  0
 40 41  1  0  0  0
 41 42  1  0  0  0
 42 43  1  0  0  0
 43 44  1  6  0  0
 44 45  1  0  0  0
 46 47  1  0  0  0
 46 48  1  0  0  0
 46 49  1  0  0  0
 49 50  1  0  0  0
 49 52  1  0  0  0
 50 51  1  0  0  0
 51 52  1  0  0  0
 53 54  1  0  0  0
 53 55  1  0  0  0
 53 56  1  0  0  0
 57 58  1  0  0  0
 57 59  1  0  0  0
 57 60  1  0  0  0
M  END
> <s_m_entry_id>
6874

> <s_m_entry_name>
NS3-4A.415

> <CHEMBLID>
CHEMBL3645730

> <s_m_Source_Path>
/home/liwei/Desktop/Machine/HCV/Active

> <s_m_Source_File>
NS3-4A.sdf

> <i_m_Source_File_Index>
415

$$$$
CHEMBL3645731
                    3D
 Structure written by MMmdl.
 61 67  0  0  1  0            999 V2000
   -8.3400   -5.6496    0.0000 C   0  0  0  0  0  0
   -6.8483   -5.8064    0.0000 C   0  0  0  0  0  0
   -6.2382   -7.1768    0.0000 C   0  0  0  0  0  0
   -5.9666   -4.5929    0.0000 N   0  0  0  0  0  0
   -6.5767   -3.2226    0.0000 C   0  0  0  0  0  0
   -5.6950   -2.0091    0.0000 C   0  0  0  0  0  0
   -4.2032   -2.1659    0.0000 C   0  0  0  0  0  0
   -3.5931   -3.5362    0.0000 C   0  0  0  0  0  0
   -4.4748   -4.7497    0.0000 C   0  0  3  0  0  0
   -3.8647   -6.1200    0.0000 C   0  0  0  0  0  0
   -4.7464   -7.3335    0.0000 O   0  0  0  0  0  0
   -2.3729   -6.2768    0.0000 N   0  0  0  0  0  0
   -1.7628   -7.6471    0.0000 C   0  0  1  0  0  0
   -2.6445   -8.8607    0.0000 C   0  0  0  0  0  0
   -4.1363   -8.7039    0.0000 C   0  0  0  0  0  0
   -5.0179   -9.9174    0.0000 C   0  0  0  0  0  0
   -4.4078  -11.2877    0.0000 C   0  0  0  0  0  0
   -2.9161  -11.4445    0.0000 C   0  0  0  0  0  0
   -2.0344  -10.2310    0.0000 C   0  0  0  0  0  0
   -0.2710   -7.8039    0.0000 C   0  0  0  0  0  0
    0.3391   -9.1742    0.0000 O   0  0  0  0  0  0
    0.6107   -6.5904    0.0000 N   0  0  0  0  0  0
    2.1024   -6.7472    0.0000 C   0  0  2  0  0  0
    2.9841   -5.5337    0.0000 C   0  0  0  0  0  0
    4.4759   -5.6905    0.0000 O   0  0  0  0  0  0
    2.3740   -4.1633    0.0000 N   0  0  0  0  0  0
    0.9068   -3.8515    0.0000 C   0  0  0  0  0  0
    0.7500   -2.3597    0.0000 C   0  0  1  0  0  0
    2.1203   -1.7496    0.0000 C   0  0  0  0  0  0
    3.1240   -2.8643    0.0000 C   0  0  1  0  0  0
    4.6158   -2.7075    0.0000 C   0  0  0  0  0  0
    5.2259   -1.3372    0.0000 O   0  0  0  0  0  0
    5.4975   -3.9210    0.0000 N   0  0  0  0  0  0
    6.9893   -3.7643    0.0000 C   0  0  3  0  0  0
    8.3374   -3.1067    0.0000 C   0  0  0  0  0  0
    7.0939   -2.2679    0.0000 C   0  0  3  0  0  0
    6.4363   -0.9197    0.0000 C   0  0  0  0  0  0
    7.2751    0.3238    0.0000 C   0  0  0  0  0  0
    7.4027   -5.2061    0.0000 C   0  0  0  0  0  0
    6.3607   -6.2852    0.0000 O   0  0  0  0  0  0
    8.8582   -5.5690    0.0000 N   0  0  0  0  0  0
    9.2716   -7.0109    0.0000 S   0  0  0  0  0  0
   10.7135   -6.5975    0.0000 O   0  0  0  0  0  0
    7.8297   -7.4244    0.0000 O   0  0  0  0  0  0
    9.6851   -8.4528    0.0000 N   0  0  0  0  0  0
   10.9970   -9.1800    0.0000 C   0  0  0  0  0  0
   10.2698  -10.4920    0.0000 C   0  0  0  0  0  0
    9.5426  -11.8039    0.0000 F   0  0  0  0  0  0
   11.5817  -11.2192    0.0000 F   0  0  0  0  0  0
    8.9579   -9.7647    0.0000 C   0  0  0  0  0  0
   -0.7500   -2.3597    0.0000 C   0  0  0  0  0  0
   -1.0105   -3.8369    0.0000 C   0  0  0  0  0  0
   -2.1595   -1.8467    0.0000 C   0  0  0  0  0  0
   -0.0000   -1.0607    0.0000 C   0  0  0  0  0  0
    1.0607    0.0000    0.0000 C   0  0  0  0  0  0
    0.0000    1.0607    0.0000 C   0  0  0  0  0  0
   -1.0607    0.0000    0.0000 C   0  0  0  0  0  0
    2.7125   -8.1175    0.0000 C   0  0  0  0  0  0
    1.3422   -8.7276    0.0000 C   0  0  0  0  0  0
    4.0829   -7.5074    0.0000 C   0  0  0  0  0  0
    3.3227   -9.4878    0.0000 C   0  0  0  0  0  0
  1  2  1  0  0  0
  2  3  1  0  0  0
  2  4  1  0  0  0
  4  5  1  0  0  0
  4  9  1  0  0  0
  5  6  1  0  0  0
  6  7  1  0  0  0
  7  8  1  0  0  0
  8  9  1  0  0  0
  9 10  1  0  0  0
 10 11  2  0  0  0
 10 12  1  0  0  0
 12 13  1  0  0  0
 13 14  1  0  0  0
 13 20  1  6  0  0
 14 15  1  0  0  0
 14 19  1  0  0  0
 15 16  1  0  0  0
 16 17  1  0  0  0
 17 18  1  0  0  0
 18 19  1  0  0  0
 20 21  2  0  0  0
 20 22  1  0  0  0
 22 23  1  0  0  0
 23 24  1  0  0  0
 23 58  1  1  0  0
 24 25  2  0  0  0
 24 26  1  0  0  0
 26 27  1  0  0  0
 26 30  1  0  0  0
 27 28  1  0  0  0
 28 29  1  0  0  0
 28 51  1  0  0  0
 28 54  1  1  0  0
 29 30  1  0  0  0
 30 31  1  6  0  0
 31 32  2  0  0  0
 31 33  1  0  0  0
 33 34  1  0  0  0
 34 35  1  0  0  0
 34 39  1  0  0  0
 34 36  1  0  0  0
 35 36  1  0  0  0
 36 37  1  0  0  0
 37 38  2  0  0  0
 39 40  2  0  0  0
 39 41  1  0  0  0
 41 42  1  0  0  0
 42 43  2  0  0  0
 42 44  2  0  0  0
 42 45  1  0  0  0
 45 46  1  0  0  0
 45 50  1  0  0  0
 46 47  1  0  0  0
 47 48  1  0  0  0
 47 49  1  0  0  0
 47 50  1  0  0  0
 51 52  1  0  0  0
 51 53  1  0  0  0
 51 54  1  0  0  0
 54 55  1  0  0  0
 54 57  1  0  0  0
 55 56  1  0  0  0
 56 57  1  0  0  0
 58 59  1  0  0  0
 58 60  1  0  0  0
 58 61  1  0  0  0
M  END
> <s_m_entry_id>
6875

> <s_m_entry_name>
NS3-4A.416

> <CHEMBLID>
CHEMBL3645731

> <s_m_Source_Path>
/home/liwei/Desktop/Machine/HCV/Active

> <s_m_Source_File>
NS3-4A.sdf

> <i_m_Source_File_Index>
416

$$$$
CHEMBL3645732
                    3D
 Structure written by MMmdl.
 56 62  0  0  1  0            999 V2000
    1.3422   -8.7276    0.0000 C   0  0  0  0  0  0
    2.7125   -8.1175    0.0000 C   0  0  0  0  0  0
    4.0829   -7.5074    0.0000 C   0  0  0  0  0  0
    3.3227   -9.4878    0.0000 C   0  0  0  0  0  0
    2.1024   -6.7472    0.0000 C   0  0  2  0  0  0
    0.6107   -6.5904    0.0000 N   0  0  0  0  0  0
   -0.2710   -7.8039    0.0000 C   0  0  0  0  0  0
    0.3391   -9.1742    0.0000 O   0  0  0  0  0  0
   -1.7628   -7.6471    0.0000 C   0  0  3  0  0  0
   -2.3729   -6.2768    0.0000 N   0  0  0  0  0  0
   -3.8647   -6.1200    0.0000 C   0  0  0  0  0  0
   -4.7464   -7.3335    0.0000 O   0  0  0  0  0  0
   -4.4748   -4.7497    0.0000 C   0  0  0  0  0  0
   -3.5931   -3.5362    0.0000 C   0  0  0  0  0  0
   -4.2032   -2.1659    0.0000 N   0  0  0  0  0  0
   -5.6950   -2.0091    0.0000 C   0  0  0  0  0  0
   -6.5767   -3.2226    0.0000 C   0  0  0  0  0  0
   -5.9666   -4.5929    0.0000 N   0  0  0  0  0  0
   -2.6445   -8.8607    0.0000 C   0  0  0  0  0  0
   -4.1363   -8.7039    0.0000 C   0  0  0  0  0  0
   -5.0179   -9.9174    0.0000 C   0  0  0  0  0  0
   -4.4078  -11.2877    0.0000 C   0  0  0  0  0  0
   -2.9161  -11.4445    0.0000 C   0  0  0  0  0  0
   -2.0344  -10.2310    0.0000 C   0  0  0  0  0  0
    2.9841   -5.5337    0.0000 C   0  0  0  0  0  0
    4.4759   -5.6905    0.0000 O   0  0  0  0  0  0
    2.3740   -4.1633    0.0000 N   0  0  0  0  0  0
    0.9068   -3.8515    0.0000 C   0  0  0  0  0  0
    0.7500   -2.3597    0.0000 C   0  0  1  0  0  0
    2.1203   -1.7496    0.0000 C   0  0  0  0  0  0
    3.1240   -2.8643    0.0000 C   0  0  1  0  0  0
    4.6158   -2.7075    0.0000 C   0  0  0  0  0  0
    5.2259   -1.3372    0.0000 O   0  0  0  0  0  0
    5.4975   -3.9210    0.0000 N   0  0  0  0  0  0
    6.9893   -3.7643    0.0000 C   0  0  1  0  0  0
    8.3374   -3.1067    0.0000 C   0  0  0  0  0  0
    7.0939   -2.2679    0.0000 C   0  0  1  0  0  0
    6.4363   -0.9197    0.0000 C   0  0  0  0  0  0
    7.2751    0.3238    0.0000 C   0  0  0  0  0  0
    7.4027   -5.2061    0.0000 C   0  0  0  0  0  0
    6.3607   -6.2852    0.0000 O   0  0  0  0  0  0
    8.8582   -5.5690    0.0000 N   0  0  0  0  0  0
    9.2716   -7.0109    0.0000 S   0  0  0  0  0  0
    7.8297   -7.4244    0.0000 O   0  0  0  0  0  0
   10.7135   -6.5975    0.0000 O   0  0  0  0  0  0
    9.6851   -8.4528    0.0000 N   0  0  0  0  0  0
    8.6431   -9.5318    0.0000 C   0  0  0  0  0  0
    7.2012   -9.9453    0.0000 C   0  0  0  0  0  0
    8.2802  -10.9873    0.0000 C   0  0  0  0  0  0
   -0.7500   -2.3597    0.0000 C   0  0  0  0  0  0
   -1.0105   -3.8369    0.0000 C   0  0  0  0  0  0
   -2.1595   -1.8467    0.0000 C   0  0  0  0  0  0
   -0.0000   -1.0607    0.0000 C   0  0  0  0  0  0
    1.0607    0.0000    0.0000 C   0  0  0  0  0  0
    0.0000    1.0607    0.0000 C   0  0  0  0  0  0
   -1.0607    0.0000    0.0000 C   0  0  0  0  0  0
  1  2  1  0  0  0
  2  3  1  0  0  0
  2  4  1  0  0  0
  2  5  1  0  0  0
  5  6  1  0  0  0
  5 25  1  1  0  0
  6  7  1  0  0  0
  7  8  2  0  0  0
  7  9  1  0  0  0
  9 10  1  0  0  0
  9 19  1  0  0  0
 10 11  1  0  0  0
 11 12  2  0  0  0
 11 13  1  0  0  0
 13 14  2  0  0  0
 13 18  1  0  0  0
 14 15  1  0  0  0
 15 16  2  0  0  0
 16 17  1  0  0  0
 17 18  2  0  0  0
 19 20  1  0  0  0
 19 24  1  0  0  0
 20 21  1  0  0  0
 21 22  1  0  0  0
 22 23  1  0  0  0
 23 24  1  0  0  0
 25 26  2  0  0  0
 25 27  1  0  0  0
 27 28  1  0  0  0
 27 31  1  0  0  0
 28 29  1  0  0  0
 29 30  1  0  0  0
 29 50  1  0  0  0
 29 53  1  1  0  0
 30 31  1  0  0  0
 31 32  1  6  0  0
 32 33  2  0  0  0
 32 34  1  0  0  0
 34 35  1  0  0  0
 35 36  1  0  0  0
 35 40  1  0  0  0
 35 37  1  1  0  0
 36 37  1  0  0  0
 37 38  1  6  0  0
 38 39  2  0  0  0
 40 41  2  0  0  0
 40 42  1  0  0  0
 42 43  1  0  0  0
 43 44  2  0  0  0
 43 45  2  0  0  0
 43 46  1  0  0  0
 46 47  1  0  0  0
 47 48  1  0  0  0
 47 49  1  0  0  0
 48 49  1  0  0  0
 50 51  1  0  0  0
 50 52  1  0  0  0
 50 53  1  0  0  0
 53 54  1  0  0  0
 53 56  1  0  0  0
 54 55  1  0  0  0
 55 56  1  0  0  0
M  END
> <s_m_entry_id>
6876

> <s_m_entry_name>
NS3-4A.417

> <CHEMBLID>
CHEMBL3645732

> <s_m_Source_Path>
/home/liwei/Desktop/Machine/HCV/Active

> <s_m_Source_File>
NS3-4A.sdf

> <i_m_Source_File_Index>
417

$$$$
CHEMBL3645733
                    3D
 Structure written by MMmdl.
 57 62  0  0  1  0            999 V2000
   -2.9192  -12.8209    0.0000 C   0  0  0  0  0  0
   -2.2617  -11.4727    0.0000 C   0  0  0  0  0  0
   -1.6041  -10.1245    0.0000 C   0  0  0  0  0  0
   -3.6099  -10.8151    0.0000 C   0  0  0  0  0  0
   -0.9135  -12.1302    0.0000 N   0  0  0  0  0  0
    0.3301  -11.2914    0.0000 S   0  0  0  0  0  0
   -0.5087  -10.0479    0.0000 O   0  0  0  0  0  0
    1.1689  -12.5350    0.0000 O   0  0  0  0  0  0
    1.5736  -10.4526    0.0000 N   0  0  0  0  0  0
    1.4690   -8.9563    0.0000 C   0  0  0  0  0  0
    0.1208   -8.2987    0.0000 O   0  0  0  0  0  0
    2.7125   -8.1175    0.0000 C   0  0  2  0  0  0
    3.7545   -9.1965    0.0000 C   0  0  0  0  0  0
    4.1680   -7.7546    0.0000 C   0  0  1  0  0  0
    5.2470   -6.7126    0.0000 C   0  0  0  0  0  0
    6.6889   -7.1261    0.0000 C   0  0  0  0  0  0
    2.1024   -6.7472    0.0000 N   0  0  0  0  0  0
    2.9841   -5.5337    0.0000 C   0  0  0  0  0  0
    4.4759   -5.6905    0.0000 O   0  0  0  0  0  0
    2.3740   -4.1633    0.0000 C   0  0  2  0  0  0
    0.9068   -3.8515    0.0000 C   0  0  0  0  0  0
    0.7500   -2.3597    0.0000 C   0  0  2  0  0  0
    2.1203   -1.7496    0.0000 C   0  0  0  0  0  0
    3.1240   -2.8643    0.0000 N   0  0  0  0  0  0
    4.6158   -2.7075    0.0000 C   0  0  0  0  0  0
    5.4975   -3.9210    0.0000 O   0  0  0  0  0  0
    5.2259   -1.3372    0.0000 C   0  0  1  0  0  0
    4.3442   -0.1237    0.0000 N   0  0  0  0  0  0
    4.9543    1.2466    0.0000 C   0  0  0  0  0  0
    6.4461    1.4034    0.0000 O   0  0  0  0  0  0
    4.0727    2.4602    0.0000 C   0  0  3  0  0  0
    2.5809    2.3034    0.0000 N   0  0  0  0  0  0
    1.6992    3.5169    0.0000 C   0  0  0  0  0  0
    2.3093    4.8872    0.0000 O   0  0  0  0  0  0
    0.2074    3.3601    0.0000 C   0  0  0  0  0  0
   -0.6743    4.5736    0.0000 C   0  0  0  0  0  0
   -2.1661    4.4168    0.0000 N   0  0  0  0  0  0
   -2.7762    3.0465    0.0000 C   0  0  0  0  0  0
   -1.8945    1.8330    0.0000 C   0  0  0  0  0  0
   -0.4027    1.9898    0.0000 N   0  0  0  0  0  0
    4.6828    3.8305    0.0000 C   0  0  0  0  0  0
    6.1745    3.9873    0.0000 C   0  0  0  0  0  0
    6.7846    5.3576    0.0000 C   0  0  0  0  0  0
    5.9030    6.5711    0.0000 C   0  0  0  0  0  0
    4.4112    6.4143    0.0000 C   0  0  0  0  0  0
    3.8011    5.0440    0.0000 C   0  0  0  0  0  0
    6.7177   -1.1804    0.0000 C   0  0  0  0  0  0
    6.5609    0.3114    0.0000 C   0  0  0  0  0  0
    6.8745   -2.6722    0.0000 C   0  0  0  0  0  0
    8.2095   -1.0236    0.0000 C   0  0  0  0  0  0
   -0.7500   -2.3597    0.0000 C   0  0  0  0  0  0
   -1.0105   -3.8369    0.0000 C   0  0  0  0  0  0
   -2.1595   -1.8467    0.0000 C   0  0  0  0  0  0
   -0.0000   -1.0607    0.0000 C   0  0  0  0  0  0
    1.0607    0.0000    0.0000 C   0  0  0  0  0  0
    0.0000    1.0607    0.0000 C   0  0  0  0  0  0
   -1.0607    0.0000    0.0000 C   0  0  0  0  0  0
  1  2  1  0  0  0
  2  3  1  0  0  0
  2  4  1  0  0  0
  2  5  1  0  0  0
  5  6  1  0  0  0
  6  7  2  0  0  0
  6  8  2  0  0  0
  6  9  1  0  0  0
  9 10  1  0  0  0
 10 11  2  0  0  0
 10 12  1  0  0  0
 12 13  1  0  0  0
 12 17  1  0  0  0
 12 14  1  6  0  0
 13 14  1  0  0  0
 14 15  1  6  0  0
 15 16  2  0  0  0
 17 18  1  0  0  0
 18 19  2  0  0  0
 18 20  1  0  0  0
 20 21  1  0  0  0
 20 24  1  1  0  0
 21 22  1  0  0  0
 22 23  1  0  0  0
 22 51  1  0  0  0
 22 54  1  6  0  0
 23 24  1  0  0  0
 24 25  1  0  0  0
 25 26  2  0  0  0
 25 27  1  0  0  0
 27 28  1  0  0  0
 27 47  1  6  0  0
 28 29  1  0  0  0
 29 30  2  0  0  0
 29 31  1  0  0  0
 31 32  1  0  0  0
 31 41  1  0  0  0
 32 33  1  0  0  0
 33 34  2  0  0  0
 33 35  1  0  0  0
 35 36  2  0  0  0
 35 40  1  0  0  0
 36 37  1  0  0  0
 37 38  2  0  0  0
 38 39  1  0  0  0
 39 40  2  0  0  0
 41 42  1  0  0  0
 41 46  1  0  0  0
 42 43  1  0  0  0
 43 44  1  0  0  0
 44 45  1  0  0  0
 45 46  1  0  0  0
 47 48  1  0  0  0
 47 49  1  0  0  0
 47 50  1  0  0  0
 51 52  1  0  0  0
 51 53  1  0  0  0
 51 54  1  0  0  0
 54 55  1  0  0  0
 54 57  1  0  0  0
 55 56  1  0  0  0
 56 57  1  0  0  0
M  END
> <s_m_entry_id>
6877

> <s_m_entry_name>
NS3-4A.418

> <CHEMBLID>
CHEMBL3645733

> <s_m_Source_Path>
/home/liwei/Desktop/Machine/HCV/Active

> <s_m_Source_File>
NS3-4A.sdf

> <i_m_Source_File_Index>
418

$$$$
CHEMBL3645734
                    3D
 Structure written by MMmdl.
 56 61  0  0  1  0            999 V2000
   -2.0524  -14.4654    0.0000 C   0  0  0  0  0  0
   -0.8089  -13.6266    0.0000 C   0  0  0  0  0  0
   -0.9135  -12.1302    0.0000 N   0  0  0  0  0  0
   -2.2617  -11.4727    0.0000 C   0  0  0  0  0  0
    0.3301  -11.2914    0.0000 S   0  0  0  0  0  0
    1.1689  -12.5350    0.0000 O   0  0  0  0  0  0
   -0.5087  -10.0479    0.0000 O   0  0  0  0  0  0
    1.5736  -10.4526    0.0000 N   0  0  0  0  0  0
    1.4690   -8.9563    0.0000 C   0  0  0  0  0  0
    0.1208   -8.2987    0.0000 O   0  0  0  0  0  0
    2.7125   -8.1175    0.0000 C   0  0  2  0  0  0
    3.7545   -9.1965    0.0000 C   0  0  0  0  0  0
    4.1680   -7.7546    0.0000 C   0  0  1  0  0  0
    5.2470   -6.7126    0.0000 C   0  0  0  0  0  0
    6.6889   -7.1261    0.0000 C   0  0  0  0  0  0
    2.1024   -6.7472    0.0000 N   0  0  0  0  0  0
    2.9841   -5.5337    0.0000 C   0  0  0  0  0  0
    4.4759   -5.6905    0.0000 O   0  0  0  0  0  0
    2.3740   -4.1633    0.0000 C   0  0  2  0  0  0
    0.9068   -3.8515    0.0000 C   0  0  0  0  0  0
    0.7500   -2.3597    0.0000 C   0  0  2  0  0  0
    2.1203   -1.7496    0.0000 C   0  0  0  0  0  0
    3.1240   -2.8643    0.0000 N   0  0  0  0  0  0
    4.6158   -2.7075    0.0000 C   0  0  0  0  0  0
    5.4975   -3.9210    0.0000 O   0  0  0  0  0  0
    5.2259   -1.3372    0.0000 C   0  0  1  0  0  0
    4.3442   -0.1237    0.0000 N   0  0  0  0  0  0
    4.9543    1.2466    0.0000 C   0  0  0  0  0  0
    6.4461    1.4034    0.0000 O   0  0  0  0  0  0
    4.0727    2.4602    0.0000 C   0  0  3  0  0  0
    2.5809    2.3034    0.0000 N   0  0  0  0  0  0
    1.6992    3.5169    0.0000 C   0  0  0  0  0  0
    2.3093    4.8872    0.0000 O   0  0  0  0  0  0
    0.2074    3.3601    0.0000 C   0  0  0  0  0  0
   -0.6743    4.5736    0.0000 C   0  0  0  0  0  0
   -2.1661    4.4168    0.0000 N   0  0  0  0  0  0
   -2.7762    3.0465    0.0000 C   0  0  0  0  0  0
   -1.8945    1.8330    0.0000 C   0  0  0  0  0  0
   -0.4027    1.9898    0.0000 N   0  0  0  0  0  0
    4.6828    3.8305    0.0000 C   0  0  0  0  0  0
    6.1745    3.9873    0.0000 C   0  0  0  0  0  0
    6.7846    5.3576    0.0000 C   0  0  0  0  0  0
    5.9030    6.5711    0.0000 C   0  0  0  0  0  0
    4.4112    6.4143    0.0000 C   0  0  0  0  0  0
    3.8011    5.0440    0.0000 C   0  0  0  0  0  0
    6.7177   -1.1804    0.0000 C   0  0  0  0  0  0
    6.5609    0.3114    0.0000 C   0  0  0  0  0  0
    6.8745   -2.6722    0.0000 C   0  0  0  0  0  0
    8.2095   -1.0236    0.0000 C   0  0  0  0  0  0
   -0.7500   -2.3597    0.0000 C   0  0  0  0  0  0
   -1.0105   -3.8369    0.0000 C   0  0  0  0  0  0
   -2.1595   -1.8467    0.0000 C   0  0  0  0  0  0
   -0.0000   -1.0607    0.0000 C   0  0  0  0  0  0
    1.0607    0.0000    0.0000 C   0  0  0  0  0  0
    0.0000    1.0607    0.0000 C   0  0  0  0  0  0
   -1.0607    0.0000    0.0000 C   0  0  0  0  0  0
  1  2  1  0  0  0
  2  3  1  0  0  0
  3  4  1  0  0  0
  3  5  1  0  0  0
  5  6  2  0  0  0
  5  7  2  0  0  0
  5  8  1  0  0  0
  8  9  1  0  0  0
  9 10  2  0  0  0
  9 11  1  0  0  0
 11 12  1  0  0  0
 11 16  1  0  0  0
 11 13  1  6  0  0
 12 13  1  0  0  0
 13 14  1  6  0  0
 14 15  2  0  0  0
 16 17  1  0  0  0
 17 18  2  0  0  0
 17 19  1  0  0  0
 19 20  1  0  0  0
 19 23  1  1  0  0
 20 21  1  0  0  0
 21 22  1  0  0  0
 21 50  1  0  0  0
 21 53  1  6  0  0
 22 23  1  0  0  0
 23 24  1  0  0  0
 24 25  2  0  0  0
 24 26  1  0  0  0
 26 27  1  0  0  0
 26 46  1  6  0  0
 27 28  1  0  0  0
 28 29  2  0  0  0
 28 30  1  0  0  0
 30 31  1  0  0  0
 30 40  1  0  0  0
 31 32  1  0  0  0
 32 33  2  0  0  0
 32 34  1  0  0  0
 34 35  2  0  0  0
 34 39  1  0  0  0
 35 36  1  0  0  0
 36 37  2  0  0  0
 37 38  1  0  0  0
 38 39  2  0  0  0
 40 41  1  0  0  0
 40 45  1  0  0  0
 41 42  1  0  0  0
 42 43  1  0  0  0
 43 44  1  0  0  0
 44 45  1  0  0  0
 46 47  1  0  0  0
 46 48  1  0  0  0
 46 49  1  0  0  0
 50 51  1  0  0  0
 50 52  1  0  0  0
 50 53  1  0  0  0
 53 54  1  0  0  0
 53 56  1  0  0  0
 54 55  1  0  0  0
 55 56  1  0  0  0
M  END
> <s_m_entry_id>
6878

> <s_m_entry_name>
NS3-4A.419

> <CHEMBLID>
CHEMBL3645734

> <s_m_Source_Path>
/home/liwei/Desktop/Machine/HCV/Active

> <s_m_Source_File>
NS3-4A.sdf

> <i_m_Source_File_Index>
419

$$$$
CHEMBL3645735
                    3D
 Structure written by MMmdl.
 57 62  0  0  1  0            999 V2000
   -2.2617  -11.4727    0.0000 C   0  0  0  0  0  0
   -0.9135  -12.1302    0.0000 N   0  0  0  0  0  0
   -0.8089  -13.6266    0.0000 C   0  0  0  0  0  0
   -2.0524  -14.4654    0.0000 C   0  0  0  0  0  0
   -1.9478  -15.9617    0.0000 Cl  0  0  0  0  0  0
    0.3301  -11.2914    0.0000 S   0  0  0  0  0  0
    1.1689  -12.5350    0.0000 O   0  0  0  0  0  0
   -0.5087  -10.0479    0.0000 O   0  0  0  0  0  0
    1.5736  -10.4526    0.0000 N   0  0  0  0  0  0
    1.4690   -8.9563    0.0000 C   0  0  0  0  0  0
    0.1208   -8.2987    0.0000 O   0  0  0  0  0  0
    2.7125   -8.1175    0.0000 C   0  0  2  0  0  0
    3.7545   -9.1965    0.0000 C   0  0  0  0  0  0
    4.1680   -7.7546    0.0000 C   0  0  1  0  0  0
    5.2470   -6.7126    0.0000 C   0  0  0  0  0  0
    6.6889   -7.1261    0.0000 C   0  0  0  0  0  0
    2.1024   -6.7472    0.0000 N   0  0  0  0  0  0
    2.9841   -5.5337    0.0000 C   0  0  0  0  0  0
    4.4759   -5.6905    0.0000 O   0  0  0  0  0  0
    2.3740   -4.1633    0.0000 C   0  0  2  0  0  0
    0.9068   -3.8515    0.0000 C   0  0  0  0  0  0
    0.7500   -2.3597    0.0000 C   0  0  2  0  0  0
    2.1203   -1.7496    0.0000 C   0  0  0  0  0  0
    3.1240   -2.8643    0.0000 N   0  0  0  0  0  0
    4.6158   -2.7075    0.0000 C   0  0  0  0  0  0
    5.4975   -3.9210    0.0000 O   0  0  0  0  0  0
    5.2259   -1.3372    0.0000 C   0  0  1  0  0  0
    4.3442   -0.1237    0.0000 N   0  0  0  0  0  0
    4.9543    1.2466    0.0000 C   0  0  0  0  0  0
    6.4461    1.4034    0.0000 O   0  0  0  0  0  0
    4.0727    2.4602    0.0000 C   0  0  3  0  0  0
    2.5809    2.3034    0.0000 N   0  0  0  0  0  0
    1.6992    3.5169    0.0000 C   0  0  0  0  0  0
    2.3093    4.8872    0.0000 O   0  0  0  0  0  0
    0.2074    3.3601    0.0000 C   0  0  0  0  0  0
   -0.6743    4.5736    0.0000 C   0  0  0  0  0  0
   -2.1661    4.4168    0.0000 N   0  0  0  0  0  0
   -2.7762    3.0465    0.0000 C   0  0  0  0  0  0
   -1.8945    1.8330    0.0000 C   0  0  0  0  0  0
   -0.4027    1.9898    0.0000 N   0  0  0  0  0  0
    4.6828    3.8305    0.0000 C   0  0  0  0  0  0
    6.1745    3.9873    0.0000 C   0  0  0  0  0  0
    6.7846    5.3576    0.0000 C   0  0  0  0  0  0
    5.9030    6.5711    0.0000 C   0  0  0  0  0  0
    4.4112    6.4143    0.0000 C   0  0  0  0  0  0
    3.8011    5.0440    0.0000 C   0  0  0  0  0  0
    6.7177   -1.1804    0.0000 C   0  0  0  0  0  0
    6.5609    0.3114    0.0000 C   0  0  0  0  0  0
    6.8745   -2.6722    0.0000 C   0  0  0  0  0  0
    8.2095   -1.0236    0.0000 C   0  0  0  0  0  0
   -0.7500   -2.3597    0.0000 C   0  0  0  0  0  0
   -1.0105   -3.8369    0.0000 C   0  0  0  0  0  0
   -2.1595   -1.8467    0.0000 C   0  0  0  0  0  0
   -0.0000   -1.0607    0.0000 C   0  0  0  0  0  0
    1.0607    0.0000    0.0000 C   0  0  0  0  0  0
    0.0000    1.0607    0.0000 C   0  0  0  0  0  0
   -1.0607    0.0000    0.0000 C   0  0  0  0  0  0
  1  2  1  0  0  0
  2  3  1  0  0  0
  2  6  1  0  0  0
  3  4  1  0  0  0
  4  5  1  0  0  0
  6  7  2  0  0  0
  6  8  2  0  0  0
  6  9  1  0  0  0
  9 10  1  0  0  0
 10 11  2  0  0  0
 10 12  1  0  0  0
 12 13  1  0  0  0
 12 17  1  0  0  0
 12 14  1  6  0  0
 13 14  1  0  0  0
 14 15  1  6  0  0
 15 16  2  0  0  0
 17 18  1  0  0  0
 18 19  2  0  0  0
 18 20  1  0  0  0
 20 21  1  0  0  0
 20 24  1  1  0  0
 21 22  1  0  0  0
 22 23  1  0  0  0
 22 51  1  0  0  0
 22 54  1  6  0  0
 23 24  1  0  0  0
 24 25  1  0  0  0
 25 26  2  0  0  0
 25 27  1  0  0  0
 27 28  1  0  0  0
 27 47  1  6  0  0
 28 29  1  0  0  0
 29 30  2  0  0  0
 29 31  1  0  0  0
 31 32  1  0  0  0
 31 41  1  0  0  0
 32 33  1  0  0  0
 33 34  2  0  0  0
 33 35  1  0  0  0
 35 36  2  0  0  0
 35 40  1  0  0  0
 36 37  1  0  0  0
 37 38  2  0  0  0
 38 39  1  0  0  0
 39 40  2  0  0  0
 41 42  1  0  0  0
 41 46  1  0  0  0
 42 43  1  0  0  0
 43 44  1  0  0  0
 44 45  1  0  0  0
 45 46  1  0  0  0
 47 48  1  0  0  0
 47 49  1  0  0  0
 47 50  1  0  0  0
 51 52  1  0  0  0
 51 53  1  0  0  0
 51 54  1  0  0  0
 54 55  1  0  0  0
 54 57  1  0  0  0
 55 56  1  0  0  0
 56 57  1  0  0  0
M  END
> <s_m_entry_id>
6879

> <s_m_entry_name>
NS3-4A.420

> <CHEMBLID>
CHEMBL3645735

> <s_m_Source_Path>
/home/liwei/Desktop/Machine/HCV/Active

> <s_m_Source_File>
NS3-4A.sdf

> <i_m_Source_File_Index>
420

$$$$
CHEMBL3645736
                    3D
 Structure written by MMmdl.
 60 65  0  0  1  0            999 V2000
   -8.3400   -5.6496    0.0000 C   0  0  0  0  0  0
   -6.8483   -5.8064    0.0000 C   0  0  0  0  0  0
   -6.2382   -7.1768    0.0000 C   0  0  0  0  0  0
   -5.9666   -4.5929    0.0000 N   0  0  0  0  0  0
   -6.5767   -3.2226    0.0000 C   0  0  0  0  0  0
   -5.6950   -2.0091    0.0000 C   0  0  0  0  0  0
   -4.2032   -2.1659    0.0000 C   0  0  0  0  0  0
   -3.5931   -3.5362    0.0000 C   0  0  0  0  0  0
   -4.4748   -4.7497    0.0000 C   0  0  1  0  0  0
   -3.8647   -6.1200    0.0000 C   0  0  0  0  0  0
   -4.7464   -7.3335    0.0000 O   0  0  0  0  0  0
   -2.3729   -6.2768    0.0000 N   0  0  0  0  0  0
   -1.7628   -7.6471    0.0000 C   0  0  3  0  0  0
   -2.6445   -8.8607    0.0000 C   0  0  0  0  0  0
   -4.1363   -8.7039    0.0000 C   0  0  0  0  0  0
   -5.0179   -9.9174    0.0000 C   0  0  0  0  0  0
   -4.4078  -11.2877    0.0000 C   0  0  0  0  0  0
   -2.9161  -11.4445    0.0000 C   0  0  0  0  0  0
   -2.0344  -10.2310    0.0000 C   0  0  0  0  0  0
   -0.2710   -7.8039    0.0000 C   0  0  0  0  0  0
    0.3391   -9.1742    0.0000 O   0  0  0  0  0  0
    0.6107   -6.5904    0.0000 N   0  0  0  0  0  0
    2.1024   -6.7472    0.0000 C   0  0  2  0  0  0
    2.9841   -5.5337    0.0000 C   0  0  0  0  0  0
    4.4759   -5.6905    0.0000 O   0  0  0  0  0  0
    2.3740   -4.1633    0.0000 N   0  0  0  0  0  0
    0.9068   -3.8515    0.0000 C   0  0  0  0  0  0
    0.7500   -2.3597    0.0000 C   0  0  1  0  0  0
    2.1203   -1.7496    0.0000 C   0  0  0  0  0  0
    3.1240   -2.8643    0.0000 C   0  0  1  0  0  0
    4.6158   -2.7075    0.0000 C   0  0  0  0  0  0
    5.2259   -1.3372    0.0000 O   0  0  0  0  0  0
    5.4975   -3.9210    0.0000 N   0  0  0  0  0  0
    6.9893   -3.7643    0.0000 C   0  0  1  0  0  0
    8.3374   -3.1067    0.0000 C   0  0  0  0  0  0
    7.0939   -2.2679    0.0000 C   0  0  1  0  0  0
    6.4363   -0.9197    0.0000 C   0  0  0  0  0  0
    7.2751    0.3238    0.0000 C   0  0  0  0  0  0
    7.4027   -5.2061    0.0000 C   0  0  0  0  0  0
    6.3607   -6.2852    0.0000 O   0  0  0  0  0  0
    8.8582   -5.5690    0.0000 N   0  0  0  0  0  0
    9.2716   -7.0109    0.0000 S   0  0  0  0  0  0
    7.8297   -7.4244    0.0000 O   0  0  0  0  0  0
   10.7135   -6.5975    0.0000 O   0  0  0  0  0  0
    9.6851   -8.4528    0.0000 N   0  0  0  0  0  0
    8.6431   -9.5318    0.0000 C   0  0  0  0  0  0
    9.7221  -10.5738    0.0000 C   0  0  0  0  0  0
    7.5641   -8.4898    0.0000 C   0  0  0  0  0  0
    7.6011  -10.6108    0.0000 C   0  0  0  0  0  0
   -0.7500   -2.3597    0.0000 C   0  0  0  0  0  0
   -1.0105   -3.8369    0.0000 C   0  0  0  0  0  0
   -2.1595   -1.8467    0.0000 C   0  0  0  0  0  0
   -0.0000   -1.0607    0.0000 C   0  0  0  0  0  0
    1.0607    0.0000    0.0000 C   0  0  0  0  0  0
    0.0000    1.0607    0.0000 C   0  0  0  0  0  0
   -1.0607    0.0000    0.0000 C   0  0  0  0  0  0
    2.7125   -8.1175    0.0000 C   0  0  0  0  0  0
    1.3422   -8.7276    0.0000 C   0  0  0  0  0  0
    4.0829   -7.5074    0.0000 C   0  0  0  0  0  0
    3.3227   -9.4878    0.0000 C   0  0  0  0  0  0
  1  2  1  0  0  0
  2  3  1  0  0  0
  2  4  1  0  0  0
  4  5  1  0  0  0
  4  9  1  0  0  0
  5  6  1  0  0  0
  6  7  1  0  0  0
  7  8  1  0  0  0
  8  9  1  0  0  0
  9 10  1  6  0  0
 10 11  2  0  0  0
 10 12  1  0  0  0
 12 13  1  0  0  0
 13 14  1  0  0  0
 13 20  1  0  0  0
 14 15  1  0  0  0
 14 19  1  0  0  0
 15 16  1  0  0  0
 16 17  1  0  0  0
 17 18  1  0  0  0
 18 19  1  0  0  0
 20 21  2  0  0  0
 20 22  1  0  0  0
 22 23  1  0  0  0
 23 24  1  0  0  0
 23 57  1  1  0  0
 24 25  2  0  0  0
 24 26  1  0  0  0
 26 27  1  0  0  0
 26 30  1  0  0  0
 27 28  1  0  0  0
 28 29  1  0  0  0
 28 50  1  0  0  0
 28 53  1  1  0  0
 29 30  1  0  0  0
 30 31  1  6  0  0
 31 32  2  0  0  0
 31 33  1  0  0  0
 33 34  1  0  0  0
 34 35  1  0  0  0
 34 39  1  0  0  0
 34 36  1  1  0  0
 35 36  1  0  0  0
 36 37  1  6  0  0
 37 38  2  0  0  0
 39 40  2  0  0  0
 39 41  1  0  0  0
 41 42  1  0  0  0
 42 43  2  0  0  0
 42 44  2  0  0  0
 42 45  1  0  0  0
 45 46  1  0  0  0
 46 47  1  0  0  0
 46 48  1  0  0  0
 46 49  1  0  0  0
 50 51  1  0  0  0
 50 52  1  0  0  0
 50 53  1  0  0  0
 53 54  1  0  0  0
 53 56  1  0  0  0
 54 55  1  0  0  0
 55 56  1  0  0  0
 57 58  1  0  0  0
 57 59  1  0  0  0
 57 60  1  0  0  0
M  END
> <s_m_entry_id>
6880

> <s_m_entry_name>
NS3-4A.421

> <CHEMBLID>
CHEMBL3645736

> <s_m_Source_Path>
/home/liwei/Desktop/Machine/HCV/Active

> <s_m_Source_File>
NS3-4A.sdf

> <i_m_Source_File_Index>
421

$$$$
CHEMBL3645737
                    3D
 Structure written by MMmdl.
 59 64  0  0  1  0            999 V2000
   -2.0524  -14.4654    0.0000 C   0  0  0  0  0  0
   -0.8089  -13.6266    0.0000 C   0  0  0  0  0  0
   -0.9135  -12.1302    0.0000 N   0  0  0  0  0  0
   -2.2617  -11.4727    0.0000 C   0  0  0  0  0  0
    0.3301  -11.2914    0.0000 S   0  0  0  0  0  0
    1.1689  -12.5350    0.0000 O   0  0  0  0  0  0
   -0.5087  -10.0479    0.0000 O   0  0  0  0  0  0
    1.5736  -10.4526    0.0000 N   0  0  0  0  0  0
    1.4690   -8.9563    0.0000 C   0  0  0  0  0  0
    0.1208   -8.2987    0.0000 O   0  0  0  0  0  0
    2.7125   -8.1175    0.0000 C   0  0  2  0  0  0
    3.7545   -9.1965    0.0000 C   0  0  0  0  0  0
    4.1680   -7.7546    0.0000 C   0  0  1  0  0  0
    5.2470   -6.7126    0.0000 C   0  0  0  0  0  0
    6.6889   -7.1261    0.0000 C   0  0  0  0  0  0
    2.1024   -6.7472    0.0000 N   0  0  0  0  0  0
    2.9841   -5.5337    0.0000 C   0  0  0  0  0  0
    4.4759   -5.6905    0.0000 O   0  0  0  0  0  0
    2.3740   -4.1633    0.0000 C   0  0  2  0  0  0
    0.9068   -3.8515    0.0000 C   0  0  0  0  0  0
    0.7500   -2.3597    0.0000 C   0  0  2  0  0  0
    2.1203   -1.7496    0.0000 C   0  0  0  0  0  0
    3.1240   -2.8643    0.0000 N   0  0  0  0  0  0
    4.6158   -2.7075    0.0000 C   0  0  0  0  0  0
    5.4975   -3.9210    0.0000 O   0  0  0  0  0  0
    5.2259   -1.3372    0.0000 C   0  0  1  0  0  0
    6.7177   -1.1804    0.0000 N   0  0  0  0  0  0
    7.3278    0.1899    0.0000 C   0  0  0  0  0  0
    6.4461    1.4034    0.0000 O   0  0  0  0  0  0
    8.8196    0.3467    0.0000 C   0  0  3  0  0  0
    9.7013   -0.8668    0.0000 N   0  0  0  0  0  0
   11.1930   -0.7100    0.0000 C   0  0  0  0  0  0
   11.8031    0.6603    0.0000 O   0  0  0  0  0  0
   12.0747   -1.9236    0.0000 C   0  0  2  0  0  0
   13.5665   -1.7668    0.0000 C   0  0  0  0  0  0
   14.4482   -2.9803    0.0000 C   0  0  0  0  0  0
   13.8381   -4.3506    0.0000 C   0  0  0  0  0  0
   12.3463   -4.5074    0.0000 C   0  0  0  0  0  0
   11.4646   -3.2939    0.0000 N   0  0  0  0  0  0
    9.9728   -3.4507    0.0000 C   0  0  0  0  0  0
    9.0911   -2.2371    0.0000 C   0  0  0  0  0  0
    9.3627   -4.8210    0.0000 C   0  0  0  0  0  0
    9.4297    1.7170    0.0000 C   0  0  0  0  0  0
    8.5480    2.9305    0.0000 C   0  0  0  0  0  0
    9.1581    4.3009    0.0000 C   0  0  0  0  0  0
   10.6499    4.4577    0.0000 C   0  0  0  0  0  0
   11.5316    3.2441    0.0000 C   0  0  0  0  0  0
   10.9215    1.8738    0.0000 C   0  0  0  0  0  0
    4.3442   -0.1237    0.0000 C   0  0  0  0  0  0
    5.5577    0.7580    0.0000 C   0  0  0  0  0  0
    3.1307   -1.0054    0.0000 C   0  0  0  0  0  0
    3.4625    1.0899    0.0000 C   0  0  0  0  0  0
   -0.7500   -2.3597    0.0000 C   0  0  0  0  0  0
   -1.0105   -3.8369    0.0000 C   0  0  0  0  0  0
   -2.1595   -1.8467    0.0000 C   0  0  0  0  0  0
   -0.0000   -1.0607    0.0000 C   0  0  0  0  0  0
    1.0607    0.0000    0.0000 C   0  0  0  0  0  0
    0.0000    1.0607    0.0000 C   0  0  0  0  0  0
   -1.0607    0.0000    0.0000 C   0  0  0  0  0  0
  1  2  1  0  0  0
  2  3  1  0  0  0
  3  4  1  0  0  0
  3  5  1  0  0  0
  5  6  2  0  0  0
  5  7  2  0  0  0
  5  8  1  0  0  0
  8  9  1  0  0  0
  9 10  2  0  0  0
  9 11  1  0  0  0
 11 12  1  0  0  0
 11 16  1  0  0  0
 11 13  1  6  0  0
 12 13  1  0  0  0
 13 14  1  6  0  0
 14 15  2  0  0  0
 16 17  1  0  0  0
 17 18  2  0  0  0
 17 19  1  0  0  0
 19 20  1  0  0  0
 19 23  1  1  0  0
 20 21  1  0  0  0
 21 22  1  0  0  0
 21 53  1  0  0  0
 21 56  1  6  0  0
 22 23  1  0  0  0
 23 24  1  0  0  0
 24 25  2  0  0  0
 24 26  1  0  0  0
 26 27  1  0  0  0
 26 49  1  6  0  0
 27 28  1  0  0  0
 28 29  2  0  0  0
 28 30  1  0  0  0
 30 31  1  0  0  0
 30 43  1  0  0  0
 31 32  1  0  0  0
 32 33  2  0  0  0
 32 34  1  0  0  0
 34 35  1  0  0  0
 34 39  1  1  0  0
 35 36  1  0  0  0
 36 37  1  0  0  0
 37 38  1  0  0  0
 38 39  1  0  0  0
 39 40  1  0  0  0
 40 41  1  0  0  0
 40 42  1  0  0  0
 43 44  1  0  0  0
 43 48  1  0  0  0
 44 45  1  0  0  0
 45 46  1  0  0  0
 46 47  1  0  0  0
 47 48  1  0  0  0
 49 50  1  0  0  0
 49 51  1  0  0  0
 49 52  1  0  0  0
 53 54  1  0  0  0
 53 55  1  0  0  0
 53 56  1  0  0  0
 56 57  1  0  0  0
 56 59  1  0  0  0
 57 58  1  0  0  0
 58 59  1  0  0  0
M  END
> <s_m_entry_id>
6881

> <s_m_entry_name>
NS3-4A.422

> <CHEMBLID>
CHEMBL3645737

> <s_m_Source_Path>
/home/liwei/Desktop/Machine/HCV/Active

> <s_m_Source_File>
NS3-4A.sdf

> <i_m_Source_File_Index>
422

$$$$
CHEMBL3645738
                    3D
 Structure written by MMmdl.
 60 65  0  0  1  0            999 V2000
   -8.3400   -5.6496    0.0000 C   0  0  0  0  0  0
   -6.8483   -5.8064    0.0000 C   0  0  0  0  0  0
   -6.2382   -7.1768    0.0000 C   0  0  0  0  0  0
   -5.9666   -4.5929    0.0000 N   0  0  0  0  0  0
   -6.5767   -3.2226    0.0000 C   0  0  0  0  0  0
   -5.6950   -2.0091    0.0000 C   0  0  0  0  0  0
   -4.2032   -2.1659    0.0000 C   0  0  0  0  0  0
   -3.5931   -3.5362    0.0000 C   0  0  0  0  0  0
   -4.4748   -4.7497    0.0000 C   0  0  1  0  0  0
   -3.8647   -6.1200    0.0000 C   0  0  0  0  0  0
   -4.7464   -7.3335    0.0000 O   0  0  0  0  0  0
   -2.3729   -6.2768    0.0000 N   0  0  0  0  0  0
   -1.7628   -7.6471    0.0000 C   0  0  3  0  0  0
   -2.6445   -8.8607    0.0000 C   0  0  0  0  0  0
   -4.1363   -8.7039    0.0000 C   0  0  0  0  0  0
   -5.0179   -9.9174    0.0000 C   0  0  0  0  0  0
   -4.4078  -11.2877    0.0000 C   0  0  0  0  0  0
   -2.9161  -11.4445    0.0000 C   0  0  0  0  0  0
   -2.0344  -10.2310    0.0000 C   0  0  0  0  0  0
   -0.2710   -7.8039    0.0000 C   0  0  0  0  0  0
    0.3391   -9.1742    0.0000 O   0  0  0  0  0  0
    0.6107   -6.5904    0.0000 N   0  0  0  0  0  0
    2.1024   -6.7472    0.0000 C   0  0  2  0  0  0
    2.9841   -5.5337    0.0000 C   0  0  0  0  0  0
    4.4759   -5.6905    0.0000 O   0  0  0  0  0  0
    2.3740   -4.1633    0.0000 N   0  0  0  0  0  0
    0.9068   -3.8515    0.0000 C   0  0  0  0  0  0
    0.7500   -2.3597    0.0000 C   0  0  1  0  0  0
    2.1203   -1.7496    0.0000 C   0  0  0  0  0  0
    3.1240   -2.8643    0.0000 C   0  0  1  0  0  0
    4.6158   -2.7075    0.0000 C   0  0  0  0  0  0
    5.2259   -1.3372    0.0000 O   0  0  0  0  0  0
    5.4975   -3.9210    0.0000 N   0  0  0  0  0  0
    6.9893   -3.7643    0.0000 C   0  0  1  0  0  0
    8.3374   -3.1067    0.0000 C   0  0  0  0  0  0
    7.0939   -2.2679    0.0000 C   0  0  1  0  0  0
    6.4363   -0.9197    0.0000 C   0  0  0  0  0  0
    7.2751    0.3238    0.0000 C   0  0  0  0  0  0
    7.4027   -5.2061    0.0000 C   0  0  0  0  0  0
    6.3607   -6.2852    0.0000 O   0  0  0  0  0  0
    8.8582   -5.5690    0.0000 N   0  0  0  0  0  0
    9.2716   -7.0109    0.0000 S   0  0  0  0  0  0
   10.7135   -6.5975    0.0000 O   0  0  0  0  0  0
    7.8297   -7.4244    0.0000 O   0  0  0  0  0  0
    9.6851   -8.4528    0.0000 N   0  0  0  0  0  0
    8.6431   -9.5318    0.0000 C   0  0  0  0  0  0
   11.1405   -8.8157    0.0000 C   0  0  0  0  0  0
   11.5540  -10.2576    0.0000 C   0  0  0  0  0  0
   13.0094  -10.6205    0.0000 Cl  0  0  0  0  0  0
   -0.7500   -2.3597    0.0000 C   0  0  0  0  0  0
   -1.0105   -3.8369    0.0000 C   0  0  0  0  0  0
   -2.1595   -1.8467    0.0000 C   0  0  0  0  0  0
   -0.0000   -1.0607    0.0000 C   0  0  0  0  0  0
    1.0607    0.0000    0.0000 C   0  0  0  0  0  0
    0.0000    1.0607    0.0000 C   0  0  0  0  0  0
   -1.0607    0.0000    0.0000 C   0  0  0  0  0  0
    2.7125   -8.1175    0.0000 C   0  0  0  0  0  0
    1.3422   -8.7276    0.0000 C   0  0  0  0  0  0
    4.0829   -7.5074    0.0000 C   0  0  0  0  0  0
    3.3227   -9.4878    0.0000 C   0  0  0  0  0  0
  1  2  1  0  0  0
  2  3  1  0  0  0
  2  4  1  0  0  0
  4  5  1  0  0  0
  4  9  1  0  0  0
  5  6  1  0  0  0
  6  7  1  0  0  0
  7  8  1  0  0  0
  8  9  1  0  0  0
  9 10  1  6  0  0
 10 11  2  0  0  0
 10 12  1  0  0  0
 12 13  1  0  0  0
 13 14  1  0  0  0
 13 20  1  0  0  0
 14 15  1  0  0  0
 14 19  1  0  0  0
 15 16  1  0  0  0
 16 17  1  0  0  0
 17 18  1  0  0  0
 18 19  1  0  0  0
 20 21  2  0  0  0
 20 22  1  0  0  0
 22 23  1  0  0  0
 23 24  1  0  0  0
 23 57  1  1  0  0
 24 25  2  0  0  0
 24 26  1  0  0  0
 26 27  1  0  0  0
 26 30  1  0  0  0
 27 28  1  0  0  0
 28 29  1  0  0  0
 28 50  1  0  0  0
 28 53  1  1  0  0
 29 30  1  0  0  0
 30 31  1  6  0  0
 31 32  2  0  0  0
 31 33  1  0  0  0
 33 34  1  0  0  0
 34 35  1  0  0  0
 34 39  1  0  0  0
 34 36  1  1  0  0
 35 36  1  0  0  0
 36 37  1  6  0  0
 37 38  2  0  0  0
 39 40  2  0  0  0
 39 41  1  0  0  0
 41 42  1  0  0  0
 42 43  2  0  0  0
 42 44  2  0  0  0
 42 45  1  0  0  0
 45 46  1  0  0  0
 45 47  1  0  0  0
 47 48  1  0  0  0
 48 49  1  0  0  0
 50 51  1  0  0  0
 50 52  1  0  0  0
 50 53  1  0  0  0
 53 54  1  0  0  0
 53 56  1  0  0  0
 54 55  1  0  0  0
 55 56  1  0  0  0
 57 58  1  0  0  0
 57 59  1  0  0  0
 57 60  1  0  0  0
M  END
> <s_m_entry_id>
6882

> <s_m_entry_name>
NS3-4A.423

> <CHEMBLID>
CHEMBL3645738

> <s_m_Source_Path>
/home/liwei/Desktop/Machine/HCV/Active

> <s_m_Source_File>
NS3-4A.sdf

> <i_m_Source_File_Index>
423

$$$$
CHEMBL3645739
                    3D
 Structure written by MMmdl.
 59 65  0  0  1  0            999 V2000
   -8.3400   -5.6496    0.0000 C   0  0  0  0  0  0
   -6.8483   -5.8064    0.0000 C   0  0  0  0  0  0
   -6.2382   -7.1768    0.0000 C   0  0  0  0  0  0
   -5.9666   -4.5929    0.0000 N   0  0  0  0  0  0
   -6.5767   -3.2226    0.0000 C   0  0  0  0  0  0
   -5.6950   -2.0091    0.0000 C   0  0  0  0  0  0
   -4.2032   -2.1659    0.0000 C   0  0  0  0  0  0
   -3.5931   -3.5362    0.0000 C   0  0  0  0  0  0
   -4.4748   -4.7497    0.0000 C   0  0  1  0  0  0
   -3.8647   -6.1200    0.0000 C   0  0  0  0  0  0
   -4.7464   -7.3335    0.0000 O   0  0  0  0  0  0
   -2.3729   -6.2768    0.0000 N   0  0  0  0  0  0
   -1.7628   -7.6471    0.0000 C   0  0  3  0  0  0
   -2.6445   -8.8607    0.0000 C   0  0  0  0  0  0
   -4.1363   -8.7039    0.0000 C   0  0  0  0  0  0
   -5.0179   -9.9174    0.0000 C   0  0  0  0  0  0
   -4.4078  -11.2877    0.0000 C   0  0  0  0  0  0
   -2.9161  -11.4445    0.0000 C   0  0  0  0  0  0
   -2.0344  -10.2310    0.0000 C   0  0  0  0  0  0
   -0.2710   -7.8039    0.0000 C   0  0  0  0  0  0
    0.3391   -9.1742    0.0000 O   0  0  0  0  0  0
    0.6107   -6.5904    0.0000 N   0  0  0  0  0  0
    2.1024   -6.7472    0.0000 C   0  0  2  0  0  0
    2.9841   -5.5337    0.0000 C   0  0  0  0  0  0
    4.4759   -5.6905    0.0000 O   0  0  0  0  0  0
    2.3740   -4.1633    0.0000 N   0  0  0  0  0  0
    0.9068   -3.8515    0.0000 C   0  0  0  0  0  0
    0.7500   -2.3597    0.0000 C   0  0  1  0  0  0
    2.1203   -1.7496    0.0000 C   0  0  0  0  0  0
    3.1240   -2.8643    0.0000 C   0  0  1  0  0  0
    4.6158   -2.7075    0.0000 C   0  0  0  0  0  0
    5.2259   -1.3372    0.0000 O   0  0  0  0  0  0
    5.4975   -3.9210    0.0000 N   0  0  0  0  0  0
    6.9893   -3.7643    0.0000 C   0  0  1  0  0  0
    8.3374   -3.1067    0.0000 C   0  0  0  0  0  0
    7.0939   -2.2679    0.0000 C   0  0  1  0  0  0
    6.4363   -0.9197    0.0000 C   0  0  0  0  0  0
    7.2751    0.3238    0.0000 C   0  0  0  0  0  0
    7.4027   -5.2061    0.0000 C   0  0  0  0  0  0
    6.3607   -6.2852    0.0000 O   0  0  0  0  0  0
    8.8582   -5.5690    0.0000 N   0  0  0  0  0  0
    9.2716   -7.0109    0.0000 S   0  0  0  0  0  0
    7.8297   -7.4244    0.0000 O   0  0  0  0  0  0
   10.7135   -6.5975    0.0000 O   0  0  0  0  0  0
    9.6851   -8.4528    0.0000 N   0  0  0  0  0  0
    8.6431   -9.5318    0.0000 C   0  0  0  0  0  0
    7.2012   -9.9453    0.0000 C   0  0  0  0  0  0
    8.2802  -10.9873    0.0000 C   0  0  0  0  0  0
   -0.7500   -2.3597    0.0000 C   0  0  0  0  0  0
   -1.0105   -3.8369    0.0000 C   0  0  0  0  0  0
   -2.1595   -1.8467    0.0000 C   0  0  0  0  0  0
   -0.0000   -1.0607    0.0000 C   0  0  0  0  0  0
    1.0607    0.0000    0.0000 C   0  0  0  0  0  0
    0.0000    1.0607    0.0000 C   0  0  0  0  0  0
   -1.0607    0.0000    0.0000 C   0  0  0  0  0  0
    2.7125   -8.1175    0.0000 C   0  0  0  0  0  0
    1.3422   -8.7276    0.0000 C   0  0  0  0  0  0
    4.0829   -7.5074    0.0000 C   0  0  0  0  0  0
    3.3227   -9.4878    0.0000 C   0  0  0  0  0  0
  1  2  1  0  0  0
  2  3  1  0  0  0
  2  4  1  0  0  0
  4  5  1  0  0  0
  4  9  1  0  0  0
  5  6  1  0  0  0
  6  7  1  0  0  0
  7  8  1  0  0  0
  8  9  1  0  0  0
  9 10  1  6  0  0
 10 11  2  0  0  0
 10 12  1  0  0  0
 12 13  1  0  0  0
 13 14  1  0  0  0
 13 20  1  0  0  0
 14 15  1  0  0  0
 14 19  1  0  0  0
 15 16  1  0  0  0
 16 17  1  0  0  0
 17 18  1  0  0  0
 18 19  1  0  0  0
 20 21  2  0  0  0
 20 22  1  0  0  0
 22 23  1  0  0  0
 23 24  1  0  0  0
 23 56  1  1  0  0
 24 25  2  0  0  0
 24 26  1  0  0  0
 26 27  1  0  0  0
 26 30  1  0  0  0
 27 28  1  0  0  0
 28 29  1  0  0  0
 28 49  1  0  0  0
 28 52  1  1  0  0
 29 30  1  0  0  0
 30 31  1  6  0  0
 31 32  2  0  0  0
 31 33  1  0  0  0
 33 34  1  0  0  0
 34 35  1  0  0  0
 34 39  1  0  0  0
 34 36  1  1  0  0
 35 36  1  0  0  0
 36 37  1  6  0  0
 37 38  2  0  0  0
 39 40  2  0  0  0
 39 41  1  0  0  0
 41 42  1  0  0  0
 42 43  2  0  0  0
 42 44  2  0  0  0
 42 45  1  0  0  0
 45 46  1  0  0  0
 46 47  1  0  0  0
 46 48  1  0  0  0
 47 48  1  0  0  0
 49 50  1  0  0  0
 49 51  1  0  0  0
 49 52  1  0  0  0
 52 53  1  0  0  0
 52 55  1  0  0  0
 53 54  1  0  0  0
 54 55  1  0  0  0
 56 57  1  0  0  0
 56 58  1  0  0  0
 56 59  1  0  0  0
M  END
> <s_m_entry_id>
6883

> <s_m_entry_name>
NS3-4A.424

> <CHEMBLID>
CHEMBL3645739

> <s_m_Source_Path>
/home/liwei/Desktop/Machine/HCV/Active

> <s_m_Source_File>
NS3-4A.sdf

> <i_m_Source_File_Index>
424

$$$$
CHEMBL3645740
                    3D
 Structure written by MMmdl.
 57 62  0  0  1  0            999 V2000
   -3.5052  -12.3115    0.0000 C   0  0  0  0  0  0
   -2.2617  -11.4727    0.0000 C   0  0  0  0  0  0
   -0.9135  -12.1302    0.0000 N   0  0  0  0  0  0
   -0.8089  -13.6266    0.0000 C   0  0  0  0  0  0
   -2.0524  -14.4654    0.0000 C   0  0  0  0  0  0
    0.3301  -11.2914    0.0000 S   0  0  0  0  0  0
    1.1689  -12.5350    0.0000 O   0  0  0  0  0  0
   -0.5087  -10.0479    0.0000 O   0  0  0  0  0  0
    1.5736  -10.4526    0.0000 N   0  0  0  0  0  0
    1.4690   -8.9563    0.0000 C   0  0  0  0  0  0
    0.1208   -8.2987    0.0000 O   0  0  0  0  0  0
    2.7125   -8.1175    0.0000 C   0  0  2  0  0  0
    3.7545   -9.1965    0.0000 C   0  0  0  0  0  0
    4.1680   -7.7546    0.0000 C   0  0  1  0  0  0
    5.2470   -6.7126    0.0000 C   0  0  0  0  0  0
    6.6889   -7.1261    0.0000 C   0  0  0  0  0  0
    2.1024   -6.7472    0.0000 N   0  0  0  0  0  0
    2.9841   -5.5337    0.0000 C   0  0  0  0  0  0
    4.4759   -5.6905    0.0000 O   0  0  0  0  0  0
    2.3740   -4.1633    0.0000 C   0  0  2  0  0  0
    0.9068   -3.8515    0.0000 C   0  0  0  0  0  0
    0.7500   -2.3597    0.0000 C   0  0  2  0  0  0
    2.1203   -1.7496    0.0000 C   0  0  0  0  0  0
    3.1240   -2.8643    0.0000 N   0  0  0  0  0  0
    4.6158   -2.7075    0.0000 C   0  0  0  0  0  0
    5.4975   -3.9210    0.0000 O   0  0  0  0  0  0
    5.2259   -1.3372    0.0000 C   0  0  1  0  0  0
    4.3442   -0.1237    0.0000 N   0  0  0  0  0  0
    4.9543    1.2466    0.0000 C   0  0  0  0  0  0
    6.4461    1.4034    0.0000 O   0  0  0  0  0  0
    4.0727    2.4602    0.0000 C   0  0  3  0  0  0
    2.5809    2.3034    0.0000 N   0  0  0  0  0  0
    1.6992    3.5169    0.0000 C   0  0  0  0  0  0
    2.3093    4.8872    0.0000 O   0  0  0  0  0  0
    0.2074    3.3601    0.0000 C   0  0  0  0  0  0
   -0.6743    4.5736    0.0000 C   0  0  0  0  0  0
   -2.1661    4.4168    0.0000 N   0  0  0  0  0  0
   -2.7762    3.0465    0.0000 C   0  0  0  0  0  0
   -1.8945    1.8330    0.0000 C   0  0  0  0  0  0
   -0.4027    1.9898    0.0000 N   0  0  0  0  0  0
    4.6828    3.8305    0.0000 C   0  0  0  0  0  0
    6.1745    3.9873    0.0000 C   0  0  0  0  0  0
    6.7846    5.3576    0.0000 C   0  0  0  0  0  0
    5.9030    6.5711    0.0000 C   0  0  0  0  0  0
    4.4112    6.4143    0.0000 C   0  0  0  0  0  0
    3.8011    5.0440    0.0000 C   0  0  0  0  0  0
    6.7177   -1.1804    0.0000 C   0  0  0  0  0  0
    6.5609    0.3114    0.0000 C   0  0  0  0  0  0
    6.8745   -2.6722    0.0000 C   0  0  0  0  0  0
    8.2095   -1.0236    0.0000 C   0  0  0  0  0  0
   -0.7500   -2.3597    0.0000 C   0  0  0  0  0  0
   -1.0105   -3.8369    0.0000 C   0  0  0  0  0  0
   -2.1595   -1.8467    0.0000 C   0  0  0  0  0  0
   -0.0000   -1.0607    0.0000 C   0  0  0  0  0  0
    1.0607    0.0000    0.0000 C   0  0  0  0  0  0
    0.0000    1.0607    0.0000 C   0  0  0  0  0  0
   -1.0607    0.0000    0.0000 C   0  0  0  0  0  0
  1  2  1  0  0  0
  2  3  1  0  0  0
  3  4  1  0  0  0
  3  6  1  0  0  0
  4  5  1  0  0  0
  6  7  2  0  0  0
  6  8  2  0  0  0
  6  9  1  0  0  0
  9 10  1  0  0  0
 10 11  2  0  0  0
 10 12  1  0  0  0
 12 13  1  0  0  0
 12 17  1  0  0  0
 12 14  1  6  0  0
 13 14  1  0  0  0
 14 15  1  6  0  0
 15 16  2  0  0  0
 17 18  1  0  0  0
 18 19  2  0  0  0
 18 20  1  0  0  0
 20 21  1  0  0  0
 20 24  1  1  0  0
 21 22  1  0  0  0
 22 23  1  0  0  0
 22 51  1  0  0  0
 22 54  1  6  0  0
 23 24  1  0  0  0
 24 25  1  0  0  0
 25 26  2  0  0  0
 25 27  1  0  0  0
 27 28  1  0  0  0
 27 47  1  6  0  0
 28 29  1  0  0  0
 29 30  2  0  0  0
 29 31  1  0  0  0
 31 32  1  0  0  0
 31 41  1  0  0  0
 32 33  1  0  0  0
 33 34  2  0  0  0
 33 35  1  0  0  0
 35 36  2  0  0  0
 35 40  1  0  0  0
 36 37  1  0  0  0
 37 38  2  0  0  0
 38 39  1  0  0  0
 39 40  2  0  0  0
 41 42  1  0  0  0
 41 46  1  0  0  0
 42 43  1  0  0  0
 43 44  1  0  0  0
 44 45  1  0  0  0
 45 46  1  0  0  0
 47 48  1  0  0  0
 47 49  1  0  0  0
 47 50  1  0  0  0
 51 52  1  0  0  0
 51 53  1  0  0  0
 51 54  1  0  0  0
 54 55  1  0  0  0
 54 57  1  0  0  0
 55 56  1  0  0  0
 56 57  1  0  0  0
M  END
> <s_m_entry_id>
6884

> <s_m_entry_name>
NS3-4A.425

> <CHEMBLID>
CHEMBL3645740

> <s_m_Source_Path>
/home/liwei/Desktop/Machine/HCV/Active

> <s_m_Source_File>
NS3-4A.sdf

> <i_m_Source_File_Index>
425

$$$$
CHEMBL3645741
                    3D
 Structure written by MMmdl.
 60 65  0  0  1  0            999 V2000
   -3.5052  -12.3115    0.0000 C   0  0  0  0  0  0
   -2.2617  -11.4727    0.0000 C   0  0  0  0  0  0
   -0.9135  -12.1302    0.0000 N   0  0  0  0  0  0
   -0.8089  -13.6266    0.0000 C   0  0  0  0  0  0
   -2.0524  -14.4654    0.0000 C   0  0  0  0  0  0
    0.3301  -11.2914    0.0000 S   0  0  0  0  0  0
    1.1689  -12.5350    0.0000 O   0  0  0  0  0  0
   -0.5087  -10.0479    0.0000 O   0  0  0  0  0  0
    1.5736  -10.4526    0.0000 N   0  0  0  0  0  0
    1.4690   -8.9563    0.0000 C   0  0  0  0  0  0
    0.1208   -8.2987    0.0000 O   0  0  0  0  0  0
    2.7125   -8.1175    0.0000 C   0  0  2  0  0  0
    3.7545   -9.1965    0.0000 C   0  0  0  0  0  0
    4.1680   -7.7546    0.0000 C   0  0  1  0  0  0
    5.2470   -6.7126    0.0000 C   0  0  0  0  0  0
    6.6889   -7.1261    0.0000 C   0  0  0  0  0  0
    2.1024   -6.7472    0.0000 N   0  0  0  0  0  0
    2.9841   -5.5337    0.0000 C   0  0  0  0  0  0
    4.4759   -5.6905    0.0000 O   0  0  0  0  0  0
    2.3740   -4.1633    0.0000 C   0  0  2  0  0  0
    0.9068   -3.8515    0.0000 C   0  0  0  0  0  0
    0.7500   -2.3597    0.0000 C   0  0  2  0  0  0
    2.1203   -1.7496    0.0000 C   0  0  0  0  0  0
    3.1240   -2.8643    0.0000 N   0  0  0  0  0  0
    4.6158   -2.7075    0.0000 C   0  0  0  0  0  0
    5.4975   -3.9210    0.0000 O   0  0  0  0  0  0
    5.2259   -1.3372    0.0000 C   0  0  1  0  0  0
    6.7177   -1.1804    0.0000 N   0  0  0  0  0  0
    7.3278    0.1899    0.0000 C   0  0  0  0  0  0
    6.4461    1.4034    0.0000 O   0  0  0  0  0  0
    8.8196    0.3467    0.0000 C   0  0  3  0  0  0
    9.7013   -0.8668    0.0000 N   0  0  0  0  0  0
   11.1930   -0.7100    0.0000 C   0  0  0  0  0  0
   11.8031    0.6603    0.0000 O   0  0  0  0  0  0
   12.0747   -1.9236    0.0000 C   0  0  2  0  0  0
   13.5665   -1.7668    0.0000 C   0  0  0  0  0  0
   14.4482   -2.9803    0.0000 C   0  0  0  0  0  0
   13.8381   -4.3506    0.0000 C   0  0  0  0  0  0
   12.3463   -4.5074    0.0000 C   0  0  0  0  0  0
   11.4646   -3.2939    0.0000 N   0  0  0  0  0  0
    9.9728   -3.4507    0.0000 C   0  0  0  0  0  0
    9.0911   -2.2371    0.0000 C   0  0  0  0  0  0
    9.3627   -4.8210    0.0000 C   0  0  0  0  0  0
    9.4297    1.7170    0.0000 C   0  0  0  0  0  0
    8.5480    2.9305    0.0000 C   0  0  0  0  0  0
    9.1581    4.3009    0.0000 C   0  0  0  0  0  0
   10.6499    4.4577    0.0000 C   0  0  0  0  0  0
   11.5316    3.2441    0.0000 C   0  0  0  0  0  0
   10.9215    1.8738    0.0000 C   0  0  0  0  0  0
    4.3442   -0.1237    0.0000 C   0  0  0  0  0  0
    5.5577    0.7580    0.0000 C   0  0  0  0  0  0
    3.1307   -1.0054    0.0000 C   0  0  0  0  0  0
    3.4625    1.0899    0.0000 C   0  0  0  0  0  0
   -0.7500   -2.3597    0.0000 C   0  0  0  0  0  0
   -1.0105   -3.8369    0.0000 C   0  0  0  0  0  0
   -2.1595   -1.8467    0.0000 C   0  0  0  0  0  0
   -0.0000   -1.0607    0.0000 C   0  0  0  0  0  0
    1.0607    0.0000    0.0000 C   0  0  0  0  0  0
    0.0000    1.0607    0.0000 C   0  0  0  0  0  0
   -1.0607    0.0000    0.0000 C   0  0  0  0  0  0
  1  2  1  0  0  0
  2  3  1  0  0  0
  3  4  1  0  0  0
  3  6  1  0  0  0
  4  5  1  0  0  0
  6  7  2  0  0  0
  6  8  2  0  0  0
  6  9  1  0  0  0
  9 10  1  0  0  0
 10 11  2  0  0  0
 10 12  1  0  0  0
 12 13  1  0  0  0
 12 17  1  0  0  0
 12 14  1  6  0  0
 13 14  1  0  0  0
 14 15  1  6  0  0
 15 16  2  0  0  0
 17 18  1  0  0  0
 18 19  2  0  0  0
 18 20  1  0  0  0
 20 21  1  0  0  0
 20 24  1  1  0  0
 21 22  1  0  0  0
 22 23  1  0  0  0
 22 54  1  0  0  0
 22 57  1  6  0  0
 23 24  1  0  0  0
 24 25  1  0  0  0
 25 26  2  0  0  0
 25 27  1  0  0  0
 27 28  1  0  0  0
 27 50  1  6  0  0
 28 29  1  0  0  0
 29 30  2  0  0  0
 29 31  1  0  0  0
 31 32  1  0  0  0
 31 44  1  0  0  0
 32 33  1  0  0  0
 33 34  2  0  0  0
 33 35  1  0  0  0
 35 36  1  0  0  0
 35 40  1  1  0  0
 36 37  1  0  0  0
 37 38  1  0  0  0
 38 39  1  0  0  0
 39 40  1  0  0  0
 40 41  1  0  0  0
 41 42  1  0  0  0
 41 43  1  0  0  0
 44 45  1  0  0  0
 44 49  1  0  0  0
 45 46  1  0  0  0
 46 47  1  0  0  0
 47 48  1  0  0  0
 48 49  1  0  0  0
 50 51  1  0  0  0
 50 52  1  0  0  0
 50 53  1  0  0  0
 54 55  1  0  0  0
 54 56  1  0  0  0
 54 57  1  0  0  0
 57 58  1  0  0  0
 57 60  1  0  0  0
 58 59  1  0  0  0
 59 60  1  0  0  0
M  END
> <s_m_entry_id>
6885

> <s_m_entry_name>
NS3-4A.426

> <CHEMBLID>
CHEMBL3645741

> <s_m_Source_Path>
/home/liwei/Desktop/Machine/HCV/Active

> <s_m_Source_File>
NS3-4A.sdf

> <i_m_Source_File_Index>
426

$$$$
CHEMBL3645742
                    3D
 Structure written by MMmdl.
 58 64  0  0  1  0            999 V2000
    1.3422   -8.7276    0.0000 C   0  0  0  0  0  0
    2.7125   -8.1175    0.0000 C   0  0  0  0  0  0
    4.0829   -7.5074    0.0000 C   0  0  0  0  0  0
    3.3227   -9.4878    0.0000 C   0  0  0  0  0  0
    2.1024   -6.7472    0.0000 C   0  0  2  0  0  0
    0.6107   -6.5904    0.0000 N   0  0  0  0  0  0
   -0.2710   -7.8039    0.0000 C   0  0  0  0  0  0
    0.3391   -9.1742    0.0000 O   0  0  0  0  0  0
   -1.7628   -7.6471    0.0000 C   0  0  1  0  0  0
   -2.3729   -6.2768    0.0000 N   0  0  0  0  0  0
   -3.8647   -6.1200    0.0000 C   0  0  0  0  0  0
   -4.7464   -7.3335    0.0000 O   0  0  0  0  0  0
   -4.4748   -4.7497    0.0000 C   0  0  0  0  0  0
   -5.9666   -4.5929    0.0000 C   0  0  0  0  0  0
   -6.5767   -3.2226    0.0000 C   0  0  0  0  0  0
   -8.0685   -3.0658    0.0000 C   0  0  0  0  0  0
   -8.9501   -4.2793    0.0000 N   0  0  0  0  0  0
   -8.3400   -5.6496    0.0000 C   0  0  0  0  0  0
   -6.8483   -5.8064    0.0000 C   0  0  0  0  0  0
   -2.6445   -8.8607    0.0000 C   0  0  0  0  0  0
   -4.1363   -8.7039    0.0000 C   0  0  0  0  0  0
   -5.0179   -9.9174    0.0000 C   0  0  0  0  0  0
   -4.4078  -11.2877    0.0000 C   0  0  0  0  0  0
   -2.9161  -11.4445    0.0000 C   0  0  0  0  0  0
   -2.0344  -10.2310    0.0000 C   0  0  0  0  0  0
    2.9841   -5.5337    0.0000 C   0  0  0  0  0  0
    4.4759   -5.6905    0.0000 O   0  0  0  0  0  0
    2.3740   -4.1633    0.0000 N   0  0  0  0  0  0
    0.9068   -3.8515    0.0000 C   0  0  0  0  0  0
    0.7500   -2.3597    0.0000 C   0  0  1  0  0  0
    2.1203   -1.7496    0.0000 C   0  0  0  0  0  0
    3.1240   -2.8643    0.0000 C   0  0  1  0  0  0
    4.6158   -2.7075    0.0000 C   0  0  0  0  0  0
    5.2259   -1.3372    0.0000 O   0  0  0  0  0  0
    5.4975   -3.9210    0.0000 N   0  0  0  0  0  0
    6.9893   -3.7643    0.0000 C   0  0  1  0  0  0
    8.3374   -3.1067    0.0000 C   0  0  0  0  0  0
    7.0939   -2.2679    0.0000 C   0  0  1  0  0  0
    6.4363   -0.9197    0.0000 C   0  0  0  0  0  0
    7.2751    0.3238    0.0000 C   0  0  0  0  0  0
    7.4027   -5.2061    0.0000 C   0  0  0  0  0  0
    6.3607   -6.2852    0.0000 O   0  0  0  0  0  0
    8.8582   -5.5690    0.0000 N   0  0  0  0  0  0
    9.2716   -7.0109    0.0000 S   0  0  0  0  0  0
   10.7135   -6.5975    0.0000 O   0  0  0  0  0  0
    7.8297   -7.4244    0.0000 O   0  0  0  0  0  0
    9.6851   -8.4528    0.0000 N   0  0  0  0  0  0
    8.7616   -9.6348    0.0000 C   0  0  0  0  0  0
    9.6004  -10.8784    0.0000 C   0  0  0  0  0  0
   11.0423  -10.4649    0.0000 C   0  0  0  0  0  0
   11.0946   -8.9658    0.0000 C   0  0  0  0  0  0
   -0.7500   -2.3597    0.0000 C   0  0  0  0  0  0
   -1.0105   -3.8369    0.0000 C   0  0  0  0  0  0
   -2.1595   -1.8467    0.0000 C   0  0  0  0  0  0
   -0.0000   -1.0607    0.0000 C   0  0  0  0  0  0
    1.0607    0.0000    0.0000 C   0  0  0  0  0  0
    0.0000    1.0607    0.0000 C   0  0  0  0  0  0
   -1.0607    0.0000    0.0000 C   0  0  0  0  0  0
  1  2  1  0  0  0
  2  3  1  0  0  0
  2  4  1  0  0  0
  2  5  1  0  0  0
  5  6  1  0  0  0
  5 26  1  1  0  0
  6  7  1  0  0  0
  7  8  2  0  0  0
  7  9  1  0  0  0
  9 10  1  0  0  0
  9 20  1  6  0  0
 10 11  1  0  0  0
 11 12  2  0  0  0
 11 13  1  0  0  0
 13 14  1  0  0  0
 14 15  2  0  0  0
 14 19  1  0  0  0
 15 16  1  0  0  0
 16 17  2  0  0  0
 17 18  1  0  0  0
 18 19  2  0  0  0
 20 21  1  0  0  0
 20 25  1  0  0  0
 21 22  1  0  0  0
 22 23  1  0  0  0
 23 24  1  0  0  0
 24 25  1  0  0  0
 26 27  2  0  0  0
 26 28  1  0  0  0
 28 29  1  0  0  0
 28 32  1  0  0  0
 29 30  1  0  0  0
 30 31  1  0  0  0
 30 52  1  0  0  0
 30 55  1  1  0  0
 31 32  1  0  0  0
 32 33  1  6  0  0
 33 34  2  0  0  0
 33 35  1  0  0  0
 35 36  1  0  0  0
 36 37  1  0  0  0
 36 41  1  0  0  0
 36 38  1  1  0  0
 37 38  1  0  0  0
 38 39  1  6  0  0
 39 40  2  0  0  0
 41 42  2  0  0  0
 41 43  1  0  0  0
 43 44  1  0  0  0
 44 45  2  0  0  0
 44 46  2  0  0  0
 44 47  1  0  0  0
 47 48  1  0  0  0
 47 51  1  0  0  0
 48 49  1  0  0  0
 49 50  1  0  0  0
 50 51  1  0  0  0
 52 53  1  0  0  0
 52 54  1  0  0  0
 52 55  1  0  0  0
 55 56  1  0  0  0
 55 58  1  0  0  0
 56 57  1  0  0  0
 57 58  1  0  0  0
M  END
> <s_m_entry_id>
6886

> <s_m_entry_name>
NS3-4A.427

> <CHEMBLID>
CHEMBL3645742

> <s_m_Source_Path>
/home/liwei/Desktop/Machine/HCV/Active

> <s_m_Source_File>
NS3-4A.sdf

> <i_m_Source_File_Index>
427

$$$$
CHEMBL3645743
                    3D
 Structure written by MMmdl.
 62 69  0  0  1  0            999 V2000
   -8.2123    1.8009    0.0000 C   0  0  0  0  0  0
   -8.3691    0.3091    0.0000 O   0  0  0  0  0  0
   -7.1555   -0.5726    0.0000 C   0  0  0  0  0  0
   -5.7852    0.0375    0.0000 C   0  0  0  0  0  0
   -4.5717   -0.8442    0.0000 C   0  0  0  0  0  0
   -4.7285   -2.3359    0.0000 C   0  0  0  0  0  0
   -3.7248   -3.4507    0.0000 N   0  0  0  0  0  0
   -4.4748   -4.7497    0.0000 C   0  0  0  0  0  0
   -5.9420   -4.4378    0.0000 C   0  0  0  0  0  0
   -6.0988   -2.9461    0.0000 C   0  0  0  0  0  0
   -7.3123   -2.0644    0.0000 C   0  0  0  0  0  0
   -3.8647   -6.1200    0.0000 C   0  0  0  0  0  0
   -4.7464   -7.3335    0.0000 O   0  0  0  0  0  0
   -2.3729   -6.2768    0.0000 N   0  0  0  0  0  0
   -1.7628   -7.6471    0.0000 C   0  0  1  0  0  0
   -2.6445   -8.8607    0.0000 C   0  0  0  0  0  0
   -4.1363   -8.7039    0.0000 C   0  0  0  0  0  0
   -5.0179   -9.9174    0.0000 C   0  0  0  0  0  0
   -4.4078  -11.2877    0.0000 C   0  0  0  0  0  0
   -2.9161  -11.4445    0.0000 C   0  0  0  0  0  0
   -2.0344  -10.2310    0.0000 C   0  0  0  0  0  0
   -0.2710   -7.8039    0.0000 C   0  0  0  0  0  0
    0.3391   -9.1742    0.0000 O   0  0  0  0  0  0
    0.6107   -6.5904    0.0000 N   0  0  0  0  0  0
    2.1024   -6.7472    0.0000 C   0  0  2  0  0  0
    2.9841   -5.5337    0.0000 C   0  0  0  0  0  0
    4.4759   -5.6905    0.0000 O   0  0  0  0  0  0
    2.3740   -4.1633    0.0000 N   0  0  0  0  0  0
    0.9068   -3.8515    0.0000 C   0  0  0  0  0  0
    0.7500   -2.3597    0.0000 C   0  0  1  0  0  0
    2.1203   -1.7496    0.0000 C   0  0  0  0  0  0
    3.1240   -2.8643    0.0000 C   0  0  1  0  0  0
    4.6158   -2.7075    0.0000 C   0  0  0  0  0  0
    5.2259   -1.3372    0.0000 O   0  0  0  0  0  0
    5.4975   -3.9210    0.0000 N   0  0  0  0  0  0
    6.9893   -3.7643    0.0000 C   0  0  1  0  0  0
    8.3374   -3.1067    0.0000 C   0  0  0  0  0  0
    7.0939   -2.2679    0.0000 C   0  0  1  0  0  0
    6.4363   -0.9197    0.0000 C   0  0  0  0  0  0
    7.2751    0.3238    0.0000 C   0  0  0  0  0  0
    7.4027   -5.2061    0.0000 C   0  0  0  0  0  0
    6.3607   -6.2852    0.0000 O   0  0  0  0  0  0
    8.8582   -5.5690    0.0000 N   0  0  0  0  0  0
    9.2716   -7.0109    0.0000 S   0  0  0  0  0  0
   10.7135   -6.5975    0.0000 O   0  0  0  0  0  0
    7.8297   -7.4244    0.0000 O   0  0  0  0  0  0
    9.6851   -8.4528    0.0000 N   0  0  0  0  0  0
    8.7616   -9.6348    0.0000 C   0  0  0  0  0  0
    9.6004  -10.8784    0.0000 C   0  0  0  0  0  0
   11.0423  -10.4649    0.0000 C   0  0  0  0  0  0
   11.0946   -8.9658    0.0000 C   0  0  0  0  0  0
   -0.7500   -2.3597    0.0000 C   0  0  0  0  0  0
   -1.0105   -3.8369    0.0000 C   0  0  0  0  0  0
   -2.1595   -1.8467    0.0000 C   0  0  0  0  0  0
   -0.0000   -1.0607    0.0000 C   0  0  0  0  0  0
    1.0607    0.0000    0.0000 C   0  0  0  0  0  0
    0.0000    1.0607    0.0000 C   0  0  0  0  0  0
   -1.0607    0.0000    0.0000 C   0  0  0  0  0  0
    2.7125   -8.1175    0.0000 C   0  0  0  0  0  0
    1.3422   -8.7276    0.0000 C   0  0  0  0  0  0
    4.0829   -7.5074    0.0000 C   0  0  0  0  0  0
    3.3227   -9.4878    0.0000 C   0  0  0  0  0  0
  1  2  1  0  0  0
  2  3  1  0  0  0
  3  4  2  0  0  0
  3 11  1  0  0  0
  4  5  1  0  0  0
  5  6  2  0  0  0
  6  7  1  0  0  0
  6 10  1  0  0  0
  7  8  1  0  0  0
  8  9  2  0  0  0
  8 12  1  0  0  0
  9 10  1  0  0  0
 10 11  2  0  0  0
 12 13  2  0  0  0
 12 14  1  0  0  0
 14 15  1  0  0  0
 15 16  1  0  0  0
 15 22  1  6  0  0
 16 17  1  0  0  0
 16 21  1  0  0  0
 17 18  1  0  0  0
 18 19  1  0  0  0
 19 20  1  0  0  0
 20 21  1  0  0  0
 22 23  2  0  0  0
 22 24  1  0  0  0
 24 25  1  0  0  0
 25 26  1  0  0  0
 25 59  1  1  0  0
 26 27  2  0  0  0
 26 28  1  0  0  0
 28 29  1  0  0  0
 28 32  1  0  0  0
 29 30  1  0  0  0
 30 31  1  0  0  0
 30 52  1  0  0  0
 30 55  1  1  0  0
 31 32  1  0  0  0
 32 33  1  6  0  0
 33 34  2  0  0  0
 33 35  1  0  0  0
 35 36  1  0  0  0
 36 37  1  0  0  0
 36 41  1  0  0  0
 36 38  1  1  0  0
 37 38  1  0  0  0
 38 39  1  6  0  0
 39 40  2  0  0  0
 41 42  2  0  0  0
 41 43  1  0  0  0
 43 44  1  0  0  0
 44 45  2  0  0  0
 44 46  2  0  0  0
 44 47  1  0  0  0
 47 48  1  0  0  0
 47 51  1  0  0  0
 48 49  1  0  0  0
 49 50  1  0  0  0
 50 51  1  0  0  0
 52 53  1  0  0  0
 52 54  1  0  0  0
 52 55  1  0  0  0
 55 56  1  0  0  0
 55 58  1  0  0  0
 56 57  1  0  0  0
 57 58  1  0  0  0
 59 60  1  0  0  0
 59 61  1  0  0  0
 59 62  1  0  0  0
M  END
> <s_m_entry_id>
6887

> <s_m_entry_name>
NS3-4A.428

> <CHEMBLID>
CHEMBL3645743

> <s_m_Source_Path>
/home/liwei/Desktop/Machine/HCV/Active

> <s_m_Source_File>
NS3-4A.sdf

> <i_m_Source_File_Index>
428

$$$$
CHEMBL3645744
                    3D
 Structure written by MMmdl.
 62 69  0  0  1  0            999 V2000
   -9.7500   -2.3971    0.0000 C   0  0  0  0  0  0
   -9.7500   -3.8971    0.0000 C   0  0  0  0  0  0
   -9.7500   -5.3971    0.0000 C   0  0  0  0  0  0
  -11.2500   -3.8971    0.0000 C   0  0  0  0  0  0
   -8.2500   -3.8971    0.0000 C   0  0  2  0  0  0
   -7.5000   -5.1962    0.0000 N   0  0  0  0  0  0
   -8.2500   -6.4952    0.0000 C   0  0  0  0  0  0
   -9.7500   -6.4952    0.0000 O   0  0  0  0  0  0
   -7.5000   -7.7942    0.0000 C   0  0  1  0  0  0
   -8.2500   -9.0933    0.0000 N   0  0  0  0  0  0
   -9.7500   -9.0933    0.0000 C   0  0  0  0  0  0
  -10.5000   -7.7942    0.0000 O   0  0  0  0  0  0
  -10.5000  -10.3923    0.0000 C   0  0  0  0  0  0
  -12.0000  -10.3923    0.0000 N   0  0  0  0  0  0
  -12.7500  -11.6913    0.0000 C   0  0  0  0  0  0
  -14.2500  -11.6913    0.0000 C   0  0  0  0  0  0
  -15.0000  -10.3923    0.0000 C   0  0  0  0  0  0
  -16.5000  -10.3923    0.0000 C   0  0  0  0  0  0
  -17.2500   -9.0933    0.0000 C   0  0  0  0  0  0
  -16.5000   -7.7942    0.0000 C   0  0  0  0  0  0
  -15.0000   -7.7942    0.0000 C   0  0  0  0  0  0
  -14.2500   -9.0933    0.0000 C   0  0  0  0  0  0
  -12.7500   -9.0933    0.0000 C   0  0  0  0  0  0
   -6.0000   -7.7942    0.0000 C   0  0  0  0  0  0
   -5.2500   -6.4952    0.0000 C   0  0  0  0  0  0
   -3.7500   -6.4952    0.0000 C   0  0  0  0  0  0
   -3.0000   -7.7942    0.0000 C   0  0  0  0  0  0
   -3.7500   -9.0933    0.0000 C   0  0  0  0  0  0
   -5.2500   -9.0933    0.0000 C   0  0  0  0  0  0
   -7.5000   -2.5981    0.0000 C   0  0  0  0  0  0
   -6.0000   -2.5981    0.0000 O   0  0  0  0  0  0
   -8.2500   -1.2990    0.0000 N   0  0  0  0  0  0
   -9.7418   -1.1422    0.0000 C   0  0  0  0  0  0
  -10.0537    0.3250    0.0000 C   0  0  1  0  0  0
   -8.7546    1.0750    0.0000 C   0  0  0  0  0  0
   -7.6399    0.0713    0.0000 C   0  0  1  0  0  0
   -6.1727    0.3831    0.0000 C   0  0  0  0  0  0
   -5.7091    1.8097    0.0000 O   0  0  0  0  0  0
   -5.1690   -0.7316    0.0000 N   0  0  0  0  0  0
   -3.7018   -0.4197    0.0000 C   0  0  1  0  0  0
   -2.4297    0.3752    0.0000 C   0  0  0  0  0  0
   -3.7541    1.0794    0.0000 C   0  0  1  0  0  0
   -4.5490    2.3515    0.0000 C   0  0  0  0  0  0
   -3.8448    3.6759    0.0000 C   0  0  0  0  0  0
   -3.1398   -1.8105    0.0000 C   0  0  0  0  0  0
   -4.0633   -2.9925    0.0000 O   0  0  0  0  0  0
   -1.6544   -2.0192    0.0000 N   0  0  0  0  0  0
   -1.0925   -3.4100    0.0000 S   0  0  0  0  0  0
    0.2982   -2.8481    0.0000 O   0  0  0  0  0  0
   -2.4833   -3.9719    0.0000 O   0  0  0  0  0  0
   -0.5306   -4.8008    0.0000 N   0  0  0  0  0  0
   -1.3255   -6.0729    0.0000 C   0  0  0  0  0  0
   -0.3613   -7.2219    0.0000 C   0  0  0  0  0  0
    1.0295   -6.6600    0.0000 C   0  0  0  0  0  0
    0.9248   -5.1637    0.0000 C   0  0  0  0  0  0
  -11.5454    0.1682    0.0000 C   0  0  0  0  0  0
  -11.6501   -1.3282    0.0000 C   0  0  0  0  0  0
  -13.0009    0.5311    0.0000 C   0  0  0  0  0  0
  -10.9353    1.5385    0.0000 C   0  0  0  0  0  0
   -9.9913    2.7042    0.0000 C   0  0  0  0  0  0
  -11.1571    3.6482    0.0000 C   0  0  0  0  0  0
  -12.1010    2.4825    0.0000 C   0  0  0  0  0  0
  1  2  1  0  0  0
  2  3  1  0  0  0
  2  4  1  0  0  0
  2  5  1  0  0  0
  5  6  1  0  0  0
  5 30  1  1  0  0
  6  7  1  0  0  0
  7  8  2  0  0  0
  7  9  1  0  0  0
  9 10  1  0  0  0
  9 24  1  6  0  0
 10 11  1  0  0  0
 11 12  2  0  0  0
 11 13  1  0  0  0
 13 14  1  0  0  0
 14 15  1  0  0  0
 14 23  1  0  0  0
 15 16  1  0  0  0
 16 17  1  0  0  0
 17 18  2  0  0  0
 17 22  1  0  0  0
 18 19  1  0  0  0
 19 20  2  0  0  0
 20 21  1  0  0  0
 21 22  2  0  0  0
 22 23  1  0  0  0
 24 25  1  0  0  0
 24 29  1  0  0  0
 25 26  1  0  0  0
 26 27  1  0  0  0
 27 28  1  0  0  0
 28 29  1  0  0  0
 30 31  2  0  0  0
 30 32  1  0  0  0
 32 33  1  0  0  0
 32 36  1  0  0  0
 33 34  1  0  0  0
 34 35  1  0  0  0
 34 56  1  0  0  0
 34 59  1  1  0  0
 35 36  1  0  0  0
 36 37  1  6  0  0
 37 38  2  0  0  0
 37 39  1  0  0  0
 39 40  1  0  0  0
 40 41  1  0  0  0
 40 45  1  0  0  0
 40 42  1  1  0  0
 41 42  1  0  0  0
 42 43  1  6  0  0
 43 44  2  0  0  0
 45 46  2  0  0  0
 45 47  1  0  0  0
 47 48  1  0  0  0
 48 49  2  0  0  0
 48 50  2  0  0  0
 48 51  1  0  0  0
 51 52  1  0  0  0
 51 55  1  0  0  0
 52 53  1  0  0  0
 53 54  1  0  0  0
 54 55  1  0  0  0
 56 57  1  0  0  0
 56 58  1  0  0  0
 56 59  1  0  0  0
 59 60  1  0  0  0
 59 62  1  0  0  0
 60 61  1  0  0  0
 61 62  1  0  0  0
M  END
> <s_m_entry_id>
6888

> <s_m_entry_name>
NS3-4A.429

> <CHEMBLID>
CHEMBL3645744

> <s_m_Source_Path>
/home/liwei/Desktop/Machine/HCV/Active

> <s_m_Source_File>
NS3-4A.sdf

> <i_m_Source_File_Index>
429

$$$$
CHEMBL3645745
                    3D
 Structure written by MMmdl.
 61 68  0  0  1  0            999 V2000
   -7.0567   -5.4415    0.0000 C   0  0  0  0  0  0
   -5.9420   -4.4378    0.0000 N   0  0  0  0  0  0
   -4.4748   -4.7497    0.0000 C   0  0  0  0  0  0
   -3.7248   -3.4507    0.0000 C   0  0  0  0  0  0
   -4.7285   -2.3359    0.0000 C   0  0  0  0  0  0
   -4.5717   -0.8442    0.0000 C   0  0  0  0  0  0
   -5.7852    0.0375    0.0000 C   0  0  0  0  0  0
   -7.1555   -0.5726    0.0000 C   0  0  0  0  0  0
   -7.3123   -2.0644    0.0000 C   0  0  0  0  0  0
   -6.0988   -2.9461    0.0000 C   0  0  0  0  0  0
   -3.8647   -6.1200    0.0000 C   0  0  0  0  0  0
   -4.7464   -7.3335    0.0000 O   0  0  0  0  0  0
   -2.3729   -6.2768    0.0000 N   0  0  0  0  0  0
   -1.7628   -7.6471    0.0000 C   0  0  1  0  0  0
   -2.6445   -8.8607    0.0000 C   0  0  0  0  0  0
   -4.1363   -8.7039    0.0000 C   0  0  0  0  0  0
   -5.0179   -9.9174    0.0000 C   0  0  0  0  0  0
   -4.4078  -11.2877    0.0000 C   0  0  0  0  0  0
   -2.9161  -11.4445    0.0000 C   0  0  0  0  0  0
   -2.0344  -10.2310    0.0000 C   0  0  0  0  0  0
   -0.2710   -7.8039    0.0000 C   0  0  0  0  0  0
    0.3391   -9.1742    0.0000 O   0  0  0  0  0  0
    0.6107   -6.5904    0.0000 N   0  0  0  0  0  0
    2.1024   -6.7472    0.0000 C   0  0  2  0  0  0
    2.9841   -5.5337    0.0000 C   0  0  0  0  0  0
    4.4759   -5.6905    0.0000 O   0  0  0  0  0  0
    2.3740   -4.1633    0.0000 N   0  0  0  0  0  0
    0.9068   -3.8515    0.0000 C   0  0  0  0  0  0
    0.7500   -2.3597    0.0000 C   0  0  1  0  0  0
    2.1203   -1.7496    0.0000 C   0  0  0  0  0  0
    3.1240   -2.8643    0.0000 C   0  0  1  0  0  0
    4.6158   -2.7075    0.0000 C   0  0  0  0  0  0
    5.2259   -1.3372    0.0000 O   0  0  0  0  0  0
    5.4975   -3.9210    0.0000 N   0  0  0  0  0  0
    6.9893   -3.7643    0.0000 C   0  0  1  0  0  0
    8.3374   -3.1067    0.0000 C   0  0  0  0  0  0
    7.0939   -2.2679    0.0000 C   0  0  1  0  0  0
    6.4363   -0.9197    0.0000 C   0  0  0  0  0  0
    7.2751    0.3238    0.0000 C   0  0  0  0  0  0
    7.4027   -5.2061    0.0000 C   0  0  0  0  0  0
    6.3607   -6.2852    0.0000 O   0  0  0  0  0  0
    8.8582   -5.5690    0.0000 N   0  0  0  0  0  0
    9.2716   -7.0109    0.0000 S   0  0  0  0  0  0
   10.7135   -6.5975    0.0000 O   0  0  0  0  0  0
    7.8297   -7.4244    0.0000 O   0  0  0  0  0  0
    9.6851   -8.4528    0.0000 N   0  0  0  0  0  0
    8.7616   -9.6348    0.0000 C   0  0  0  0  0  0
    9.6004  -10.8784    0.0000 C   0  0  0  0  0  0
   11.0423  -10.4649    0.0000 C   0  0  0  0  0  0
   11.0946   -8.9658    0.0000 C   0  0  0  0  0  0
   -0.7500   -2.3597    0.0000 C   0  0  0  0  0  0
   -1.0105   -3.8369    0.0000 C   0  0  0  0  0  0
   -2.1595   -1.8467    0.0000 C   0  0  0  0  0  0
   -0.0000   -1.0607    0.0000 C   0  0  0  0  0  0
    1.0607    0.0000    0.0000 C   0  0  0  0  0  0
    0.0000    1.0607    0.0000 C   0  0  0  0  0  0
   -1.0607    0.0000    0.0000 C   0  0  0  0  0  0
    2.7125   -8.1175    0.0000 C   0  0  0  0  0  0
    1.3422   -8.7276    0.0000 C   0  0  0  0  0  0
    4.0829   -7.5074    0.0000 C   0  0  0  0  0  0
    3.3227   -9.4878    0.0000 C   0  0  0  0  0  0
  1  2  1  0  0  0
  2  3  1  0  0  0
  2 10  1  0  0  0
  3  4  2  0  0  0
  3 11  1  0  0  0
  4  5  1  0  0  0
  5  6  2  0  0  0
  5 10  1  0  0  0
  6  7  1  0  0  0
  7  8  2  0  0  0
  8  9  1  0  0  0
  9 10  2  0  0  0
 11 12  2  0  0  0
 11 13  1  0  0  0
 13 14  1  0  0  0
 14 15  1  0  0  0
 14 21  1  6  0  0
 15 16  1  0  0  0
 15 20  1  0  0  0
 16 17  1  0  0  0
 17 18  1  0  0  0
 18 19  1  0  0  0
 19 20  1  0  0  0
 21 22  2  0  0  0
 21 23  1  0  0  0
 23 24  1  0  0  0
 24 25  1  0  0  0
 24 58  1  1  0  0
 25 26  2  0  0  0
 25 27  1  0  0  0
 27 28  1  0  0  0
 27 31  1  0  0  0
 28 29  1  0  0  0
 29 30  1  0  0  0
 29 51  1  0  0  0
 29 54  1  1  0  0
 30 31  1  0  0  0
 31 32  1  6  0  0
 32 33  2  0  0  0
 32 34  1  0  0  0
 34 35  1  0  0  0
 35 36  1  0  0  0
 35 40  1  0  0  0
 35 37  1  1  0  0
 36 37  1  0  0  0
 37 38  1  6  0  0
 38 39  2  0  0  0
 40 41  2  0  0  0
 40 42  1  0  0  0
 42 43  1  0  0  0
 43 44  2  0  0  0
 43 45  2  0  0  0
 43 46  1  0  0  0
 46 47  1  0  0  0
 46 50  1  0  0  0
 47 48  1  0  0  0
 48 49  1  0  0  0
 49 50  1  0  0  0
 51 52  1  0  0  0
 51 53  1  0  0  0
 51 54  1  0  0  0
 54 55  1  0  0  0
 54 57  1  0  0  0
 55 56  1  0  0  0
 56 57  1  0  0  0
 58 59  1  0  0  0
 58 60  1  0  0  0
 58 61  1  0  0  0
M  END
> <s_m_entry_id>
6889

> <s_m_entry_name>
NS3-4A.430

> <CHEMBLID>
CHEMBL3645745

> <s_m_Source_Path>
/home/liwei/Desktop/Machine/HCV/Active

> <s_m_Source_File>
NS3-4A.sdf

> <i_m_Source_File_Index>
430

$$$$
CHEMBL3645746
                    3D
 Structure written by MMmdl.
 58 64  0  0  1  0            999 V2000
    1.3422   -8.7276    0.0000 C   0  0  0  0  0  0
    2.7125   -8.1175    0.0000 C   0  0  0  0  0  0
    4.0829   -7.5074    0.0000 C   0  0  0  0  0  0
    3.3227   -9.4878    0.0000 C   0  0  0  0  0  0
    2.1024   -6.7472    0.0000 C   0  0  2  0  0  0
    0.6107   -6.5904    0.0000 N   0  0  0  0  0  0
   -0.2710   -7.8039    0.0000 C   0  0  0  0  0  0
    0.3391   -9.1742    0.0000 O   0  0  0  0  0  0
   -1.7628   -7.6471    0.0000 C   0  0  1  0  0  0
   -2.3729   -6.2768    0.0000 N   0  0  0  0  0  0
   -3.8647   -6.1200    0.0000 C   0  0  0  0  0  0
   -4.7464   -7.3335    0.0000 O   0  0  0  0  0  0
   -4.4748   -4.7497    0.0000 C   0  0  0  0  0  0
   -5.9666   -4.5929    0.0000 C   0  0  3  0  0  0
   -6.5767   -3.2226    0.0000 C   0  0  0  0  0  0
   -8.0685   -3.0658    0.0000 C   0  0  0  0  0  0
   -8.9501   -4.2793    0.0000 C   0  0  0  0  0  0
   -8.3400   -5.6496    0.0000 C   0  0  0  0  0  0
   -6.8483   -5.8064    0.0000 O   0  0  0  0  0  0
   -2.6445   -8.8607    0.0000 C   0  0  0  0  0  0
   -4.1363   -8.7039    0.0000 C   0  0  0  0  0  0
   -5.0179   -9.9174    0.0000 C   0  0  0  0  0  0
   -4.4078  -11.2877    0.0000 C   0  0  0  0  0  0
   -2.9161  -11.4445    0.0000 C   0  0  0  0  0  0
   -2.0344  -10.2310    0.0000 C   0  0  0  0  0  0
    2.9841   -5.5337    0.0000 C   0  0  0  0  0  0
    4.4759   -5.6905    0.0000 O   0  0  0  0  0  0
    2.3740   -4.1633    0.0000 N   0  0  0  0  0  0
    0.9068   -3.8515    0.0000 C   0  0  0  0  0  0
    0.7500   -2.3597    0.0000 C   0  0  1  0  0  0
    2.1203   -1.7496    0.0000 C   0  0  0  0  0  0
    3.1240   -2.8643    0.0000 C   0  0  1  0  0  0
    4.6158   -2.7075    0.0000 C   0  0  0  0  0  0
    5.2259   -1.3372    0.0000 O   0  0  0  0  0  0
    5.4975   -3.9210    0.0000 N   0  0  0  0  0  0
    6.9893   -3.7643    0.0000 C   0  0  1  0  0  0
    8.3374   -3.1067    0.0000 C   0  0  0  0  0  0
    7.0939   -2.2679    0.0000 C   0  0  1  0  0  0
    6.4363   -0.9197    0.0000 C   0  0  0  0  0  0
    7.2751    0.3238    0.0000 C   0  0  0  0  0  0
    7.4027   -5.2061    0.0000 C   0  0  0  0  0  0
    6.3607   -6.2852    0.0000 O   0  0  0  0  0  0
    8.8582   -5.5690    0.0000 N   0  0  0  0  0  0
    9.2716   -7.0109    0.0000 S   0  0  0  0  0  0
   10.7135   -6.5975    0.0000 O   0  0  0  0  0  0
    7.8297   -7.4244    0.0000 O   0  0  0  0  0  0
    9.6851   -8.4528    0.0000 N   0  0  0  0  0  0
    8.7616   -9.6348    0.0000 C   0  0  0  0  0  0
    9.6004  -10.8784    0.0000 C   0  0  0  0  0  0
   11.0423  -10.4649    0.0000 C   0  0  0  0  0  0
   11.0946   -8.9658    0.0000 C   0  0  0  0  0  0
   -0.7500   -2.3597    0.0000 C   0  0  0  0  0  0
   -1.0105   -3.8369    0.0000 C   0  0  0  0  0  0
   -2.1595   -1.8467    0.0000 C   0  0  0  0  0  0
   -0.0000   -1.0607    0.0000 C   0  0  0  0  0  0
    1.0607    0.0000    0.0000 C   0  0  0  0  0  0
    0.0000    1.0607    0.0000 C   0  0  0  0  0  0
   -1.0607    0.0000    0.0000 C   0  0  0  0  0  0
  1  2  1  0  0  0
  2  3  1  0  0  0
  2  4  1  0  0  0
  2  5  1  0  0  0
  5  6  1  0  0  0
  5 26  1  1  0  0
  6  7  1  0  0  0
  7  8  2  0  0  0
  7  9  1  0  0  0
  9 10  1  0  0  0
  9 20  1  6  0  0
 10 11  1  0  0  0
 11 12  2  0  0  0
 11 13  1  0  0  0
 13 14  1  0  0  0
 14 15  1  0  0  0
 14 19  1  0  0  0
 15 16  1  0  0  0
 16 17  1  0  0  0
 17 18  1  0  0  0
 18 19  1  0  0  0
 20 21  1  0  0  0
 20 25  1  0  0  0
 21 22  1  0  0  0
 22 23  1  0  0  0
 23 24  1  0  0  0
 24 25  1  0  0  0
 26 27  2  0  0  0
 26 28  1  0  0  0
 28 29  1  0  0  0
 28 32  1  0  0  0
 29 30  1  0  0  0
 30 31  1  0  0  0
 30 52  1  0  0  0
 30 55  1  1  0  0
 31 32  1  0  0  0
 32 33  1  6  0  0
 33 34  2  0  0  0
 33 35  1  0  0  0
 35 36  1  0  0  0
 36 37  1  0  0  0
 36 41  1  0  0  0
 36 38  1  1  0  0
 37 38  1  0  0  0
 38 39  1  6  0  0
 39 40  2  0  0  0
 41 42  2  0  0  0
 41 43  1  0  0  0
 43 44  1  0  0  0
 44 45  2  0  0  0
 44 46  2  0  0  0
 44 47  1  0  0  0
 47 48  1  0  0  0
 47 51  1  0  0  0
 48 49  1  0  0  0
 49 50  1  0  0  0
 50 51  1  0  0  0
 52 53  1  0  0  0
 52 54  1  0  0  0
 52 55  1  0  0  0
 55 56  1  0  0  0
 55 58  1  0  0  0
 56 57  1  0  0  0
 57 58  1  0  0  0
M  END
> <s_m_entry_id>
6890

> <s_m_entry_name>
NS3-4A.431

> <CHEMBLID>
CHEMBL3645746

> <s_m_Source_Path>
/home/liwei/Desktop/Machine/HCV/Active

> <s_m_Source_File>
NS3-4A.sdf

> <i_m_Source_File_Index>
431

$$$$
CHEMBL3645747
                    3D
 Structure written by MMmdl.
 59 65  0  0  1  0            999 V2000
   -1.3513   -4.5074    0.0000 C   0  0  0  0  0  0
   -2.2330   -3.2939    0.0000 C   0  0  0  0  0  0
   -3.7248   -3.4507    0.0000 N   0  0  0  0  0  0
   -4.7285   -2.3359    0.0000 N   0  0  0  0  0  0
   -6.0988   -2.9461    0.0000 C   0  0  0  0  0  0
   -7.3978   -2.1961    0.0000 C   0  0  0  0  0  0
   -5.9420   -4.4378    0.0000 C   0  0  0  0  0  0
   -4.4748   -4.7497    0.0000 C   0  0  0  0  0  0
   -3.8647   -6.1200    0.0000 C   0  0  0  0  0  0
   -4.7464   -7.3335    0.0000 O   0  0  0  0  0  0
   -2.3729   -6.2768    0.0000 N   0  0  0  0  0  0
   -1.7628   -7.6471    0.0000 C   0  0  1  0  0  0
   -2.6445   -8.8607    0.0000 C   0  0  0  0  0  0
   -4.1363   -8.7039    0.0000 C   0  0  0  0  0  0
   -5.0179   -9.9174    0.0000 C   0  0  0  0  0  0
   -4.4078  -11.2877    0.0000 C   0  0  0  0  0  0
   -2.9161  -11.4445    0.0000 C   0  0  0  0  0  0
   -2.0344  -10.2310    0.0000 C   0  0  0  0  0  0
   -0.2710   -7.8039    0.0000 C   0  0  0  0  0  0
    0.3391   -9.1742    0.0000 O   0  0  0  0  0  0
    0.6107   -6.5904    0.0000 N   0  0  0  0  0  0
    2.1024   -6.7472    0.0000 C   0  0  2  0  0  0
    2.9841   -5.5337    0.0000 C   0  0  0  0  0  0
    4.4759   -5.6905    0.0000 O   0  0  0  0  0  0
    2.3740   -4.1633    0.0000 N   0  0  0  0  0  0
    0.9068   -3.8515    0.0000 C   0  0  0  0  0  0
    0.7500   -2.3597    0.0000 C   0  0  1  0  0  0
    2.1203   -1.7496    0.0000 C   0  0  0  0  0  0
    3.1240   -2.8643    0.0000 C   0  0  1  0  0  0
    4.6158   -2.7075    0.0000 C   0  0  0  0  0  0
    5.2259   -1.3372    0.0000 O   0  0  0  0  0  0
    5.4975   -3.9210    0.0000 N   0  0  0  0  0  0
    6.9893   -3.7643    0.0000 C   0  0  1  0  0  0
    8.3374   -3.1067    0.0000 C   0  0  0  0  0  0
    7.0939   -2.2679    0.0000 C   0  0  1  0  0  0
    6.4363   -0.9197    0.0000 C   0  0  0  0  0  0
    7.2751    0.3238    0.0000 C   0  0  0  0  0  0
    7.4027   -5.2061    0.0000 C   0  0  0  0  0  0
    6.3607   -6.2852    0.0000 O   0  0  0  0  0  0
    8.8582   -5.5690    0.0000 N   0  0  0  0  0  0
    9.2716   -7.0109    0.0000 S   0  0  0  0  0  0
   10.7135   -6.5975    0.0000 O   0  0  0  0  0  0
    7.8297   -7.4244    0.0000 O   0  0  0  0  0  0
    9.6851   -8.4528    0.0000 N   0  0  0  0  0  0
    8.7616   -9.6348    0.0000 C   0  0  0  0  0  0
    9.6004  -10.8784    0.0000 C   0  0  0  0  0  0
   11.0423  -10.4649    0.0000 C   0  0  0  0  0  0
   11.0946   -8.9658    0.0000 C   0  0  0  0  0  0
   -0.7500   -2.3597    0.0000 C   0  0  0  0  0  0
   -1.0105   -3.8369    0.0000 C   0  0  0  0  0  0
   -2.1595   -1.8467    0.0000 C   0  0  0  0  0  0
   -0.0000   -1.0607    0.0000 C   0  0  0  0  0  0
    1.0607    0.0000    0.0000 C   0  0  0  0  0  0
    0.0000    1.0607    0.0000 C   0  0  0  0  0  0
   -1.0607    0.0000    0.0000 C   0  0  0  0  0  0
    2.7125   -8.1175    0.0000 C   0  0  0  0  0  0
    1.3422   -8.7276    0.0000 C   0  0  0  0  0  0
    4.0829   -7.5074    0.0000 C   0  0  0  0  0  0
    3.3227   -9.4878    0.0000 C   0  0  0  0  0  0
  1  2  1  0  0  0
  2  3  1  0  0  0
  3  4  1  0  0  0
  3  8  1  0  0  0
  4  5  2  0  0  0
  5  6  1  0  0  0
  5  7  1  0  0  0
  7  8  2  0  0  0
  8  9  1  0  0  0
  9 10  2  0  0  0
  9 11  1  0  0  0
 11 12  1  0  0  0
 12 13  1  0  0  0
 12 19  1  6  0  0
 13 14  1  0  0  0
 13 18  1  0  0  0
 14 15  1  0  0  0
 15 16  1  0  0  0
 16 17  1  0  0  0
 17 18  1  0  0  0
 19 20  2  0  0  0
 19 21  1  0  0  0
 21 22  1  0  0  0
 22 23  1  0  0  0
 22 56  1  1  0  0
 23 24  2  0  0  0
 23 25  1  0  0  0
 25 26  1  0  0  0
 25 29  1  0  0  0
 26 27  1  0  0  0
 27 28  1  0  0  0
 27 49  1  0  0  0
 27 52  1  1  0  0
 28 29  1  0  0  0
 29 30  1  6  0  0
 30 31  2  0  0  0
 30 32  1  0  0  0
 32 33  1  0  0  0
 33 34  1  0  0  0
 33 38  1  0  0  0
 33 35  1  1  0  0
 34 35  1  0  0  0
 35 36  1  6  0  0
 36 37  2  0  0  0
 38 39  2  0  0  0
 38 40  1  0  0  0
 40 41  1  0  0  0
 41 42  2  0  0  0
 41 43  2  0  0  0
 41 44  1  0  0  0
 44 45  1  0  0  0
 44 48  1  0  0  0
 45 46  1  0  0  0
 46 47  1  0  0  0
 47 48  1  0  0  0
 49 50  1  0  0  0
 49 51  1  0  0  0
 49 52  1  0  0  0
 52 53  1  0  0  0
 52 55  1  0  0  0
 53 54  1  0  0  0
 54 55  1  0  0  0
 56 57  1  0  0  0
 56 58  1  0  0  0
 56 59  1  0  0  0
M  END
> <s_m_entry_id>
6891

> <s_m_entry_name>
NS3-4A.432

> <CHEMBLID>
CHEMBL3645747

> <s_m_Source_Path>
/home/liwei/Desktop/Machine/HCV/Active

> <s_m_Source_File>
NS3-4A.sdf

> <i_m_Source_File_Index>
432

$$$$
CHEMBL3645748
                    3D
 Structure written by MMmdl.
 61 67  0  0  1  0            999 V2000
   -2.2330   -3.2939    0.0000 C   0  0  0  0  0  0
   -3.7248   -3.4507    0.0000 N   0  0  0  0  0  0
   -4.7285   -2.3359    0.0000 N   0  0  0  0  0  0
   -6.0988   -2.9461    0.0000 C   0  0  0  0  0  0
   -5.9420   -4.4378    0.0000 C   0  0  0  0  0  0
   -4.4748   -4.7497    0.0000 C   0  0  0  0  0  0
   -3.8647   -6.1200    0.0000 C   0  0  0  0  0  0
   -4.7464   -7.3335    0.0000 O   0  0  0  0  0  0
   -2.3729   -6.2768    0.0000 N   0  0  0  0  0  0
   -1.7628   -7.6471    0.0000 C   0  0  1  0  0  0
   -2.6445   -8.8607    0.0000 C   0  0  0  0  0  0
   -4.1363   -8.7039    0.0000 C   0  0  0  0  0  0
   -5.0179   -9.9174    0.0000 C   0  0  0  0  0  0
   -4.4078  -11.2877    0.0000 C   0  0  0  0  0  0
   -2.9161  -11.4445    0.0000 C   0  0  0  0  0  0
   -2.0344  -10.2310    0.0000 C   0  0  0  0  0  0
   -0.2710   -7.8039    0.0000 C   0  0  0  0  0  0
    0.3391   -9.1742    0.0000 O   0  0  0  0  0  0
    0.6107   -6.5904    0.0000 N   0  0  0  0  0  0
    2.1024   -6.7472    0.0000 C   0  0  2  0  0  0
    2.9841   -5.5337    0.0000 C   0  0  0  0  0  0
    4.4759   -5.6905    0.0000 O   0  0  0  0  0  0
    2.3740   -4.1633    0.0000 N   0  0  0  0  0  0
    0.9068   -3.8515    0.0000 C   0  0  0  0  0  0
    0.7500   -2.3597    0.0000 C   0  0  1  0  0  0
    2.1203   -1.7496    0.0000 C   0  0  0  0  0  0
    3.1240   -2.8643    0.0000 C   0  0  1  0  0  0
    4.6158   -2.7075    0.0000 C   0  0  0  0  0  0
    5.2259   -1.3372    0.0000 O   0  0  0  0  0  0
    5.4975   -3.9210    0.0000 N   0  0  0  0  0  0
    6.9893   -3.7643    0.0000 C   0  0  1  0  0  0
    8.3374   -3.1067    0.0000 C   0  0  0  0  0  0
    7.0939   -2.2679    0.0000 C   0  0  1  0  0  0
    6.4363   -0.9197    0.0000 C   0  0  0  0  0  0
    7.2751    0.3238    0.0000 C   0  0  0  0  0  0
    7.4027   -5.2061    0.0000 C   0  0  0  0  0  0
    6.3607   -6.2852    0.0000 O   0  0  0  0  0  0
    8.8582   -5.5690    0.0000 N   0  0  0  0  0  0
    9.2716   -7.0109    0.0000 S   0  0  0  0  0  0
   10.7135   -6.5975    0.0000 O   0  0  0  0  0  0
    7.8297   -7.4244    0.0000 O   0  0  0  0  0  0
    9.6851   -8.4528    0.0000 N   0  0  0  0  0  0
    8.7616   -9.6348    0.0000 C   0  0  0  0  0  0
    9.6004  -10.8784    0.0000 C   0  0  0  0  0  0
   11.0423  -10.4649    0.0000 C   0  0  0  0  0  0
   11.0946   -8.9658    0.0000 C   0  0  0  0  0  0
   -0.7500   -2.3597    0.0000 C   0  0  0  0  0  0
   -1.0105   -3.8369    0.0000 C   0  0  0  0  0  0
   -2.1595   -1.8467    0.0000 C   0  0  0  0  0  0
   -0.0000   -1.0607    0.0000 C   0  0  0  0  0  0
    1.0607    0.0000    0.0000 C   0  0  0  0  0  0
    0.0000    1.0607    0.0000 C   0  0  0  0  0  0
   -1.0607    0.0000    0.0000 C   0  0  0  0  0  0
    2.7125   -8.1175    0.0000 C   0  0  0  0  0  0
    1.3422   -8.7276    0.0000 C   0  0  0  0  0  0
    4.0829   -7.5074    0.0000 C   0  0  0  0  0  0
    3.3227   -9.4878    0.0000 C   0  0  0  0  0  0
   -7.3978   -2.1961    0.0000 C   0  0  0  0  0  0
   -6.6478   -0.8970    0.0000 C   0  0  0  0  0  0
   -8.1478   -3.4951    0.0000 C   0  0  0  0  0  0
   -8.6969   -1.4461    0.0000 C   0  0  0  0  0  0
  1  2  1  0  0  0
  2  3  1  0  0  0
  2  6  1  0  0  0
  3  4  2  0  0  0
  4  5  1  0  0  0
  4 58  1  0  0  0
  5  6  2  0  0  0
  6  7  1  0  0  0
  7  8  2  0  0  0
  7  9  1  0  0  0
  9 10  1  0  0  0
 10 11  1  0  0  0
 10 17  1  6  0  0
 11 12  1  0  0  0
 11 16  1  0  0  0
 12 13  1  0  0  0
 13 14  1  0  0  0
 14 15  1  0  0  0
 15 16  1  0  0  0
 17 18  2  0  0  0
 17 19  1  0  0  0
 19 20  1  0  0  0
 20 21  1  0  0  0
 20 54  1  1  0  0
 21 22  2  0  0  0
 21 23  1  0  0  0
 23 24  1  0  0  0
 23 27  1  0  0  0
 24 25  1  0  0  0
 25 26  1  0  0  0
 25 47  1  0  0  0
 25 50  1  1  0  0
 26 27  1  0  0  0
 27 28  1  6  0  0
 28 29  2  0  0  0
 28 30  1  0  0  0
 30 31  1  0  0  0
 31 32  1  0  0  0
 31 36  1  0  0  0
 31 33  1  1  0  0
 32 33  1  0  0  0
 33 34  1  6  0  0
 34 35  2  0  0  0
 36 37  2  0  0  0
 36 38  1  0  0  0
 38 39  1  0  0  0
 39 40  2  0  0  0
 39 41  2  0  0  0
 39 42  1  0  0  0
 42 43  1  0  0  0
 42 46  1  0  0  0
 43 44  1  0  0  0
 44 45  1  0  0  0
 45 46  1  0  0  0
 47 48  1  0  0  0
 47 49  1  0  0  0
 47 50  1  0  0  0
 50 51  1  0  0  0
 50 53  1  0  0  0
 51 52  1  0  0  0
 52 53  1  0  0  0
 54 55  1  0  0  0
 54 56  1  0  0  0
 54 57  1  0  0  0
 58 59  1  0  0  0
 58 60  1  0  0  0
 58 61  1  0  0  0
M  END
> <s_m_entry_id>
6892

> <s_m_entry_name>
NS3-4A.433

> <CHEMBLID>
CHEMBL3645748

> <s_m_Source_Path>
/home/liwei/Desktop/Machine/HCV/Active

> <s_m_Source_File>
NS3-4A.sdf

> <i_m_Source_File_Index>
433

$$$$
CHEMBL3645749
                    3D
 Structure written by MMmdl.
 61 67  0  0  1  0            999 V2000
   -4.4166   -0.8687    0.0000 C   0  0  0  0  0  0
   -4.7285   -2.3359    0.0000 C   0  0  0  0  0  0
   -3.7248   -3.4507    0.0000 C   0  0  0  0  0  0
   -4.4748   -4.7497    0.0000 C   0  0  0  0  0  0
   -3.8647   -6.1200    0.0000 C   0  0  0  0  0  0
   -4.7464   -7.3335    0.0000 O   0  0  0  0  0  0
   -2.3729   -6.2768    0.0000 N   0  0  0  0  0  0
   -1.7628   -7.6471    0.0000 C   0  0  1  0  0  0
   -2.6445   -8.8607    0.0000 C   0  0  0  0  0  0
   -4.1363   -8.7039    0.0000 C   0  0  0  0  0  0
   -5.0179   -9.9174    0.0000 C   0  0  0  0  0  0
   -4.4078  -11.2877    0.0000 C   0  0  0  0  0  0
   -2.9161  -11.4445    0.0000 C   0  0  0  0  0  0
   -2.0344  -10.2310    0.0000 C   0  0  0  0  0  0
   -0.2710   -7.8039    0.0000 C   0  0  0  0  0  0
    0.3391   -9.1742    0.0000 O   0  0  0  0  0  0
    0.6107   -6.5904    0.0000 N   0  0  0  0  0  0
    2.1024   -6.7472    0.0000 C   0  0  2  0  0  0
    2.9841   -5.5337    0.0000 C   0  0  0  0  0  0
    4.4759   -5.6905    0.0000 O   0  0  0  0  0  0
    2.3740   -4.1633    0.0000 N   0  0  0  0  0  0
    0.9068   -3.8515    0.0000 C   0  0  0  0  0  0
    0.7500   -2.3597    0.0000 C   0  0  1  0  0  0
    2.1203   -1.7496    0.0000 C   0  0  0  0  0  0
    3.1240   -2.8643    0.0000 C   0  0  1  0  0  0
    4.6158   -2.7075    0.0000 C   0  0  0  0  0  0
    5.2259   -1.3372    0.0000 O   0  0  0  0  0  0
    5.4975   -3.9210    0.0000 N   0  0  0  0  0  0
    6.9893   -3.7643    0.0000 C   0  0  1  0  0  0
    8.3374   -3.1067    0.0000 C   0  0  0  0  0  0
    7.0939   -2.2679    0.0000 C   0  0  1  0  0  0
    6.4363   -0.9197    0.0000 C   0  0  0  0  0  0
    7.2751    0.3238    0.0000 C   0  0  0  0  0  0
    7.4027   -5.2061    0.0000 C   0  0  0  0  0  0
    6.3607   -6.2852    0.0000 O   0  0  0  0  0  0
    8.8582   -5.5690    0.0000 N   0  0  0  0  0  0
    9.2716   -7.0109    0.0000 S   0  0  0  0  0  0
   10.7135   -6.5975    0.0000 O   0  0  0  0  0  0
    7.8297   -7.4244    0.0000 O   0  0  0  0  0  0
    9.6851   -8.4528    0.0000 N   0  0  0  0  0  0
    8.7616   -9.6348    0.0000 C   0  0  0  0  0  0
    9.6004  -10.8784    0.0000 C   0  0  0  0  0  0
   11.0423  -10.4649    0.0000 C   0  0  0  0  0  0
   11.0946   -8.9658    0.0000 C   0  0  0  0  0  0
   -0.7500   -2.3597    0.0000 C   0  0  0  0  0  0
   -1.0105   -3.8369    0.0000 C   0  0  0  0  0  0
   -2.1595   -1.8467    0.0000 C   0  0  0  0  0  0
   -0.0000   -1.0607    0.0000 C   0  0  0  0  0  0
    1.0607    0.0000    0.0000 C   0  0  0  0  0  0
    0.0000    1.0607    0.0000 C   0  0  0  0  0  0
   -1.0607    0.0000    0.0000 C   0  0  0  0  0  0
    2.7125   -8.1175    0.0000 C   0  0  0  0  0  0
    1.3422   -8.7276    0.0000 C   0  0  0  0  0  0
    4.0829   -7.5074    0.0000 C   0  0  0  0  0  0
    3.3227   -9.4878    0.0000 C   0  0  0  0  0  0
   -5.9420   -4.4378    0.0000 N   0  0  0  0  0  0
   -6.0988   -2.9461    0.0000 N   0  0  0  0  0  0
   -7.0567   -5.4415    0.0000 C   0  0  0  0  0  0
   -6.0530   -6.5562    0.0000 C   0  0  0  0  0  0
   -8.0604   -4.3268    0.0000 C   0  0  0  0  0  0
   -8.1715   -6.4452    0.0000 C   0  0  0  0  0  0
  1  2  1  0  0  0
  2  3  1  0  0  0
  2 57  2  0  0  0
  3  4  2  0  0  0
  4  5  1  0  0  0
  4 56  1  0  0  0
  5  6  2  0  0  0
  5  7  1  0  0  0
  7  8  1  0  0  0
  8  9  1  0  0  0
  8 15  1  6  0  0
  9 10  1  0  0  0
  9 14  1  0  0  0
 10 11  1  0  0  0
 11 12  1  0  0  0
 12 13  1  0  0  0
 13 14  1  0  0  0
 15 16  2  0  0  0
 15 17  1  0  0  0
 17 18  1  0  0  0
 18 19  1  0  0  0
 18 52  1  1  0  0
 19 20  2  0  0  0
 19 21  1  0  0  0
 21 22  1  0  0  0
 21 25  1  0  0  0
 22 23  1  0  0  0
 23 24  1  0  0  0
 23 45  1  0  0  0
 23 48  1  1  0  0
 24 25  1  0  0  0
 25 26  1  6  0  0
 26 27  2  0  0  0
 26 28  1  0  0  0
 28 29  1  0  0  0
 29 30  1  0  0  0
 29 34  1  0  0  0
 29 31  1  1  0  0
 30 31  1  0  0  0
 31 32  1  6  0  0
 32 33  2  0  0  0
 34 35  2  0  0  0
 34 36  1  0  0  0
 36 37  1  0  0  0
 37 38  2  0  0  0
 37 39  2  0  0  0
 37 40  1  0  0  0
 40 41  1  0  0  0
 40 44  1  0  0  0
 41 42  1  0  0  0
 42 43  1  0  0  0
 43 44  1  0  0  0
 45 46  1  0  0  0
 45 47  1  0  0  0
 45 48  1  0  0  0
 48 49  1  0  0  0
 48 51  1  0  0  0
 49 50  1  0  0  0
 50 51  1  0  0  0
 52 53  1  0  0  0
 52 54  1  0  0  0
 52 55  1  0  0  0
 56 57  1  0  0  0
 56 58  1  0  0  0
 58 59  1  0  0  0
 58 60  1  0  0  0
 58 61  1  0  0  0
M  END
> <s_m_entry_id>
6893

> <s_m_entry_name>
NS3-4A.434

> <CHEMBLID>
CHEMBL3645749

> <s_m_Source_Path>
/home/liwei/Desktop/Machine/HCV/Active

> <s_m_Source_File>
NS3-4A.sdf

> <i_m_Source_File_Index>
434

$$$$
CHEMBL3645750
                    3D
 Structure written by MMmdl.
 62 69  0  0  1  0            999 V2000
    1.3422   -8.7276    0.0000 C   0  0  0  0  0  0
    2.7125   -8.1175    0.0000 C   0  0  0  0  0  0
    4.0829   -7.5074    0.0000 C   0  0  0  0  0  0
    3.3227   -9.4878    0.0000 C   0  0  0  0  0  0
    2.1024   -6.7472    0.0000 C   0  0  2  0  0  0
    0.6107   -6.5904    0.0000 N   0  0  0  0  0  0
   -0.2710   -7.8039    0.0000 C   0  0  0  0  0  0
    0.3391   -9.1742    0.0000 O   0  0  0  0  0  0
   -1.7628   -7.6471    0.0000 C   0  0  1  0  0  0
   -2.3729   -6.2768    0.0000 N   0  0  0  0  0  0
   -3.8647   -6.1200    0.0000 C   0  0  0  0  0  0
   -4.7464   -7.3335    0.0000 O   0  0  0  0  0  0
   -4.4748   -4.7497    0.0000 C   0  0  0  0  0  0
   -5.9420   -4.4378    0.0000 C   0  0  0  0  0  0
   -6.0988   -2.9461    0.0000 N   0  0  0  0  0  0
   -4.7285   -2.3359    0.0000 N   0  0  0  0  0  0
   -3.7248   -3.4507    0.0000 C   0  0  0  0  0  0
   -4.4166   -0.8687    0.0000 C   0  0  0  0  0  0
   -2.9900   -0.4052    0.0000 C   0  0  0  0  0  0
   -2.6782    1.0620    0.0000 C   0  0  0  0  0  0
   -3.7929    2.0657    0.0000 C   0  0  0  0  0  0
   -5.2195    1.6022    0.0000 C   0  0  0  0  0  0
   -5.5313    0.1350    0.0000 C   0  0  0  0  0  0
   -2.6445   -8.8607    0.0000 C   0  0  0  0  0  0
   -4.1363   -8.7039    0.0000 C   0  0  0  0  0  0
   -5.0179   -9.9174    0.0000 C   0  0  0  0  0  0
   -4.4078  -11.2877    0.0000 C   0  0  0  0  0  0
   -2.9161  -11.4445    0.0000 C   0  0  0  0  0  0
   -2.0344  -10.2310    0.0000 C   0  0  0  0  0  0
    2.9841   -5.5337    0.0000 C   0  0  0  0  0  0
    4.4759   -5.6905    0.0000 O   0  0  0  0  0  0
    2.3740   -4.1633    0.0000 N   0  0  0  0  0  0
    0.9068   -3.8515    0.0000 C   0  0  0  0  0  0
    0.7500   -2.3597    0.0000 C   0  0  1  0  0  0
    2.1203   -1.7496    0.0000 C   0  0  0  0  0  0
    3.1240   -2.8643    0.0000 C   0  0  1  0  0  0
    4.6158   -2.7075    0.0000 C   0  0  0  0  0  0
    5.2259   -1.3372    0.0000 O   0  0  0  0  0  0
    5.4975   -3.9210    0.0000 N   0  0  0  0  0  0
    6.9893   -3.7643    0.0000 C   0  0  1  0  0  0
    8.3374   -3.1067    0.0000 C   0  0  0  0  0  0
    7.0939   -2.2679    0.0000 C   0  0  1  0  0  0
    6.4363   -0.9197    0.0000 C   0  0  0  0  0  0
    7.2751    0.3238    0.0000 C   0  0  0  0  0  0
    7.4027   -5.2061    0.0000 C   0  0  0  0  0  0
    6.3607   -6.2852    0.0000 O   0  0  0  0  0  0
    8.8582   -5.5690    0.0000 N   0  0  0  0  0  0
    9.2716   -7.0109    0.0000 S   0  0  0  0  0  0
   10.7135   -6.5975    0.0000 O   0  0  0  0  0  0
    7.8297   -7.4244    0.0000 O   0  0  0  0  0  0
    9.6851   -8.4528    0.0000 N   0  0  0  0  0  0
    8.7616   -9.6348    0.0000 C   0  0  0  0  0  0
    9.6004  -10.8784    0.0000 C   0  0  0  0  0  0
   11.0423  -10.4649    0.0000 C   0  0  0  0  0  0
   11.0946   -8.9658    0.0000 C   0  0  0  0  0  0
   -0.7500   -2.3597    0.0000 C   0  0  0  0  0  0
   -1.0105   -3.8369    0.0000 C   0  0  0  0  0  0
   -2.1595   -1.8467    0.0000 C   0  0  0  0  0  0
   -0.0000   -1.0607    0.0000 C   0  0  0  0  0  0
    1.0607    0.0000    0.0000 C   0  0  0  0  0  0
    0.0000    1.0607    0.0000 C   0  0  0  0  0  0
   -1.0607    0.0000    0.0000 C   0  0  0  0  0  0
  1  2  1  0  0  0
  2  3  1  0  0  0
  2  4  1  0  0  0
  2  5  1  0  0  0
  5  6  1  0  0  0
  5 30  1  1  0  0
  6  7  1  0  0  0
  7  8  2  0  0  0
  7  9  1  0  0  0
  9 10  1  0  0  0
  9 24  1  6  0  0
 10 11  1  0  0  0
 11 12  2  0  0  0
 11 13  1  0  0  0
 13 14  1  0  0  0
 13 17  2  0  0  0
 14 15  2  0  0  0
 15 16  1  0  0  0
 16 17  1  0  0  0
 16 18  1  0  0  0
 18 19  2  0  0  0
 18 23  1  0  0  0
 19 20  1  0  0  0
 20 21  2  0  0  0
 21 22  1  0  0  0
 22 23  2  0  0  0
 24 25  1  0  0  0
 24 29  1  0  0  0
 25 26  1  0  0  0
 26 27  1  0  0  0
 27 28  1  0  0  0
 28 29  1  0  0  0
 30 31  2  0  0  0
 30 32  1  0  0  0
 32 33  1  0  0  0
 32 36  1  0  0  0
 33 34  1  0  0  0
 34 35  1  0  0  0
 34 56  1  0  0  0
 34 59  1  1  0  0
 35 36  1  0  0  0
 36 37  1  6  0  0
 37 38  2  0  0  0
 37 39  1  0  0  0
 39 40  1  0  0  0
 40 41  1  0  0  0
 40 45  1  0  0  0
 40 42  1  1  0  0
 41 42  1  0  0  0
 42 43  1  6  0  0
 43 44  2  0  0  0
 45 46  2  0  0  0
 45 47  1  0  0  0
 47 48  1  0  0  0
 48 49  2  0  0  0
 48 50  2  0  0  0
 48 51  1  0  0  0
 51 52  1  0  0  0
 51 55  1  0  0  0
 52 53  1  0  0  0
 53 54  1  0  0  0
 54 55  1  0  0  0
 56 57  1  0  0  0
 56 58  1  0  0  0
 56 59  1  0  0  0
 59 60  1  0  0  0
 59 62  1  0  0  0
 60 61  1  0  0  0
 61 62  1  0  0  0
M  END
> <s_m_entry_id>
6894

> <s_m_entry_name>
NS3-4A.435

> <CHEMBLID>
CHEMBL3645750

> <s_m_Source_Path>
/home/liwei/Desktop/Machine/HCV/Active

> <s_m_Source_File>
NS3-4A.sdf

> <i_m_Source_File_Index>
435

$$$$
CHEMBL3645751
                    3D
 Structure written by MMmdl.
 59 65  0  0  1  0            999 V2000
   -7.3978   -0.6961    0.0000 C   0  0  0  0  0  0
   -7.3978   -2.1961    0.0000 C   0  0  0  0  0  0
   -6.0988   -2.9461    0.0000 C   0  0  0  0  0  0
   -5.9420   -4.4378    0.0000 C   0  0  0  0  0  0
   -4.4748   -4.7497    0.0000 C   0  0  0  0  0  0
   -3.8647   -6.1200    0.0000 C   0  0  0  0  0  0
   -4.7464   -7.3335    0.0000 O   0  0  0  0  0  0
   -2.3729   -6.2768    0.0000 N   0  0  0  0  0  0
   -1.7628   -7.6471    0.0000 C   0  0  1  0  0  0
   -2.6445   -8.8607    0.0000 C   0  0  0  0  0  0
   -4.1363   -8.7039    0.0000 C   0  0  0  0  0  0
   -5.0179   -9.9174    0.0000 C   0  0  0  0  0  0
   -4.4078  -11.2877    0.0000 C   0  0  0  0  0  0
   -2.9161  -11.4445    0.0000 C   0  0  0  0  0  0
   -2.0344  -10.2310    0.0000 C   0  0  0  0  0  0
   -0.2710   -7.8039    0.0000 C   0  0  0  0  0  0
    0.3391   -9.1742    0.0000 O   0  0  0  0  0  0
    0.6107   -6.5904    0.0000 N   0  0  0  0  0  0
    2.1024   -6.7472    0.0000 C   0  0  2  0  0  0
    2.9841   -5.5337    0.0000 C   0  0  0  0  0  0
    4.4759   -5.6905    0.0000 O   0  0  0  0  0  0
    2.3740   -4.1633    0.0000 N   0  0  0  0  0  0
    0.9068   -3.8515    0.0000 C   0  0  0  0  0  0
    0.7500   -2.3597    0.0000 C   0  0  1  0  0  0
    2.1203   -1.7496    0.0000 C   0  0  0  0  0  0
    3.1240   -2.8643    0.0000 C   0  0  1  0  0  0
    4.6158   -2.7075    0.0000 C   0  0  0  0  0  0
    5.2259   -1.3372    0.0000 O   0  0  0  0  0  0
    5.4975   -3.9210    0.0000 N   0  0  0  0  0  0
    6.9893   -3.7643    0.0000 C   0  0  1  0  0  0
    8.3374   -3.1067    0.0000 C   0  0  0  0  0  0
    7.0939   -2.2679    0.0000 C   0  0  1  0  0  0
    6.4363   -0.9197    0.0000 C   0  0  0  0  0  0
    7.2751    0.3238    0.0000 C   0  0  0  0  0  0
    7.4027   -5.2061    0.0000 C   0  0  0  0  0  0
    6.3607   -6.2852    0.0000 O   0  0  0  0  0  0
    8.8582   -5.5690    0.0000 N   0  0  0  0  0  0
    9.2716   -7.0109    0.0000 S   0  0  0  0  0  0
   10.7135   -6.5975    0.0000 O   0  0  0  0  0  0
    7.8297   -7.4244    0.0000 O   0  0  0  0  0  0
    9.6851   -8.4528    0.0000 N   0  0  0  0  0  0
    8.7616   -9.6348    0.0000 C   0  0  0  0  0  0
    9.6004  -10.8784    0.0000 C   0  0  0  0  0  0
   11.0423  -10.4649    0.0000 C   0  0  0  0  0  0
   11.0946   -8.9658    0.0000 C   0  0  0  0  0  0
   -0.7500   -2.3597    0.0000 C   0  0  0  0  0  0
   -1.0105   -3.8369    0.0000 C   0  0  0  0  0  0
   -2.1595   -1.8467    0.0000 C   0  0  0  0  0  0
   -0.0000   -1.0607    0.0000 C   0  0  0  0  0  0
    1.0607    0.0000    0.0000 C   0  0  0  0  0  0
    0.0000    1.0607    0.0000 C   0  0  0  0  0  0
   -1.0607    0.0000    0.0000 C   0  0  0  0  0  0
    2.7125   -8.1175    0.0000 C   0  0  0  0  0  0
    1.3422   -8.7276    0.0000 C   0  0  0  0  0  0
    4.0829   -7.5074    0.0000 C   0  0  0  0  0  0
    3.3227   -9.4878    0.0000 C   0  0  0  0  0  0
   -3.7248   -3.4507    0.0000 N   0  0  0  0  0  0
   -2.2330   -3.2939    0.0000 C   0  0  0  0  0  0
   -4.7285   -2.3359    0.0000 N   0  0  0  0  0  0
  1  2  1  0  0  0
  2  3  1  0  0  0
  3  4  1  0  0  0
  3 59  2  0  0  0
  4  5  2  0  0  0
  5  6  1  0  0  0
  5 57  1  0  0  0
  6  7  2  0  0  0
  6  8  1  0  0  0
  8  9  1  0  0  0
  9 10  1  0  0  0
  9 16  1  6  0  0
 10 11  1  0  0  0
 10 15  1  0  0  0
 11 12  1  0  0  0
 12 13  1  0  0  0
 13 14  1  0  0  0
 14 15  1  0  0  0
 16 17  2  0  0  0
 16 18  1  0  0  0
 18 19  1  0  0  0
 19 20  1  0  0  0
 19 53  1  1  0  0
 20 21  2  0  0  0
 20 22  1  0  0  0
 22 23  1  0  0  0
 22 26  1  0  0  0
 23 24  1  0  0  0
 24 25  1  0  0  0
 24 46  1  0  0  0
 24 49  1  1  0  0
 25 26  1  0  0  0
 26 27  1  6  0  0
 27 28  2  0  0  0
 27 29  1  0  0  0
 29 30  1  0  0  0
 30 31  1  0  0  0
 30 35  1  0  0  0
 30 32  1  1  0  0
 31 32  1  0  0  0
 32 33  1  6  0  0
 33 34  2  0  0  0
 35 36  2  0  0  0
 35 37  1  0  0  0
 37 38  1  0  0  0
 38 39  2  0  0  0
 38 40  2  0  0  0
 38 41  1  0  0  0
 41 42  1  0  0  0
 41 45  1  0  0  0
 42 43  1  0  0  0
 43 44  1  0  0  0
 44 45  1  0  0  0
 46 47  1  0  0  0
 46 48  1  0  0  0
 46 49  1  0  0  0
 49 50  1  0  0  0
 49 52  1  0  0  0
 50 51  1  0  0  0
 51 52  1  0  0  0
 53 54  1  0  0  0
 53 55  1  0  0  0
 53 56  1  0  0  0
 57 58  1  0  0  0
 57 59  1  0  0  0
M  END
> <s_m_entry_id>
6895

> <s_m_entry_name>
NS3-4A.436

> <CHEMBLID>
CHEMBL3645751

> <s_m_Source_Path>
/home/liwei/Desktop/Machine/HCV/Active

> <s_m_Source_File>
NS3-4A.sdf

> <i_m_Source_File_Index>
436

$$$$
CHEMBL3645752
                    3D
 Structure written by MMmdl.
 59 65  0  0  1  0            999 V2000
   -9.2985   -2.6020    0.0000 C   0  0  0  0  0  0
   -8.1838   -3.6057    0.0000 C   0  0  0  0  0  0
   -8.3406   -5.0975    0.0000 C   0  0  0  0  0  0
   -6.9703   -5.7076    0.0000 C   0  0  0  0  0  0
   -6.6584   -7.1748    0.0000 C   0  0  0  0  0  0
   -5.9666   -4.5929    0.0000 N   0  0  0  0  0  0
   -4.4748   -4.7497    0.0000 C   0  0  0  0  0  0
   -3.8647   -6.1200    0.0000 C   0  0  0  0  0  0
   -4.7464   -7.3335    0.0000 O   0  0  0  0  0  0
   -2.3729   -6.2768    0.0000 N   0  0  0  0  0  0
   -1.7628   -7.6471    0.0000 C   0  0  1  0  0  0
   -2.6445   -8.8607    0.0000 C   0  0  0  0  0  0
   -4.1363   -8.7039    0.0000 C   0  0  0  0  0  0
   -5.0179   -9.9174    0.0000 C   0  0  0  0  0  0
   -4.4078  -11.2877    0.0000 C   0  0  0  0  0  0
   -2.9161  -11.4445    0.0000 C   0  0  0  0  0  0
   -2.0344  -10.2310    0.0000 C   0  0  0  0  0  0
   -0.2710   -7.8039    0.0000 C   0  0  0  0  0  0
    0.3391   -9.1742    0.0000 O   0  0  0  0  0  0
    0.6107   -6.5904    0.0000 N   0  0  0  0  0  0
    2.1024   -6.7472    0.0000 C   0  0  2  0  0  0
    2.9841   -5.5337    0.0000 C   0  0  0  0  0  0
    4.4759   -5.6905    0.0000 O   0  0  0  0  0  0
    2.3740   -4.1633    0.0000 N   0  0  0  0  0  0
    0.9068   -3.8515    0.0000 C   0  0  0  0  0  0
    0.7500   -2.3597    0.0000 C   0  0  1  0  0  0
    2.1203   -1.7496    0.0000 C   0  0  0  0  0  0
    3.1240   -2.8643    0.0000 C   0  0  1  0  0  0
    4.6158   -2.7075    0.0000 C   0  0  0  0  0  0
    5.2259   -1.3372    0.0000 O   0  0  0  0  0  0
    5.4975   -3.9210    0.0000 N   0  0  0  0  0  0
    6.9893   -3.7643    0.0000 C   0  0  1  0  0  0
    8.3374   -3.1067    0.0000 C   0  0  0  0  0  0
    7.0939   -2.2679    0.0000 C   0  0  1  0  0  0
    6.4363   -0.9197    0.0000 C   0  0  0  0  0  0
    7.2751    0.3238    0.0000 C   0  0  0  0  0  0
    7.4027   -5.2061    0.0000 C   0  0  0  0  0  0
    6.3607   -6.2852    0.0000 O   0  0  0  0  0  0
    8.8582   -5.5690    0.0000 N   0  0  0  0  0  0
    9.2716   -7.0109    0.0000 S   0  0  0  0  0  0
   10.7135   -6.5975    0.0000 O   0  0  0  0  0  0
    7.8297   -7.4244    0.0000 O   0  0  0  0  0  0
    9.6851   -8.4528    0.0000 N   0  0  0  0  0  0
    8.7616   -9.6348    0.0000 C   0  0  0  0  0  0
    9.6004  -10.8784    0.0000 C   0  0  0  0  0  0
   11.0423  -10.4649    0.0000 C   0  0  0  0  0  0
   11.0946   -8.9658    0.0000 C   0  0  0  0  0  0
   -0.7500   -2.3597    0.0000 C   0  0  0  0  0  0
   -1.0105   -3.8369    0.0000 C   0  0  0  0  0  0
   -2.1595   -1.8467    0.0000 C   0  0  0  0  0  0
   -0.0000   -1.0607    0.0000 C   0  0  0  0  0  0
    1.0607    0.0000    0.0000 C   0  0  0  0  0  0
    0.0000    1.0607    0.0000 C   0  0  0  0  0  0
   -1.0607    0.0000    0.0000 C   0  0  0  0  0  0
    2.7125   -8.1175    0.0000 C   0  0  0  0  0  0
    1.3422   -8.7276    0.0000 C   0  0  0  0  0  0
    4.0829   -7.5074    0.0000 C   0  0  0  0  0  0
    3.3227   -9.4878    0.0000 C   0  0  0  0  0  0
   -6.7166   -3.2939    0.0000 N   0  0  0  0  0  0
  1  2  1  0  0  0
  2  3  1  0  0  0
  2 59  2  0  0  0
  3  4  2  0  0  0
  4  5  1  0  0  0
  4  6  1  0  0  0
  6  7  1  0  0  0
  6 59  1  0  0  0
  7  8  1  0  0  0
  8  9  2  0  0  0
  8 10  1  0  0  0
 10 11  1  0  0  0
 11 12  1  0  0  0
 11 18  1  6  0  0
 12 13  1  0  0  0
 12 17  1  0  0  0
 13 14  1  0  0  0
 14 15  1  0  0  0
 15 16  1  0  0  0
 16 17  1  0  0  0
 18 19  2  0  0  0
 18 20  1  0  0  0
 20 21  1  0  0  0
 21 22  1  0  0  0
 21 55  1  1  0  0
 22 23  2  0  0  0
 22 24  1  0  0  0
 24 25  1  0  0  0
 24 28  1  0  0  0
 25 26  1  0  0  0
 26 27  1  0  0  0
 26 48  1  0  0  0
 26 51  1  1  0  0
 27 28  1  0  0  0
 28 29  1  6  0  0
 29 30  2  0  0  0
 29 31  1  0  0  0
 31 32  1  0  0  0
 32 33  1  0  0  0
 32 37  1  0  0  0
 32 34  1  1  0  0
 33 34  1  0  0  0
 34 35  1  6  0  0
 35 36  2  0  0  0
 37 38  2  0  0  0
 37 39  1  0  0  0
 39 40  1  0  0  0
 40 41  2  0  0  0
 40 42  2  0  0  0
 40 43  1  0  0  0
 43 44  1  0  0  0
 43 47  1  0  0  0
 44 45  1  0  0  0
 45 46  1  0  0  0
 46 47  1  0  0  0
 48 49  1  0  0  0
 48 50  1  0  0  0
 48 51  1  0  0  0
 51 52  1  0  0  0
 51 54  1  0  0  0
 52 53  1  0  0  0
 53 54  1  0  0  0
 55 56  1  0  0  0
 55 57  1  0  0  0
 55 58  1  0  0  0
M  END
> <s_m_entry_id>
6896

> <s_m_entry_name>
NS3-4A.437

> <CHEMBLID>
CHEMBL3645752

> <s_m_Source_Path>
/home/liwei/Desktop/Machine/HCV/Active

> <s_m_Source_File>
NS3-4A.sdf

> <i_m_Source_File_Index>
437

$$$$
CHEMBL3645753
                    3D
 Structure written by MMmdl.
 59 65  0  0  1  0            999 V2000
    5.2999   -9.3398    0.0000 C   0  0  0  0  0  0
    6.7265   -9.8033    0.0000 C   0  0  0  0  0  0
    7.8412   -8.7996    0.0000 O   0  0  0  0  0  0
    7.0383  -11.2705    0.0000 N   0  0  0  0  0  0
    8.4087  -11.8806    0.0000 C   0  0  0  0  0  0
    8.2519  -13.3724    0.0000 C   0  0  0  0  0  0
    6.7846  -13.6843    0.0000 C   0  0  0  0  0  0
    6.0346  -12.3853    0.0000 C   0  0  1  0  0  0
    4.5429  -12.2285    0.0000 C   0  0  0  0  0  0
    3.6612  -13.4420    0.0000 O   0  0  0  0  0  0
    3.9328  -10.8581    0.0000 N   0  0  0  0  0  0
    2.4410  -10.7014    0.0000 C   0  0  1  0  0  0
    1.5593  -11.9149    0.0000 C   0  0  0  0  0  0
    2.1694  -13.2852    0.0000 C   0  0  0  0  0  0
    1.2877  -14.4987    0.0000 C   0  0  0  0  0  0
   -0.2041  -14.3419    0.0000 C   0  0  0  0  0  0
   -0.8142  -12.9716    0.0000 C   0  0  0  0  0  0
    0.0675  -11.7581    0.0000 C   0  0  0  0  0  0
    1.8309   -9.3310    0.0000 C   0  0  0  0  0  0
    0.3391   -9.1742    0.0000 O   0  0  0  0  0  0
    2.7125   -8.1175    0.0000 N   0  0  0  0  0  0
    2.1024   -6.7472    0.0000 C   0  0  2  0  0  0
    2.9841   -5.5337    0.0000 C   0  0  0  0  0  0
    4.4759   -5.6905    0.0000 O   0  0  0  0  0  0
    2.3740   -4.1633    0.0000 N   0  0  0  0  0  0
    0.9068   -3.8515    0.0000 C   0  0  0  0  0  0
    0.7500   -2.3597    0.0000 C   0  0  1  0  0  0
    2.1203   -1.7496    0.0000 C   0  0  0  0  0  0
    3.1240   -2.8643    0.0000 C   0  0  1  0  0  0
    4.6158   -2.7075    0.0000 C   0  0  0  0  0  0
    5.2259   -1.3372    0.0000 O   0  0  0  0  0  0
    5.4975   -3.9210    0.0000 N   0  0  0  0  0  0
    6.9893   -3.7643    0.0000 C   0  0  1  0  0  0
    8.3374   -3.1067    0.0000 C   0  0  0  0  0  0
    7.0939   -2.2679    0.0000 C   0  0  1  0  0  0
    6.4363   -0.9197    0.0000 C   0  0  0  0  0  0
    7.2751    0.3238    0.0000 C   0  0  0  0  0  0
    7.4027   -5.2061    0.0000 C   0  0  0  0  0  0
    6.3607   -6.2852    0.0000 O   0  0  0  0  0  0
    8.8582   -5.5690    0.0000 N   0  0  0  0  0  0
    9.2716   -7.0109    0.0000 S   0  0  0  0  0  0
   10.7135   -6.5975    0.0000 O   0  0  0  0  0  0
    7.8297   -7.4244    0.0000 O   0  0  0  0  0  0
    9.6851   -8.4528    0.0000 N   0  0  0  0  0  0
    8.7616   -9.6348    0.0000 C   0  0  0  0  0  0
    9.6004  -10.8784    0.0000 C   0  0  0  0  0  0
   11.0423  -10.4649    0.0000 C   0  0  0  0  0  0
   11.0946   -8.9658    0.0000 C   0  0  0  0  0  0
   -0.7500   -2.3597    0.0000 C   0  0  0  0  0  0
   -1.0105   -3.8369    0.0000 C   0  0  0  0  0  0
   -2.1595   -1.8467    0.0000 C   0  0  0  0  0  0
   -0.0000   -1.0607    0.0000 C   0  0  0  0  0  0
    1.0607    0.0000    0.0000 C   0  0  0  0  0  0
    0.0000    1.0607    0.0000 C   0  0  0  0  0  0
   -1.0607    0.0000    0.0000 C   0  0  0  0  0  0
    0.6107   -6.5904    0.0000 C   0  0  0  0  0  0
    0.4539   -8.0822    0.0000 C   0  0  0  0  0  0
    0.7675   -5.0986    0.0000 C   0  0  0  0  0  0
   -0.8811   -6.4336    0.0000 C   0  0  0  0  0  0
  1  2  1  0  0  0
  2  3  2  0  0  0
  2  4  1  0  0  0
  4  5  1  0  0  0
  4  8  1  0  0  0
  5  6  1  0  0  0
  6  7  1  0  0  0
  7  8  1  0  0  0
  8  9  1  6  0  0
  9 10  2  0  0  0
  9 11  1  0  0  0
 11 12  1  0  0  0
 12 13  1  0  0  0
 12 19  1  6  0  0
 13 14  1  0  0  0
 13 18  1  0  0  0
 14 15  1  0  0  0
 15 16  1  0  0  0
 16 17  1  0  0  0
 17 18  1  0  0  0
 19 20  2  0  0  0
 19 21  1  0  0  0
 21 22  1  0  0  0
 22 23  1  0  0  0
 22 56  1  1  0  0
 23 24  2  0  0  0
 23 25  1  0  0  0
 25 26  1  0  0  0
 25 29  1  0  0  0
 26 27  1  0  0  0
 27 28  1  0  0  0
 27 49  1  0  0  0
 27 52  1  1  0  0
 28 29  1  0  0  0
 29 30  1  6  0  0
 30 31  2  0  0  0
 30 32  1  0  0  0
 32 33  1  0  0  0
 33 34  1  0  0  0
 33 38  1  0  0  0
 33 35  1  1  0  0
 34 35  1  0  0  0
 35 36  1  6  0  0
 36 37  2  0  0  0
 38 39  2  0  0  0
 38 40  1  0  0  0
 40 41  1  0  0  0
 41 42  2  0  0  0
 41 43  2  0  0  0
 41 44  1  0  0  0
 44 45  1  0  0  0
 44 48  1  0  0  0
 45 46  1  0  0  0
 46 47  1  0  0  0
 47 48  1  0  0  0
 49 50  1  0  0  0
 49 51  1  0  0  0
 49 52  1  0  0  0
 52 53  1  0  0  0
 52 55  1  0  0  0
 53 54  1  0  0  0
 54 55  1  0  0  0
 56 57  1  0  0  0
 56 58  1  0  0  0
 56 59  1  0  0  0
M  END
> <s_m_entry_id>
6897

> <s_m_entry_name>
NS3-4A.438

> <CHEMBLID>
CHEMBL3645753

> <s_m_Source_Path>
/home/liwei/Desktop/Machine/HCV/Active

> <s_m_Source_File>
NS3-4A.sdf

> <i_m_Source_File_Index>
438

$$$$
CHEMBL3645754
                    3D
 Structure written by MMmdl.
 60 67  0  0  1  0            999 V2000
    1.3422   -8.7276    0.0000 C   0  0  0  0  0  0
    2.7125   -8.1175    0.0000 C   0  0  0  0  0  0
    4.0829   -7.5074    0.0000 C   0  0  0  0  0  0
    3.3227   -9.4878    0.0000 C   0  0  0  0  0  0
    2.1024   -6.7472    0.0000 C   0  0  2  0  0  0
    0.6107   -6.5904    0.0000 N   0  0  0  0  0  0
   -0.2710   -7.8039    0.0000 C   0  0  0  0  0  0
    0.3391   -9.1742    0.0000 O   0  0  0  0  0  0
   -1.7628   -7.6471    0.0000 C   0  0  1  0  0  0
   -2.3729   -6.2768    0.0000 N   0  0  0  0  0  0
   -3.8647   -6.1200    0.0000 C   0  0  0  0  0  0
   -4.7464   -7.3335    0.0000 O   0  0  0  0  0  0
   -4.4748   -4.7497    0.0000 C   0  0  0  0  0  0
   -3.7248   -3.4507    0.0000 C   0  0  0  0  0  0
   -4.7285   -2.3359    0.0000 C   0  0  0  0  0  0
   -4.5717   -0.8442    0.0000 C   0  0  0  0  0  0
   -5.7852    0.0375    0.0000 C   0  0  0  0  0  0
   -7.1555   -0.5726    0.0000 C   0  0  0  0  0  0
   -7.3123   -2.0644    0.0000 C   0  0  0  0  0  0
   -6.0988   -2.9461    0.0000 C   0  0  0  0  0  0
   -5.9420   -4.4378    0.0000 N   0  0  0  0  0  0
   -2.6445   -8.8607    0.0000 C   0  0  0  0  0  0
   -4.1363   -8.7039    0.0000 C   0  0  0  0  0  0
   -5.0179   -9.9174    0.0000 C   0  0  0  0  0  0
   -4.4078  -11.2877    0.0000 C   0  0  0  0  0  0
   -2.9161  -11.4445    0.0000 C   0  0  0  0  0  0
   -2.0344  -10.2310    0.0000 C   0  0  0  0  0  0
    2.9841   -5.5337    0.0000 C   0  0  0  0  0  0
    4.4759   -5.6905    0.0000 O   0  0  0  0  0  0
    2.3740   -4.1633    0.0000 N   0  0  0  0  0  0
    0.9068   -3.8515    0.0000 C   0  0  0  0  0  0
    0.7500   -2.3597    0.0000 C   0  0  1  0  0  0
    2.1203   -1.7496    0.0000 C   0  0  0  0  0  0
    3.1240   -2.8643    0.0000 C   0  0  1  0  0  0
    4.6158   -2.7075    0.0000 C   0  0  0  0  0  0
    5.2259   -1.3372    0.0000 O   0  0  0  0  0  0
    5.4975   -3.9210    0.0000 N   0  0  0  0  0  0
    6.9893   -3.7643    0.0000 C   0  0  1  0  0  0
    8.3374   -3.1067    0.0000 C   0  0  0  0  0  0
    7.0939   -2.2679    0.0000 C   0  0  1  0  0  0
    6.4363   -0.9197    0.0000 C   0  0  0  0  0  0
    7.2751    0.3238    0.0000 C   0  0  0  0  0  0
    7.4027   -5.2061    0.0000 C   0  0  0  0  0  0
    6.3607   -6.2852    0.0000 O   0  0  0  0  0  0
    8.8582   -5.5690    0.0000 N   0  0  0  0  0  0
    9.2716   -7.0109    0.0000 S   0  0  0  0  0  0
   10.7135   -6.5975    0.0000 O   0  0  0  0  0  0
    7.8297   -7.4244    0.0000 O   0  0  0  0  0  0
    9.6851   -8.4528    0.0000 N   0  0  0  0  0  0
    8.7616   -9.6348    0.0000 C   0  0  0  0  0  0
    9.6004  -10.8784    0.0000 C   0  0  0  0  0  0
   11.0423  -10.4649    0.0000 C   0  0  0  0  0  0
   11.0946   -8.9658    0.0000 C   0  0  0  0  0  0
   -0.7500   -2.3597    0.0000 C   0  0  0  0  0  0
   -1.0105   -3.8369    0.0000 C   0  0  0  0  0  0
   -2.1595   -1.8467    0.0000 C   0  0  0  0  0  0
   -0.0000   -1.0607    0.0000 C   0  0  0  0  0  0
    1.0607    0.0000    0.0000 C   0  0  0  0  0  0
    0.0000    1.0607    0.0000 C   0  0  0  0  0  0
   -1.0607    0.0000    0.0000 C   0  0  0  0  0  0
  1  2  1  0  0  0
  2  3  1  0  0  0
  2  4  1  0  0  0
  2  5  1  0  0  0
  5  6  1  0  0  0
  5 28  1  1  0  0
  6  7  1  0  0  0
  7  8  2  0  0  0
  7  9  1  0  0  0
  9 10  1  0  0  0
  9 22  1  6  0  0
 10 11  1  0  0  0
 11 12  2  0  0  0
 11 13  1  0  0  0
 13 14  2  0  0  0
 13 21  1  0  0  0
 14 15  1  0  0  0
 15 16  2  0  0  0
 15 20  1  0  0  0
 16 17  1  0  0  0
 17 18  2  0  0  0
 18 19  1  0  0  0
 19 20  2  0  0  0
 20 21  1  0  0  0
 22 23  1  0  0  0
 22 27  1  0  0  0
 23 24  1  0  0  0
 24 25  1  0  0  0
 25 26  1  0  0  0
 26 27  1  0  0  0
 28 29  2  0  0  0
 28 30  1  0  0  0
 30 31  1  0  0  0
 30 34  1  0  0  0
 31 32  1  0  0  0
 32 33  1  0  0  0
 32 54  1  0  0  0
 32 57  1  1  0  0
 33 34  1  0  0  0
 34 35  1  6  0  0
 35 36  2  0  0  0
 35 37  1  0  0  0
 37 38  1  0  0  0
 38 39  1  0  0  0
 38 43  1  0  0  0
 38 40  1  1  0  0
 39 40  1  0  0  0
 40 41  1  6  0  0
 41 42  2  0  0  0
 43 44  2  0  0  0
 43 45  1  0  0  0
 45 46  1  0  0  0
 46 47  2  0  0  0
 46 48  2  0  0  0
 46 49  1  0  0  0
 49 50  1  0  0  0
 49 53  1  0  0  0
 50 51  1  0  0  0
 51 52  1  0  0  0
 52 53  1  0  0  0
 54 55  1  0  0  0
 54 56  1  0  0  0
 54 57  1  0  0  0
 57 58  1  0  0  0
 57 60  1  0  0  0
 58 59  1  0  0  0
 59 60  1  0  0  0
M  END
> <s_m_entry_id>
6898

> <s_m_entry_name>
NS3-4A.439

> <CHEMBLID>
CHEMBL3645754

> <s_m_Source_Path>
/home/liwei/Desktop/Machine/HCV/Active

> <s_m_Source_File>
NS3-4A.sdf

> <i_m_Source_File_Index>
439

$$$$
CHEMBL3645755
                    3D
 Structure written by MMmdl.
 60 67  0  0  1  0            999 V2000
    1.3422   -8.7276    0.0000 C   0  0  0  0  0  0
    2.7125   -8.1175    0.0000 C   0  0  0  0  0  0
    4.0829   -7.5074    0.0000 C   0  0  0  0  0  0
    3.3227   -9.4878    0.0000 C   0  0  0  0  0  0
    2.1024   -6.7472    0.0000 C   0  0  2  0  0  0
    0.6107   -6.5904    0.0000 N   0  0  0  0  0  0
   -0.2710   -7.8039    0.0000 C   0  0  0  0  0  0
    0.3391   -9.1742    0.0000 O   0  0  0  0  0  0
   -1.7628   -7.6471    0.0000 C   0  0  1  0  0  0
   -2.3729   -6.2768    0.0000 N   0  0  0  0  0  0
   -3.8647   -6.1200    0.0000 C   0  0  0  0  0  0
   -4.7464   -7.3335    0.0000 O   0  0  0  0  0  0
   -4.4748   -4.7497    0.0000 C   0  0  0  0  0  0
   -3.7248   -3.4507    0.0000 C   0  0  0  0  0  0
   -4.7285   -2.3359    0.0000 N   0  0  0  0  0  0
   -6.0988   -2.9461    0.0000 C   0  0  0  0  0  0
   -7.4691   -2.3359    0.0000 C   0  0  0  0  0  0
   -8.6827   -3.2176    0.0000 C   0  0  0  0  0  0
   -8.5259   -4.7094    0.0000 C   0  0  0  0  0  0
   -7.1555   -5.3195    0.0000 C   0  0  0  0  0  0
   -5.9420   -4.4378    0.0000 C   0  0  0  0  0  0
   -2.6445   -8.8607    0.0000 C   0  0  0  0  0  0
   -4.1363   -8.7039    0.0000 C   0  0  0  0  0  0
   -5.0179   -9.9174    0.0000 C   0  0  0  0  0  0
   -4.4078  -11.2877    0.0000 C   0  0  0  0  0  0
   -2.9161  -11.4445    0.0000 C   0  0  0  0  0  0
   -2.0344  -10.2310    0.0000 C   0  0  0  0  0  0
    2.9841   -5.5337    0.0000 C   0  0  0  0  0  0
    4.4759   -5.6905    0.0000 O   0  0  0  0  0  0
    2.3740   -4.1633    0.0000 N   0  0  0  0  0  0
    0.9068   -3.8515    0.0000 C   0  0  0  0  0  0
    0.7500   -2.3597    0.0000 C   0  0  1  0  0  0
    2.1203   -1.7496    0.0000 C   0  0  0  0  0  0
    3.1240   -2.8643    0.0000 C   0  0  1  0  0  0
    4.6158   -2.7075    0.0000 C   0  0  0  0  0  0
    5.2259   -1.3372    0.0000 O   0  0  0  0  0  0
    5.4975   -3.9210    0.0000 N   0  0  0  0  0  0
    6.9893   -3.7643    0.0000 C   0  0  1  0  0  0
    8.3374   -3.1067    0.0000 C   0  0  0  0  0  0
    7.0939   -2.2679    0.0000 C   0  0  1  0  0  0
    6.4363   -0.9197    0.0000 C   0  0  0  0  0  0
    7.2751    0.3238    0.0000 C   0  0  0  0  0  0
    7.4027   -5.2061    0.0000 C   0  0  0  0  0  0
    6.3607   -6.2852    0.0000 O   0  0  0  0  0  0
    8.8582   -5.5690    0.0000 N   0  0  0  0  0  0
    9.2716   -7.0109    0.0000 S   0  0  0  0  0  0
   10.7135   -6.5975    0.0000 O   0  0  0  0  0  0
    7.8297   -7.4244    0.0000 O   0  0  0  0  0  0
    9.6851   -8.4528    0.0000 N   0  0  0  0  0  0
    8.7616   -9.6348    0.0000 C   0  0  0  0  0  0
    9.6004  -10.8784    0.0000 C   0  0  0  0  0  0
   11.0423  -10.4649    0.0000 C   0  0  0  0  0  0
   11.0946   -8.9658    0.0000 C   0  0  0  0  0  0
   -0.7500   -2.3597    0.0000 C   0  0  0  0  0  0
   -1.0105   -3.8369    0.0000 C   0  0  0  0  0  0
   -2.1595   -1.8467    0.0000 C   0  0  0  0  0  0
   -0.0000   -1.0607    0.0000 C   0  0  0  0  0  0
    1.0607    0.0000    0.0000 C   0  0  0  0  0  0
    0.0000    1.0607    0.0000 C   0  0  0  0  0  0
   -1.0607    0.0000    0.0000 C   0  0  0  0  0  0
  1  2  1  0  0  0
  2  3  1  0  0  0
  2  4  1  0  0  0
  2  5  1  0  0  0
  5  6  1  0  0  0
  5 28  1  1  0  0
  6  7  1  0  0  0
  7  8  2  0  0  0
  7  9  1  0  0  0
  9 10  1  0  0  0
  9 22  1  6  0  0
 10 11  1  0  0  0
 11 12  2  0  0  0
 11 13  1  0  0  0
 13 14  2  0  0  0
 13 21  1  0  0  0
 14 15  1  0  0  0
 15 16  1  0  0  0
 16 17  2  0  0  0
 16 21  1  0  0  0
 17 18  1  0  0  0
 18 19  2  0  0  0
 19 20  1  0  0  0
 20 21  2  0  0  0
 22 23  1  0  0  0
 22 27  1  0  0  0
 23 24  1  0  0  0
 24 25  1  0  0  0
 25 26  1  0  0  0
 26 27  1  0  0  0
 28 29  2  0  0  0
 28 30  1  0  0  0
 30 31  1  0  0  0
 30 34  1  0  0  0
 31 32  1  0  0  0
 32 33  1  0  0  0
 32 54  1  0  0  0
 32 57  1  1  0  0
 33 34  1  0  0  0
 34 35  1  6  0  0
 35 36  2  0  0  0
 35 37  1  0  0  0
 37 38  1  0  0  0
 38 39  1  0  0  0
 38 43  1  0  0  0
 38 40  1  1  0  0
 39 40  1  0  0  0
 40 41  1  6  0  0
 41 42  2  0  0  0
 43 44  2  0  0  0
 43 45  1  0  0  0
 45 46  1  0  0  0
 46 47  2  0  0  0
 46 48  2  0  0  0
 46 49  1  0  0  0
 49 50  1  0  0  0
 49 53  1  0  0  0
 50 51  1  0  0  0
 51 52  1  0  0  0
 52 53  1  0  0  0
 54 55  1  0  0  0
 54 56  1  0  0  0
 54 57  1  0  0  0
 57 58  1  0  0  0
 57 60  1  0  0  0
 58 59  1  0  0  0
 59 60  1  0  0  0
M  END
> <s_m_entry_id>
6899

> <s_m_entry_name>
NS3-4A.440

> <CHEMBLID>
CHEMBL3645755

> <s_m_Source_Path>
/home/liwei/Desktop/Machine/HCV/Active

> <s_m_Source_File>
NS3-4A.sdf

> <i_m_Source_File_Index>
440

$$$$
CHEMBL3645756
                    3D
 Structure written by MMmdl.
 60 67  0  0  1  0            999 V2000
    1.3422   -8.7276    0.0000 C   0  0  0  0  0  0
    2.7125   -8.1175    0.0000 C   0  0  0  0  0  0
    4.0829   -7.5074    0.0000 C   0  0  0  0  0  0
    3.3227   -9.4878    0.0000 C   0  0  0  0  0  0
    2.1024   -6.7472    0.0000 C   0  0  2  0  0  0
    0.6107   -6.5904    0.0000 N   0  0  0  0  0  0
   -0.2710   -7.8039    0.0000 C   0  0  0  0  0  0
    0.3391   -9.1742    0.0000 O   0  0  0  0  0  0
   -1.7628   -7.6471    0.0000 C   0  0  1  0  0  0
   -2.3729   -6.2768    0.0000 N   0  0  0  0  0  0
   -3.8647   -6.1200    0.0000 C   0  0  0  0  0  0
   -4.7464   -7.3335    0.0000 O   0  0  0  0  0  0
   -4.4748   -4.7497    0.0000 C   0  0  0  0  0  0
   -3.5931   -3.5362    0.0000 C   0  0  0  0  0  0
   -4.2032   -2.1659    0.0000 C   0  0  0  0  0  0
   -5.6950   -2.0091    0.0000 C   0  0  0  0  0  0
   -6.5767   -0.7955    0.0000 N   0  0  0  0  0  0
   -8.0033   -1.2591    0.0000 C   0  0  0  0  0  0
   -8.0033   -2.7591    0.0000 C   0  0  0  0  0  0
   -6.5767   -3.2226    0.0000 C   0  0  0  0  0  0
   -5.9666   -4.5929    0.0000 C   0  0  0  0  0  0
   -2.6445   -8.8607    0.0000 C   0  0  0  0  0  0
   -4.1363   -8.7039    0.0000 C   0  0  0  0  0  0
   -5.0179   -9.9174    0.0000 C   0  0  0  0  0  0
   -4.4078  -11.2877    0.0000 C   0  0  0  0  0  0
   -2.9161  -11.4445    0.0000 C   0  0  0  0  0  0
   -2.0344  -10.2310    0.0000 C   0  0  0  0  0  0
    2.9841   -5.5337    0.0000 C   0  0  0  0  0  0
    4.4759   -5.6905    0.0000 O   0  0  0  0  0  0
    2.3740   -4.1633    0.0000 N   0  0  0  0  0  0
    0.9068   -3.8515    0.0000 C   0  0  0  0  0  0
    0.7500   -2.3597    0.0000 C   0  0  1  0  0  0
    2.1203   -1.7496    0.0000 C   0  0  0  0  0  0
    3.1240   -2.8643    0.0000 C   0  0  1  0  0  0
    4.6158   -2.7075    0.0000 C   0  0  0  0  0  0
    5.2259   -1.3372    0.0000 O   0  0  0  0  0  0
    5.4975   -3.9210    0.0000 N   0  0  0  0  0  0
    6.9893   -3.7643    0.0000 C   0  0  1  0  0  0
    8.3374   -3.1067    0.0000 C   0  0  0  0  0  0
    7.0939   -2.2679    0.0000 C   0  0  1  0  0  0
    6.4363   -0.9197    0.0000 C   0  0  0  0  0  0
    7.2751    0.3238    0.0000 C   0  0  0  0  0  0
    7.4027   -5.2061    0.0000 C   0  0  0  0  0  0
    6.3607   -6.2852    0.0000 O   0  0  0  0  0  0
    8.8582   -5.5690    0.0000 N   0  0  0  0  0  0
    9.2716   -7.0109    0.0000 S   0  0  0  0  0  0
   10.7135   -6.5975    0.0000 O   0  0  0  0  0  0
    7.8297   -7.4244    0.0000 O   0  0  0  0  0  0
    9.6851   -8.4528    0.0000 N   0  0  0  0  0  0
    8.7616   -9.6348    0.0000 C   0  0  0  0  0  0
    9.6004  -10.8784    0.0000 C   0  0  0  0  0  0
   11.0423  -10.4649    0.0000 C   0  0  0  0  0  0
   11.0946   -8.9658    0.0000 C   0  0  0  0  0  0
   -0.7500   -2.3597    0.0000 C   0  0  0  0  0  0
   -1.0105   -3.8369    0.0000 C   0  0  0  0  0  0
   -2.1595   -1.8467    0.0000 C   0  0  0  0  0  0
   -0.0000   -1.0607    0.0000 C   0  0  0  0  0  0
    1.0607    0.0000    0.0000 C   0  0  0  0  0  0
    0.0000    1.0607    0.0000 C   0  0  0  0  0  0
   -1.0607    0.0000    0.0000 C   0  0  0  0  0  0
  1  2  1  0  0  0
  2  3  1  0  0  0
  2  4  1  0  0  0
  2  5  1  0  0  0
  5  6  1  0  0  0
  5 28  1  1  0  0
  6  7  1  0  0  0
  7  8  2  0  0  0
  7  9  1  0  0  0
  9 10  1  0  0  0
  9 22  1  6  0  0
 10 11  1  0  0  0
 11 12  2  0  0  0
 11 13  1  0  0  0
 13 14  2  0  0  0
 13 21  1  0  0  0
 14 15  1  0  0  0
 15 16  2  0  0  0
 16 17  1  0  0  0
 16 20  1  0  0  0
 17 18  1  0  0  0
 18 19  2  0  0  0
 19 20  1  0  0  0
 20 21  2  0  0  0
 22 23  1  0  0  0
 22 27  1  0  0  0
 23 24  1  0  0  0
 24 25  1  0  0  0
 25 26  1  0  0  0
 26 27  1  0  0  0
 28 29  2  0  0  0
 28 30  1  0  0  0
 30 31  1  0  0  0
 30 34  1  0  0  0
 31 32  1  0  0  0
 32 33  1  0  0  0
 32 54  1  0  0  0
 32 57  1  1  0  0
 33 34  1  0  0  0
 34 35  1  6  0  0
 35 36  2  0  0  0
 35 37  1  0  0  0
 37 38  1  0  0  0
 38 39  1  0  0  0
 38 43  1  0  0  0
 38 40  1  1  0  0
 39 40  1  0  0  0
 40 41  1  6  0  0
 41 42  2  0  0  0
 43 44  2  0  0  0
 43 45  1  0  0  0
 45 46  1  0  0  0
 46 47  2  0  0  0
 46 48  2  0  0  0
 46 49  1  0  0  0
 49 50  1  0  0  0
 49 53  1  0  0  0
 50 51  1  0  0  0
 51 52  1  0  0  0
 52 53  1  0  0  0
 54 55  1  0  0  0
 54 56  1  0  0  0
 54 57  1  0  0  0
 57 58  1  0  0  0
 57 60  1  0  0  0
 58 59  1  0  0  0
 59 60  1  0  0  0
M  END
> <s_m_entry_id>
6900

> <s_m_entry_name>
NS3-4A.441

> <CHEMBLID>
CHEMBL3645756

> <s_m_Source_Path>
/home/liwei/Desktop/Machine/HCV/Active

> <s_m_Source_File>
NS3-4A.sdf

> <i_m_Source_File_Index>
441

$$$$
CHEMBL3645757
                    3D
 Structure written by MMmdl.
 60 67  0  0  1  0            999 V2000
    1.3422   -8.7276    0.0000 C   0  0  0  0  0  0
    2.7125   -8.1175    0.0000 C   0  0  0  0  0  0
    4.0829   -7.5074    0.0000 C   0  0  0  0  0  0
    3.3227   -9.4878    0.0000 C   0  0  0  0  0  0
    2.1024   -6.7472    0.0000 C   0  0  2  0  0  0
    0.6107   -6.5904    0.0000 N   0  0  0  0  0  0
   -0.2710   -7.8039    0.0000 C   0  0  0  0  0  0
    0.3391   -9.1742    0.0000 O   0  0  0  0  0  0
   -1.7628   -7.6471    0.0000 C   0  0  1  0  0  0
   -2.3729   -6.2768    0.0000 N   0  0  0  0  0  0
   -3.8647   -6.1200    0.0000 C   0  0  0  0  0  0
   -4.7464   -7.3335    0.0000 O   0  0  0  0  0  0
   -4.4748   -4.7497    0.0000 C   0  0  0  0  0  0
   -3.7248   -3.4507    0.0000 O   0  0  0  0  0  0
   -4.7285   -2.3359    0.0000 C   0  0  0  0  0  0
   -4.5717   -0.8442    0.0000 C   0  0  0  0  0  0
   -5.7852    0.0375    0.0000 C   0  0  0  0  0  0
   -7.1555   -0.5726    0.0000 C   0  0  0  0  0  0
   -7.3123   -2.0644    0.0000 C   0  0  0  0  0  0
   -6.0988   -2.9461    0.0000 C   0  0  0  0  0  0
   -5.9420   -4.4378    0.0000 C   0  0  0  0  0  0
   -2.6445   -8.8607    0.0000 C   0  0  0  0  0  0
   -4.1363   -8.7039    0.0000 C   0  0  0  0  0  0
   -5.0179   -9.9174    0.0000 C   0  0  0  0  0  0
   -4.4078  -11.2877    0.0000 C   0  0  0  0  0  0
   -2.9161  -11.4445    0.0000 C   0  0  0  0  0  0
   -2.0344  -10.2310    0.0000 C   0  0  0  0  0  0
    2.9841   -5.5337    0.0000 C   0  0  0  0  0  0
    4.4759   -5.6905    0.0000 O   0  0  0  0  0  0
    2.3740   -4.1633    0.0000 N   0  0  0  0  0  0
    0.9068   -3.8515    0.0000 C   0  0  0  0  0  0
    0.7500   -2.3597    0.0000 C   0  0  1  0  0  0
    2.1203   -1.7496    0.0000 C   0  0  0  0  0  0
    3.1240   -2.8643    0.0000 C   0  0  1  0  0  0
    4.6158   -2.7075    0.0000 C   0  0  0  0  0  0
    5.2259   -1.3372    0.0000 O   0  0  0  0  0  0
    5.4975   -3.9210    0.0000 N   0  0  0  0  0  0
    6.9893   -3.7643    0.0000 C   0  0  1  0  0  0
    8.3374   -3.1067    0.0000 C   0  0  0  0  0  0
    7.0939   -2.2679    0.0000 C   0  0  1  0  0  0
    6.4363   -0.9197    0.0000 C   0  0  0  0  0  0
    7.2751    0.3238    0.0000 C   0  0  0  0  0  0
    7.4027   -5.2061    0.0000 C   0  0  0  0  0  0
    6.3607   -6.2852    0.0000 O   0  0  0  0  0  0
    8.8582   -5.5690    0.0000 N   0  0  0  0  0  0
    9.2716   -7.0109    0.0000 S   0  0  0  0  0  0
   10.7135   -6.5975    0.0000 O   0  0  0  0  0  0
    7.8297   -7.4244    0.0000 O   0  0  0  0  0  0
    9.6851   -8.4528    0.0000 N   0  0  0  0  0  0
    8.7616   -9.6348    0.0000 C   0  0  0  0  0  0
    9.6004  -10.8784    0.0000 C   0  0  0  0  0  0
   11.0423  -10.4649    0.0000 C   0  0  0  0  0  0
   11.0946   -8.9658    0.0000 C   0  0  0  0  0  0
   -0.7500   -2.3597    0.0000 C   0  0  0  0  0  0
   -1.0105   -3.8369    0.0000 C   0  0  0  0  0  0
   -2.1595   -1.8467    0.0000 C   0  0  0  0  0  0
   -0.0000   -1.0607    0.0000 C   0  0  0  0  0  0
    1.0607    0.0000    0.0000 C   0  0  0  0  0  0
    0.0000    1.0607    0.0000 C   0  0  0  0  0  0
   -1.0607    0.0000    0.0000 C   0  0  0  0  0  0
  1  2  1  0  0  0
  2  3  1  0  0  0
  2  4  1  0  0  0
  2  5  1  0  0  0
  5  6  1  0  0  0
  5 28  1  1  0  0
  6  7  1  0  0  0
  7  8  2  0  0  0
  7  9  1  0  0  0
  9 10  1  0  0  0
  9 22  1  6  0  0
 10 11  1  0  0  0
 11 12  2  0  0  0
 11 13  1  0  0  0
 13 14  1  0  0  0
 13 21  2  0  0  0
 14 15  1  0  0  0
 15 16  2  0  0  0
 15 20  1  0  0  0
 16 17  1  0  0  0
 17 18  2  0  0  0
 18 19  1  0  0  0
 19 20  2  0  0  0
 20 21  1  0  0  0
 22 23  1  0  0  0
 22 27  1  0  0  0
 23 24  1  0  0  0
 24 25  1  0  0  0
 25 26  1  0  0  0
 26 27  1  0  0  0
 28 29  2  0  0  0
 28 30  1  0  0  0
 30 31  1  0  0  0
 30 34  1  0  0  0
 31 32  1  0  0  0
 32 33  1  0  0  0
 32 54  1  0  0  0
 32 57  1  1  0  0
 33 34  1  0  0  0
 34 35  1  6  0  0
 35 36  2  0  0  0
 35 37  1  0  0  0
 37 38  1  0  0  0
 38 39  1  0  0  0
 38 43  1  0  0  0
 38 40  1  1  0  0
 39 40  1  0  0  0
 40 41  1  6  0  0
 41 42  2  0  0  0
 43 44  2  0  0  0
 43 45  1  0  0  0
 45 46  1  0  0  0
 46 47  2  0  0  0
 46 48  2  0  0  0
 46 49  1  0  0  0
 49 50  1  0  0  0
 49 53  1  0  0  0
 50 51  1  0  0  0
 51 52  1  0  0  0
 52 53  1  0  0  0
 54 55  1  0  0  0
 54 56  1  0  0  0
 54 57  1  0  0  0
 57 58  1  0  0  0
 57 60  1  0  0  0
 58 59  1  0  0  0
 59 60  1  0  0  0
M  END
> <s_m_entry_id>
6901

> <s_m_entry_name>
NS3-4A.442

> <CHEMBLID>
CHEMBL3645757

> <s_m_Source_Path>
/home/liwei/Desktop/Machine/HCV/Active

> <s_m_Source_File>
NS3-4A.sdf

> <i_m_Source_File_Index>
442

$$$$
CHEMBL3645758
                    3D
 Structure written by MMmdl.
 60 67  0  0  1  0            999 V2000
    1.3422   -8.7276    0.0000 C   0  0  0  0  0  0
    2.7125   -8.1175    0.0000 C   0  0  0  0  0  0
    4.0829   -7.5074    0.0000 C   0  0  0  0  0  0
    3.3227   -9.4878    0.0000 C   0  0  0  0  0  0
    2.1024   -6.7472    0.0000 C   0  0  2  0  0  0
    0.6107   -6.5904    0.0000 N   0  0  0  0  0  0
   -0.2710   -7.8039    0.0000 C   0  0  0  0  0  0
    0.3391   -9.1742    0.0000 O   0  0  0  0  0  0
   -1.7628   -7.6471    0.0000 C   0  0  1  0  0  0
   -2.3729   -6.2768    0.0000 N   0  0  0  0  0  0
   -3.8647   -6.1200    0.0000 C   0  0  0  0  0  0
   -4.7464   -7.3335    0.0000 O   0  0  0  0  0  0
   -4.4748   -4.7497    0.0000 C   0  0  0  0  0  0
   -3.5931   -3.5362    0.0000 C   0  0  0  0  0  0
   -4.2032   -2.1659    0.0000 C   0  0  0  0  0  0
   -5.6950   -2.0091    0.0000 C   0  0  0  0  0  0
   -6.5767   -0.7955    0.0000 O   0  0  0  0  0  0
   -8.0033   -1.2591    0.0000 C   0  0  0  0  0  0
   -8.0033   -2.7591    0.0000 C   0  0  0  0  0  0
   -6.5767   -3.2226    0.0000 C   0  0  0  0  0  0
   -5.9666   -4.5929    0.0000 C   0  0  0  0  0  0
   -2.6445   -8.8607    0.0000 C   0  0  0  0  0  0
   -4.1363   -8.7039    0.0000 C   0  0  0  0  0  0
   -5.0179   -9.9174    0.0000 C   0  0  0  0  0  0
   -4.4078  -11.2877    0.0000 C   0  0  0  0  0  0
   -2.9161  -11.4445    0.0000 C   0  0  0  0  0  0
   -2.0344  -10.2310    0.0000 C   0  0  0  0  0  0
    2.9841   -5.5337    0.0000 C   0  0  0  0  0  0
    4.4759   -5.6905    0.0000 O   0  0  0  0  0  0
    2.3740   -4.1633    0.0000 N   0  0  0  0  0  0
    0.9068   -3.8515    0.0000 C   0  0  0  0  0  0
    0.7500   -2.3597    0.0000 C   0  0  1  0  0  0
    2.1203   -1.7496    0.0000 C   0  0  0  0  0  0
    3.1240   -2.8643    0.0000 C   0  0  1  0  0  0
    4.6158   -2.7075    0.0000 C   0  0  0  0  0  0
    5.2259   -1.3372    0.0000 O   0  0  0  0  0  0
    5.4975   -3.9210    0.0000 N   0  0  0  0  0  0
    6.9893   -3.7643    0.0000 C   0  0  1  0  0  0
    8.3374   -3.1067    0.0000 C   0  0  0  0  0  0
    7.0939   -2.2679    0.0000 C   0  0  1  0  0  0
    6.4363   -0.9197    0.0000 C   0  0  0  0  0  0
    7.2751    0.3238    0.0000 C   0  0  0  0  0  0
    7.4027   -5.2061    0.0000 C   0  0  0  0  0  0
    6.3607   -6.2852    0.0000 O   0  0  0  0  0  0
    8.8582   -5.5690    0.0000 N   0  0  0  0  0  0
    9.2716   -7.0109    0.0000 S   0  0  0  0  0  0
   10.7135   -6.5975    0.0000 O   0  0  0  0  0  0
    7.8297   -7.4244    0.0000 O   0  0  0  0  0  0
    9.6851   -8.4528    0.0000 N   0  0  0  0  0  0
    8.7616   -9.6348    0.0000 C   0  0  0  0  0  0
    9.6004  -10.8784    0.0000 C   0  0  0  0  0  0
   11.0423  -10.4649    0.0000 C   0  0  0  0  0  0
   11.0946   -8.9658    0.0000 C   0  0  0  0  0  0
   -0.7500   -2.3597    0.0000 C   0  0  0  0  0  0
   -1.0105   -3.8369    0.0000 C   0  0  0  0  0  0
   -2.1595   -1.8467    0.0000 C   0  0  0  0  0  0
   -0.0000   -1.0607    0.0000 C   0  0  0  0  0  0
    1.0607    0.0000    0.0000 C   0  0  0  0  0  0
    0.0000    1.0607    0.0000 C   0  0  0  0  0  0
   -1.0607    0.0000    0.0000 C   0  0  0  0  0  0
  1  2  1  0  0  0
  2  3  1  0  0  0
  2  4  1  0  0  0
  2  5  1  0  0  0
  5  6  1  0  0  0
  5 28  1  1  0  0
  6  7  1  0  0  0
  7  8  2  0  0  0
  7  9  1  0  0  0
  9 10  1  0  0  0
  9 22  1  6  0  0
 10 11  1  0  0  0
 11 12  2  0  0  0
 11 13  1  0  0  0
 13 14  2  0  0  0
 13 21  1  0  0  0
 14 15  1  0  0  0
 15 16  2  0  0  0
 16 17  1  0  0  0
 16 20  1  0  0  0
 17 18  1  0  0  0
 18 19  2  0  0  0
 19 20  1  0  0  0
 20 21  2  0  0  0
 22 23  1  0  0  0
 22 27  1  0  0  0
 23 24  1  0  0  0
 24 25  1  0  0  0
 25 26  1  0  0  0
 26 27  1  0  0  0
 28 29  2  0  0  0
 28 30  1  0  0  0
 30 31  1  0  0  0
 30 34  1  0  0  0
 31 32  1  0  0  0
 32 33  1  0  0  0
 32 54  1  0  0  0
 32 57  1  1  0  0
 33 34  1  0  0  0
 34 35  1  6  0  0
 35 36  2  0  0  0
 35 37  1  0  0  0
 37 38  1  0  0  0
 38 39  1  0  0  0
 38 43  1  0  0  0
 38 40  1  1  0  0
 39 40  1  0  0  0
 40 41  1  6  0  0
 41 42  2  0  0  0
 43 44  2  0  0  0
 43 45  1  0  0  0
 45 46  1  0  0  0
 46 47  2  0  0  0
 46 48  2  0  0  0
 46 49  1  0  0  0
 49 50  1  0  0  0
 49 53  1  0  0  0
 50 51  1  0  0  0
 51 52  1  0  0  0
 52 53  1  0  0  0
 54 55  1  0  0  0
 54 56  1  0  0  0
 54 57  1  0  0  0
 57 58  1  0  0  0
 57 60  1  0  0  0
 58 59  1  0  0  0
 59 60  1  0  0  0
M  END
> <s_m_entry_id>
6902

> <s_m_entry_name>
NS3-4A.443

> <CHEMBLID>
CHEMBL3645758

> <s_m_Source_Path>
/home/liwei/Desktop/Machine/HCV/Active

> <s_m_Source_File>
NS3-4A.sdf

> <i_m_Source_File_Index>
443

$$$$
CHEMBL3645759
                    3D
 Structure written by MMmdl.
 60 66  0  0  1  0            999 V2000
   -4.2032   -2.1659    0.0000 C   0  0  0  0  0  0
   -3.5931   -3.5362    0.0000 O   0  0  0  0  0  0
   -4.4748   -4.7497    0.0000 C   0  0  2  0  0  0
   -3.8647   -6.1200    0.0000 C   0  0  0  0  0  0
   -4.7464   -7.3335    0.0000 O   0  0  0  0  0  0
   -2.3729   -6.2768    0.0000 N   0  0  0  0  0  0
   -1.7628   -7.6471    0.0000 C   0  0  1  0  0  0
   -2.6445   -8.8607    0.0000 C   0  0  0  0  0  0
   -4.1363   -8.7039    0.0000 C   0  0  0  0  0  0
   -5.0179   -9.9174    0.0000 C   0  0  0  0  0  0
   -4.4078  -11.2877    0.0000 C   0  0  0  0  0  0
   -2.9161  -11.4445    0.0000 C   0  0  0  0  0  0
   -2.0344  -10.2310    0.0000 C   0  0  0  0  0  0
   -0.2710   -7.8039    0.0000 C   0  0  0  0  0  0
    0.3391   -9.1742    0.0000 O   0  0  0  0  0  0
    0.6107   -6.5904    0.0000 N   0  0  0  0  0  0
    2.1024   -6.7472    0.0000 C   0  0  2  0  0  0
    2.9841   -5.5337    0.0000 C   0  0  0  0  0  0
    4.4759   -5.6905    0.0000 O   0  0  0  0  0  0
    2.3740   -4.1633    0.0000 N   0  0  0  0  0  0
    0.9068   -3.8515    0.0000 C   0  0  0  0  0  0
    0.7500   -2.3597    0.0000 C   0  0  1  0  0  0
    2.1203   -1.7496    0.0000 C   0  0  0  0  0  0
    3.1240   -2.8643    0.0000 C   0  0  1  0  0  0
    4.6158   -2.7075    0.0000 C   0  0  0  0  0  0
    5.2259   -1.3372    0.0000 O   0  0  0  0  0  0
    5.4975   -3.9210    0.0000 N   0  0  0  0  0  0
    6.9893   -3.7643    0.0000 C   0  0  1  0  0  0
    8.3374   -3.1067    0.0000 C   0  0  0  0  0  0
    7.0939   -2.2679    0.0000 C   0  0  1  0  0  0
    6.4363   -0.9197    0.0000 C   0  0  0  0  0  0
    7.2751    0.3238    0.0000 C   0  0  0  0  0  0
    7.4027   -5.2061    0.0000 C   0  0  0  0  0  0
    6.3607   -6.2852    0.0000 O   0  0  0  0  0  0
    8.8582   -5.5690    0.0000 N   0  0  0  0  0  0
    9.2716   -7.0109    0.0000 S   0  0  0  0  0  0
   10.7135   -6.5975    0.0000 O   0  0  0  0  0  0
    7.8297   -7.4244    0.0000 O   0  0  0  0  0  0
    9.6851   -8.4528    0.0000 N   0  0  0  0  0  0
    8.7616   -9.6348    0.0000 C   0  0  0  0  0  0
    9.6004  -10.8784    0.0000 C   0  0  0  0  0  0
   11.0423  -10.4649    0.0000 C   0  0  0  0  0  0
   11.0946   -8.9658    0.0000 C   0  0  0  0  0  0
   -0.7500   -2.3597    0.0000 C   0  0  0  0  0  0
   -1.0105   -3.8369    0.0000 C   0  0  0  0  0  0
   -2.1595   -1.8467    0.0000 C   0  0  0  0  0  0
   -0.0000   -1.0607    0.0000 C   0  0  0  0  0  0
    1.0607    0.0000    0.0000 C   0  0  0  0  0  0
    0.0000    1.0607    0.0000 C   0  0  0  0  0  0
   -1.0607    0.0000    0.0000 C   0  0  0  0  0  0
    2.7125   -8.1175    0.0000 C   0  0  0  0  0  0
    1.3422   -8.7276    0.0000 C   0  0  0  0  0  0
    4.0829   -7.5074    0.0000 C   0  0  0  0  0  0
    3.3227   -9.4878    0.0000 C   0  0  0  0  0  0
   -5.9666   -4.5929    0.0000 C   0  0  0  0  0  0
   -6.5767   -3.2226    0.0000 C   0  0  0  0  0  0
   -8.0685   -3.0658    0.0000 C   0  0  0  0  0  0
   -8.9501   -4.2793    0.0000 C   0  0  0  0  0  0
   -8.3400   -5.6496    0.0000 C   0  0  0  0  0  0
   -6.8483   -5.8064    0.0000 C   0  0  0  0  0  0
  1  2  1  0  0  0
  2  3  1  0  0  0
  3  4  1  0  0  0
  3 55  1  1  0  0
  4  5  2  0  0  0
  4  6  1  0  0  0
  6  7  1  0  0  0
  7  8  1  0  0  0
  7 14  1  6  0  0
  8  9  1  0  0  0
  8 13  1  0  0  0
  9 10  1  0  0  0
 10 11  1  0  0  0
 11 12  1  0  0  0
 12 13  1  0  0  0
 14 15  2  0  0  0
 14 16  1  0  0  0
 16 17  1  0  0  0
 17 18  1  0  0  0
 17 51  1  1  0  0
 18 19  2  0  0  0
 18 20  1  0  0  0
 20 21  1  0  0  0
 20 24  1  0  0  0
 21 22  1  0  0  0
 22 23  1  0  0  0
 22 44  1  0  0  0
 22 47  1  1  0  0
 23 24  1  0  0  0
 24 25  1  6  0  0
 25 26  2  0  0  0
 25 27  1  0  0  0
 27 28  1  0  0  0
 28 29  1  0  0  0
 28 33  1  0  0  0
 28 30  1  1  0  0
 29 30  1  0  0  0
 30 31  1  6  0  0
 31 32  2  0  0  0
 33 34  2  0  0  0
 33 35  1  0  0  0
 35 36  1  0  0  0
 36 37  2  0  0  0
 36 38  2  0  0  0
 36 39  1  0  0  0
 39 40  1  0  0  0
 39 43  1  0  0  0
 40 41  1  0  0  0
 41 42  1  0  0  0
 42 43  1  0  0  0
 44 45  1  0  0  0
 44 46  1  0  0  0
 44 47  1  0  0  0
 47 48  1  0  0  0
 47 50  1  0  0  0
 48 49  1  0  0  0
 49 50  1  0  0  0
 51 52  1  0  0  0
 51 53  1  0  0  0
 51 54  1  0  0  0
 55 56  2  0  0  0
 55 60  1  0  0  0
 56 57  1  0  0  0
 57 58  2  0  0  0
 58 59  1  0  0  0
 59 60  2  0  0  0
M  END
> <s_m_entry_id>
6903

> <s_m_entry_name>
NS3-4A.444

> <CHEMBLID>
CHEMBL3645759

> <s_m_Source_Path>
/home/liwei/Desktop/Machine/HCV/Active

> <s_m_Source_File>
NS3-4A.sdf

> <i_m_Source_File_Index>
444

$$$$
CHEMBL3645760
                    3D
 Structure written by MMmdl.
 60 66  0  0  1  0            999 V2000
   -5.4234    0.5748    0.0000 C   0  0  0  0  0  0
   -6.3051   -0.6387    0.0000 C   0  0  0  0  0  0
   -7.7969   -0.4820    0.0000 O   0  0  0  0  0  0
   -5.6950   -2.0091    0.0000 N   0  0  0  0  0  0
   -4.2032   -2.1659    0.0000 C   0  0  0  0  0  0
   -3.5931   -3.5362    0.0000 C   0  0  0  0  0  0
   -4.4748   -4.7497    0.0000 C   0  0  0  0  0  0
   -5.9666   -4.5929    0.0000 C   0  0  0  0  0  0
   -6.5767   -3.2226    0.0000 C   0  0  0  0  0  0
   -3.8647   -6.1200    0.0000 C   0  0  0  0  0  0
   -4.7464   -7.3335    0.0000 O   0  0  0  0  0  0
   -2.3729   -6.2768    0.0000 N   0  0  0  0  0  0
   -1.7628   -7.6471    0.0000 C   0  0  1  0  0  0
   -2.6445   -8.8607    0.0000 C   0  0  0  0  0  0
   -4.1363   -8.7039    0.0000 C   0  0  0  0  0  0
   -5.0179   -9.9174    0.0000 C   0  0  0  0  0  0
   -4.4078  -11.2877    0.0000 C   0  0  0  0  0  0
   -2.9161  -11.4445    0.0000 C   0  0  0  0  0  0
   -2.0344  -10.2310    0.0000 C   0  0  0  0  0  0
   -0.2710   -7.8039    0.0000 C   0  0  0  0  0  0
    0.3391   -9.1742    0.0000 O   0  0  0  0  0  0
    0.6107   -6.5904    0.0000 N   0  0  0  0  0  0
    2.1024   -6.7472    0.0000 C   0  0  2  0  0  0
    2.9841   -5.5337    0.0000 C   0  0  0  0  0  0
    4.4759   -5.6905    0.0000 O   0  0  0  0  0  0
    2.3740   -4.1633    0.0000 N   0  0  0  0  0  0
    0.9068   -3.8515    0.0000 C   0  0  0  0  0  0
    0.7500   -2.3597    0.0000 C   0  0  1  0  0  0
    2.1203   -1.7496    0.0000 C   0  0  0  0  0  0
    3.1240   -2.8643    0.0000 C   0  0  1  0  0  0
    4.6158   -2.7075    0.0000 C   0  0  0  0  0  0
    5.2259   -1.3372    0.0000 O   0  0  0  0  0  0
    5.4975   -3.9210    0.0000 N   0  0  0  0  0  0
    6.9893   -3.7643    0.0000 C   0  0  1  0  0  0
    8.3374   -3.1067    0.0000 C   0  0  0  0  0  0
    7.0939   -2.2679    0.0000 C   0  0  1  0  0  0
    6.4363   -0.9197    0.0000 C   0  0  0  0  0  0
    7.2751    0.3238    0.0000 C   0  0  0  0  0  0
    7.4027   -5.2061    0.0000 C   0  0  0  0  0  0
    6.3607   -6.2852    0.0000 O   0  0  0  0  0  0
    8.8582   -5.5690    0.0000 N   0  0  0  0  0  0
    9.2716   -7.0109    0.0000 S   0  0  0  0  0  0
   10.7135   -6.5975    0.0000 O   0  0  0  0  0  0
    7.8297   -7.4244    0.0000 O   0  0  0  0  0  0
    9.6851   -8.4528    0.0000 N   0  0  0  0  0  0
    8.7616   -9.6348    0.0000 C   0  0  0  0  0  0
    9.6004  -10.8784    0.0000 C   0  0  0  0  0  0
   11.0423  -10.4649    0.0000 C   0  0  0  0  0  0
   11.0946   -8.9658    0.0000 C   0  0  0  0  0  0
   -0.7500   -2.3597    0.0000 C   0  0  0  0  0  0
   -1.0105   -3.8369    0.0000 C   0  0  0  0  0  0
   -2.1595   -1.8467    0.0000 C   0  0  0  0  0  0
   -0.0000   -1.0607    0.0000 C   0  0  0  0  0  0
    1.0607    0.0000    0.0000 C   0  0  0  0  0  0
    0.0000    1.0607    0.0000 C   0  0  0  0  0  0
   -1.0607    0.0000    0.0000 C   0  0  0  0  0  0
    2.7125   -8.1175    0.0000 C   0  0  0  0  0  0
    1.3422   -8.7276    0.0000 C   0  0  0  0  0  0
    4.0829   -7.5074    0.0000 C   0  0  0  0  0  0
    3.3227   -9.4878    0.0000 C   0  0  0  0  0  0
  1  2  1  0  0  0
  2  3  2  0  0  0
  2  4  1  0  0  0
  4  5  1  0  0  0
  4  9  1  0  0  0
  5  6  1  0  0  0
  6  7  1  0  0  0
  7  8  1  0  0  0
  7 10  1  0  0  0
  8  9  1  0  0  0
 10 11  2  0  0  0
 10 12  1  0  0  0
 12 13  1  0  0  0
 13 14  1  0  0  0
 13 20  1  6  0  0
 14 15  1  0  0  0
 14 19  1  0  0  0
 15 16  1  0  0  0
 16 17  1  0  0  0
 17 18  1  0  0  0
 18 19  1  0  0  0
 20 21  2  0  0  0
 20 22  1  0  0  0
 22 23  1  0  0  0
 23 24  1  0  0  0
 23 57  1  1  0  0
 24 25  2  0  0  0
 24 26  1  0  0  0
 26 27  1  0  0  0
 26 30  1  0  0  0
 27 28  1  0  0  0
 28 29  1  0  0  0
 28 50  1  0  0  0
 28 53  1  1  0  0
 29 30  1  0  0  0
 30 31  1  6  0  0
 31 32  2  0  0  0
 31 33  1  0  0  0
 33 34  1  0  0  0
 34 35  1  0  0  0
 34 39  1  0  0  0
 34 36  1  1  0  0
 35 36  1  0  0  0
 36 37  1  6  0  0
 37 38  2  0  0  0
 39 40  2  0  0  0
 39 41  1  0  0  0
 41 42  1  0  0  0
 42 43  2  0  0  0
 42 44  2  0  0  0
 42 45  1  0  0  0
 45 46  1  0  0  0
 45 49  1  0  0  0
 46 47  1  0  0  0
 47 48  1  0  0  0
 48 49  1  0  0  0
 50 51  1  0  0  0
 50 52  1  0  0  0
 50 53  1  0  0  0
 53 54  1  0  0  0
 53 56  1  0  0  0
 54 55  1  0  0  0
 55 56  1  0  0  0
 57 58  1  0  0  0
 57 59  1  0  0  0
 57 60  1  0  0  0
M  END
> <s_m_entry_id>
6904

> <s_m_entry_name>
NS3-4A.445

> <CHEMBLID>
CHEMBL3645760

> <s_m_Source_Path>
/home/liwei/Desktop/Machine/HCV/Active

> <s_m_Source_File>
NS3-4A.sdf

> <i_m_Source_File_Index>
445

$$$$
CHEMBL3645761
                    3D
 Structure written by MMmdl.
 61 68  0  0  1  0            999 V2000
   -6.5490    2.0490    0.0000 C   0  0  0  0  0  0
   -5.2500    1.2990    0.0000 C   0  0  0  0  0  0
   -3.9510    0.5490    0.0000 C   0  0  0  0  0  0
   -4.5000    2.5981    0.0000 C   0  0  0  0  0  0
   -6.0000    0.0000    0.0000 C   0  0  2  0  0  0
   -5.2500   -1.2990    0.0000 N   0  0  0  0  0  0
   -3.7500   -1.2990    0.0000 C   0  0  0  0  0  0
   -3.0000    0.0000    0.0000 O   0  0  0  0  0  0
   -3.0000   -2.5981    0.0000 C   0  0  1  0  0  0
   -1.5000   -2.5981    0.0000 N   0  0  0  0  0  0
   -0.7500   -1.2990    0.0000 C   0  0  0  0  0  0
   -1.5000    0.0000    0.0000 O   0  0  0  0  0  0
    0.7500   -1.2990    0.0000 C   0  0  0  0  0  0
    1.5000   -2.5981    0.0000 N   0  0  0  0  0  0
    3.0000   -2.5981    0.0000 C   0  0  0  0  0  0
    3.7500   -1.2990    0.0000 C   0  0  0  0  0  0
    3.0000    0.0000    0.0000 C   0  0  0  0  0  0
    3.7500    1.2990    0.0000 C   0  0  0  0  0  0
    3.0000    2.5981    0.0000 C   0  0  0  0  0  0
    1.5000    2.5981    0.0000 C   0  0  0  0  0  0
    0.7500    1.2990    0.0000 C   0  0  0  0  0  0
    1.5000    0.0000    0.0000 C   0  0  0  0  0  0
   -3.7500   -3.8971    0.0000 C   0  0  0  0  0  0
   -5.2500   -3.8971    0.0000 C   0  0  0  0  0  0
   -6.0000   -5.1962    0.0000 C   0  0  0  0  0  0
   -5.2500   -6.4952    0.0000 C   0  0  0  0  0  0
   -3.7500   -6.4952    0.0000 C   0  0  0  0  0  0
   -3.0000   -5.1962    0.0000 C   0  0  0  0  0  0
   -7.5000    0.0000    0.0000 C   0  0  0  0  0  0
   -8.2500   -1.2990    0.0000 O   0  0  0  0  0  0
   -8.2500    1.2990    0.0000 N   0  0  0  0  0  0
   -7.6399    2.6694    0.0000 C   0  0  0  0  0  0
   -8.7546    3.6731    0.0000 C   0  0  1  0  0  0
  -10.0537    2.9231    0.0000 C   0  0  0  0  0  0
   -9.7418    1.4558    0.0000 C   0  0  1  0  0  0
  -10.7455    0.3411    0.0000 C   0  0  0  0  0  0
  -12.2127    0.6530    0.0000 O   0  0  0  0  0  0
  -10.2820   -1.0855    0.0000 N   0  0  0  0  0  0
  -11.2856   -2.2002    0.0000 C   0  0  1  0  0  0
  -12.6101   -2.9044    0.0000 C   0  0  0  0  0  0
  -12.5577   -1.4053    0.0000 C   0  0  1  0  0  0
  -13.2619   -0.0809    0.0000 C   0  0  0  0  0  0
  -14.7610   -0.0285    0.0000 C   0  0  0  0  0  0
  -10.3622   -3.3822    0.0000 C   0  0  0  0  0  0
   -8.8768   -3.1734    0.0000 O   0  0  0  0  0  0
  -10.9241   -4.7730    0.0000 N   0  0  0  0  0  0
  -10.0006   -5.9550    0.0000 S   0  0  0  0  0  0
  -11.1826   -6.8785    0.0000 O   0  0  0  0  0  0
   -8.8186   -5.0315    0.0000 O   0  0  0  0  0  0
   -9.0771   -7.1370    0.0000 N   0  0  0  0  0  0
   -7.5780   -7.0847    0.0000 C   0  0  0  0  0  0
   -7.0650   -8.4942    0.0000 C   0  0  0  0  0  0
   -8.2470   -9.4177    0.0000 C   0  0  0  0  0  0
   -9.4905   -8.5789    0.0000 C   0  0  0  0  0  0
   -7.8729    4.8866    0.0000 C   0  0  0  0  0  0
   -6.5247    4.2290    0.0000 C   0  0  0  0  0  0
   -7.4595    6.3285    0.0000 C   0  0  0  0  0  0
   -9.3647    5.0434    0.0000 C   0  0  0  0  0  0
  -10.8462    4.8087    0.0000 C   0  0  0  0  0  0
  -11.0809    6.2903    0.0000 C   0  0  0  0  0  0
   -9.5994    6.5249    0.0000 C   0  0  0  0  0  0
  1  2  1  0  0  0
  2  3  1  0  0  0
  2  4  1  0  0  0
  2  5  1  0  0  0
  5  6  1  0  0  0
  5 29  1  1  0  0
  6  7  1  0  0  0
  7  8  2  0  0  0
  7  9  1  0  0  0
  9 10  1  0  0  0
  9 23  1  6  0  0
 10 11  1  0  0  0
 11 12  2  0  0  0
 11 13  1  0  0  0
 13 14  2  0  0  0
 13 22  1  0  0  0
 14 15  1  0  0  0
 15 16  2  0  0  0
 16 17  1  0  0  0
 17 18  2  0  0  0
 17 22  1  0  0  0
 18 19  1  0  0  0
 19 20  2  0  0  0
 20 21  1  0  0  0
 21 22  2  0  0  0
 23 24  1  0  0  0
 23 28  1  0  0  0
 24 25  1  0  0  0
 25 26  1  0  0  0
 26 27  1  0  0  0
 27 28  1  0  0  0
 29 30  2  0  0  0
 29 31  1  0  0  0
 31 32  1  0  0  0
 31 35  1  0  0  0
 32 33  1  0  0  0
 33 34  1  0  0  0
 33 55  1  0  0  0
 33 58  1  1  0  0
 34 35  1  0  0  0
 35 36  1  6  0  0
 36 37  2  0  0  0
 36 38  1  0  0  0
 38 39  1  0  0  0
 39 40  1  0  0  0
 39 44  1  0  0  0
 39 41  1  1  0  0
 40 41  1  0  0  0
 41 42  1  6  0  0
 42 43  2  0  0  0
 44 45  2  0  0  0
 44 46  1  0  0  0
 46 47  1  0  0  0
 47 48  2  0  0  0
 47 49  2  0  0  0
 47 50  1  0  0  0
 50 51  1  0  0  0
 50 54  1  0  0  0
 51 52  1  0  0  0
 52 53  1  0  0  0
 53 54  1  0  0  0
 55 56  1  0  0  0
 55 57  1  0  0  0
 55 58  1  0  0  0
 58 59  1  0  0  0
 58 61  1  0  0  0
 59 60  1  0  0  0
 60 61  1  0  0  0
M  END
> <s_m_entry_id>
6905

> <s_m_entry_name>
NS3-4A.446

> <CHEMBLID>
CHEMBL3645761

> <s_m_Source_Path>
/home/liwei/Desktop/Machine/HCV/Active

> <s_m_Source_File>
NS3-4A.sdf

> <i_m_Source_File_Index>
446

$$$$
CHEMBL3645762
                    3D
 Structure written by MMmdl.
 61 68  0  0  1  0            999 V2000
    0.7500  -10.5933    0.0000 C   0  0  0  0  0  0
    0.7500   -9.0933    0.0000 C   0  0  0  0  0  0
    0.7500   -7.5933    0.0000 C   0  0  0  0  0  0
    2.2500   -9.0933    0.0000 C   0  0  0  0  0  0
   -0.7500   -9.0933    0.0000 C   0  0  2  0  0  0
   -1.5000   -7.7942    0.0000 N   0  0  0  0  0  0
   -0.7500   -6.4952    0.0000 C   0  0  0  0  0  0
    0.7500   -6.4952    0.0000 O   0  0  0  0  0  0
   -1.5000   -5.1962    0.0000 C   0  0  1  0  0  0
   -0.7500   -3.8971    0.0000 N   0  0  0  0  0  0
    0.7500   -3.8971    0.0000 C   0  0  0  0  0  0
    1.5000   -5.1962    0.0000 O   0  0  0  0  0  0
    1.5000   -2.5981    0.0000 C   0  0  0  0  0  0
    3.0000   -2.5981    0.0000 C   0  0  0  0  0  0
    3.7500   -1.2990    0.0000 N   0  0  0  0  0  0
    3.0000    0.0000    0.0000 C   0  0  0  0  0  0
    3.7500    1.2990    0.0000 C   0  0  0  0  0  0
    3.0000    2.5981    0.0000 C   0  0  0  0  0  0
    1.5000    2.5981    0.0000 C   0  0  0  0  0  0
    0.7500    1.2990    0.0000 C   0  0  0  0  0  0
    1.5000    0.0000    0.0000 C   0  0  0  0  0  0
    0.7500   -1.2990    0.0000 C   0  0  0  0  0  0
   -3.0000   -5.1962    0.0000 C   0  0  0  0  0  0
   -3.7500   -3.8971    0.0000 C   0  0  0  0  0  0
   -5.2500   -3.8971    0.0000 C   0  0  0  0  0  0
   -6.0000   -5.1962    0.0000 C   0  0  0  0  0  0
   -5.2500   -6.4952    0.0000 C   0  0  0  0  0  0
   -3.7500   -6.4952    0.0000 C   0  0  0  0  0  0
   -1.5000  -10.3923    0.0000 C   0  0  0  0  0  0
   -3.0000  -10.3923    0.0000 O   0  0  0  0  0  0
   -0.7500  -11.6913    0.0000 N   0  0  0  0  0  0
    0.7418  -11.8481    0.0000 C   0  0  0  0  0  0
    1.0537  -13.3154    0.0000 C   0  0  1  0  0  0
   -0.2454  -14.0654    0.0000 C   0  0  0  0  0  0
   -1.3601  -13.0617    0.0000 C   0  0  1  0  0  0
   -2.8273  -13.3735    0.0000 C   0  0  0  0  0  0
   -3.2909  -14.8001    0.0000 O   0  0  0  0  0  0
   -3.8310  -12.2588    0.0000 N   0  0  0  0  0  0
   -5.2982  -12.5707    0.0000 C   0  0  1  0  0  0
   -6.5703  -13.3656    0.0000 C   0  0  0  0  0  0
   -5.2459  -14.0698    0.0000 C   0  0  1  0  0  0
   -4.4510  -15.3418    0.0000 C   0  0  0  0  0  0
   -5.1552  -16.6663    0.0000 C   0  0  0  0  0  0
   -5.8602  -11.1799    0.0000 C   0  0  0  0  0  0
   -4.9367   -9.9979    0.0000 O   0  0  0  0  0  0
   -7.3456  -10.9711    0.0000 N   0  0  0  0  0  0
   -7.9075   -9.5804    0.0000 S   0  0  0  0  0  0
   -9.2982  -10.1423    0.0000 O   0  0  0  0  0  0
   -6.5167   -9.0185    0.0000 O   0  0  0  0  0  0
   -8.4694   -8.1896    0.0000 N   0  0  0  0  0  0
   -9.9248   -7.8267    0.0000 C   0  0  0  0  0  0
  -10.0295   -6.3304    0.0000 C   0  0  0  0  0  0
   -8.6387   -5.7685    0.0000 C   0  0  0  0  0  0
   -7.6745   -6.9175    0.0000 C   0  0  0  0  0  0
    2.5454  -13.1586    0.0000 C   0  0  0  0  0  0
    2.6501  -11.6622    0.0000 C   0  0  0  0  0  0
    4.0009  -13.5214    0.0000 C   0  0  0  0  0  0
    1.9353  -14.5289    0.0000 C   0  0  0  0  0  0
    0.9913  -15.6946    0.0000 C   0  0  0  0  0  0
    2.1571  -16.6386    0.0000 C   0  0  0  0  0  0
    3.1010  -15.4729    0.0000 C   0  0  0  0  0  0
  1  2  1  0  0  0
  2  3  1  0  0  0
  2  4  1  0  0  0
  2  5  1  0  0  0
  5  6  1  0  0  0
  5 29  1  1  0  0
  6  7  1  0  0  0
  7  8  2  0  0  0
  7  9  1  0  0  0
  9 10  1  0  0  0
  9 23  1  6  0  0
 10 11  1  0  0  0
 11 12  2  0  0  0
 11 13  1  0  0  0
 13 14  2  0  0  0
 13 22  1  0  0  0
 14 15  1  0  0  0
 15 16  2  0  0  0
 16 17  1  0  0  0
 16 21  1  0  0  0
 17 18  2  0  0  0
 18 19  1  0  0  0
 19 20  2  0  0  0
 20 21  1  0  0  0
 21 22  2  0  0  0
 23 24  1  0  0  0
 23 28  1  0  0  0
 24 25  1  0  0  0
 25 26  1  0  0  0
 26 27  1  0  0  0
 27 28  1  0  0  0
 29 30  2  0  0  0
 29 31  1  0  0  0
 31 32  1  0  0  0
 31 35  1  0  0  0
 32 33  1  0  0  0
 33 34  1  0  0  0
 33 55  1  0  0  0
 33 58  1  1  0  0
 34 35  1  0  0  0
 35 36  1  6  0  0
 36 37  2  0  0  0
 36 38  1  0  0  0
 38 39  1  0  0  0
 39 40  1  0  0  0
 39 44  1  0  0  0
 39 41  1  1  0  0
 40 41  1  0  0  0
 41 42  1  6  0  0
 42 43  2  0  0  0
 44 45  2  0  0  0
 44 46  1  0  0  0
 46 47  1  0  0  0
 47 48  2  0  0  0
 47 49  2  0  0  0
 47 50  1  0  0  0
 50 51  1  0  0  0
 50 54  1  0  0  0
 51 52  1  0  0  0
 52 53  1  0  0  0
 53 54  1  0  0  0
 55 56  1  0  0  0
 55 57  1  0  0  0
 55 58  1  0  0  0
 58 59  1  0  0  0
 58 61  1  0  0  0
 59 60  1  0  0  0
 60 61  1  0  0  0
M  END
> <s_m_entry_id>
6906

> <s_m_entry_name>
NS3-4A.447

> <CHEMBLID>
CHEMBL3645762

> <s_m_Source_Path>
/home/liwei/Desktop/Machine/HCV/Active

> <s_m_Source_File>
NS3-4A.sdf

> <i_m_Source_File_Index>
447

$$$$
CHEMBL3645763
                    3D
 Structure written by MMmdl.
 61 68  0  0  1  0            999 V2000
   -6.5490    2.0490    0.0000 C   0  0  0  0  0  0
   -5.2500    1.2990    0.0000 C   0  0  0  0  0  0
   -3.9510    0.5490    0.0000 C   0  0  0  0  0  0
   -4.5000    2.5981    0.0000 C   0  0  0  0  0  0
   -6.0000    0.0000    0.0000 C   0  0  2  0  0  0
   -5.2500   -1.2990    0.0000 N   0  0  0  0  0  0
   -3.7500   -1.2990    0.0000 C   0  0  0  0  0  0
   -3.0000    0.0000    0.0000 O   0  0  0  0  0  0
   -3.0000   -2.5981    0.0000 C   0  0  1  0  0  0
   -1.5000   -2.5981    0.0000 N   0  0  0  0  0  0
   -0.7500   -1.2990    0.0000 C   0  0  0  0  0  0
   -1.5000    0.0000    0.0000 O   0  0  0  0  0  0
    0.7500   -1.2990    0.0000 C   0  0  0  0  0  0
    1.5000   -2.5981    0.0000 C   0  0  0  0  0  0
    3.0000   -2.5981    0.0000 C   0  0  0  0  0  0
    3.7500   -1.2990    0.0000 N   0  0  0  0  0  0
    3.0000    0.0000    0.0000 C   0  0  0  0  0  0
    3.7500    1.2990    0.0000 C   0  0  0  0  0  0
    3.0000    2.5981    0.0000 C   0  0  0  0  0  0
    1.5000    2.5981    0.0000 C   0  0  0  0  0  0
    0.7500    1.2990    0.0000 C   0  0  0  0  0  0
    1.5000    0.0000    0.0000 C   0  0  0  0  0  0
   -3.7500   -3.8971    0.0000 C   0  0  0  0  0  0
   -5.2500   -3.8971    0.0000 C   0  0  0  0  0  0
   -6.0000   -5.1962    0.0000 C   0  0  0  0  0  0
   -5.2500   -6.4952    0.0000 C   0  0  0  0  0  0
   -3.7500   -6.4952    0.0000 C   0  0  0  0  0  0
   -3.0000   -5.1962    0.0000 C   0  0  0  0  0  0
   -7.5000    0.0000    0.0000 C   0  0  0  0  0  0
   -8.2500   -1.2990    0.0000 O   0  0  0  0  0  0
   -8.2500    1.2990    0.0000 N   0  0  0  0  0  0
   -7.6399    2.6694    0.0000 C   0  0  0  0  0  0
   -8.7546    3.6731    0.0000 C   0  0  1  0  0  0
  -10.0537    2.9231    0.0000 C   0  0  0  0  0  0
   -9.7418    1.4558    0.0000 C   0  0  1  0  0  0
  -10.7455    0.3411    0.0000 C   0  0  0  0  0  0
  -12.2127    0.6530    0.0000 O   0  0  0  0  0  0
  -10.2820   -1.0855    0.0000 N   0  0  0  0  0  0
  -11.2856   -2.2002    0.0000 C   0  0  1  0  0  0
  -12.6101   -2.9044    0.0000 C   0  0  0  0  0  0
  -12.5577   -1.4053    0.0000 C   0  0  1  0  0  0
  -13.2619   -0.0809    0.0000 C   0  0  0  0  0  0
  -14.7610   -0.0285    0.0000 C   0  0  0  0  0  0
  -10.3622   -3.3822    0.0000 C   0  0  0  0  0  0
   -8.8768   -3.1734    0.0000 O   0  0  0  0  0  0
  -10.9241   -4.7730    0.0000 N   0  0  0  0  0  0
  -10.0006   -5.9550    0.0000 S   0  0  0  0  0  0
  -11.1826   -6.8785    0.0000 O   0  0  0  0  0  0
   -8.8186   -5.0315    0.0000 O   0  0  0  0  0  0
   -9.0771   -7.1370    0.0000 N   0  0  0  0  0  0
   -7.5780   -7.0847    0.0000 C   0  0  0  0  0  0
   -7.0650   -8.4942    0.0000 C   0  0  0  0  0  0
   -8.2470   -9.4177    0.0000 C   0  0  0  0  0  0
   -9.4905   -8.5789    0.0000 C   0  0  0  0  0  0
   -7.8729    4.8866    0.0000 C   0  0  0  0  0  0
   -6.5247    4.2290    0.0000 C   0  0  0  0  0  0
   -7.4595    6.3285    0.0000 C   0  0  0  0  0  0
   -9.3647    5.0434    0.0000 C   0  0  0  0  0  0
  -10.8462    4.8087    0.0000 C   0  0  0  0  0  0
  -11.0809    6.2903    0.0000 C   0  0  0  0  0  0
   -9.5994    6.5249    0.0000 C   0  0  0  0  0  0
  1  2  1  0  0  0
  2  3  1  0  0  0
  2  4  1  0  0  0
  2  5  1  0  0  0
  5  6  1  0  0  0
  5 29  1  1  0  0
  6  7  1  0  0  0
  7  8  2  0  0  0
  7  9  1  0  0  0
  9 10  1  0  0  0
  9 23  1  6  0  0
 10 11  1  0  0  0
 11 12  2  0  0  0
 11 13  1  0  0  0
 13 14  2  0  0  0
 13 22  1  0  0  0
 14 15  1  0  0  0
 15 16  2  0  0  0
 16 17  1  0  0  0
 17 18  2  0  0  0
 17 22  1  0  0  0
 18 19  1  0  0  0
 19 20  2  0  0  0
 20 21  1  0  0  0
 21 22  2  0  0  0
 23 24  1  0  0  0
 23 28  1  0  0  0
 24 25  1  0  0  0
 25 26  1  0  0  0
 26 27  1  0  0  0
 27 28  1  0  0  0
 29 30  2  0  0  0
 29 31  1  0  0  0
 31 32  1  0  0  0
 31 35  1  0  0  0
 32 33  1  0  0  0
 33 34  1  0  0  0
 33 55  1  0  0  0
 33 58  1  1  0  0
 34 35  1  0  0  0
 35 36  1  6  0  0
 36 37  2  0  0  0
 36 38  1  0  0  0
 38 39  1  0  0  0
 39 40  1  0  0  0
 39 44  1  0  0  0
 39 41  1  1  0  0
 40 41  1  0  0  0
 41 42  1  6  0  0
 42 43  2  0  0  0
 44 45  2  0  0  0
 44 46  1  0  0  0
 46 47  1  0  0  0
 47 48  2  0  0  0
 47 49  2  0  0  0
 47 50  1  0  0  0
 50 51  1  0  0  0
 50 54  1  0  0  0
 51 52  1  0  0  0
 52 53  1  0  0  0
 53 54  1  0  0  0
 55 56  1  0  0  0
 55 57  1  0  0  0
 55 58  1  0  0  0
 58 59  1  0  0  0
 58 61  1  0  0  0
 59 60  1  0  0  0
 60 61  1  0  0  0
M  END
> <s_m_entry_id>
6907

> <s_m_entry_name>
NS3-4A.448

> <CHEMBLID>
CHEMBL3645763

> <s_m_Source_Path>
/home/liwei/Desktop/Machine/HCV/Active

> <s_m_Source_File>
NS3-4A.sdf

> <i_m_Source_File_Index>
448

$$$$
CHEMBL3645764
                    3D
 Structure written by MMmdl.
 61 68  0  0  1  0            999 V2000
   -6.1132    0.6310    0.0000 C   0  0  0  0  0  0
   -6.5767   -0.7955    0.0000 N   0  0  0  0  0  0
   -8.0033   -1.2591    0.0000 C   0  0  0  0  0  0
   -8.0033   -2.7591    0.0000 C   0  0  0  0  0  0
   -6.5767   -3.2226    0.0000 C   0  0  0  0  0  0
   -5.9666   -4.5929    0.0000 C   0  0  0  0  0  0
   -4.4748   -4.7497    0.0000 C   0  0  0  0  0  0
   -3.5931   -3.5362    0.0000 C   0  0  0  0  0  0
   -4.2032   -2.1659    0.0000 C   0  0  0  0  0  0
   -5.6950   -2.0091    0.0000 C   0  0  0  0  0  0
   -3.8647   -6.1200    0.0000 C   0  0  0  0  0  0
   -4.7464   -7.3335    0.0000 O   0  0  0  0  0  0
   -2.3729   -6.2768    0.0000 N   0  0  0  0  0  0
   -1.7628   -7.6471    0.0000 C   0  0  1  0  0  0
   -2.6445   -8.8607    0.0000 C   0  0  0  0  0  0
   -4.1363   -8.7039    0.0000 C   0  0  0  0  0  0
   -5.0179   -9.9174    0.0000 C   0  0  0  0  0  0
   -4.4078  -11.2877    0.0000 C   0  0  0  0  0  0
   -2.9161  -11.4445    0.0000 C   0  0  0  0  0  0
   -2.0344  -10.2310    0.0000 C   0  0  0  0  0  0
   -0.2710   -7.8039    0.0000 C   0  0  0  0  0  0
    0.3391   -9.1742    0.0000 O   0  0  0  0  0  0
    0.6107   -6.5904    0.0000 N   0  0  0  0  0  0
    2.1024   -6.7472    0.0000 C   0  0  2  0  0  0
    2.9841   -5.5337    0.0000 C   0  0  0  0  0  0
    4.4759   -5.6905    0.0000 O   0  0  0  0  0  0
    2.3740   -4.1633    0.0000 N   0  0  0  0  0  0
    0.9068   -3.8515    0.0000 C   0  0  0  0  0  0
    0.7500   -2.3597    0.0000 C   0  0  1  0  0  0
    2.1203   -1.7496    0.0000 C   0  0  0  0  0  0
    3.1240   -2.8643    0.0000 C   0  0  1  0  0  0
    4.6158   -2.7075    0.0000 C   0  0  0  0  0  0
    5.2259   -1.3372    0.0000 O   0  0  0  0  0  0
    5.4975   -3.9210    0.0000 N   0  0  0  0  0  0
    6.9893   -3.7643    0.0000 C   0  0  1  0  0  0
    8.3374   -3.1067    0.0000 C   0  0  0  0  0  0
    7.0939   -2.2679    0.0000 C   0  0  1  0  0  0
    6.4363   -0.9197    0.0000 C   0  0  0  0  0  0
    7.2751    0.3238    0.0000 C   0  0  0  0  0  0
    7.4027   -5.2061    0.0000 C   0  0  0  0  0  0
    6.3607   -6.2852    0.0000 O   0  0  0  0  0  0
    8.8582   -5.5690    0.0000 N   0  0  0  0  0  0
    9.2716   -7.0109    0.0000 S   0  0  0  0  0  0
   10.7135   -6.5975    0.0000 O   0  0  0  0  0  0
    7.8297   -7.4244    0.0000 O   0  0  0  0  0  0
    9.6851   -8.4528    0.0000 N   0  0  0  0  0  0
    8.7616   -9.6348    0.0000 C   0  0  0  0  0  0
    9.6004  -10.8784    0.0000 C   0  0  0  0  0  0
   11.0423  -10.4649    0.0000 C   0  0  0  0  0  0
   11.0946   -8.9658    0.0000 C   0  0  0  0  0  0
   -0.7500   -2.3597    0.0000 C   0  0  0  0  0  0
   -1.0105   -3.8369    0.0000 C   0  0  0  0  0  0
   -2.1595   -1.8467    0.0000 C   0  0  0  0  0  0
   -0.0000   -1.0607    0.0000 C   0  0  0  0  0  0
    1.0607    0.0000    0.0000 C   0  0  0  0  0  0
    0.0000    1.0607    0.0000 C   0  0  0  0  0  0
   -1.0607    0.0000    0.0000 C   0  0  0  0  0  0
    2.7125   -8.1175    0.0000 C   0  0  0  0  0  0
    1.3422   -8.7276    0.0000 C   0  0  0  0  0  0
    4.0829   -7.5074    0.0000 C   0  0  0  0  0  0
    3.3227   -9.4878    0.0000 C   0  0  0  0  0  0
  1  2  1  0  0  0
  2  3  1  0  0  0
  2 10  1  0  0  0
  3  4  2  0  0  0
  4  5  1  0  0  0
  5  6  2  0  0  0
  5 10  1  0  0  0
  6  7  1  0  0  0
  7  8  2  0  0  0
  7 11  1  0  0  0
  8  9  1  0  0  0
  9 10  2  0  0  0
 11 12  2  0  0  0
 11 13  1  0  0  0
 13 14  1  0  0  0
 14 15  1  0  0  0
 14 21  1  6  0  0
 15 16  1  0  0  0
 15 20  1  0  0  0
 16 17  1  0  0  0
 17 18  1  0  0  0
 18 19  1  0  0  0
 19 20  1  0  0  0
 21 22  2  0  0  0
 21 23  1  0  0  0
 23 24  1  0  0  0
 24 25  1  0  0  0
 24 58  1  1  0  0
 25 26  2  0  0  0
 25 27  1  0  0  0
 27 28  1  0  0  0
 27 31  1  0  0  0
 28 29  1  0  0  0
 29 30  1  0  0  0
 29 51  1  0  0  0
 29 54  1  1  0  0
 30 31  1  0  0  0
 31 32  1  6  0  0
 32 33  2  0  0  0
 32 34  1  0  0  0
 34 35  1  0  0  0
 35 36  1  0  0  0
 35 40  1  0  0  0
 35 37  1  1  0  0
 36 37  1  0  0  0
 37 38  1  6  0  0
 38 39  2  0  0  0
 40 41  2  0  0  0
 40 42  1  0  0  0
 42 43  1  0  0  0
 43 44  2  0  0  0
 43 45  2  0  0  0
 43 46  1  0  0  0
 46 47  1  0  0  0
 46 50  1  0  0  0
 47 48  1  0  0  0
 48 49  1  0  0  0
 49 50  1  0  0  0
 51 52  1  0  0  0
 51 53  1  0  0  0
 51 54  1  0  0  0
 54 55  1  0  0  0
 54 57  1  0  0  0
 55 56  1  0  0  0
 56 57  1  0  0  0
 58 59  1  0  0  0
 58 60  1  0  0  0
 58 61  1  0  0  0
M  END
> <s_m_entry_id>
6908

> <s_m_entry_name>
NS3-4A.449

> <CHEMBLID>
CHEMBL3645764

> <s_m_Source_Path>
/home/liwei/Desktop/Machine/HCV/Active

> <s_m_Source_File>
NS3-4A.sdf

> <i_m_Source_File_Index>
449

$$$$
CHEMBL3645765
                    3D
 Structure written by MMmdl.
 57 62  0  0  1  0            999 V2000
   -2.3059  -12.8148    0.0000 C   0  0  0  0  0  0
   -2.9161  -11.4445    0.0000 C   0  0  0  0  0  0
   -2.0344  -10.2310    0.0000 C   0  0  0  0  0  0
   -2.6445   -8.8607    0.0000 C   0  0  3  0  0  0
   -4.1363   -8.7039    0.0000 C   0  0  0  0  0  0
   -1.7628   -7.6471    0.0000 C   0  0  2  0  0  0
   -2.3729   -6.2768    0.0000 N   0  0  0  0  0  0
   -3.8647   -6.1200    0.0000 C   0  0  0  0  0  0
   -4.7464   -7.3335    0.0000 O   0  0  0  0  0  0
   -4.4748   -4.7497    0.0000 C   0  0  0  0  0  0
   -3.5931   -3.5362    0.0000 C   0  0  0  0  0  0
   -4.2032   -2.1659    0.0000 N   0  0  0  0  0  0
   -5.6950   -2.0091    0.0000 C   0  0  0  0  0  0
   -6.3051   -0.6387    0.0000 C   0  0  0  0  0  0
   -6.5767   -3.2226    0.0000 C   0  0  0  0  0  0
   -5.9666   -4.5929    0.0000 N   0  0  0  0  0  0
   -0.2710   -7.8039    0.0000 C   0  0  0  0  0  0
    0.3391   -9.1742    0.0000 O   0  0  0  0  0  0
    0.6107   -6.5904    0.0000 N   0  0  0  0  0  0
    2.1024   -6.7472    0.0000 C   0  0  2  0  0  0
    2.9841   -5.5337    0.0000 C   0  0  0  0  0  0
    4.4759   -5.6905    0.0000 O   0  0  0  0  0  0
    2.3740   -4.1633    0.0000 N   0  0  0  0  0  0
    0.9068   -3.8515    0.0000 C   0  0  0  0  0  0
    0.7500   -2.3597    0.0000 C   0  0  1  0  0  0
    2.1203   -1.7496    0.0000 C   0  0  0  0  0  0
    3.1240   -2.8643    0.0000 C   0  0  1  0  0  0
    4.6158   -2.7075    0.0000 C   0  0  0  0  0  0
    5.2259   -1.3372    0.0000 O   0  0  0  0  0  0
    5.4975   -3.9210    0.0000 N   0  0  0  0  0  0
    6.9893   -3.7643    0.0000 C   0  0  1  0  0  0
    8.3374   -3.1067    0.0000 C   0  0  0  0  0  0
    7.0939   -2.2679    0.0000 C   0  0  1  0  0  0
    6.4363   -0.9197    0.0000 C   0  0  0  0  0  0
    7.2751    0.3238    0.0000 C   0  0  0  0  0  0
    7.4027   -5.2061    0.0000 C   0  0  0  0  0  0
    6.3607   -6.2852    0.0000 O   0  0  0  0  0  0
    8.8582   -5.5690    0.0000 N   0  0  0  0  0  0
    9.2716   -7.0109    0.0000 S   0  0  0  0  0  0
   10.7135   -6.5975    0.0000 O   0  0  0  0  0  0
    7.8297   -7.4244    0.0000 O   0  0  0  0  0  0
    9.6851   -8.4528    0.0000 N   0  0  0  0  0  0
    8.7616   -9.6348    0.0000 C   0  0  0  0  0  0
    9.6004  -10.8784    0.0000 C   0  0  0  0  0  0
   11.0423  -10.4649    0.0000 C   0  0  0  0  0  0
   11.0946   -8.9658    0.0000 C   0  0  0  0  0  0
   -0.7500   -2.3597    0.0000 C   0  0  0  0  0  0
   -1.0105   -3.8369    0.0000 C   0  0  0  0  0  0
   -2.1595   -1.8467    0.0000 C   0  0  0  0  0  0
   -0.0000   -1.0607    0.0000 C   0  0  0  0  0  0
    1.0607    0.0000    0.0000 C   0  0  0  0  0  0
    0.0000    1.0607    0.0000 C   0  0  0  0  0  0
   -1.0607    0.0000    0.0000 C   0  0  0  0  0  0
    2.7125   -8.1175    0.0000 C   0  0  0  0  0  0
    1.3422   -8.7276    0.0000 C   0  0  0  0  0  0
    4.0829   -7.5074    0.0000 C   0  0  0  0  0  0
    3.3227   -9.4878    0.0000 C   0  0  0  0  0  0
  1  2  1  0  0  0
  2  3  1  0  0  0
  3  4  1  0  0  0
  4  5  1  0  0  0
  4  6  1  0  0  0
  6  7  1  0  0  0
  6 17  1  1  0  0
  7  8  1  0  0  0
  8  9  2  0  0  0
  8 10  1  0  0  0
 10 11  2  0  0  0
 10 16  1  0  0  0
 11 12  1  0  0  0
 12 13  2  0  0  0
 13 14  1  0  0  0
 13 15  1  0  0  0
 15 16  2  0  0  0
 17 18  2  0  0  0
 17 19  1  0  0  0
 19 20  1  0  0  0
 20 21  1  0  0  0
 20 54  1  1  0  0
 21 22  2  0  0  0
 21 23  1  0  0  0
 23 24  1  0  0  0
 23 27  1  0  0  0
 24 25  1  0  0  0
 25 26  1  0  0  0
 25 47  1  0  0  0
 25 50  1  1  0  0
 26 27  1  0  0  0
 27 28  1  6  0  0
 28 29  2  0  0  0
 28 30  1  0  0  0
 30 31  1  0  0  0
 31 32  1  0  0  0
 31 36  1  0  0  0
 31 33  1  1  0  0
 32 33  1  0  0  0
 33 34  1  6  0  0
 34 35  2  0  0  0
 36 37  2  0  0  0
 36 38  1  0  0  0
 38 39  1  0  0  0
 39 40  2  0  0  0
 39 41  2  0  0  0
 39 42  1  0  0  0
 42 43  1  0  0  0
 42 46  1  0  0  0
 43 44  1  0  0  0
 44 45  1  0  0  0
 45 46  1  0  0  0
 47 48  1  0  0  0
 47 49  1  0  0  0
 47 50  1  0  0  0
 50 51  1  0  0  0
 50 53  1  0  0  0
 51 52  1  0  0  0
 52 53  1  0  0  0
 54 55  1  0  0  0
 54 56  1  0  0  0
 54 57  1  0  0  0
M  END
> <s_m_entry_id>
6909

> <s_m_entry_name>
NS3-4A.450

> <CHEMBLID>
CHEMBL3645765

> <s_m_Source_Path>
/home/liwei/Desktop/Machine/HCV/Active

> <s_m_Source_File>
NS3-4A.sdf

> <i_m_Source_File_Index>
450

$$$$
CHEMBL3645766
                    3D
 Structure written by MMmdl.
 55 60  0  0  1  0            999 V2000
   -6.5767   -3.2226    0.0000 C   0  0  0  0  0  0
   -5.9666   -4.5929    0.0000 N   0  0  0  0  0  0
   -6.8483   -5.8064    0.0000 C   0  0  0  0  0  0
   -4.4748   -4.7497    0.0000 C   0  0  0  0  0  0
   -3.8647   -6.1200    0.0000 C   0  0  0  0  0  0
   -4.7464   -7.3335    0.0000 O   0  0  0  0  0  0
   -2.3729   -6.2768    0.0000 N   0  0  0  0  0  0
   -1.7628   -7.6471    0.0000 C   0  0  1  0  0  0
   -2.6445   -8.8607    0.0000 C   0  0  0  0  0  0
   -4.1363   -8.7039    0.0000 C   0  0  0  0  0  0
   -5.0179   -9.9174    0.0000 C   0  0  0  0  0  0
   -4.4078  -11.2877    0.0000 C   0  0  0  0  0  0
   -2.9161  -11.4445    0.0000 C   0  0  0  0  0  0
   -2.0344  -10.2310    0.0000 C   0  0  0  0  0  0
   -0.2710   -7.8039    0.0000 C   0  0  0  0  0  0
    0.3391   -9.1742    0.0000 O   0  0  0  0  0  0
    0.6107   -6.5904    0.0000 N   0  0  0  0  0  0
    2.1024   -6.7472    0.0000 C   0  0  2  0  0  0
    2.9841   -5.5337    0.0000 C   0  0  0  0  0  0
    4.4759   -5.6905    0.0000 O   0  0  0  0  0  0
    2.3740   -4.1633    0.0000 N   0  0  0  0  0  0
    0.9068   -3.8515    0.0000 C   0  0  0  0  0  0
    0.7500   -2.3597    0.0000 C   0  0  1  0  0  0
    2.1203   -1.7496    0.0000 C   0  0  0  0  0  0
    3.1240   -2.8643    0.0000 C   0  0  1  0  0  0
    4.6158   -2.7075    0.0000 C   0  0  0  0  0  0
    5.2259   -1.3372    0.0000 O   0  0  0  0  0  0
    5.4975   -3.9210    0.0000 N   0  0  0  0  0  0
    6.9893   -3.7643    0.0000 C   0  0  1  0  0  0
    8.3374   -3.1067    0.0000 C   0  0  0  0  0  0
    7.0939   -2.2679    0.0000 C   0  0  1  0  0  0
    6.4363   -0.9197    0.0000 C   0  0  0  0  0  0
    7.2751    0.3238    0.0000 C   0  0  0  0  0  0
    7.4027   -5.2061    0.0000 C   0  0  0  0  0  0
    6.3607   -6.2852    0.0000 O   0  0  0  0  0  0
    8.8582   -5.5690    0.0000 N   0  0  0  0  0  0
    9.2716   -7.0109    0.0000 S   0  0  0  0  0  0
   10.7135   -6.5975    0.0000 O   0  0  0  0  0  0
    7.8297   -7.4244    0.0000 O   0  0  0  0  0  0
    9.6851   -8.4528    0.0000 N   0  0  0  0  0  0
    8.7616   -9.6348    0.0000 C   0  0  0  0  0  0
    9.6004  -10.8784    0.0000 C   0  0  0  0  0  0
   11.0423  -10.4649    0.0000 C   0  0  0  0  0  0
   11.0946   -8.9658    0.0000 C   0  0  0  0  0  0
   -0.7500   -2.3597    0.0000 C   0  0  0  0  0  0
   -1.0105   -3.8369    0.0000 C   0  0  0  0  0  0
   -2.1595   -1.8467    0.0000 C   0  0  0  0  0  0
   -0.0000   -1.0607    0.0000 C   0  0  0  0  0  0
    1.0607    0.0000    0.0000 C   0  0  0  0  0  0
    0.0000    1.0607    0.0000 C   0  0  0  0  0  0
   -1.0607    0.0000    0.0000 C   0  0  0  0  0  0
    2.7125   -8.1175    0.0000 C   0  0  0  0  0  0
    1.3422   -8.7276    0.0000 C   0  0  0  0  0  0
    4.0829   -7.5074    0.0000 C   0  0  0  0  0  0
    3.3227   -9.4878    0.0000 C   0  0  0  0  0  0
  1  2  1  0  0  0
  2  3  1  0  0  0
  2  4  1  0  0  0
  4  5  1  0  0  0
  5  6  2  0  0  0
  5  7  1  0  0  0
  7  8  1  0  0  0
  8  9  1  0  0  0
  8 15  1  6  0  0
  9 10  1  0  0  0
  9 14  1  0  0  0
 10 11  1  0  0  0
 11 12  1  0  0  0
 12 13  1  0  0  0
 13 14  1  0  0  0
 15 16  2  0  0  0
 15 17  1  0  0  0
 17 18  1  0  0  0
 18 19  1  0  0  0
 18 52  1  1  0  0
 19 20  2  0  0  0
 19 21  1  0  0  0
 21 22  1  0  0  0
 21 25  1  0  0  0
 22 23  1  0  0  0
 23 24  1  0  0  0
 23 45  1  0  0  0
 23 48  1  1  0  0
 24 25  1  0  0  0
 25 26  1  6  0  0
 26 27  2  0  0  0
 26 28  1  0  0  0
 28 29  1  0  0  0
 29 30  1  0  0  0
 29 34  1  0  0  0
 29 31  1  1  0  0
 30 31  1  0  0  0
 31 32  1  6  0  0
 32 33  2  0  0  0
 34 35  2  0  0  0
 34 36  1  0  0  0
 36 37  1  0  0  0
 37 38  2  0  0  0
 37 39  2  0  0  0
 37 40  1  0  0  0
 40 41  1  0  0  0
 40 44  1  0  0  0
 41 42  1  0  0  0
 42 43  1  0  0  0
 43 44  1  0  0  0
 45 46  1  0  0  0
 45 47  1  0  0  0
 45 48  1  0  0  0
 48 49  1  0  0  0
 48 51  1  0  0  0
 49 50  1  0  0  0
 50 51  1  0  0  0
 52 53  1  0  0  0
 52 54  1  0  0  0
 52 55  1  0  0  0
M  END
> <s_m_entry_id>
6910

> <s_m_entry_name>
NS3-4A.451

> <CHEMBLID>
CHEMBL3645766

> <s_m_Source_Path>
/home/liwei/Desktop/Machine/HCV/Active

> <s_m_Source_File>
NS3-4A.sdf

> <i_m_Source_File_Index>
451

$$$$
CHEMBL3645767
                    3D
 Structure written by MMmdl.
 56 62  0  0  1  0            999 V2000
    1.3422   -8.7276    0.0000 C   0  0  0  0  0  0
    2.7125   -8.1175    0.0000 C   0  0  0  0  0  0
    4.0829   -7.5074    0.0000 C   0  0  0  0  0  0
    3.3227   -9.4878    0.0000 C   0  0  0  0  0  0
    2.1024   -6.7472    0.0000 C   0  0  2  0  0  0
    0.6107   -6.5904    0.0000 N   0  0  0  0  0  0
   -0.2710   -7.8039    0.0000 C   0  0  0  0  0  0
    0.3391   -9.1742    0.0000 O   0  0  0  0  0  0
   -1.7628   -7.6471    0.0000 C   0  0  1  0  0  0
   -2.3729   -6.2768    0.0000 N   0  0  0  0  0  0
   -3.8647   -6.1200    0.0000 C   0  0  0  0  0  0
   -4.7464   -7.3335    0.0000 O   0  0  0  0  0  0
   -4.4748   -4.7497    0.0000 C   0  0  0  0  0  0
   -5.9420   -4.4378    0.0000 C   0  0  0  0  0  0
   -6.0988   -2.9461    0.0000 N   0  0  0  0  0  0
   -4.7285   -2.3359    0.0000 O   0  0  0  0  0  0
   -3.7248   -3.4507    0.0000 N   0  0  0  0  0  0
   -2.6445   -8.8607    0.0000 C   0  0  0  0  0  0
   -4.1363   -8.7039    0.0000 C   0  0  0  0  0  0
   -5.0179   -9.9174    0.0000 C   0  0  0  0  0  0
   -4.4078  -11.2877    0.0000 C   0  0  0  0  0  0
   -2.9161  -11.4445    0.0000 C   0  0  0  0  0  0
   -2.0344  -10.2310    0.0000 C   0  0  0  0  0  0
    2.9841   -5.5337    0.0000 C   0  0  0  0  0  0
    4.4759   -5.6905    0.0000 O   0  0  0  0  0  0
    2.3740   -4.1633    0.0000 N   0  0  0  0  0  0
    0.9068   -3.8515    0.0000 C   0  0  0  0  0  0
    0.7500   -2.3597    0.0000 C   0  0  1  0  0  0
    2.1203   -1.7496    0.0000 C   0  0  0  0  0  0
    3.1240   -2.8643    0.0000 C   0  0  1  0  0  0
    4.6158   -2.7075    0.0000 C   0  0  0  0  0  0
    5.2259   -1.3372    0.0000 O   0  0  0  0  0  0
    5.4975   -3.9210    0.0000 N   0  0  0  0  0  0
    6.9893   -3.7643    0.0000 C   0  0  1  0  0  0
    8.3374   -3.1067    0.0000 C   0  0  0  0  0  0
    7.0939   -2.2679    0.0000 C   0  0  1  0  0  0
    6.4363   -0.9197    0.0000 C   0  0  0  0  0  0
    7.2751    0.3238    0.0000 C   0  0  0  0  0  0
    7.4027   -5.2061    0.0000 C   0  0  0  0  0  0
    6.3607   -6.2852    0.0000 O   0  0  0  0  0  0
    8.8582   -5.5690    0.0000 N   0  0  0  0  0  0
    9.2716   -7.0109    0.0000 S   0  0  0  0  0  0
   10.7135   -6.5975    0.0000 O   0  0  0  0  0  0
    7.8297   -7.4244    0.0000 O   0  0  0  0  0  0
    9.6851   -8.4528    0.0000 N   0  0  0  0  0  0
    8.7616   -9.6348    0.0000 C   0  0  0  0  0  0
    9.6004  -10.8784    0.0000 C   0  0  0  0  0  0
   11.0423  -10.4649    0.0000 C   0  0  0  0  0  0
   11.0946   -8.9658    0.0000 C   0  0  0  0  0  0
   -0.7500   -2.3597    0.0000 C   0  0  0  0  0  0
   -1.0105   -3.8369    0.0000 C   0  0  0  0  0  0
   -2.1595   -1.8467    0.0000 C   0  0  0  0  0  0
   -0.0000   -1.0607    0.0000 C   0  0  0  0  0  0
    1.0607    0.0000    0.0000 C   0  0  0  0  0  0
    0.0000    1.0607    0.0000 C   0  0  0  0  0  0
   -1.0607    0.0000    0.0000 C   0  0  0  0  0  0
  1  2  1  0  0  0
  2  3  1  0  0  0
  2  4  1  0  0  0
  2  5  1  0  0  0
  5  6  1  0  0  0
  5 24  1  1  0  0
  6  7  1  0  0  0
  7  8  2  0  0  0
  7  9  1  0  0  0
  9 10  1  0  0  0
  9 18  1  6  0  0
 10 11  1  0  0  0
 11 12  2  0  0  0
 11 13  1  0  0  0
 13 14  1  0  0  0
 13 17  2  0  0  0
 14 15  2  0  0  0
 15 16  1  0  0  0
 16 17  1  0  0  0
 18 19  1  0  0  0
 18 23  1  0  0  0
 19 20  1  0  0  0
 20 21  1  0  0  0
 21 22  1  0  0  0
 22 23  1  0  0  0
 24 25  2  0  0  0
 24 26  1  0  0  0
 26 27  1  0  0  0
 26 30  1  0  0  0
 27 28  1  0  0  0
 28 29  1  0  0  0
 28 50  1  0  0  0
 28 53  1  1  0  0
 29 30  1  0  0  0
 30 31  1  6  0  0
 31 32  2  0  0  0
 31 33  1  0  0  0
 33 34  1  0  0  0
 34 35  1  0  0  0
 34 39  1  0  0  0
 34 36  1  1  0  0
 35 36  1  0  0  0
 36 37  1  6  0  0
 37 38  2  0  0  0
 39 40  2  0  0  0
 39 41  1  0  0  0
 41 42  1  0  0  0
 42 43  2  0  0  0
 42 44  2  0  0  0
 42 45  1  0  0  0
 45 46  1  0  0  0
 45 49  1  0  0  0
 46 47  1  0  0  0
 47 48  1  0  0  0
 48 49  1  0  0  0
 50 51  1  0  0  0
 50 52  1  0  0  0
 50 53  1  0  0  0
 53 54  1  0  0  0
 53 56  1  0  0  0
 54 55  1  0  0  0
 55 56  1  0  0  0
M  END
> <s_m_entry_id>
6911

> <s_m_entry_name>
NS3-4A.452

> <CHEMBLID>
CHEMBL3645767

> <s_m_Source_Path>
/home/liwei/Desktop/Machine/HCV/Active

> <s_m_Source_File>
NS3-4A.sdf

> <i_m_Source_File_Index>
452

$$$$
CHEMBL3645768
                    3D
 Structure written by MMmdl.
 59 65  0  0  1  0            999 V2000
  -10.4419   -4.1225    0.0000 C   0  0  0  0  0  0
   -8.9501   -4.2793    0.0000 N   0  0  0  0  0  0
   -8.0685   -3.0658    0.0000 C   0  0  0  0  0  0
   -6.5767   -3.2226    0.0000 C   0  0  0  0  0  0
   -5.9666   -4.5929    0.0000 N   0  0  0  0  0  0
   -4.4748   -4.7497    0.0000 C   0  0  0  0  0  0
   -3.8647   -6.1200    0.0000 C   0  0  0  0  0  0
   -4.7464   -7.3335    0.0000 O   0  0  0  0  0  0
   -2.3729   -6.2768    0.0000 N   0  0  0  0  0  0
   -1.7628   -7.6471    0.0000 C   0  0  1  0  0  0
   -2.6445   -8.8607    0.0000 C   0  0  0  0  0  0
   -4.1363   -8.7039    0.0000 C   0  0  0  0  0  0
   -5.0179   -9.9174    0.0000 C   0  0  0  0  0  0
   -4.4078  -11.2877    0.0000 C   0  0  0  0  0  0
   -2.9161  -11.4445    0.0000 C   0  0  0  0  0  0
   -2.0344  -10.2310    0.0000 C   0  0  0  0  0  0
   -0.2710   -7.8039    0.0000 C   0  0  0  0  0  0
    0.3391   -9.1742    0.0000 O   0  0  0  0  0  0
    0.6107   -6.5904    0.0000 N   0  0  0  0  0  0
    2.1024   -6.7472    0.0000 C   0  0  2  0  0  0
    2.9841   -5.5337    0.0000 C   0  0  0  0  0  0
    4.4759   -5.6905    0.0000 O   0  0  0  0  0  0
    2.3740   -4.1633    0.0000 N   0  0  0  0  0  0
    0.9068   -3.8515    0.0000 C   0  0  0  0  0  0
    0.7500   -2.3597    0.0000 C   0  0  1  0  0  0
    2.1203   -1.7496    0.0000 C   0  0  0  0  0  0
    3.1240   -2.8643    0.0000 C   0  0  1  0  0  0
    4.6158   -2.7075    0.0000 C   0  0  0  0  0  0
    5.2259   -1.3372    0.0000 O   0  0  0  0  0  0
    5.4975   -3.9210    0.0000 N   0  0  0  0  0  0
    6.9893   -3.7643    0.0000 C   0  0  1  0  0  0
    8.3374   -3.1067    0.0000 C   0  0  0  0  0  0
    7.0939   -2.2679    0.0000 C   0  0  1  0  0  0
    6.4363   -0.9197    0.0000 C   0  0  0  0  0  0
    7.2751    0.3238    0.0000 C   0  0  0  0  0  0
    7.4027   -5.2061    0.0000 C   0  0  0  0  0  0
    6.3607   -6.2852    0.0000 O   0  0  0  0  0  0
    8.8582   -5.5690    0.0000 N   0  0  0  0  0  0
    9.2716   -7.0109    0.0000 S   0  0  0  0  0  0
   10.7135   -6.5975    0.0000 O   0  0  0  0  0  0
    7.8297   -7.4244    0.0000 O   0  0  0  0  0  0
    9.6851   -8.4528    0.0000 N   0  0  0  0  0  0
    8.7616   -9.6348    0.0000 C   0  0  0  0  0  0
    9.6004  -10.8784    0.0000 C   0  0  0  0  0  0
   11.0423  -10.4649    0.0000 C   0  0  0  0  0  0
   11.0946   -8.9658    0.0000 C   0  0  0  0  0  0
   -0.7500   -2.3597    0.0000 C   0  0  0  0  0  0
   -1.0105   -3.8369    0.0000 C   0  0  0  0  0  0
   -2.1595   -1.8467    0.0000 C   0  0  0  0  0  0
   -0.0000   -1.0607    0.0000 C   0  0  0  0  0  0
    1.0607    0.0000    0.0000 C   0  0  0  0  0  0
    0.0000    1.0607    0.0000 C   0  0  0  0  0  0
   -1.0607    0.0000    0.0000 C   0  0  0  0  0  0
    2.7125   -8.1175    0.0000 C   0  0  0  0  0  0
    1.3422   -8.7276    0.0000 C   0  0  0  0  0  0
    4.0829   -7.5074    0.0000 C   0  0  0  0  0  0
    3.3227   -9.4878    0.0000 C   0  0  0  0  0  0
   -6.8483   -5.8064    0.0000 C   0  0  0  0  0  0
   -8.3400   -5.6496    0.0000 C   0  0  0  0  0  0
  1  2  1  0  0  0
  2  3  1  0  0  0
  2 59  1  0  0  0
  3  4  1  0  0  0
  4  5  1  0  0  0
  5  6  1  0  0  0
  5 58  1  0  0  0
  6  7  1  0  0  0
  7  8  2  0  0  0
  7  9  1  0  0  0
  9 10  1  0  0  0
 10 11  1  0  0  0
 10 17  1  6  0  0
 11 12  1  0  0  0
 11 16  1  0  0  0
 12 13  1  0  0  0
 13 14  1  0  0  0
 14 15  1  0  0  0
 15 16  1  0  0  0
 17 18  2  0  0  0
 17 19  1  0  0  0
 19 20  1  0  0  0
 20 21  1  0  0  0
 20 54  1  1  0  0
 21 22  2  0  0  0
 21 23  1  0  0  0
 23 24  1  0  0  0
 23 27  1  0  0  0
 24 25  1  0  0  0
 25 26  1  0  0  0
 25 47  1  0  0  0
 25 50  1  1  0  0
 26 27  1  0  0  0
 27 28  1  6  0  0
 28 29  2  0  0  0
 28 30  1  0  0  0
 30 31  1  0  0  0
 31 32  1  0  0  0
 31 36  1  0  0  0
 31 33  1  1  0  0
 32 33  1  0  0  0
 33 34  1  6  0  0
 34 35  2  0  0  0
 36 37  2  0  0  0
 36 38  1  0  0  0
 38 39  1  0  0  0
 39 40  2  0  0  0
 39 41  2  0  0  0
 39 42  1  0  0  0
 42 43  1  0  0  0
 42 46  1  0  0  0
 43 44  1  0  0  0
 44 45  1  0  0  0
 45 46  1  0  0  0
 47 48  1  0  0  0
 47 49  1  0  0  0
 47 50  1  0  0  0
 50 51  1  0  0  0
 50 53  1  0  0  0
 51 52  1  0  0  0
 52 53  1  0  0  0
 54 55  1  0  0  0
 54 56  1  0  0  0
 54 57  1  0  0  0
 58 59  1  0  0  0
M  END
> <s_m_entry_id>
6912

> <s_m_entry_name>
NS3-4A.453

> <CHEMBLID>
CHEMBL3645768

> <s_m_Source_Path>
/home/liwei/Desktop/Machine/HCV/Active

> <s_m_Source_File>
NS3-4A.sdf

> <i_m_Source_File_Index>
453

$$$$
CHEMBL3648645
                    3D
 Structure written by MMmdl.
 60 65  0  0  1  0            999 V2000
    6.6889   -7.1261    0.0000 C   0  0  0  0  0  0
    5.2470   -6.7126    0.0000 C   0  0  0  0  0  0
    4.1680   -7.7546    0.0000 C   0  0  3  0  0  0
    3.7545   -9.1965    0.0000 C   0  0  0  0  0  0
    2.7125   -8.1175    0.0000 C   0  0  3  0  0  0
    2.1024   -6.7472    0.0000 N   0  0  0  0  0  0
    2.9841   -5.5337    0.0000 C   0  0  0  0  0  0
    4.4759   -5.6905    0.0000 O   0  0  0  0  0  0
    2.3740   -4.1633    0.0000 C   0  0  2  0  0  0
    0.9068   -3.8515    0.0000 C   0  0  0  0  0  0
    0.7500   -2.3597    0.0000 C   0  0  2  0  0  0
    2.1203   -1.7496    0.0000 C   0  0  0  0  0  0
    3.1240   -2.8643    0.0000 N   0  0  0  0  0  0
    4.6158   -2.7075    0.0000 C   0  0  0  0  0  0
    5.4975   -3.9210    0.0000 O   0  0  0  0  0  0
    5.2259   -1.3372    0.0000 C   0  0  1  0  0  0
    6.7177   -1.1804    0.0000 N   0  0  0  0  0  0
    7.3278    0.1899    0.0000 C   0  0  0  0  0  0
    6.4461    1.4034    0.0000 O   0  0  0  0  0  0
    8.8196    0.3467    0.0000 C   0  0  3  0  0  0
    9.7013   -0.8668    0.0000 N   0  0  0  0  0  0
   11.1930   -0.7100    0.0000 C   0  0  0  0  0  0
   11.8031    0.6603    0.0000 O   0  0  0  0  0  0
   12.0747   -1.9236    0.0000 C   0  0  2  0  0  0
   13.5665   -1.7668    0.0000 C   0  0  0  0  0  0
   14.4482   -2.9803    0.0000 C   0  0  0  0  0  0
   13.8381   -4.3506    0.0000 C   0  0  0  0  0  0
   12.3463   -4.5074    0.0000 C   0  0  0  0  0  0
   11.4646   -3.2939    0.0000 N   0  0  0  0  0  0
    9.9728   -3.4507    0.0000 C   0  0  0  0  0  0
    9.0911   -2.2371    0.0000 C   0  0  0  0  0  0
    9.3627   -4.8210    0.0000 C   0  0  0  0  0  0
    9.4297    1.7170    0.0000 C   0  0  0  0  0  0
    8.5480    2.9305    0.0000 C   0  0  0  0  0  0
    9.1581    4.3009    0.0000 C   0  0  0  0  0  0
   10.6499    4.4577    0.0000 C   0  0  0  0  0  0
   11.5316    3.2441    0.0000 C   0  0  0  0  0  0
   10.9215    1.8738    0.0000 C   0  0  0  0  0  0
    4.3442   -0.1237    0.0000 C   0  0  0  0  0  0
    5.5577    0.7580    0.0000 C   0  0  0  0  0  0
    3.1307   -1.0054    0.0000 C   0  0  0  0  0  0
    3.4625    1.0899    0.0000 C   0  0  0  0  0  0
   -0.7500   -2.3597    0.0000 C   0  0  0  0  0  0
   -1.0105   -3.8369    0.0000 C   0  0  0  0  0  0
   -2.1595   -1.8467    0.0000 C   0  0  0  0  0  0
   -0.0000   -1.0607    0.0000 C   0  0  0  0  0  0
    1.0607    0.0000    0.0000 C   0  0  0  0  0  0
    0.0000    1.0607    0.0000 C   0  0  0  0  0  0
   -1.0607    0.0000    0.0000 C   0  0  0  0  0  0
    1.4690   -8.9563    0.0000 C   0  0  0  0  0  0
    0.1208   -8.2987    0.0000 O   0  0  0  0  0  0
    1.5736  -10.4526    0.0000 N   0  0  0  0  0  0
    0.3301  -11.2914    0.0000 S   0  0  0  0  0  0
    1.1689  -12.5350    0.0000 O   0  0  0  0  0  0
   -0.5087  -10.0479    0.0000 O   0  0  0  0  0  0
   -0.9135  -12.1302    0.0000 N   0  0  0  0  0  0
   -2.2617  -11.4727    0.0000 C   0  0  0  0  0  0
   -3.5052  -12.3115    0.0000 C   0  0  0  0  0  0
   -0.8089  -13.6266    0.0000 C   0  0  0  0  0  0
   -2.0524  -14.4654    0.0000 C   0  0  0  0  0  0
  1  2  1  0  0  0
  2  3  1  0  0  0
  3  4  1  0  0  0
  3  5  1  0  0  0
  4  5  1  0  0  0
  5  6  1  0  0  0
  5 50  1  0  0  0
  6  7  1  0  0  0
  7  8  2  0  0  0
  7  9  1  0  0  0
  9 10  1  0  0  0
  9 13  1  1  0  0
 10 11  1  0  0  0
 11 12  1  0  0  0
 11 43  1  0  0  0
 11 46  1  6  0  0
 12 13  1  0  0  0
 13 14  1  0  0  0
 14 15  2  0  0  0
 14 16  1  0  0  0
 16 17  1  0  0  0
 16 39  1  6  0  0
 17 18  1  0  0  0
 18 19  2  0  0  0
 18 20  1  0  0  0
 20 21  1  0  0  0
 20 33  1  0  0  0
 21 22  1  0  0  0
 22 23  2  0  0  0
 22 24  1  0  0  0
 24 25  1  0  0  0
 24 29  1  1  0  0
 25 26  1  0  0  0
 26 27  1  0  0  0
 27 28  1  0  0  0
 28 29  1  0  0  0
 29 30  1  0  0  0
 30 31  1  0  0  0
 30 32  1  0  0  0
 33 34  1  0  0  0
 33 38  1  0  0  0
 34 35  1  0  0  0
 35 36  1  0  0  0
 36 37  1  0  0  0
 37 38  1  0  0  0
 39 40  1  0  0  0
 39 41  1  0  0  0
 39 42  1  0  0  0
 43 44  1  0  0  0
 43 45  1  0  0  0
 43 46  1  0  0  0
 46 47  1  0  0  0
 46 49  1  0  0  0
 47 48  1  0  0  0
 48 49  1  0  0  0
 50 51  2  0  0  0
 50 52  1  0  0  0
 52 53  1  0  0  0
 53 54  2  0  0  0
 53 55  2  0  0  0
 53 56  1  0  0  0
 56 57  1  0  0  0
 56 59  1  0  0  0
 57 58  1  0  0  0
 59 60  1  0  0  0
M  END
> <s_m_entry_id>
6913

> <s_m_entry_name>
NS3-4A.454

> <CHEMBLID>
CHEMBL3648645

> <s_m_Source_Path>
/home/liwei/Desktop/Machine/HCV/Active

> <s_m_Source_File>
NS3-4A.sdf

> <i_m_Source_File_Index>
454

$$$$
CHEMBL3661085
                    3D
 Structure written by MMmdl.
 52 58  0  0  1  0            999 V2000
   -2.9285   15.0270    0.0000 C   0  0  0  0  0  0
   -4.1420   14.1454    0.0000 O   0  0  0  0  0  0
   -3.9852   12.6536    0.0000 C   0  0  0  0  0  0
   -5.1988   11.7719    0.0000 C   0  0  0  0  0  0
   -5.0420   10.2801    0.0000 C   0  0  0  0  0  0
   -3.6717    9.6700    0.0000 C   0  0  0  0  0  0
   -3.5149    8.1782    0.0000 C   0  0  0  0  0  0
   -4.7284    7.2965    0.0000 O   0  0  0  0  0  0
   -4.5716    5.8048    0.0000 C   0  0  1  0  0  0
   -5.6863    4.8011    0.0000 C   0  0  0  0  0  0
   -5.0762    3.4307    0.0000 C   0  0  2  0  0  0
   -3.5844    3.5875    0.0000 C   0  0  1  0  0  0
   -3.2726    5.0548    0.0000 C   0  0  0  0  0  0
   -2.1578    3.1240    0.0000 C   0  0  0  0  0  0
   -1.4078    4.4231    0.0000 O   0  0  0  0  0  0
   -1.0431    2.1203    0.0000 N   0  0  0  0  0  0
   -0.4330    0.7500    0.0000 C   0  0  1  0  0  0
    0.8660    0.0000    0.0000 C   0  0  0  0  0  0
   -0.4330   -0.7500    0.0000 C   0  0  1  0  0  0
   -1.0431   -2.1203    0.0000 C   0  0  0  0  0  0
   -2.1578   -3.1240    0.0000 C   0  0  0  0  0  0
   -3.5844   -3.5875    0.0000 C   0  0  0  0  0  0
   -5.0762   -3.4307    0.0000 C   0  0  0  0  0  0
   -6.3752   -2.6807    0.0000 C   0  0  0  0  0  0
   -7.2569   -1.4672    0.0000 C   0  0  0  0  0  0
   -7.5688    0.0000    0.0000 C   0  0  0  0  0  0
   -7.2569    1.4672    0.0000 N   0  0  0  0  0  0
   -6.3752    2.6807    0.0000 C   0  0  0  0  0  0
   -7.3789    3.7955    0.0000 O   0  0  0  0  0  0
    0.6817    1.7537    0.0000 C   0  0  0  0  0  0
    0.3698    3.2209    0.0000 O   0  0  0  0  0  0
    2.1083    1.2902    0.0000 N   0  0  0  0  0  0
    3.2230    2.2939    0.0000 S   0  0  0  0  0  0
    2.2193    3.4086    0.0000 O   0  0  0  0  0  0
    4.2267    1.1791    0.0000 O   0  0  0  0  0  0
    4.3377    3.2976    0.0000 C   0  0  0  0  0  0
    4.8012    4.7241    0.0000 C   0  0  0  0  0  0
    5.8049    3.6094    0.0000 C   0  0  0  0  0  0
   -2.1445    7.5681    0.0000 C   0  0  0  0  0  0
   -0.9310    8.4498    0.0000 C   0  0  0  0  0  0
   -1.0878    9.9416    0.0000 N   0  0  0  0  0  0
   -2.4581   10.5517    0.0000 C   0  0  0  0  0  0
   -2.6149   12.0435    0.0000 C   0  0  0  0  0  0
   -1.4014   12.9251    0.0000 C   0  0  0  0  0  0
    0.4393    7.8397    0.0000 C   0  0  0  0  0  0
    1.7383    8.5897    0.0000 N   0  0  0  0  0  0
    2.8531    7.5860    0.0000 C   0  0  0  0  0  0
    2.2430    6.2157    0.0000 C   0  0  0  0  0  0
    0.7512    6.3725    0.0000 S   0  0  0  0  0  0
    4.3203    7.8979    0.0000 C   0  0  0  0  0  0
    4.7838    9.3244    0.0000 C   0  0  0  0  0  0
    5.3240    6.7831    0.0000 C   0  0  0  0  0  0
  1  2  1  0  0  0
  2  3  1  0  0  0
  3  4  2  0  0  0
  3 43  1  0  0  0
  4  5  1  0  0  0
  5  6  2  0  0  0
  6  7  1  0  0  0
  6 42  1  0  0  0
  7  8  1  0  0  0
  7 39  2  0  0  0
  8  9  1  0  0  0
  9 10  1  0  0  0
  9 13  1  6  0  0
 10 11  1  0  0  0
 11 12  1  0  0  0
 11 28  1  6  0  0
 12 13  1  0  0  0
 12 14  1  1  0  0
 14 15  2  0  0  0
 14 16  1  0  0  0
 16 17  1  0  0  0
 17 18  1  0  0  0
 17 30  1  0  0  0
 17 19  1  1  0  0
 18 19  1  0  0  0
 19 20  1  6  0  0
 20 21  2  0  0  0
 21 22  1  0  0  0
 22 23  1  0  0  0
 23 24  1  0  0  0
 24 25  1  0  0  0
 25 26  1  0  0  0
 26 27  1  0  0  0
 27 28  1  0  0  0
 28 29  2  0  0  0
 30 31  2  0  0  0
 30 32  1  0  0  0
 32 33  1  0  0  0
 33 34  2  0  0  0
 33 35  2  0  0  0
 33 36  1  0  0  0
 36 37  1  0  0  0
 36 38  1  0  0  0
 37 38  1  0  0  0
 39 40  1  0  0  0
 40 41  2  0  0  0
 40 45  1  0  0  0
 41 42  1  0  0  0
 42 43  2  0  0  0
 43 44  1  0  0  0
 45 46  2  0  0  0
 45 49  1  0  0  0
 46 47  1  0  0  0
 47 48  2  0  0  0
 47 50  1  0  0  0
 48 49  1  0  0  0
 50 51  1  0  0  0
 50 52  1  0  0  0
M  END
> <s_m_entry_id>
6914

> <s_m_entry_name>
NS3-4A.455

> <CHEMBLID>
CHEMBL3661085

> <s_m_Source_Path>
/home/liwei/Desktop/Machine/HCV/Active

> <s_m_Source_File>
NS3-4A.sdf

> <i_m_Source_File_Index>
455

$$$$
CHEMBL3661087
                    3D
 Structure written by MMmdl.
 53 59  0  0  1  0            999 V2000
   -9.4994  -13.6502    0.0000 C   0  0  0  0  0  0
   -8.0661  -13.2081    0.0000 O   0  0  0  0  0  0
   -7.7323  -11.7457    0.0000 C   0  0  0  0  0  0
   -6.2989  -11.3035    0.0000 C   0  0  0  0  0  0
   -5.9652   -9.8411    0.0000 C   0  0  0  0  0  0
   -7.0647   -8.8209    0.0000 C   0  0  0  0  0  0
   -6.7310   -7.3585    0.0000 C   0  0  0  0  0  0
   -5.2976   -6.9164    0.0000 O   0  0  0  0  0  0
   -4.9638   -5.4540    0.0000 C   0  0  2  0  0  0
   -3.5845   -4.8644    0.0000 C   0  0  0  0  0  0
   -3.7190   -3.3705    0.0000 C   0  0  2  0  0  0
   -5.1814   -3.0367    0.0000 C   0  0  1  0  0  0
   -5.9507   -4.3244    0.0000 C   0  0  0  0  0  0
   -6.3541   -2.1015    0.0000 C   0  0  0  0  0  0
   -7.5269   -3.0367    0.0000 O   0  0  0  0  0  0
   -7.0049   -0.7500    0.0000 N   0  0  0  0  0  0
   -8.4673   -1.0838    0.0000 C   0  0  0  0  0  0
   -7.0049    0.7500    0.0000 C   0  0  0  0  0  0
   -6.3541    2.1015    0.0000 C   0  0  0  0  0  0
   -5.1814    3.0367    0.0000 C   0  0  0  0  0  0
   -3.7190    3.3705    0.0000 C   0  0  0  0  0  0
   -2.2566    3.0367    0.0000 C   0  0  0  0  0  0
   -1.0838    2.1015    0.0000 C   0  0  0  0  0  0
   -0.4330    0.7500    0.0000 C   0  0  2  0  0  0
    0.8660    0.0000    0.0000 C   0  0  0  0  0  0
   -0.4330   -0.7500    0.0000 C   0  0  1  0  0  0
   -1.0838   -2.1015    0.0000 N   0  0  0  0  0  0
   -2.2566   -3.0367    0.0000 C   0  0  0  0  0  0
   -1.6058   -4.3881    0.0000 O   0  0  0  0  0  0
    0.6666   -1.7703    0.0000 C   0  0  0  0  0  0
    0.3328   -3.2327    0.0000 O   0  0  0  0  0  0
    2.0999   -1.3281    0.0000 N   0  0  0  0  0  0
    3.1995   -2.3484    0.0000 S   0  0  0  0  0  0
    2.1792   -3.4480    0.0000 O   0  0  0  0  0  0
    4.2198   -1.2488    0.0000 O   0  0  0  0  0  0
    4.2991   -3.3686    0.0000 C   0  0  0  0  0  0
    3.4853   -4.6287    0.0000 C   0  0  0  0  0  0
    5.6813   -3.9513    0.0000 C   0  0  0  0  0  0
    5.4948   -2.4629    0.0000 C   0  0  0  0  0  0
   -7.8305   -6.3382    0.0000 C   0  0  0  0  0  0
   -9.2639   -6.7804    0.0000 C   0  0  0  0  0  0
   -9.5977   -8.2428    0.0000 N   0  0  0  0  0  0
   -8.4981   -9.2630    0.0000 C   0  0  0  0  0  0
   -8.8319  -10.7254    0.0000 C   0  0  0  0  0  0
  -10.2652  -11.1675    0.0000 Cl  0  0  0  0  0  0
  -10.3635   -5.7601    0.0000 C   0  0  0  0  0  0
  -11.8352   -6.0500    0.0000 N   0  0  0  0  0  0
  -12.5657   -4.7399    0.0000 C   0  0  0  0  0  0
  -11.5454   -3.6403    0.0000 C   0  0  0  0  0  0
  -10.1844   -4.2708    0.0000 S   0  0  0  0  0  0
  -14.0549   -4.5608    0.0000 C   0  0  0  0  0  0
  -14.6445   -3.1815    0.0000 C   0  0  0  0  0  0
  -14.9547   -5.7610    0.0000 C   0  0  0  0  0  0
  1  2  1  0  0  0
  2  3  1  0  0  0
  3  4  2  0  0  0
  3 44  1  0  0  0
  4  5  1  0  0  0
  5  6  2  0  0  0
  6  7  1  0  0  0
  6 43  1  0  0  0
  7  8  1  0  0  0
  7 40  2  0  0  0
  8  9  1  0  0  0
  9 10  1  0  0  0
  9 13  1  6  0  0
 10 11  1  0  0  0
 11 12  1  0  0  0
 11 28  1  6  0  0
 12 13  1  0  0  0
 12 14  1  1  0  0
 14 15  2  0  0  0
 14 16  1  0  0  0
 16 17  1  0  0  0
 16 18  1  0  0  0
 18 19  1  0  0  0
 19 20  1  0  0  0
 20 21  1  0  0  0
 21 22  1  0  0  0
 22 23  2  0  0  0
 23 24  1  0  0  0
 24 25  1  0  0  0
 24 26  1  1  0  0
 25 26  1  0  0  0
 26 27  1  0  0  0
 26 30  1  6  0  0
 27 28  1  0  0  0
 28 29  2  0  0  0
 30 31  2  0  0  0
 30 32  1  0  0  0
 32 33  1  0  0  0
 33 34  2  0  0  0
 33 35  2  0  0  0
 33 36  1  0  0  0
 36 37  1  0  0  0
 36 38  1  0  0  0
 36 39  1  0  0  0
 38 39  1  0  0  0
 40 41  1  0  0  0
 41 42  2  0  0  0
 41 46  1  0  0  0
 42 43  1  0  0  0
 43 44  2  0  0  0
 44 45  1  0  0  0
 46 47  2  0  0  0
 46 50  1  0  0  0
 47 48  1  0  0  0
 48 49  2  0  0  0
 48 51  1  0  0  0
 49 50  1  0  0  0
 51 52  1  0  0  0
 51 53  1  0  0  0
M  END
> <s_m_entry_id>
6915

> <s_m_entry_name>
NS3-4A.456

> <CHEMBLID>
CHEMBL3661087

> <s_m_Source_Path>
/home/liwei/Desktop/Machine/HCV/Active

> <s_m_Source_File>
NS3-4A.sdf

> <i_m_Source_File_Index>
456

$$$$
CHEMBL3661088
                    3D
 Structure written by MMmdl.
 53 59  0  0  1  0            999 V2000
   -9.4994  -13.6502    0.0000 C   0  0  0  0  0  0
   -8.0661  -13.2081    0.0000 O   0  0  0  0  0  0
   -7.7323  -11.7457    0.0000 C   0  0  0  0  0  0
   -6.2989  -11.3035    0.0000 C   0  0  0  0  0  0
   -5.9652   -9.8411    0.0000 C   0  0  0  0  0  0
   -7.0647   -8.8209    0.0000 C   0  0  0  0  0  0
   -6.7310   -7.3585    0.0000 C   0  0  0  0  0  0
   -5.2976   -6.9164    0.0000 O   0  0  0  0  0  0
   -4.9638   -5.4540    0.0000 C   0  0  2  0  0  0
   -3.5845   -4.8644    0.0000 C   0  0  0  0  0  0
   -3.7190   -3.3705    0.0000 C   0  0  2  0  0  0
   -5.1814   -3.0367    0.0000 C   0  0  1  0  0  0
   -5.9507   -4.3244    0.0000 C   0  0  0  0  0  0
   -6.3541   -2.1015    0.0000 C   0  0  0  0  0  0
   -7.5269   -3.0367    0.0000 O   0  0  0  0  0  0
   -7.0049   -0.7500    0.0000 N   0  0  0  0  0  0
   -8.4673   -1.0838    0.0000 C   0  0  0  0  0  0
   -7.0049    0.7500    0.0000 C   0  0  0  0  0  0
   -6.3541    2.1015    0.0000 C   0  0  0  0  0  0
   -5.1814    3.0367    0.0000 C   0  0  0  0  0  0
   -3.7190    3.3705    0.0000 C   0  0  0  0  0  0
   -2.2566    3.0367    0.0000 C   0  0  0  0  0  0
   -1.0838    2.1015    0.0000 C   0  0  0  0  0  0
   -0.4330    0.7500    0.0000 C   0  0  2  0  0  0
    0.8660    0.0000    0.0000 C   0  0  0  0  0  0
   -0.4330   -0.7500    0.0000 C   0  0  1  0  0  0
   -1.0838   -2.1015    0.0000 N   0  0  0  0  0  0
   -2.2566   -3.0367    0.0000 C   0  0  0  0  0  0
   -1.6058   -4.3881    0.0000 O   0  0  0  0  0  0
    0.6666   -1.7703    0.0000 C   0  0  0  0  0  0
    0.3328   -3.2327    0.0000 O   0  0  0  0  0  0
    2.0999   -1.3281    0.0000 N   0  0  0  0  0  0
    3.1995   -2.3484    0.0000 S   0  0  0  0  0  0
    2.1792   -3.4480    0.0000 O   0  0  0  0  0  0
    4.2198   -1.2488    0.0000 O   0  0  0  0  0  0
    4.2991   -3.3686    0.0000 C   0  0  0  0  0  0
    3.4853   -4.6287    0.0000 C   0  0  0  0  0  0
    5.6813   -3.9513    0.0000 C   0  0  0  0  0  0
    5.4948   -2.4629    0.0000 C   0  0  0  0  0  0
   -7.8305   -6.3382    0.0000 C   0  0  0  0  0  0
   -9.2639   -6.7804    0.0000 C   0  0  0  0  0  0
   -9.5977   -8.2428    0.0000 N   0  0  0  0  0  0
   -8.4981   -9.2630    0.0000 C   0  0  0  0  0  0
   -8.8319  -10.7254    0.0000 C   0  0  0  0  0  0
  -10.2652  -11.1675    0.0000 C   0  0  0  0  0  0
  -10.3635   -5.7601    0.0000 C   0  0  0  0  0  0
  -11.8352   -6.0500    0.0000 N   0  0  0  0  0  0
  -12.5657   -4.7399    0.0000 C   0  0  0  0  0  0
  -11.5454   -3.6403    0.0000 C   0  0  0  0  0  0
  -10.1844   -4.2708    0.0000 S   0  0  0  0  0  0
  -14.0549   -4.5608    0.0000 C   0  0  0  0  0  0
  -14.6445   -3.1815    0.0000 C   0  0  0  0  0  0
  -14.9547   -5.7610    0.0000 C   0  0  0  0  0  0
  1  2  1  0  0  0
  2  3  1  0  0  0
  3  4  2  0  0  0
  3 44  1  0  0  0
  4  5  1  0  0  0
  5  6  2  0  0  0
  6  7  1  0  0  0
  6 43  1  0  0  0
  7  8  1  0  0  0
  7 40  2  0  0  0
  8  9  1  0  0  0
  9 10  1  0  0  0
  9 13  1  6  0  0
 10 11  1  0  0  0
 11 12  1  0  0  0
 11 28  1  6  0  0
 12 13  1  0  0  0
 12 14  1  1  0  0
 14 15  2  0  0  0
 14 16  1  0  0  0
 16 17  1  0  0  0
 16 18  1  0  0  0
 18 19  1  0  0  0
 19 20  1  0  0  0
 20 21  1  0  0  0
 21 22  1  0  0  0
 22 23  2  0  0  0
 23 24  1  0  0  0
 24 25  1  0  0  0
 24 26  1  1  0  0
 25 26  1  0  0  0
 26 27  1  0  0  0
 26 30  1  6  0  0
 27 28  1  0  0  0
 28 29  2  0  0  0
 30 31  2  0  0  0
 30 32  1  0  0  0
 32 33  1  0  0  0
 33 34  2  0  0  0
 33 35  2  0  0  0
 33 36  1  0  0  0
 36 37  1  0  0  0
 36 38  1  0  0  0
 36 39  1  0  0  0
 38 39  1  0  0  0
 40 41  1  0  0  0
 41 42  2  0  0  0
 41 46  1  0  0  0
 42 43  1  0  0  0
 43 44  2  0  0  0
 44 45  1  0  0  0
 46 47  2  0  0  0
 46 50  1  0  0  0
 47 48  1  0  0  0
 48 49  2  0  0  0
 48 51  1  0  0  0
 49 50  1  0  0  0
 51 52  1  0  0  0
 51 53  1  0  0  0
M  END
> <s_m_entry_id>
6916

> <s_m_entry_name>
NS3-4A.457

> <CHEMBLID>
CHEMBL3661088

> <s_m_Source_Path>
/home/liwei/Desktop/Machine/HCV/Active

> <s_m_Source_File>
NS3-4A.sdf

> <i_m_Source_File_Index>
457

$$$$
CHEMBL3680939
                    3D
 Structure written by MMmdl.
 42 47  0  0  1  0            999 V2000
   -9.4994  -13.6502    0.0000 C   0  0  0  0  0  0
   -8.0661  -13.2081    0.0000 O   0  0  0  0  0  0
   -7.7323  -11.7457    0.0000 C   0  0  0  0  0  0
   -6.2989  -11.3035    0.0000 C   0  0  0  0  0  0
   -5.9652   -9.8411    0.0000 C   0  0  0  0  0  0
   -7.0647   -8.8209    0.0000 C   0  0  0  0  0  0
   -6.7310   -7.3585    0.0000 C   0  0  0  0  0  0
   -5.2976   -6.9164    0.0000 O   0  0  0  0  0  0
   -4.9638   -5.4540    0.0000 C   0  0  2  0  0  0
   -3.5845   -4.8644    0.0000 C   0  0  0  0  0  0
   -3.7190   -3.3705    0.0000 C   0  0  2  0  0  0
   -5.1814   -3.0367    0.0000 N   0  0  0  0  0  0
   -5.9507   -4.3244    0.0000 C   0  0  0  0  0  0
   -6.3541   -2.1015    0.0000 C   0  0  0  0  0  0
   -7.5269   -3.0367    0.0000 O   0  0  0  0  0  0
   -7.0049   -0.7500    0.0000 O   0  0  0  0  0  0
   -7.0049    0.7500    0.0000 C   0  0  0  0  0  0
   -6.3541    2.1015    0.0000 C   0  0  0  0  0  0
   -5.1814    3.0367    0.0000 C   0  0  0  0  0  0
   -3.7190    3.3705    0.0000 C   0  0  0  0  0  0
   -2.2566    3.0367    0.0000 C   0  0  0  0  0  0
   -1.0838    2.1015    0.0000 C   0  0  0  0  0  0
   -0.4330    0.7500    0.0000 C   0  0  2  0  0  0
    0.8660    0.0000    0.0000 C   0  0  0  0  0  0
   -0.4330   -0.7500    0.0000 C   0  0  1  0  0  0
   -1.0838   -2.1015    0.0000 N   0  0  0  0  0  0
   -2.2566   -3.0367    0.0000 C   0  0  0  0  0  0
   -1.6058   -4.3881    0.0000 O   0  0  0  0  0  0
    0.6666   -1.7703    0.0000 C   0  0  0  0  0  0
    0.3328   -3.2327    0.0000 O   0  0  0  0  0  0
    2.0999   -1.3281    0.0000 O   0  0  0  0  0  0
   -7.8305   -6.3382    0.0000 C   0  0  0  0  0  0
   -9.2639   -6.7804    0.0000 C   0  0  0  0  0  0
   -9.5977   -8.2428    0.0000 N   0  0  0  0  0  0
   -8.4981   -9.2630    0.0000 C   0  0  0  0  0  0
   -8.8319  -10.7254    0.0000 C   0  0  0  0  0  0
  -10.3635   -5.7601    0.0000 C   0  0  0  0  0  0
  -10.0297   -4.2977    0.0000 C   0  0  0  0  0  0
  -11.1293   -3.2775    0.0000 C   0  0  0  0  0  0
  -12.5626   -3.7196    0.0000 C   0  0  0  0  0  0
  -12.8964   -5.1820    0.0000 C   0  0  0  0  0  0
  -11.7968   -6.2022    0.0000 C   0  0  0  0  0  0
  1  2  1  0  0  0
  2  3  1  0  0  0
  3  4  2  0  0  0
  3 36  1  0  0  0
  4  5  1  0  0  0
  5  6  2  0  0  0
  6  7  1  0  0  0
  6 35  1  0  0  0
  7  8  1  0  0  0
  7 32  2  0  0  0
  8  9  1  0  0  0
  9 10  1  0  0  0
  9 13  1  6  0  0
 10 11  1  0  0  0
 11 12  1  0  0  0
 11 27  1  1  0  0
 12 13  1  0  0  0
 12 14  1  0  0  0
 14 15  2  0  0  0
 14 16  1  0  0  0
 16 17  1  0  0  0
 17 18  1  0  0  0
 18 19  1  0  0  0
 19 20  1  0  0  0
 20 21  1  0  0  0
 21 22  2  0  0  0
 22 23  1  0  0  0
 23 24  1  0  0  0
 23 25  1  1  0  0
 24 25  1  0  0  0
 25 26  1  0  0  0
 25 29  1  6  0  0
 26 27  1  0  0  0
 27 28  2  0  0  0
 29 30  2  0  0  0
 29 31  1  0  0  0
 32 33  1  0  0  0
 33 34  2  0  0  0
 33 37  1  0  0  0
 34 35  1  0  0  0
 35 36  2  0  0  0
 37 38  2  0  0  0
 37 42  1  0  0  0
 38 39  1  0  0  0
 39 40  2  0  0  0
 40 41  1  0  0  0
 41 42  2  0  0  0
M  END
> <s_m_entry_id>
6917

> <s_m_entry_name>
NS3-4A.458

> <CHEMBLID>
CHEMBL3680939

> <s_m_Source_Path>
/home/liwei/Desktop/Machine/HCV/Active

> <s_m_Source_File>
NS3-4A.sdf

> <i_m_Source_File_Index>
458

$$$$
CHEMBL3680940
                    3D
 Structure written by MMmdl.
 37 41  0  0  1  0            999 V2000
   -9.4994  -13.6502    0.0000 C   0  0  0  0  0  0
   -8.0661  -13.2081    0.0000 O   0  0  0  0  0  0
   -7.7323  -11.7457    0.0000 C   0  0  0  0  0  0
   -6.2989  -11.3035    0.0000 C   0  0  0  0  0  0
   -5.9652   -9.8411    0.0000 C   0  0  0  0  0  0
   -7.0647   -8.8209    0.0000 C   0  0  0  0  0  0
   -6.7310   -7.3585    0.0000 C   0  0  0  0  0  0
   -5.2976   -6.9164    0.0000 O   0  0  0  0  0  0
   -4.9638   -5.4540    0.0000 C   0  0  2  0  0  0
   -3.5845   -4.8644    0.0000 C   0  0  0  0  0  0
   -3.7190   -3.3705    0.0000 C   0  0  2  0  0  0
   -5.1814   -3.0367    0.0000 N   0  0  0  0  0  0
   -5.9507   -4.3244    0.0000 C   0  0  0  0  0  0
   -6.3541   -2.1015    0.0000 C   0  0  0  0  0  0
   -7.5269   -3.0367    0.0000 O   0  0  0  0  0  0
   -7.0049   -0.7500    0.0000 O   0  0  0  0  0  0
   -7.0049    0.7500    0.0000 C   0  0  0  0  0  0
   -6.3541    2.1015    0.0000 C   0  0  0  0  0  0
   -5.1814    3.0367    0.0000 C   0  0  0  0  0  0
   -3.7190    3.3705    0.0000 C   0  0  0  0  0  0
   -2.2566    3.0367    0.0000 C   0  0  0  0  0  0
   -1.0838    2.1015    0.0000 C   0  0  0  0  0  0
   -0.4330    0.7500    0.0000 C   0  0  2  0  0  0
    0.8660    0.0000    0.0000 C   0  0  0  0  0  0
   -0.4330   -0.7500    0.0000 C   0  0  1  0  0  0
   -1.0838   -2.1015    0.0000 N   0  0  0  0  0  0
   -2.2566   -3.0367    0.0000 C   0  0  0  0  0  0
   -1.6058   -4.3881    0.0000 O   0  0  0  0  0  0
    0.6666   -1.7703    0.0000 C   0  0  0  0  0  0
    0.3328   -3.2327    0.0000 O   0  0  0  0  0  0
    2.0999   -1.3281    0.0000 O   0  0  0  0  0  0
   -7.8305   -6.3382    0.0000 N   0  0  0  0  0  0
   -9.2639   -6.7804    0.0000 C   0  0  0  0  0  0
  -10.3635   -5.7601    0.0000 Cl  0  0  0  0  0  0
   -9.5977   -8.2428    0.0000 C   0  0  0  0  0  0
   -8.4981   -9.2630    0.0000 C   0  0  0  0  0  0
   -8.8319  -10.7254    0.0000 C   0  0  0  0  0  0
  1  2  1  0  0  0
  2  3  1  0  0  0
  3  4  2  0  0  0
  3 37  1  0  0  0
  4  5  1  0  0  0
  5  6  2  0  0  0
  6  7  1  0  0  0
  6 36  1  0  0  0
  7  8  1  0  0  0
  7 32  2  0  0  0
  8  9  1  0  0  0
  9 10  1  0  0  0
  9 13  1  6  0  0
 10 11  1  0  0  0
 11 12  1  0  0  0
 11 27  1  1  0  0
 12 13  1  0  0  0
 12 14  1  0  0  0
 14 15  2  0  0  0
 14 16  1  0  0  0
 16 17  1  0  0  0
 17 18  1  0  0  0
 18 19  1  0  0  0
 19 20  1  0  0  0
 20 21  1  0  0  0
 21 22  2  0  0  0
 22 23  1  0  0  0
 23 24  1  0  0  0
 23 25  1  1  0  0
 24 25  1  0  0  0
 25 26  1  0  0  0
 25 29  1  6  0  0
 26 27  1  0  0  0
 27 28  2  0  0  0
 29 30  2  0  0  0
 29 31  1  0  0  0
 32 33  1  0  0  0
 33 34  1  0  0  0
 33 35  2  0  0  0
 35 36  1  0  0  0
 36 37  2  0  0  0
M  END
> <s_m_entry_id>
6918

> <s_m_entry_name>
NS3-4A.459

> <CHEMBLID>
CHEMBL3680940

> <s_m_Source_Path>
/home/liwei/Desktop/Machine/HCV/Active

> <s_m_Source_File>
NS3-4A.sdf

> <i_m_Source_File_Index>
459

$$$$
CHEMBL3680941
                    3D
 Structure written by MMmdl.
 43 48  0  0  1  0            999 V2000
   -9.4994  -13.6502    0.0000 C   0  0  0  0  0  0
   -8.0661  -13.2081    0.0000 O   0  0  0  0  0  0
   -7.7323  -11.7457    0.0000 C   0  0  0  0  0  0
   -6.2989  -11.3035    0.0000 C   0  0  0  0  0  0
   -5.9652   -9.8411    0.0000 C   0  0  0  0  0  0
   -7.0647   -8.8209    0.0000 C   0  0  0  0  0  0
   -6.7310   -7.3585    0.0000 C   0  0  0  0  0  0
   -5.2976   -6.9164    0.0000 O   0  0  0  0  0  0
   -4.9638   -5.4540    0.0000 C   0  0  2  0  0  0
   -3.5845   -4.8644    0.0000 C   0  0  0  0  0  0
   -3.7190   -3.3705    0.0000 C   0  0  2  0  0  0
   -5.1814   -3.0367    0.0000 N   0  0  0  0  0  0
   -5.9507   -4.3244    0.0000 C   0  0  0  0  0  0
   -6.3541   -2.1015    0.0000 C   0  0  0  0  0  0
   -7.5269   -3.0367    0.0000 O   0  0  0  0  0  0
   -7.0049   -0.7500    0.0000 O   0  0  0  0  0  0
   -7.0049    0.7500    0.0000 C   0  0  0  0  0  0
   -6.3541    2.1015    0.0000 C   0  0  0  0  0  0
   -5.1814    3.0367    0.0000 C   0  0  0  0  0  0
   -3.7190    3.3705    0.0000 C   0  0  0  0  0  0
   -2.2566    3.0367    0.0000 C   0  0  0  0  0  0
   -1.0838    2.1015    0.0000 C   0  0  0  0  0  0
   -0.4330    0.7500    0.0000 C   0  0  2  0  0  0
    0.8660    0.0000    0.0000 C   0  0  0  0  0  0
   -0.4330   -0.7500    0.0000 C   0  0  1  0  0  0
   -1.0838   -2.1015    0.0000 N   0  0  0  0  0  0
   -2.2566   -3.0367    0.0000 C   0  0  0  0  0  0
   -1.6058   -4.3881    0.0000 O   0  0  0  0  0  0
    0.6666   -1.7703    0.0000 C   0  0  0  0  0  0
    0.3328   -3.2327    0.0000 O   0  0  0  0  0  0
    2.0999   -1.3281    0.0000 N   0  0  0  0  0  0
    3.1995   -2.3484    0.0000 S   0  0  0  0  0  0
    2.1792   -3.4480    0.0000 O   0  0  0  0  0  0
    4.2198   -1.2488    0.0000 O   0  0  0  0  0  0
    4.2991   -3.3686    0.0000 C   0  0  0  0  0  0
    5.7615   -3.7024    0.0000 C   0  0  0  0  0  0
    4.7412   -4.8020    0.0000 C   0  0  0  0  0  0
   -7.8305   -6.3382    0.0000 N   0  0  0  0  0  0
   -9.2639   -6.7804    0.0000 C   0  0  0  0  0  0
  -10.3635   -5.7601    0.0000 Cl  0  0  0  0  0  0
   -9.5977   -8.2428    0.0000 C   0  0  0  0  0  0
   -8.4981   -9.2630    0.0000 C   0  0  0  0  0  0
   -8.8319  -10.7254    0.0000 C   0  0  0  0  0  0
  1  2  1  0  0  0
  2  3  1  0  0  0
  3  4  2  0  0  0
  3 43  1  0  0  0
  4  5  1  0  0  0
  5  6  2  0  0  0
  6  7  1  0  0  0
  6 42  1  0  0  0
  7  8  1  0  0  0
  7 38  2  0  0  0
  8  9  1  0  0  0
  9 10  1  0  0  0
  9 13  1  6  0  0
 10 11  1  0  0  0
 11 12  1  0  0  0
 11 27  1  1  0  0
 12 13  1  0  0  0
 12 14  1  0  0  0
 14 15  2  0  0  0
 14 16  1  0  0  0
 16 17  1  0  0  0
 17 18  1  0  0  0
 18 19  1  0  0  0
 19 20  1  0  0  0
 20 21  1  0  0  0
 21 22  2  0  0  0
 22 23  1  0  0  0
 23 24  1  0  0  0
 23 25  1  1  0  0
 24 25  1  0  0  0
 25 26  1  0  0  0
 25 29  1  6  0  0
 26 27  1  0  0  0
 27 28  2  0  0  0
 29 30  2  0  0  0
 29 31  1  0  0  0
 31 32  1  0  0  0
 32 33  2  0  0  0
 32 34  2  0  0  0
 32 35  1  0  0  0
 35 36  1  0  0  0
 35 37  1  0  0  0
 36 37  1  0  0  0
 38 39  1  0  0  0
 39 40  1  0  0  0
 39 41  2  0  0  0
 41 42  1  0  0  0
 42 43  2  0  0  0
M  END
> <s_m_entry_id>
6919

> <s_m_entry_name>
NS3-4A.460

> <CHEMBLID>
CHEMBL3680941

> <s_m_Source_Path>
/home/liwei/Desktop/Machine/HCV/Active

> <s_m_Source_File>
NS3-4A.sdf

> <i_m_Source_File_Index>
460

$$$$
CHEMBL3680942
                    3D
 Structure written by MMmdl.
 43 48  0  0  1  0            999 V2000
   -8.0962  -14.4839    0.0000 C   0  0  0  0  0  0
   -6.7259  -13.8738    0.0000 O   0  0  0  0  0  0
   -6.5691  -12.3820    0.0000 C   0  0  0  0  0  0
   -5.1988  -11.7719    0.0000 C   0  0  0  0  0  0
   -5.0420  -10.2801    0.0000 C   0  0  0  0  0  0
   -6.2555   -9.3984    0.0000 C   0  0  0  0  0  0
   -6.0987   -7.9066    0.0000 C   0  0  0  0  0  0
   -4.7284   -7.2965    0.0000 O   0  0  0  0  0  0
   -4.5716   -5.8048    0.0000 C   0  0  2  0  0  0
   -3.2726   -5.0548    0.0000 C   0  0  0  0  0  0
   -3.5844   -3.5875    0.0000 C   0  0  2  0  0  0
   -5.0762   -3.4307    0.0000 N   0  0  0  0  0  0
   -5.6863   -4.8011    0.0000 C   0  0  0  0  0  0
   -6.3752   -2.6807    0.0000 C   0  0  0  0  0  0
   -7.3789   -3.7955    0.0000 O   0  0  0  0  0  0
   -7.2569   -1.4672    0.0000 O   0  0  0  0  0  0
   -7.5688    0.0000    0.0000 C   0  0  0  0  0  0
   -7.2569    1.4672    0.0000 C   0  0  0  0  0  0
   -6.3752    2.6807    0.0000 C   0  0  0  0  0  0
   -5.0762    3.4307    0.0000 C   0  0  0  0  0  0
   -3.5844    3.5875    0.0000 C   0  0  0  0  0  0
   -2.1578    3.1240    0.0000 C   0  0  0  0  0  0
   -1.0431    2.1203    0.0000 C   0  0  0  0  0  0
   -0.4330    0.7500    0.0000 C   0  0  2  0  0  0
    0.8660    0.0000    0.0000 C   0  0  0  0  0  0
   -0.4330   -0.7500    0.0000 C   0  0  1  0  0  0
   -1.0431   -2.1203    0.0000 N   0  0  0  0  0  0
   -2.1578   -3.1240    0.0000 C   0  0  0  0  0  0
   -1.4078   -4.4231    0.0000 O   0  0  0  0  0  0
    0.6817   -1.7537    0.0000 C   0  0  0  0  0  0
    0.3698   -3.2209    0.0000 O   0  0  0  0  0  0
    2.1083   -1.2902    0.0000 O   0  0  0  0  0  0
   -7.3122   -7.0250    0.0000 C   0  0  0  0  0  0
   -8.6825   -7.6351    0.0000 C   0  0  0  0  0  0
   -8.8393   -9.1269    0.0000 N   0  0  0  0  0  0
   -7.6258  -10.0085    0.0000 C   0  0  0  0  0  0
   -7.7826  -11.5003    0.0000 C   0  0  0  0  0  0
   -9.8961   -6.7534    0.0000 C   0  0  0  0  0  0
   -9.7393   -5.2616    0.0000 C   0  0  0  0  0  0
  -10.9528   -4.3799    0.0000 C   0  0  0  0  0  0
  -12.3231   -4.9900    0.0000 C   0  0  0  0  0  0
  -12.4799   -6.4818    0.0000 C   0  0  0  0  0  0
  -11.2664   -7.3635    0.0000 C   0  0  0  0  0  0
  1  2  1  0  0  0
  2  3  1  0  0  0
  3  4  2  0  0  0
  3 37  1  0  0  0
  4  5  1  0  0  0
  5  6  2  0  0  0
  6  7  1  0  0  0
  6 36  1  0  0  0
  7  8  1  0  0  0
  7 33  2  0  0  0
  8  9  1  0  0  0
  9 10  1  0  0  0
  9 13  1  6  0  0
 10 11  1  0  0  0
 11 12  1  0  0  0
 11 28  1  1  0  0
 12 13  1  0  0  0
 12 14  1  0  0  0
 14 15  2  0  0  0
 14 16  1  0  0  0
 16 17  1  0  0  0
 17 18  1  0  0  0
 18 19  1  0  0  0
 19 20  1  0  0  0
 20 21  1  0  0  0
 21 22  1  0  0  0
 22 23  2  0  0  0
 23 24  1  0  0  0
 24 25  1  0  0  0
 24 26  1  1  0  0
 25 26  1  0  0  0
 26 27  1  0  0  0
 26 30  1  6  0  0
 27 28  1  0  0  0
 28 29  2  0  0  0
 30 31  2  0  0  0
 30 32  1  0  0  0
 33 34  1  0  0  0
 34 35  2  0  0  0
 34 38  1  0  0  0
 35 36  1  0  0  0
 36 37  2  0  0  0
 38 39  2  0  0  0
 38 43  1  0  0  0
 39 40  1  0  0  0
 40 41  2  0  0  0
 41 42  1  0  0  0
 42 43  2  0  0  0
M  END
> <s_m_entry_id>
6920

> <s_m_entry_name>
NS3-4A.461

> <CHEMBLID>
CHEMBL3680942

> <s_m_Source_Path>
/home/liwei/Desktop/Machine/HCV/Active

> <s_m_Source_File>
NS3-4A.sdf

> <i_m_Source_File_Index>
461

$$$$
CHEMBL3680943
                    3D
 Structure written by MMmdl.
 46 51  0  0  1  0            999 V2000
   -9.4994  -13.6502    0.0000 C   0  0  0  0  0  0
   -8.0661  -13.2081    0.0000 O   0  0  0  0  0  0
   -7.7323  -11.7457    0.0000 C   0  0  0  0  0  0
   -6.2989  -11.3035    0.0000 C   0  0  0  0  0  0
   -5.9652   -9.8411    0.0000 C   0  0  0  0  0  0
   -7.0647   -8.8209    0.0000 C   0  0  0  0  0  0
   -6.7310   -7.3585    0.0000 C   0  0  0  0  0  0
   -5.2976   -6.9164    0.0000 O   0  0  0  0  0  0
   -4.9638   -5.4540    0.0000 C   0  0  2  0  0  0
   -3.5845   -4.8644    0.0000 C   0  0  0  0  0  0
   -3.7190   -3.3705    0.0000 C   0  0  2  0  0  0
   -5.1814   -3.0367    0.0000 C   0  0  1  0  0  0
   -5.9507   -4.3244    0.0000 C   0  0  0  0  0  0
   -6.3541   -2.1015    0.0000 C   0  0  0  0  0  0
   -7.5269   -3.0367    0.0000 O   0  0  0  0  0  0
   -7.0049   -0.7500    0.0000 N   0  0  0  0  0  0
   -8.4673   -1.0838    0.0000 C   0  0  0  0  0  0
   -7.0049    0.7500    0.0000 C   0  0  0  0  0  0
   -6.3541    2.1015    0.0000 C   0  0  0  0  0  0
   -5.1814    3.0367    0.0000 C   0  0  0  0  0  0
   -3.7190    3.3705    0.0000 C   0  0  0  0  0  0
   -2.2566    3.0367    0.0000 C   0  0  0  0  0  0
   -1.0838    2.1015    0.0000 C   0  0  0  0  0  0
   -0.4330    0.7500    0.0000 C   0  0  2  0  0  0
    0.8660    0.0000    0.0000 C   0  0  0  0  0  0
   -0.4330   -0.7500    0.0000 C   0  0  1  0  0  0
   -1.0838   -2.1015    0.0000 N   0  0  0  0  0  0
   -2.2566   -3.0367    0.0000 C   0  0  0  0  0  0
   -1.6058   -4.3881    0.0000 O   0  0  0  0  0  0
    0.6666   -1.7703    0.0000 C   0  0  0  0  0  0
    0.3328   -3.2327    0.0000 O   0  0  0  0  0  0
    2.0999   -1.3281    0.0000 O   0  0  0  0  0  0
   -7.8305   -6.3382    0.0000 C   0  0  0  0  0  0
   -9.2639   -6.7804    0.0000 C   0  0  0  0  0  0
   -9.5977   -8.2428    0.0000 N   0  0  0  0  0  0
   -8.4981   -9.2630    0.0000 C   0  0  0  0  0  0
   -8.8319  -10.7254    0.0000 C   0  0  0  0  0  0
  -10.2652  -11.1675    0.0000 Cl  0  0  0  0  0  0
  -10.3635   -5.7601    0.0000 C   0  0  0  0  0  0
  -11.8352   -6.0500    0.0000 N   0  0  0  0  0  0
  -12.5657   -4.7399    0.0000 C   0  0  0  0  0  0
  -11.5454   -3.6403    0.0000 C   0  0  0  0  0  0
  -10.1844   -4.2708    0.0000 S   0  0  0  0  0  0
  -14.0549   -4.5608    0.0000 C   0  0  0  0  0  0
  -14.6445   -3.1815    0.0000 C   0  0  0  0  0  0
  -14.9547   -5.7610    0.0000 C   0  0  0  0  0  0
  1  2  1  0  0  0
  2  3  1  0  0  0
  3  4  2  0  0  0
  3 37  1  0  0  0
  4  5  1  0  0  0
  5  6  2  0  0  0
  6  7  1  0  0  0
  6 36  1  0  0  0
  7  8  1  0  0  0
  7 33  2  0  0  0
  8  9  1  0  0  0
  9 10  1  0  0  0
  9 13  1  6  0  0
 10 11  1  0  0  0
 11 12  1  0  0  0
 11 28  1  6  0  0
 12 13  1  0  0  0
 12 14  1  1  0  0
 14 15  2  0  0  0
 14 16  1  0  0  0
 16 17  1  0  0  0
 16 18  1  0  0  0
 18 19  1  0  0  0
 19 20  1  0  0  0
 20 21  1  0  0  0
 21 22  1  0  0  0
 22 23  2  0  0  0
 23 24  1  0  0  0
 24 25  1  0  0  0
 24 26  1  1  0  0
 25 26  1  0  0  0
 26 27  1  0  0  0
 26 30  1  6  0  0
 27 28  1  0  0  0
 28 29  2  0  0  0
 30 31  2  0  0  0
 30 32  1  0  0  0
 33 34  1  0  0  0
 34 35  2  0  0  0
 34 39  1  0  0  0
 35 36  1  0  0  0
 36 37  2  0  0  0
 37 38  1  0  0  0
 39 40  2  0  0  0
 39 43  1  0  0  0
 40 41  1  0  0  0
 41 42  2  0  0  0
 41 44  1  0  0  0
 42 43  1  0  0  0
 44 45  1  0  0  0
 44 46  1  0  0  0
M  END
> <s_m_entry_id>
6921

> <s_m_entry_name>
NS3-4A.462

> <CHEMBLID>
CHEMBL3680943

> <s_m_Source_Path>
/home/liwei/Desktop/Machine/HCV/Active

> <s_m_Source_File>
NS3-4A.sdf

> <i_m_Source_File_Index>
462

$$$$
