REMARK  1 active torsions:
REMARK  status: ('A' for Active; 'I' for Inactive)
REMARK    1  A    between atoms: C9_10  and  C11_12 
ROOT
HETATM    1  C1  UNL     1      -2.342   1.459  -0.769  1.00  0.00     0.035 C 
HETATM    2  C2  UNL     1      -2.971   0.242  -0.060  1.00  0.00     0.033 C 
HETATM    3  C3  UNL     1      -2.145  -0.305   1.131  1.00  0.00     0.127 C 
HETATM    4  C4  UNL     1      -0.625  -0.025   0.969  1.00  0.00     0.033 C 
HETATM    5  C5  UNL     1      -0.273   1.500   0.775  1.00  0.00     0.031 C 
HETATM    6  C6  UNL     1      -1.453   2.317   0.145  1.00  0.00     0.152 C 
HETATM    7  O1  UNL     1      -2.279   2.934   1.115  1.00  0.00    -0.224 OA
HETATM    8  C7  UNL     1       0.955   1.656  -0.158  1.00  0.00     0.005 C 
HETATM    9  C8  UNL     1       2.039   0.608   0.121  1.00  0.00     0.033 C 
HETATM   10  C9  UNL     1       1.537  -0.818  -0.199  1.00  0.00     0.152 C 
HETATM   11  C10 UNL     1      -0.006  -0.912  -0.141  1.00  0.00     0.035 C 
HETATM   12  O3  UNL     1       2.078  -1.703   0.764  1.00  0.00    -0.224 OA
HETATM   13  C14 UNL     1       0.135   2.088   2.143  1.00  0.00     0.003 C 
HETATM   14  O4  UNL     1      -2.584   0.320   2.322  1.00  0.00    -0.226 OA
HETATM   15  C15 UNL     1      -2.441  -1.791   1.365  1.00  0.00     0.033 C 
ENDROOT
BRANCH  10  16
HETATM   16  C11 UNL     1       2.053  -1.308  -1.557  1.00  0.00     0.152 C 
HETATM   17  C12 UNL     1       3.574  -1.457  -1.592  1.00  0.00     0.036 C 
HETATM   18  C13 UNL     1       1.326  -2.562  -2.045  1.00  0.00     0.036 C 
HETATM   19  O2  UNL     1       1.848  -0.283  -2.502  1.00  0.00    -0.224 OA
ENDBRANCH  10  16
TORSDOF 1
