REMARK  1 active torsions:
REMARK  status: ('A' for Active; 'I' for Inactive)
REMARK    1  A    between atoms: C4_4  and  C7_7 
ROOT
HETATM    1  C1  UNL     1      -0.197   1.158   1.229  1.00  0.00     0.003 C 
HETATM    2  C2  UNL     1      -0.697   0.981  -0.244  1.00  0.00     0.001 C 
HETATM    3  C3  UNL     1      -0.189  -0.492  -0.076  1.00  0.00     0.003 C 
HETATM    4  C4  UNL     1       1.344  -0.701  -0.158  1.00  0.00     0.000 C 
HETATM    5  C5  UNL     1       2.135   0.504   0.377  1.00  0.00     0.000 C 
HETATM    6  C6  UNL     1       1.326   1.285   1.420  1.00  0.00     0.000 C 
HETATM    7  C10 UNL     1      -0.678  -0.316   1.397  1.00  0.00     0.018 C 
HETATM    8  C11 UNL     1      -2.195  -0.459   1.561  1.00  0.00    -0.044 C 
HETATM    9  C12 UNL     1      -3.064   0.422   0.695  1.00  0.00     0.022 C 
HETATM   10  C13 UNL     1      -2.232   1.096  -0.416  1.00  0.00     0.004 C 
HETATM   11  C14 UNL     1      -2.744  -1.328   2.428  1.00  0.00    -0.009 C 
HETATM   12  C15 UNL     1      -0.955  -1.549  -0.875  1.00  0.00     0.000 C 
HETATM   13  C16 UNL     1       0.027   1.816  -1.299  1.00  0.00     0.000 C 
HETATM   14  C17 UNL     1      -0.951   2.197   2.063  1.00  0.00     0.000 C 
ENDROOT
BRANCH   4  15
HETATM   15  C7  UNL     1       1.846  -1.090  -1.555  1.00  0.00     0.000 C 
HETATM   16  C8  UNL     1       3.276  -0.615  -1.820  1.00  0.00     0.000 C 
HETATM   17  C9  UNL     1       1.652  -2.576  -1.859  1.00  0.00     0.000 C 
ENDBRANCH   4  15
TORSDOF 1
