REMARK  7 active torsions:
REMARK  status: ('A' for Active; 'I' for Inactive)
REMARK    1  A    between atoms: C7_7  and  C9_10 
REMARK    2  A    between atoms: C9_10  and  C10_11 
REMARK    3  A    between atoms: C10_11  and  O1_12 
REMARK    4  A    between atoms: O1_12  and  C11_13 
REMARK    5  A    between atoms: C15_20  and  C16_22 
REMARK    6  A    between atoms: C16_22  and  O6_23 
REMARK    7  A    between atoms: O6_23  and  C17_24 
ROOT
HETATM    1  C11 UNL     1       0.252  -2.377  -1.699  1.00  0.00     0.270 C 
HETATM    2  C12 UNL     1       0.537  -3.894  -1.822  1.00  0.00     0.241 C 
HETATM    3  O2  UNL     1       0.068  -4.359  -3.078  1.00  0.00    -0.215 OA
HETATM    4  C13 UNL     1       2.049  -4.187  -1.701  1.00  0.00     0.220 C 
HETATM    5  O3  UNL     1       2.264  -5.588  -1.615  1.00  0.00    -0.218 OA
HETATM    6  C14 UNL     1       2.619  -3.494  -0.443  1.00  0.00     0.215 C 
HETATM    7  O4  UNL     1       4.033  -3.596  -0.439  1.00  0.00    -0.218 OA
HETATM    8  C15 UNL     1       2.232  -1.998  -0.402  1.00  0.00     0.180 C 
HETATM    9  O5  UNL     1       0.818  -1.875  -0.496  1.00  0.00    -0.326 OA
ENDROOT
BRANCH   1  10
HETATM   10  O1  UNL     1      -1.141  -2.137  -1.668  1.00  0.00    -0.329 OA
BRANCH  10  11
HETATM   11  C10 UNL     1      -1.471  -0.767  -1.754  1.00  0.00     0.150 C 
BRANCH  11  12
HETATM   12  C9  UNL     1      -2.994  -0.642  -1.769  1.00  0.00     0.060 C 
BRANCH  12  13
HETATM   13  C7  UNL     1      -3.424   0.809  -1.859  1.00  0.00     0.001 A 
HETATM   14  C5  UNL     1      -4.684   1.299  -1.896  1.00  0.00     0.015 A 
HETATM   15  C4  UNL     1      -4.709   2.668  -1.980  1.00  0.00     0.081 A 
HETATM   16  C6  UNL     1      -5.883   0.545  -1.855  1.00  0.00     0.001 A 
HETATM   17  C3  UNL     1      -5.928   3.387  -2.031  1.00  0.00     0.019 A 
HETATM   18  N1  UNL     1      -3.391   3.092  -2.000  1.00  0.00    -0.244 NA
HETATM   19  C2  UNL     1      -7.143   2.654  -1.990  1.00  0.00     0.002 A 
HETATM   20  C1  UNL     1      -7.121   1.236  -1.904  1.00  0.00     0.000 A 
HETATM   21  C8  UNL     1      -2.578   1.932  -1.926  1.00  0.00     0.095 A 
ENDBRANCH  12  13
ENDBRANCH  11  12
ENDBRANCH  10  11
ENDBRANCH   1  10
BRANCH   8  22
HETATM   22  C16 UNL     1       2.646  -1.309   0.902  1.00  0.00     0.177 C 
BRANCH  22  23
HETATM   23  O6  UNL     1       2.395   0.070   0.772  1.00  0.00    -0.326 OA
BRANCH  23  24
HETATM   24  C17 UNL     1       2.807   0.822   1.899  1.00  0.00     0.272 C 
HETATM   25  C18 UNL     1       2.691   2.360   1.656  1.00  0.00     0.241 C 
HETATM   26  C19 UNL     1       2.777   3.174   2.981  1.00  0.00     0.223 C 
HETATM   27  O11 UNL     1       1.475   2.697   1.008  1.00  0.00    -0.215 OA
HETATM   28  C20 UNL     1       3.354   2.291   4.108  1.00  0.00     0.244 C 
HETATM   29  O10 UNL     1       3.584   4.320   2.775  1.00  0.00    -0.218 OA
HETATM   30  C21 UNL     1       2.535   0.971   4.285  1.00  0.00     0.304 C 
HETATM   31  O9  UNL     1       3.459   3.008   5.328  1.00  0.00    -0.215 OA
HETATM   32  O7  UNL     1       1.408   1.147   5.123  1.00  0.00    -0.187 OA
HETATM   33  O8  UNL     1       2.047   0.467   3.043  1.00  0.00    -0.300 OA
ENDBRANCH  23  24
ENDBRANCH  22  23
ENDBRANCH   8  22
TORSDOF 7
