REMARK  0 active torsions:
REMARK  status: ('A' for Active; 'I' for Inactive)
ROOT
HETATM    1  C1  UNL     1      -3.482   2.025  -0.176  1.00  0.00     0.158 A 
HETATM    2  C2  UNL     1      -2.365   2.652  -0.773  1.00  0.00     0.029 A 
HETATM    3  C3  UNL     1      -1.209   1.898  -1.076  1.00  0.00     0.000 A 
HETATM    4  C4  UNL     1      -1.152   0.514  -0.771  1.00  0.00     0.009 A 
HETATM    5  C5  UNL     1      -2.277  -0.113  -0.162  1.00  0.00     0.118 A 
HETATM    6  C6  UNL     1      -3.440   0.645   0.125  1.00  0.00     0.178 A 
HETATM    7  O1  UNL     1      -4.502   0.051   0.689  1.00  0.00    -0.186 OA
HETATM    8  O2  UNL     1      -2.273  -1.428   0.141  1.00  0.00    -0.326 OA
HETATM    9  C7  UNL     1      -1.043  -2.148   0.230  1.00  0.00     0.180 C 
HETATM   10  C8  UNL     1      -0.113  -1.830  -0.957  1.00  0.00     0.166 C 
HETATM   11  C9  UNL     1       0.063  -0.283  -1.113  1.00  0.00     0.077 C 
HETATM   12  C10 UNL     1       1.279  -0.012  -0.242  1.00  0.00    -0.018 A 
HETATM   13  C11 UNL     1       1.979  -1.209   0.012  1.00  0.00    -0.021 A 
HETATM   14  C12 UNL     1       1.303  -2.387  -0.639  1.00  0.00     0.060 C 
HETATM   15  C13 UNL     1       3.158  -1.176   0.801  1.00  0.00     0.025 A 
HETATM   16  C14 UNL     1       3.645   0.031   1.344  1.00  0.00     0.156 A 
HETATM   17  C15 UNL     1       2.949   1.230   1.094  1.00  0.00     0.156 A 
HETATM   18  C16 UNL     1       1.779   1.203   0.307  1.00  0.00     0.025 A 
HETATM   19  O3  UNL     1       3.393   2.391   1.600  1.00  0.00    -0.188 OA
HETATM   20  O4  UNL     1       4.760   0.033   2.088  1.00  0.00    -0.188 OA
HETATM   21  O5  UNL     1      -0.635  -2.412  -2.139  1.00  0.00    -0.222 OA
HETATM   22  O6  UNL     1      -4.580   2.742   0.102  1.00  0.00    -0.188 OA
ENDROOT
TORSDOF 0
