REMARK  4 active torsions:
REMARK  status: ('A' for Active; 'I' for Inactive)
REMARK    1  A    between atoms: C4_4  and  C8_8 
REMARK    2  A    between atoms: C8_8  and  C9_9 
REMARK    3  A    between atoms: C9_9  and  C10_10 
REMARK    4  A    between atoms: C11_11  and  C13_13 
ROOT
HETATM    1  C1  UNL     1      -3.578  -0.793   1.486  1.00  0.00     0.004 C 
HETATM    2  C2  UNL     1      -2.807   0.516   1.672  1.00  0.00     0.018 C 
HETATM    3  C3  UNL     1      -1.398   0.221   2.103  1.00  0.00    -0.045 C 
HETATM    4  C4  UNL     1      -0.648  -0.307   0.916  1.00  0.00     0.015 C 
HETATM    5  C5  UNL     1      -1.812  -0.357  -0.104  1.00  0.00     0.004 C 
HETATM    6  C6  UNL     1      -2.881  -1.406   0.262  1.00  0.00     0.001 C 
HETATM    7  C7  UNL     1      -2.615   0.914   0.211  1.00  0.00     0.004 C 
HETATM    8  C14 UNL     1      -0.037  -1.684   1.150  1.00  0.00     0.004 C 
HETATM    9  C15 UNL     1      -0.900   0.402   3.340  1.00  0.00    -0.009 C 
ENDROOT
BRANCH   4  10
HETATM   10  C8  UNL     1       0.410   0.684   0.435  1.00  0.00     0.008 C 
BRANCH  10  11
HETATM   11  C9  UNL     1       1.234   0.045  -0.682  1.00  0.00     0.026 C 
BRANCH  11  12
HETATM   12  C10 UNL     1       2.131   1.037  -1.373  1.00  0.00    -0.024 C 
HETATM   13  C11 UNL     1       3.111   0.572  -2.166  1.00  0.00     0.038 C 
HETATM   14  C12 UNL     1       3.262  -0.916  -2.322  1.00  0.00     0.037 C 
BRANCH  13  15
HETATM   15  C13 UNL     1       4.012   1.498  -2.863  1.00  0.00     0.206 C 
HETATM   16  O1  UNL     1       4.901   1.076  -3.565  1.00  0.00    -0.644 OA
HETATM   17  O2  UNL     1       3.775   2.793  -2.664  1.00  0.00    -0.644 OA
ENDBRANCH  13  15
ENDBRANCH  11  12
ENDBRANCH  10  11
ENDBRANCH   4  10
TORSDOF 4
