REMARK  2 active torsions:
REMARK  status: ('A' for Active; 'I' for Inactive)
REMARK    1  A    between atoms: C6_6  and  C7_7 
REMARK    2  A    between atoms: C17_18  and  C18_19 
ROOT
HETATM    1  C1  UNL     1      -5.336   0.805  -0.437  1.00  0.00     0.185 C 
HETATM    2  C2  UNL     1      -4.768   0.648  -1.879  1.00  0.00     0.182 C 
HETATM    3  C3  UNL     1      -3.430  -0.127  -1.934  1.00  0.00     0.036 C 
HETATM    4  C4  UNL     1      -2.512   0.209  -0.740  1.00  0.00     0.003 C 
HETATM    5  C5  UNL     1      -3.213  -0.227   0.598  1.00  0.00     0.005 C 
HETATM    6  C6  UNL     1      -4.777  -0.266   0.535  1.00  0.00     0.061 C 
HETATM    7  C8  UNL     1      -5.350  -0.064   1.947  1.00  0.00     0.005 C 
HETATM    8  C9  UNL     1      -2.637  -1.551   1.164  1.00  0.00     0.000 C 
HETATM    9  C10 UNL     1      -1.113  -1.533   1.402  1.00  0.00     0.000 C 
HETATM   10  C11 UNL     1      -0.352  -0.564   0.461  1.00  0.00     0.004 C 
HETATM   11  C12 UNL     1      -0.344   0.813   1.150  1.00  0.00     0.000 C 
HETATM   12  C13 UNL     1       1.125  -1.002   0.207  1.00  0.00     0.015 C 
HETATM   13  C14 UNL     1       1.150  -2.328  -0.576  1.00  0.00     0.004 C 
HETATM   14  C15 UNL     1       1.918  -1.229   1.527  1.00  0.00     0.004 C 
HETATM   15  C16 UNL     1       2.643  -0.016   2.147  1.00  0.00     0.011 C 
HETATM   16  C17 UNL     1       3.121   1.102   1.174  1.00  0.00     0.084 C 
HETATM   17  C19 UNL     1       4.510   1.648   1.576  1.00  0.00     0.011 C 
HETATM   18  C20 UNL     1       5.670   0.740   1.168  1.00  0.00     0.003 C 
HETATM   19  C21 UNL     1       5.672   0.492  -0.350  1.00  0.00     0.028 C 
HETATM   20  C22 UNL     1       6.914  -0.307  -0.773  1.00  0.00     0.003 C 
HETATM   21  C23 UNL     1       4.346  -0.148  -0.824  1.00  0.00     0.131 C 
HETATM   22  C24 UNL     1       4.328  -0.270  -2.352  1.00  0.00     0.033 C 
HETATM   23  C25 UNL     1       3.111   0.664  -0.320  1.00  0.00     0.056 C 
HETATM   24  C26 UNL     1       1.760   0.064  -0.676  1.00  0.00    -0.046 C 
HETATM   25  C27 UNL     1       1.094   0.516  -1.758  1.00  0.00    -0.035 C 
HETATM   26  C28 UNL     1      -0.287   0.008  -2.102  1.00  0.00     0.025 C 
HETATM   27  C29 UNL     1      -1.131  -0.500  -0.896  1.00  0.00     0.005 C 
HETATM   28  O4  UNL     1       4.307  -1.477  -0.352  1.00  0.00    -0.226 OA
HETATM   29  C30 UNL     1      -2.273   1.732  -0.746  1.00  0.00     0.000 C 
HETATM   30  O5  UNL     1      -5.707  -0.037  -2.684  1.00  0.00    -0.221 OA
HETATM   31  O6  UNL     1      -5.039   2.100   0.055  1.00  0.00    -0.221 OA
ENDROOT
BRANCH   6  32
HETATM   32  C7  UNL     1      -5.283  -1.637   0.059  1.00  0.00     0.185 C 
HETATM   33  O1  UNL     1      -6.690  -1.643   0.150  1.00  0.00    -0.221 OA
ENDBRANCH   6  32
BRANCH  16  34
HETATM   34  C18 UNL     1       2.178   2.279   1.330  1.00  0.00     0.184 C 
HETATM   35  O2  UNL     1       1.727   2.848   0.361  1.00  0.00    -0.647 OA
HETATM   36  O3  UNL     1       1.898   2.621   2.584  1.00  0.00    -0.647 OA
ENDBRANCH  16  34
TORSDOF 2
