REMARK  2 active torsions:
REMARK  status: ('A' for Active; 'I' for Inactive)
REMARK    1  A    between atoms: C4_4  and  C11_11 
REMARK    2  A    between atoms: C5_5  and  C7_7 
ROOT
HETATM    1  C1  UNL     1      -0.504  -1.627  -0.203  1.00  0.00    -0.051 C 
HETATM    2  C2  UNL     1      -1.738  -0.816  -0.529  1.00  0.00     0.022 C 
HETATM    3  C3  UNL     1      -1.774   0.471   0.309  1.00  0.00     0.009 C 
HETATM    4  C4  UNL     1      -0.529   1.379   0.111  1.00  0.00     0.023 C 
HETATM    5  C5  UNL     1       0.727   0.559  -0.318  1.00  0.00     0.026 C 
HETATM    6  C6  UNL     1       0.725  -0.871   0.256  1.00  0.00     0.026 C 
HETATM    7  C10 UNL     1      -0.279   2.149   1.418  1.00  0.00     0.005 C 
HETATM    8  C13 UNL     1      -0.498  -2.967  -0.316  1.00  0.00    -0.051 C 
HETATM    9  C14 UNL     1      -1.729  -3.646  -0.857  1.00  0.00     0.026 C 
HETATM   10  C15 UNL     1       0.736  -3.717   0.104  1.00  0.00     0.026 C 
ENDROOT
BRANCH   5  11
HETATM   11  C7  UNL     1       2.029   1.264  -0.021  1.00  0.00    -0.044 C 
HETATM   12  C8  UNL     1       2.561   2.057  -0.967  1.00  0.00    -0.009 C 
HETATM   13  C9  UNL     1       2.762   1.119   1.287  1.00  0.00     0.026 C 
ENDBRANCH   5  11
BRANCH   4  14
HETATM   14  C11 UNL     1      -0.824   2.412  -0.951  1.00  0.00    -0.026 C 
HETATM   15  C12 UNL     1      -1.838   3.270  -0.748  1.00  0.00    -0.005 C 
ENDBRANCH   4  14
TORSDOF 2
