REMARK  7 active torsions:
REMARK  status: ('A' for Active; 'I' for Inactive)
REMARK    1  A    between atoms: C6_6  and  O1_7 
REMARK    2  A    between atoms: O1_7  and  C7_8 
REMARK    3  A    between atoms: C9_10  and  O4_16 
REMARK    4  A    between atoms: O4_16  and  C13_17 
REMARK    5  A    between atoms: C13_17  and  C14_18 
REMARK    6  A    between atoms: C19_23  and  O5_24 
REMARK    7  A    between atoms: C21_29  and  C24_34 
ROOT
HETATM    1  O1  UNL     1      -0.391  -0.440   1.236  1.00  0.00    -0.303 OA
ENDROOT
BRANCH   1   2
HETATM    2  C6  UNL     1       0.836  -0.947   1.420  1.00  0.00     0.101 A 
HETATM    3  C1  UNL     1       0.992  -2.250   1.949  1.00  0.00     0.052 A 
HETATM    4  C2  UNL     1       2.285  -2.789   2.143  1.00  0.00     0.138 A 
HETATM    5  C3  UNL     1       3.426  -2.016   1.803  1.00  0.00     0.089 A 
HETATM    6  O12 UNL     1       2.414  -4.026   2.647  1.00  0.00    -0.190 OA
HETATM    7  C4  UNL     1       3.272  -0.709   1.273  1.00  0.00     0.107 A 
HETATM    8  C23 UNL     1       4.803  -2.547   1.992  1.00  0.00     0.227 A 
HETATM    9  C5  UNL     1       1.975  -0.178   1.082  1.00  0.00     0.049 A 
HETATM   10  O8  UNL     1       4.358   0.027   0.953  1.00  0.00    -0.305 OA
HETATM   11  C21 UNL     1       5.627  -0.406   1.107  1.00  0.00     0.128 A 
HETATM   12  C22 UNL     1       5.906  -1.637   1.602  1.00  0.00     0.192 A 
HETATM   13  O10 UNL     1       7.166  -2.055   1.748  1.00  0.00    -0.185 OA
HETATM   14  O9  UNL     1       5.113  -3.635   2.426  1.00  0.00    -0.284 OA
BRANCH  11  15
HETATM   15  C24 UNL     1       6.748   0.500   0.719  1.00  0.00     0.025 A 
HETATM   16  C25 UNL     1       6.852   0.967  -0.604  1.00  0.00     0.004 A 
HETATM   17  C26 UNL     1       7.908   1.818  -0.967  1.00  0.00     0.028 A 
HETATM   18  C27 UNL     1       8.865   2.209  -0.012  1.00  0.00     0.131 A 
HETATM   19  C28 UNL     1       8.760   1.740   1.309  1.00  0.00     0.028 A 
HETATM   20  O11 UNL     1       9.856   3.008  -0.355  1.00  0.00    -0.190 OA
HETATM   21  C29 UNL     1       7.703   0.887   1.676  1.00  0.00     0.004 A 
ENDBRANCH  11  15
ENDBRANCH   1   2
BRANCH   1  22
HETATM   22  C7  UNL     1      -1.482  -1.348   1.162  1.00  0.00     0.274 C 
HETATM   23  C8  UNL     1      -2.789  -0.563   0.904  1.00  0.00     0.239 C 
HETATM   24  C9  UNL     1      -2.814   0.025  -0.520  1.00  0.00     0.193 C 
HETATM   25  O7  UNL     1      -3.898  -1.426   1.094  1.00  0.00    -0.215 OA
HETATM   26  C10 UNL     1      -2.463  -1.057  -1.555  1.00  0.00     0.209 C 
HETATM   27  C11 UNL     1      -1.148  -1.779  -1.184  1.00  0.00     0.151 C 
HETATM   28  O3  UNL     1      -2.322  -0.451  -2.826  1.00  0.00    -0.218 OA
HETATM   29  O2  UNL     1      -1.252  -2.307   0.135  1.00  0.00    -0.329 OA
HETATM   30  C12 UNL     1      -0.836  -2.957  -2.111  1.00  0.00     0.035 C 
BRANCH  24  31
HETATM   31  O4  UNL     1      -4.090   0.592  -0.803  1.00  0.00    -0.295 OA
BRANCH  31  32
HETATM   32  C13 UNL     1      -4.273   1.756  -0.188  1.00  0.00     0.298 C 
HETATM   33  O6  UNL     1      -3.463   2.266   0.549  1.00  0.00    -0.259 OA
BRANCH  32  34
HETATM   34  C14 UNL     1      -5.582   2.422  -0.467  1.00  0.00     0.085 A 
HETATM   35  C15 UNL     1      -5.879   3.656   0.143  1.00  0.00     0.007 A 
HETATM   36  C16 UNL     1      -7.106   4.291  -0.113  1.00  0.00     0.000 A 
HETATM   37  C17 UNL     1      -8.039   3.693  -0.977  1.00  0.00     0.002 A 
HETATM   38  C18 UNL     1      -7.746   2.463  -1.584  1.00  0.00     0.024 A 
HETATM   39  C19 UNL     1      -6.520   1.822  -1.334  1.00  0.00     0.099 A 
BRANCH  39  40
HETATM   40  O5  UNL     1      -6.258   0.666  -1.912  1.00  0.00    -0.328 OA
HETATM   41  C20 UNL     1      -7.291   0.047  -2.662  1.00  0.00     0.181 C 
ENDBRANCH  39  40
ENDBRANCH  32  34
ENDBRANCH  31  32
ENDBRANCH  24  31
ENDBRANCH   1  22
TORSDOF 7
