REMARK  3 active torsions:
REMARK  status: ('A' for Active; 'I' for Inactive)
REMARK    1  A    between atoms: C6_6  and  O1_7 
REMARK    2  A    between atoms: O1_7  and  C7_8 
REMARK    3  A    between atoms: C11_15  and  C12_17 
ROOT
HETATM    1  C1  UNL     1      -0.783   0.043  -2.340  1.00  0.00     0.047 A 
HETATM    2  C2  UNL     1      -0.648  -0.799  -3.406  1.00  0.00     0.104 A 
HETATM    3  C3  UNL     1       0.598  -1.258  -3.871  1.00  0.00     0.050 A 
HETATM    4  C4  UNL     1       1.752  -0.809  -3.180  1.00  0.00     0.107 A 
HETATM    5  C5  UNL     1       1.615   0.076  -2.061  1.00  0.00     0.046 A 
HETATM    6  C6  UNL     1       0.334   0.527  -1.611  1.00  0.00     0.101 A 
HETATM    7  C13 UNL     1       2.859   0.518  -1.371  1.00  0.00     0.009 A 
HETATM    8  C14 UNL     1       4.051   0.074  -1.817  1.00  0.00     0.069 A 
HETATM    9  C15 UNL     1       4.117  -0.840  -2.979  1.00  0.00     0.300 A 
HETATM   10  O7  UNL     1       2.975  -1.221  -3.584  1.00  0.00    -0.273 OA
HETATM   11  O8  UNL     1       5.203  -1.217  -3.354  1.00  0.00    -0.259 OA
HETATM   12  O9  UNL     1      -1.889  -1.115  -3.932  1.00  0.00    -0.305 OA
HETATM   13  C16 UNL     1      -2.797  -0.396  -3.100  1.00  0.00     0.123 A 
HETATM   14  C17 UNL     1      -2.088   0.322  -2.111  1.00  0.00     0.031 A 
ENDROOT
BRANCH   6  15
HETATM   15  O1  UNL     1       0.326   1.354  -0.555  1.00  0.00    -0.303 OA
BRANCH  15  16
HETATM   16  C7  UNL     1      -0.318   0.912   0.635  1.00  0.00     0.274 C 
HETATM   17  C8  UNL     1      -0.338   2.029   1.717  1.00  0.00     0.241 C 
HETATM   18  O2  UNL     1       0.846   2.809   1.650  1.00  0.00    -0.215 OA
HETATM   19  C9  UNL     1      -0.481   1.465   3.158  1.00  0.00     0.220 C 
HETATM   20  O3  UNL     1      -1.256   2.359   3.939  1.00  0.00    -0.218 OA
HETATM   21  C10 UNL     1      -1.135   0.066   3.111  1.00  0.00     0.215 C 
HETATM   22  O4  UNL     1      -1.221  -0.492   4.412  1.00  0.00    -0.218 OA
HETATM   23  C11 UNL     1      -0.350  -0.916   2.195  1.00  0.00     0.184 C 
HETATM   24  O5  UNL     1       0.344  -0.234   1.150  1.00  0.00    -0.326 OA
BRANCH  23  25
HETATM   25  C12 UNL     1      -1.264  -1.963   1.549  1.00  0.00     0.214 C 
HETATM   26  O6  UNL     1      -1.731  -2.826   2.560  1.00  0.00    -0.218 OA
ENDBRANCH  23  25
ENDBRANCH  15  16
ENDBRANCH   6  15
TORSDOF 3
