REMARK  9 active torsions:
REMARK  status: ('A' for Active; 'I' for Inactive)
REMARK    1  A    between atoms: C1_1  and  C2_2 
REMARK    2  A    between atoms: C1_1  and  O2_13 
REMARK    3  A    between atoms: C3_3  and  C4_4 
REMARK    4  A    between atoms: C4_4  and  C5_5 
REMARK    5  A    between atoms: C5_5  and  C6_6 
REMARK    6  A    between atoms: C6_6  and  C7_7 
REMARK    7  A    between atoms: C7_7  and  C8_8 
REMARK    8  A    between atoms: C8_8  and  C9_9 
REMARK    9  A    between atoms: C9_9  and  C10_10 
ROOT
HETATM    1  C4  UNL     1       1.369   0.742   1.637  1.00  0.00     0.026 C 
ENDROOT
BRANCH   1   2
HETATM    2  C3  UNL     1       2.873   0.686   1.637  1.00  0.00    -0.021 C 
HETATM    3  C2  UNL     1       3.557   1.842   1.637  1.00  0.00     0.064 C 
BRANCH   3   4
HETATM    4  C1  UNL     1       5.025   1.842   1.637  1.00  0.00     0.296 C 
HETATM    5  O1  UNL     1       5.637   0.799   1.637  1.00  0.00    -0.259 OA
BRANCH   4   6
HETATM    6  O2  UNL     1       5.603   3.039   1.637  1.00  0.00    -0.296 OA
HETATM    7  C12 UNL     1       7.021   2.955   1.637  1.00  0.00     0.185 C 
ENDBRANCH   4   6
ENDBRANCH   3   4
ENDBRANCH   1   2
BRANCH   1   8
HETATM    8  C5  UNL     1       0.754  -0.078   0.502  1.00  0.00     0.005 C 
BRANCH   8   9
HETATM    9  C6  UNL     1      -0.774  -0.037   0.506  1.00  0.00     0.000 C 
BRANCH   9  10
HETATM   10  C7  UNL     1      -1.389  -0.855  -0.631  1.00  0.00     0.000 C 
BRANCH  10  11
HETATM   11  C8  UNL     1      -2.916  -0.814  -0.629  1.00  0.00     0.000 C 
BRANCH  11  12
HETATM   12  C9  UNL     1      -3.531  -1.631  -1.766  1.00  0.00     0.000 C 
BRANCH  12  13
HETATM   13  C10 UNL     1      -5.061  -1.592  -1.762  1.00  0.00     0.000 C 
HETATM   14  C11 UNL     1      -5.674  -2.408  -2.899  1.00  0.00     0.000 C 
ENDBRANCH  12  13
ENDBRANCH  11  12
ENDBRANCH  10  11
ENDBRANCH   9  10
ENDBRANCH   8   9
ENDBRANCH   1   8
TORSDOF 9
