REMARK  0 active torsions:
REMARK  status: ('A' for Active; 'I' for Inactive)
ROOT
HETATM    1  C1  UNL     1      -0.602  -0.682   0.375  1.00  0.00     0.000 C 
HETATM    2  C2  UNL     1       0.875  -1.061   0.240  1.00  0.00     0.000 C 
HETATM    3  C3  UNL     1       1.631   0.270   0.076  1.00  0.00     0.002 C 
HETATM    4  C4  UNL     1       0.607   1.301   0.662  1.00  0.00     0.028 C 
HETATM    5  C5  UNL     1      -0.391   0.393   1.432  1.00  0.00     0.002 C 
HETATM    6  C6  UNL     1      -0.242   2.197  -0.297  1.00  0.00     0.127 C 
HETATM    7  C7  UNL     1      -1.502   1.459  -0.793  1.00  0.00     0.030 C 
HETATM    8  C8  UNL     1      -1.297  -0.068  -0.887  1.00  0.00     0.003 C 
HETATM    9  C9  UNL     1      -0.639   3.463   0.477  1.00  0.00     0.033 C 
HETATM   10  O1  UNL     1       0.508   2.678  -1.400  1.00  0.00    -0.226 OA
HETATM   11  C10 UNL     1       2.869   0.242   0.981  1.00  0.00     0.000 C 
HETATM   12  C11 UNL     1       2.090   0.408  -1.381  1.00  0.00     0.000 C 
HETATM   13  C12 UNL     1       0.855  -2.197  -0.785  1.00  0.00     0.000 C 
HETATM   14  C13 UNL     1      -0.459  -2.922  -0.441  1.00  0.00     0.000 C 
HETATM   15  C14 UNL     1      -1.100  -2.098   0.690  1.00  0.00     0.000 C 
HETATM   16  C15 UNL     1      -2.614  -2.238   0.775  1.00  0.00     0.000 C 
ENDROOT
TORSDOF 0
