REMARK  2 active torsions:
REMARK  status: ('A' for Active; 'I' for Inactive)
REMARK    1  A    between atoms: C3_3  and  C23_25 
REMARK    2  A    between atoms: C12_12  and  C15_15 
ROOT
HETATM    1  C1  UNL     1      -4.149   0.937   0.582  1.00  0.00     0.152 C 
HETATM    2  C2  UNL     1      -4.776  -0.475   0.533  1.00  0.00     0.035 C 
HETATM    3  C3  UNL     1      -3.858  -1.578  -0.065  1.00  0.00     0.033 C 
HETATM    4  C4  UNL     1      -2.373  -1.193   0.162  1.00  0.00     0.003 C 
HETATM    5  C5  UNL     1      -1.959   0.109  -0.582  1.00  0.00     0.006 C 
HETATM    6  C6  UNL     1      -3.113   1.156  -0.535  1.00  0.00     0.033 C 
HETATM    7  C7  UNL     1      -0.656   0.643   0.074  1.00  0.00     0.018 C 
HETATM    8  C8  UNL     1       0.422  -0.432   0.250  1.00  0.00    -0.049 C 
HETATM    9  C9  UNL     1       0.059  -1.906   0.320  1.00  0.00     0.022 C 
HETATM   10  C10 UNL     1      -1.354  -2.303  -0.143  1.00  0.00     0.004 C 
HETATM   11  C11 UNL     1       1.721  -0.082   0.371  1.00  0.00    -0.033 C 
HETATM   12  C12 UNL     1       2.137   1.369   0.336  1.00  0.00     0.046 C 
HETATM   13  C13 UNL     1       1.369   2.062  -0.795  1.00  0.00     0.007 C 
HETATM   14  C14 UNL     1      -0.152   1.957  -0.602  1.00  0.00     0.004 C 
HETATM   15  C20 UNL     1       1.885   2.037   1.691  1.00  0.00     0.007 C 
HETATM   16  C21 UNL     1      -1.658  -0.186  -2.067  1.00  0.00     0.000 C 
HETATM   17  C22 UNL     1      -4.186  -2.912   0.617  1.00  0.00     0.003 C 
HETATM   18  O4  UNL     1      -3.537   1.164   1.838  1.00  0.00    -0.224 OA
ENDROOT
BRANCH  12  19
HETATM   19  C15 UNL     1       3.629   1.527   0.078  1.00  0.00     0.151 C 
HETATM   20  C16 UNL     1       4.150   0.746  -1.133  1.00  0.00     0.175 C 
HETATM   21  O1  UNL     1       5.064  -0.166  -0.557  1.00  0.00    -0.332 OA
HETATM   22  C17 UNL     1       5.514   0.332   0.682  1.00  0.00     0.188 C 
HETATM   23  O2  UNL     1       4.342   0.953   1.156  1.00  0.00    -0.334 OA
HETATM   24  C18 UNL     1       6.609   1.375   0.463  1.00  0.00     0.061 C 
HETATM   25  C19 UNL     1       5.922  -0.809   1.601  1.00  0.00     0.061 C 
ENDBRANCH  12  19
BRANCH   3  26
HETATM   26  C23 UNL     1      -4.141  -1.746  -1.565  1.00  0.00     0.182 C 
HETATM   27  O3  UNL     1      -5.442  -2.268  -1.709  1.00  0.00    -0.221 OA
ENDBRANCH   3  26
TORSDOF 2
