REMARK  6 active torsions:
REMARK  status: ('A' for Active; 'I' for Inactive)
REMARK    1  A    between atoms: C2_2  and  O1_11 
REMARK    2  A    between atoms: O1_11  and  C11_12 
REMARK    3  A    between atoms: C11_12  and  C12_13 
REMARK    4  A    between atoms: C12_13  and  C13_15 
REMARK    5  A    between atoms: C13_15  and  N1_16 
REMARK    6  A    between atoms: N1_16  and  C14_17 
ROOT
HETATM    1  C1  UNL     1      -0.115   2.969  -0.061  1.00  0.00     0.024 A 
HETATM    2  C2  UNL     1       1.045   2.158  -0.049  1.00  0.00     0.094 A 
HETATM    3  C3  UNL     1       2.330   2.768  -0.082  1.00  0.00     0.022 A 
HETATM    4  C4  UNL     1       2.440   4.193  -0.127  1.00  0.00     0.002 A 
HETATM    5  C5  UNL     1       1.268   4.992  -0.143  1.00  0.00     0.000 A 
HETATM    6  C6  UNL     1      -0.004   4.377  -0.109  1.00  0.00     0.002 A 
HETATM    7  C7  UNL     1       3.719   4.807  -0.158  1.00  0.00     0.000 A 
HETATM    8  C8  UNL     1       4.883   4.004  -0.147  1.00  0.00     0.000 A 
HETATM    9  C9  UNL     1       4.780   2.596  -0.104  1.00  0.00     0.000 A 
HETATM   10  C10 UNL     1       3.508   1.975  -0.072  1.00  0.00     0.002 A 
ENDROOT
BRANCH   2  11
HETATM   11  O1  UNL     1       0.908   0.824  -0.004  1.00  0.00    -0.328 OA
BRANCH  11  12
HETATM   12  C11 UNL     1      -0.406   0.291   0.029  1.00  0.00     0.184 C 
BRANCH  12  13
HETATM   13  C12 UNL     1      -0.334  -1.236   0.076  1.00  0.00     0.218 C 
HETATM   14  O2  UNL     1       0.311  -1.609   1.273  1.00  0.00    -0.218 OA
BRANCH  13  15
HETATM   15  C13 UNL     1      -1.715  -1.893   0.053  1.00  0.00     0.325 C 
BRANCH  15  16
HETATM   16  N1  UNL     1      -1.592  -3.334  -0.084  1.00  0.00     0.340 N 
BRANCH  16  17
HETATM   17  C14 UNL     1      -2.900  -3.945  -0.232  1.00  0.00     0.257 C 
HETATM   18  C15 UNL     1      -2.766  -5.395  -0.701  1.00  0.00     0.038 C 
HETATM   19  C16 UNL     1      -3.701  -3.818   1.064  1.00  0.00     0.038 C 
ENDBRANCH  16  17
ENDBRANCH  15  16
ENDBRANCH  13  15
ENDBRANCH  12  13
ENDBRANCH  11  12
ENDBRANCH   2  11
TORSDOF 6
