REMARK  1 active torsions:
REMARK  status: ('A' for Active; 'I' for Inactive)
REMARK    1  A    between atoms: C12_14  and  C15_18 
ROOT
HETATM    1  C1  UNL     1       4.322  -0.733   0.560  1.00  0.00     0.028 A 
HETATM    2  C2  UNL     1       4.371   0.670   0.432  1.00  0.00     0.002 A 
HETATM    3  C3  UNL     1       3.180   1.398   0.232  1.00  0.00     0.003 A 
HETATM    4  C4  UNL     1       1.924   0.736   0.160  1.00  0.00     0.044 A 
HETATM    5  C5  UNL     1       1.871  -0.684   0.291  1.00  0.00     0.068 A 
HETATM    6  C6  UNL     1       3.084  -1.408   0.492  1.00  0.00     0.134 A 
HETATM    7  O1  UNL     1       3.082  -2.742   0.623  1.00  0.00    -0.190 OA
HETATM    8  C7  UNL     1       0.570  -1.430   0.219  1.00  0.00     0.200 A 
HETATM    9  C8  UNL     1      -0.664  -0.609  -0.010  1.00  0.00     0.068 A 
HETATM   10  C9  UNL     1      -0.603   0.810  -0.137  1.00  0.00     0.044 A 
HETATM   11  C10 UNL     1       0.691   1.557  -0.055  1.00  0.00     0.196 A 
HETATM   12  O2  UNL     1       0.740   2.764  -0.154  1.00  0.00    -0.287 OA
HETATM   13  C11 UNL     1      -1.799   1.549  -0.352  1.00  0.00     0.009 A 
HETATM   14  C12 UNL     1      -3.043   0.889  -0.440  1.00  0.00     0.067 A 
HETATM   15  C13 UNL     1      -3.111  -0.514  -0.315  1.00  0.00     0.034 A 
HETATM   16  C14 UNL     1      -1.930  -1.260  -0.100  1.00  0.00     0.134 A 
HETATM   17  O3  UNL     1      -2.035  -2.592   0.016  1.00  0.00    -0.190 OA
HETATM   18  O6  UNL     1       0.522  -2.635   0.340  1.00  0.00    -0.286 OA
ENDROOT
BRANCH  14  19
HETATM   19  C15 UNL     1      -4.277   1.668  -0.664  1.00  0.00     0.211 C 
HETATM   20  O4  UNL     1      -4.406   2.863  -0.795  1.00  0.00    -0.644 OA
HETATM   21  O5  UNL     1      -5.289   0.807  -0.705  1.00  0.00    -0.644 OA
ENDBRANCH  14  19
TORSDOF 1
