REMARK  4 active torsions:
REMARK  status: ('A' for Active; 'I' for Inactive)
REMARK    1  A    between atoms: C9_10  and  C17_24 
REMARK    2  A    between atoms: C10_11  and  O2_12 
REMARK    3  A    between atoms: O2_12  and  C11_13 
REMARK    4  A    between atoms: C12_15  and  C16_22 
ROOT
HETATM    1  C1  UNL     1      -3.705   0.961  -2.615  1.00  0.00     0.058 C 
HETATM    2  C2  UNL     1      -2.926  -0.312  -2.848  1.00  0.00    -0.032 C 
HETATM    3  C3  UNL     1      -1.916  -0.703  -2.039  1.00  0.00    -0.046 C 
HETATM    4  C4  UNL     1      -1.445   0.106  -0.828  1.00  0.00     0.048 C 
HETATM    5  C5  UNL     1      -2.065   1.545  -0.756  1.00  0.00     0.034 C 
HETATM    6  C6  UNL     1      -3.559   1.494  -1.178  1.00  0.00     0.157 C 
HETATM    7  O1  UNL     1      -4.303   0.650  -0.305  1.00  0.00    -0.223 OA
HETATM    8  C7  UNL     1      -1.277   2.549  -1.662  1.00  0.00     0.003 C 
HETATM    9  C8  UNL     1      -0.188   1.902  -2.539  1.00  0.00     0.003 C 
HETATM   10  C9  UNL     1       0.826   1.113  -1.695  1.00  0.00     0.028 C 
HETATM   11  C10 UNL     1       0.117   0.123  -0.713  1.00  0.00     0.122 C 
HETATM   12  C20 UNL     1      -2.000   2.065   0.693  1.00  0.00     0.003 C 
HETATM   13  C21 UNL     1      -1.229  -2.018  -2.334  1.00  0.00     0.026 C 
ENDROOT
BRANCH  11  14
HETATM   14  O2  UNL     1       0.475   0.381   0.639  1.00  0.00    -0.331 OA
BRANCH  14  15
HETATM   15  C11 UNL     1       0.418  -0.771   1.457  1.00  0.00     0.270 C 
HETATM   16  O3  UNL     1       1.508  -1.619   1.119  1.00  0.00    -0.326 OA
HETATM   17  C12 UNL     1       1.559  -2.850   1.832  1.00  0.00     0.184 C 
HETATM   18  C13 UNL     1       1.715  -2.561   3.342  1.00  0.00     0.215 C 
HETATM   19  C14 UNL     1       0.594  -1.629   3.853  1.00  0.00     0.220 C 
HETATM   20  O6  UNL     1       1.676  -3.789   4.045  1.00  0.00    -0.218 OA
HETATM   21  C15 UNL     1       0.502  -0.375   2.955  1.00  0.00     0.241 C 
HETATM   22  O5  UNL     1       0.865  -1.242   5.191  1.00  0.00    -0.218 OA
HETATM   23  O4  UNL     1      -0.647   0.377   3.310  1.00  0.00    -0.215 OA
BRANCH  17  24
HETATM   24  C16 UNL     1       2.732  -3.648   1.256  1.00  0.00     0.214 C 
HETATM   25  O7  UNL     1       2.418  -3.994  -0.074  1.00  0.00    -0.218 OA
ENDBRANCH  17  24
ENDBRANCH  14  15
ENDBRANCH  11  14
BRANCH  10  26
HETATM   26  C17 UNL     1       1.842   2.076  -1.037  1.00  0.00     0.002 C 
HETATM   27  C18 UNL     1       3.102   1.359  -0.545  1.00  0.00     0.000 C 
HETATM   28  C19 UNL     1       2.156   3.289  -1.912  1.00  0.00     0.000 C 
ENDBRANCH  10  26
TORSDOF 4
