REMARK  2 active torsions:
REMARK  status: ('A' for Active; 'I' for Inactive)
REMARK    1  A    between atoms: C1_1  and  C11_15 
REMARK    2  A    between atoms: C12_17  and  C16_24 
ROOT
HETATM    1  C1  UNL     1      -0.312   0.731  -0.385  1.00  0.00     0.058 A 
HETATM    2  C2  UNL     1      -0.461   2.041  -0.904  1.00  0.00     0.133 A 
HETATM    3  C3  UNL     1       0.682   2.817  -1.215  1.00  0.00     0.052 A 
HETATM    4  C4  UNL     1       1.977   2.287  -1.010  1.00  0.00     0.107 A 
HETATM    5  C5  UNL     1       2.125   0.973  -0.490  1.00  0.00     0.087 A 
HETATM    6  C6  UNL     1       0.983   0.193  -0.178  1.00  0.00     0.136 A 
HETATM    7  O1  UNL     1       1.119  -1.049   0.313  1.00  0.00    -0.190 OA
HETATM    8  C7  UNL     1       3.502   0.442  -0.287  1.00  0.00     0.201 A 
HETATM    9  C8  UNL     1       4.596   1.365  -0.654  1.00  0.00     0.062 A 
HETATM   10  C9  UNL     1       4.330   2.600  -1.139  1.00  0.00     0.081 A 
HETATM   11  O2  UNL     1       3.065   3.033  -1.307  1.00  0.00    -0.311 OA
HETATM   12  C10 UNL     1       5.492   3.492  -1.492  1.00  0.00     0.058 C 
HETATM   13  O3  UNL     1       3.819  -0.646   0.139  1.00  0.00    -0.286 OA
HETATM   14  O4  UNL     1      -1.682   2.557  -1.103  1.00  0.00    -0.190 OA
ENDROOT
BRANCH   1  15
HETATM   15  C11 UNL     1      -1.504  -0.072  -0.062  1.00  0.00     0.175 C 
HETATM   16  O5  UNL     1      -1.334  -0.600   1.248  1.00  0.00    -0.347 OA
HETATM   17  C12 UNL     1      -2.445  -1.324   1.760  1.00  0.00     0.181 C 
HETATM   18  C13 UNL     1      -2.715  -2.553   0.861  1.00  0.00     0.214 C 
HETATM   19  C14 UNL     1      -2.914  -2.135  -0.611  1.00  0.00     0.218 C 
HETATM   20  O8  UNL     1      -3.875  -3.215   1.334  1.00  0.00    -0.218 OA
HETATM   21  C15 UNL     1      -1.740  -1.234  -1.064  1.00  0.00     0.216 C 
HETATM   22  O7  UNL     1      -2.982  -3.289  -1.433  1.00  0.00    -0.218 OA
HETATM   23  O6  UNL     1      -2.029  -0.703  -2.348  1.00  0.00    -0.218 OA
BRANCH  17  24
HETATM   24  C16 UNL     1      -2.100  -1.711   3.201  1.00  0.00     0.214 C 
HETATM   25  O9  UNL     1      -2.039  -0.531   3.971  1.00  0.00    -0.218 OA
ENDBRANCH  17  24
ENDBRANCH   1  15
TORSDOF 2
