REMARK  5 active torsions:
REMARK  status: ('A' for Active; 'I' for Inactive)
REMARK    1  A    between atoms: O1_1  and  C1_2 
REMARK    2  A    between atoms: C4_5  and  C17_22 
REMARK    3  A    between atoms: C5_6  and  C6_7 
REMARK    4  A    between atoms: C15_19  and  O5_20 
REMARK    5  A    between atoms: C17_22  and  C18_23 
ROOT
HETATM    1  C1  UNL     1      -2.654   5.011  -0.423  1.00  0.00     0.133 A 
HETATM    2  C2  UNL     1      -2.136   3.559  -0.349  1.00  0.00     0.035 A 
HETATM    3  C3  UNL     1      -3.416   3.916  -1.156  1.00  0.00     0.041 A 
HETATM    4  C4  UNL     1      -4.242   2.912  -0.315  1.00  0.00     0.066 A 
HETATM    5  C5  UNL     1      -2.931   2.459   0.435  1.00  0.00     0.032 A 
HETATM    6  C13 UNL     1      -5.048   3.639   0.708  1.00  0.00     0.175 C 
HETATM    7  O4  UNL     1      -6.095   3.143   1.140  1.00  0.00    -0.291 OA
HETATM    8  C14 UNL     1      -4.659   4.990   1.121  1.00  0.00     0.059 C 
HETATM    9  C15 UNL     1      -3.590   5.635   0.628  1.00  0.00     0.099 C 
HETATM   10  C20 UNL     1      -1.143   3.138  -1.496  1.00  0.00     0.003 C 
ENDROOT
BRANCH   5  11
HETATM   11  C6  UNL     1      -2.150   1.119   0.261  1.00  0.00    -0.020 A 
HETATM   12  C7  UNL     1      -0.945   1.069   0.847  1.00  0.00     0.022 A 
HETATM   13  C8  UNL     1      -0.075  -0.023   0.555  1.00  0.00     0.119 A 
HETATM   14  O2  UNL     1       1.196  -0.161   0.929  1.00  0.00    -0.300 OA
HETATM   15  C10 UNL     1      -0.435  -1.006  -0.226  1.00  0.00     0.119 A 
HETATM   16  C9  UNL     1       1.738  -1.341   0.317  1.00  0.00     0.304 A 
HETATM   17  O3  UNL     1       0.589  -1.849  -0.395  1.00  0.00    -0.300 OA
HETATM   18  C11 UNL     1      -1.756  -1.068  -0.822  1.00  0.00     0.026 A 
HETATM   19  C12 UNL     1      -2.586  -0.041  -0.607  1.00  0.00    -0.002 A 
ENDBRANCH   5  11
BRANCH   4  20
HETATM   20  C17 UNL     1      -5.088   1.879  -1.142  1.00  0.00     0.034 C 
BRANCH  20  21
HETATM   21  C18 UNL     1      -6.253   2.479  -1.991  1.00  0.00    -0.026 C 
HETATM   22  C19 UNL     1      -6.521   3.784  -2.134  1.00  0.00    -0.005 C 
ENDBRANCH  20  21
ENDBRANCH   4  20
BRANCH   1  23
HETATM   23  O1  UNL     1      -1.765   5.868  -1.167  1.00  0.00    -0.350 OA
HETATM   24  C21 UNL     1      -0.750   6.439  -0.298  1.00  0.00     0.175 C 
ENDBRANCH   1  23
BRANCH   9  25
HETATM   25  O5  UNL     1      -3.370   6.976   1.005  1.00  0.00    -0.330 OA
HETATM   26  C16 UNL     1      -4.381   7.455   1.901  1.00  0.00     0.181 C 
ENDBRANCH   9  25
TORSDOF 5
