REMARK  5 active torsions:
REMARK  status: ('A' for Active; 'I' for Inactive)
REMARK    1  A    between atoms: C2_2  and  O1_3 
REMARK    2  A    between atoms: O1_3  and  C3_4 
REMARK    3  A    between atoms: C3_4  and  C4_6 
REMARK    4  A    between atoms: C4_6  and  C5_7 
REMARK    5  A    between atoms: C5_7  and  N1_8 
ROOT
HETATM    1  C3  UNL     1      -1.152  -0.662  -0.594  1.00  0.00     0.297 C 
HETATM    2  O2  UNL     1      -1.041  -1.301  -1.613  1.00  0.00    -0.259 OA
ENDROOT
BRANCH   1   3
HETATM    3  O1  UNL     1      -0.654  -1.043   0.578  1.00  0.00    -0.298 OA
BRANCH   3   4
HETATM    4  C2  UNL     1      -0.113  -2.355   0.533  1.00  0.00     0.152 C 
HETATM    5  C1  UNL     1       0.443  -2.724   1.910  1.00  0.00     0.035 C 
ENDBRANCH   3   4
ENDBRANCH   1   3
BRANCH   1   6
HETATM    6  C4  UNL     1      -1.873   0.617  -0.594  1.00  0.00     0.087 C 
BRANCH   6   7
HETATM    7  C5  UNL     1      -1.201   1.781  -0.594  1.00  0.00     0.077 C 
BRANCH   7   8
HETATM    8  N1  UNL     1       0.164   1.781  -0.594  1.00  0.00    -0.343 N 
HETATM    9  C6  UNL     1       0.936   0.705  -1.234  1.00  0.00     0.126 C 
HETATM   10  C7  UNL     1       0.887   2.881   0.061  1.00  0.00     0.126 C 
ENDBRANCH   7   8
ENDBRANCH   6   7
ENDBRANCH   1   6
TORSDOF 5
