REMARK  5 active torsions:
REMARK  status: ('A' for Active; 'I' for Inactive)
REMARK    1  A    between atoms: C2_3  and  C3_4 
REMARK    2  A    between atoms: C3_4  and  C4_5 
REMARK    3  A    between atoms: C14_15  and  C15_17 
REMARK    4  A    between atoms: C19_21  and  C21_23 
REMARK    5  A    between atoms: C21_23  and  C22_24 
ROOT
HETATM    1  O1  UNL     1       4.734   3.939  -3.629  1.00  0.00    -0.190 OA
HETATM    2  C1  UNL     1       4.525   3.533  -2.367  1.00  0.00     0.129 A 
HETATM    3  C2  UNL     1       3.440   2.676  -2.063  1.00  0.00     0.030 A 
HETATM    4  C8  UNL     1       3.227   2.248  -0.729  1.00  0.00     0.095 A 
HETATM    5  C9  UNL     1       4.084   2.717   0.305  1.00  0.00     0.057 A 
HETATM    6  C10 UNL     1       5.180   3.559  -0.006  1.00  0.00     0.007 A 
HETATM    7  C11 UNL     1       5.399   3.965  -1.342  1.00  0.00     0.027 A 
HETATM    8  C12 UNL     1       3.818   2.328   1.717  1.00  0.00     0.178 C 
HETATM    9  C13 UNL     1       2.545   1.545   1.961  1.00  0.00     0.104 C 
HETATM   10  C14 UNL     1       2.197   0.644   0.758  1.00  0.00     0.151 C 
HETATM   11  O2  UNL     1       2.209   1.402  -0.457  1.00  0.00    -0.329 OA
HETATM   12  O4  UNL     1       4.510   2.578   2.678  1.00  0.00    -0.291 OA
ENDROOT
BRANCH  10  13
HETATM   13  C15 UNL     1       0.883  -0.006   0.904  1.00  0.00     0.005 A 
HETATM   14  C16 UNL     1      -0.301   0.756   0.781  1.00  0.00    -0.004 A 
HETATM   15  C17 UNL     1      -1.566   0.135   0.920  1.00  0.00    -0.000 A 
HETATM   16  C18 UNL     1      -1.646  -1.266   1.176  1.00  0.00     0.086 A 
HETATM   17  C28 UNL     1      -2.807   0.939   0.799  1.00  0.00     0.031 C 
HETATM   18  C19 UNL     1      -0.453  -2.022   1.307  1.00  0.00     0.004 A 
HETATM   19  O3  UNL     1      -2.838  -1.893   1.305  1.00  0.00    -0.336 OA
HETATM   20  C20 UNL     1       0.807  -1.395   1.168  1.00  0.00    -0.004 A 
HETATM   21  C26 UNL     1      -4.066  -1.250   0.939  1.00  0.00     0.099 C 
HETATM   22  C27 UNL     1      -4.025   0.219   1.397  1.00  0.00     0.033 C 
HETATM   23  C29 UNL     1      -5.207  -2.004   1.629  1.00  0.00     0.030 C 
HETATM   24  C30 UNL     1      -4.234  -1.356  -0.582  1.00  0.00     0.030 C 
BRANCH  18  25
HETATM   25  C21 UNL     1      -0.518  -3.467   1.584  1.00  0.00     0.054 C 
BRANCH  25  26
HETATM   26  C22 UNL     1      -0.760  -3.754   3.041  1.00  0.00    -0.030 C 
HETATM   27  C23 UNL     1      -1.062  -5.010   3.406  1.00  0.00    -0.048 C 
HETATM   28  C24 UNL     1      -1.334  -5.291   4.859  1.00  0.00     0.026 C 
HETATM   29  C25 UNL     1      -1.113  -6.074   2.342  1.00  0.00     0.026 C 
ENDBRANCH  25  26
ENDBRANCH  18  25
ENDBRANCH  10  13
BRANCH   3  30
HETATM   30  C3  UNL     1       2.535   2.225  -3.135  1.00  0.00     0.056 C 
BRANCH  30  31
HETATM   31  C4  UNL     1       1.354   3.141  -3.303  1.00  0.00    -0.030 C 
HETATM   32  C5  UNL     1       0.564   2.980  -4.379  1.00  0.00    -0.048 C 
HETATM   33  C6  UNL     1      -0.633   3.826  -4.711  1.00  0.00     0.026 C 
HETATM   34  C7  UNL     1       0.885   1.869  -5.344  1.00  0.00     0.026 C 
ENDBRANCH  30  31
ENDBRANCH   3  30
TORSDOF 5
