REMARK  4 active torsions:
REMARK  status: ('A' for Active; 'I' for Inactive)
REMARK    1  A    between atoms: C1_2  and  C5_6 
REMARK    2  A    between atoms: C5_6  and  C6_7 
REMARK    3  A    between atoms: C6_7  and  C7_8 
REMARK    4  A    between atoms: C7_8  and  C8_9 
ROOT
HETATM    1  O1  UNL     1       1.266  -2.402  -1.094  1.00  0.00    -0.309 OA
HETATM    2  C1  UNL     1       1.625  -1.086  -1.094  1.00  0.00     0.078 A 
HETATM    3  C2  UNL     1       3.014  -0.918  -1.094  1.00  0.00     0.022 A 
HETATM    4  C3  UNL     1       3.551  -2.205  -1.094  1.00  0.00     0.028 A 
HETATM    5  C4  UNL     1       2.455  -3.074  -1.094  1.00  0.00     0.122 A 
ENDROOT
BRANCH   2   6
HETATM    6  C5  UNL     1       0.594   0.021  -1.094  1.00  0.00     0.051 C 
BRANCH   6   7
HETATM    7  C6  UNL     1      -0.236   0.004   0.190  1.00  0.00     0.007 C 
BRANCH   7   8
HETATM    8  C7  UNL     1      -1.289   1.113   0.229  1.00  0.00     0.000 C 
BRANCH   8   9
HETATM    9  C8  UNL     1      -2.119   1.096   1.512  1.00  0.00     0.000 C 
HETATM   10  C9  UNL     1      -3.170   2.205   1.549  1.00  0.00     0.000 C 
ENDBRANCH   8   9
ENDBRANCH   7   8
ENDBRANCH   6   7
ENDBRANCH   2   6
TORSDOF 4
