REMARK  14 active torsions:
REMARK  status: ('A' for Active; 'I' for Inactive)
REMARK    1  A    between atoms: C2_2  and  O5_27 
REMARK    2  A    between atoms: C12_12  and  C15_15 
REMARK    3  A    between atoms: C18_19  and  O2_21 
REMARK    4  A    between atoms: O5_27  and  C23_28 
REMARK    5  A    between atoms: C25_31  and  O7_32 
REMARK    6  A    between atoms: O7_32  and  C26_33 
REMARK    7  A    between atoms: C28_35  and  O18_62 
REMARK    8  A    between atoms: C29_36  and  O8_37 
REMARK    9  A    between atoms: O8_37  and  C30_38 
REMARK   10  A    between atoms: C32_40  and  O16_57 
REMARK   11  A    between atoms: C33_41  and  O10_45 
REMARK   12  A    between atoms: O10_45  and  C36_46 
REMARK   13  A    between atoms: C37_48  and  C41_55 
REMARK   14  A    between atoms: C46_64  and  O19_66 
ROOT
HETATM    1  C23 UNL     1       0.965   1.914  -2.408  1.00  0.00     0.238 C 
HETATM    2  O6  UNL     1       0.223   1.115  -3.320  1.00  0.00    -0.331 OA
HETATM    3  C24 UNL     1      -1.066   0.727  -2.863  1.00  0.00     0.147 C 
HETATM    4  C25 UNL     1      -0.973  -0.068  -1.524  1.00  0.00     0.172 C 
HETATM    5  C46 UNL     1       0.453  -0.162  -0.936  1.00  0.00     0.150 C 
HETATM    6  C47 UNL     1       1.189   1.186  -1.055  1.00  0.00     0.094 C 
HETATM    7  C49 UNL     1      -1.699  -0.100  -3.984  1.00  0.00     0.035 C 
ENDROOT
BRANCH   4   8
HETATM    8  O7  UNL     1      -1.801   0.564  -0.565  1.00  0.00    -0.328 OA
BRANCH   8   9
HETATM    9  C26 UNL     1      -2.039  -0.234   0.574  1.00  0.00     0.238 C 
HETATM   10  C27 UNL     1      -3.543  -0.557   0.713  1.00  0.00     0.094 C 
HETATM   11  C28 UNL     1      -4.379   0.617   1.260  1.00  0.00     0.150 C 
HETATM   12  C29 UNL     1      -3.693   1.252   2.488  1.00  0.00     0.172 C 
HETATM   13  C43 UNL     1      -2.178   1.504   2.281  1.00  0.00     0.147 C 
HETATM   14  O17 UNL     1      -1.523   0.334   1.781  1.00  0.00    -0.331 OA
HETATM   15  C44 UNL     1      -1.885   2.705   1.373  1.00  0.00     0.035 C 
BRANCH  11  16
HETATM   16  O18 UNL     1      -4.539   1.594   0.250  1.00  0.00    -0.351 OA
HETATM   17  C45 UNL     1      -5.270   1.129  -0.861  1.00  0.00     0.174 C 
ENDBRANCH  11  16
BRANCH  12  18
HETATM   18  O8  UNL     1      -3.871   0.387   3.598  1.00  0.00    -0.328 OA
BRANCH  18  19
HETATM   19  C30 UNL     1      -5.045   0.656   4.332  1.00  0.00     0.238 C 
HETATM   20  C31 UNL     1      -4.934   0.064   5.752  1.00  0.00     0.094 C 
HETATM   21  C32 UNL     1      -5.029  -1.471   5.740  1.00  0.00     0.150 C 
HETATM   22  C33 UNL     1      -6.279  -1.910   4.947  1.00  0.00     0.172 C 
HETATM   23  C34 UNL     1      -6.315  -1.248   3.549  1.00  0.00     0.147 C 
HETATM   24  O9  UNL     1      -6.217   0.168   3.682  1.00  0.00    -0.331 OA
HETATM   25  C35 UNL     1      -7.613  -1.533   2.789  1.00  0.00     0.035 C 
BRANCH  21  26
HETATM   26  O16 UNL     1      -5.096  -1.936   7.074  1.00  0.00    -0.351 OA
HETATM   27  C42 UNL     1      -3.904  -1.717   7.799  1.00  0.00     0.174 C 
ENDBRANCH  21  26
BRANCH  22  28
HETATM   28  O10 UNL     1      -6.274  -3.316   4.785  1.00  0.00    -0.327 OA
BRANCH  28  29
HETATM   29  C36 UNL     1      -6.744  -4.010   5.924  1.00  0.00     0.270 C 
HETATM   30  O11 UNL     1      -5.693  -4.748   6.545  1.00  0.00    -0.326 OA
HETATM   31  C37 UNL     1      -5.150  -5.824   5.777  1.00  0.00     0.184 C 
HETATM   32  C38 UNL     1      -6.250  -6.858   5.422  1.00  0.00     0.215 C 
HETATM   33  C39 UNL     1      -7.449  -6.164   4.731  1.00  0.00     0.220 C 
HETATM   34  O14 UNL     1      -6.666  -7.529   6.602  1.00  0.00    -0.218 OA
HETATM   35  C40 UNL     1      -7.924  -4.959   5.576  1.00  0.00     0.241 C 
HETATM   36  O13 UNL     1      -8.506  -7.084   4.506  1.00  0.00    -0.218 OA
HETATM   37  O12 UNL     1      -8.951  -4.246   4.906  1.00  0.00    -0.215 OA
BRANCH  31  38
HETATM   38  C41 UNL     1      -3.984  -6.420   6.576  1.00  0.00     0.214 C 
HETATM   39  O15 UNL     1      -2.940  -5.473   6.604  1.00  0.00    -0.218 OA
ENDBRANCH  31  38
ENDBRANCH  28  29
ENDBRANCH  22  28
ENDBRANCH  18  19
ENDBRANCH  12  18
ENDBRANCH   8   9
ENDBRANCH   4   8
BRANCH   5  40
HETATM   40  O19 UNL     1       1.182  -1.148  -1.647  1.00  0.00    -0.351 OA
HETATM   41  C48 UNL     1       2.393  -1.504  -1.020  1.00  0.00     0.174 C 
ENDBRANCH   5  40
BRANCH   1  42
HETATM   42  O5  UNL     1       2.207   2.246  -2.990  1.00  0.00    -0.331 OA
BRANCH  42  43
HETATM   43  C2  UNL     1       2.088   3.106  -4.109  1.00  0.00     0.152 C 
HETATM   44  C1  UNL     1       3.205   4.168  -4.041  1.00  0.00     0.180 C 
HETATM   45  C6  UNL     1       4.606   3.598  -4.383  1.00  0.00     0.039 C 
HETATM   46  O20 UNL     1       2.889   5.225  -4.926  1.00  0.00    -0.221 OA
HETATM   47  C5  UNL     1       4.690   2.766  -5.692  1.00  0.00     0.018 C 
HETATM   48  C4  UNL     1       3.570   1.729  -5.615  1.00  0.00    -0.046 C 
HETATM   49  C7  UNL     1       6.108   2.137  -5.943  1.00  0.00     0.011 C 
HETATM   50  C22 UNL     1       4.391   3.684  -6.887  1.00  0.00     0.004 C 
HETATM   51  C3  UNL     1       2.166   2.260  -5.395  1.00  0.00     0.054 C 
HETATM   52  C10 UNL     1       3.773   0.398  -5.705  1.00  0.00    -0.034 C 
HETATM   53  C9  UNL     1       5.141  -0.201  -5.897  1.00  0.00     0.033 C 
HETATM   54  C8  UNL     1       6.275   0.707  -5.406  1.00  0.00     0.062 C 
HETATM   55  C11 UNL     1       6.498   0.729  -3.910  1.00  0.00     0.153 C 
HETATM   56  C12 UNL     1       7.733   1.490  -3.461  1.00  0.00     0.071 C 
HETATM   57  O4  UNL     1       5.740   0.178  -3.143  1.00  0.00    -0.296 OA
HETATM   58  C13 UNL     1       7.695   2.928  -4.027  1.00  0.00     0.011 C 
HETATM   59  C21 UNL     1       8.981   0.752  -3.957  1.00  0.00     0.012 C 
HETATM   60  C14 UNL     1       7.318   3.008  -5.526  1.00  0.00     0.002 C 
BRANCH  56  61
HETATM   61  C15 UNL     1       7.799   1.537  -1.953  1.00  0.00     0.018 A 
HETATM   62  C16 UNL     1       8.090   0.512  -1.152  1.00  0.00     0.065 A 
HETATM   63  C17 UNL     1       8.043   1.008   0.213  1.00  0.00     0.297 A 
HETATM   64  O1  UNL     1       7.733   2.313   0.230  1.00  0.00    -0.274 OA
HETATM   65  O3  UNL     1       8.258   0.316   1.182  1.00  0.00    -0.259 OA
HETATM   66  C18 UNL     1       7.549   2.770  -1.121  1.00  0.00     0.212 A 
HETATM   67  C19 UNL     1       8.514   3.910  -1.418  1.00  0.00     0.067 C 
BRANCH  66  68
HETATM   68  O2  UNL     1       6.227   3.234  -1.301  1.00  0.00    -0.329 OA
HETATM   69  C20 UNL     1       5.258   2.391  -0.721  1.00  0.00     0.177 C 
ENDBRANCH  66  68
ENDBRANCH  56  61
ENDBRANCH  42  43
ENDBRANCH   1  42
TORSDOF 14
