REMARK  8 active torsions:
REMARK  status: ('A' for Active; 'I' for Inactive)
REMARK    1  A    between atoms: C1_1  and  C18_30 
REMARK    2  A    between atoms: C4_4  and  C5_6 
REMARK    3  A    between atoms: C5_6  and  O2_7 
REMARK    4  A    between atoms: O2_7  and  C6_8 
REMARK    5  A    between atoms: C7_10  and  C11_17 
REMARK    6  A    between atoms: C11_17  and  O7_18 
REMARK    7  A    between atoms: O7_18  and  C12_19 
REMARK    8  A    between atoms: C13_21  and  C17_28 
ROOT
HETATM    1  C6  UNL     1       0.535   0.918   2.061  1.00  0.00     0.270 C 
HETATM    2  O3  UNL     1       0.070   0.895   0.713  1.00  0.00    -0.326 OA
HETATM    3  C7  UNL     1      -1.344   0.838   0.541  1.00  0.00     0.180 C 
HETATM    4  C8  UNL     1      -2.004   2.070   1.201  1.00  0.00     0.215 C 
HETATM    5  C9  UNL     1      -1.590   2.211   2.684  1.00  0.00     0.220 C 
HETATM    6  C10 UNL     1      -0.051   2.156   2.787  1.00  0.00     0.241 C 
HETATM    7  O4  UNL     1       0.365   2.176   4.145  1.00  0.00    -0.215 OA
HETATM    8  O5  UNL     1      -2.067   3.443   3.199  1.00  0.00    -0.218 OA
HETATM    9  O6  UNL     1      -3.410   1.938   1.105  1.00  0.00    -0.218 OA
ENDROOT
BRANCH   3  10
HETATM   10  C11 UNL     1      -1.598   0.768  -0.969  1.00  0.00     0.177 C 
BRANCH  10  11
HETATM   11  O7  UNL     1      -0.656  -0.117  -1.533  1.00  0.00    -0.326 OA
BRANCH  11  12
HETATM   12  C12 UNL     1      -0.805  -0.270  -2.936  1.00  0.00     0.270 C 
HETATM   13  O8  UNL     1      -0.584   0.963  -3.619  1.00  0.00    -0.326 OA
HETATM   14  C13 UNL     1       0.736   1.494  -3.533  1.00  0.00     0.184 C 
HETATM   15  C14 UNL     1       1.750   0.486  -4.121  1.00  0.00     0.215 C 
HETATM   16  C15 UNL     1       1.621  -0.906  -3.463  1.00  0.00     0.220 C 
HETATM   17  O11 UNL     1       3.059   0.990  -3.926  1.00  0.00    -0.218 OA
HETATM   18  C16 UNL     1       0.144  -1.355  -3.508  1.00  0.00     0.241 C 
HETATM   19  O10 UNL     1       2.432  -1.842  -4.158  1.00  0.00    -0.218 OA
HETATM   20  O9  UNL     1      -0.033  -2.582  -2.816  1.00  0.00    -0.215 OA
BRANCH  14  21
HETATM   21  C17 UNL     1       0.723   2.828  -4.289  1.00  0.00     0.214 C 
HETATM   22  O12 UNL     1      -0.088   3.732  -3.572  1.00  0.00    -0.218 OA
ENDBRANCH  14  21
ENDBRANCH  11  12
ENDBRANCH  10  11
ENDBRANCH   3  10
BRANCH   1  23
HETATM   23  O2  UNL     1       0.219  -0.291   2.734  1.00  0.00    -0.322 OA
BRANCH  23  24
HETATM   24  C5  UNL     1       0.775  -1.432   2.119  1.00  0.00     0.196 C 
BRANCH  24  25
HETATM   25  C4  UNL     1       0.590  -2.633   3.020  1.00  0.00     0.108 A 
HETATM   26  C3  UNL     1       1.012  -3.941   2.748  1.00  0.00     0.025 A 
HETATM   27  C2  UNL     1       0.629  -4.705   3.852  1.00  0.00     0.030 A 
HETATM   28  C1  UNL     1       0.002  -3.805   4.713  1.00  0.00     0.142 A 
HETATM   29  O1  UNL     1      -0.037  -2.531   4.231  1.00  0.00    -0.306 OA
BRANCH  28  30
HETATM   30  C18 UNL     1      -0.594  -4.057   6.018  1.00  0.00     0.259 C 
HETATM   31  O13 UNL     1      -0.582  -5.172   6.484  1.00  0.00    -0.281 OA
ENDBRANCH  28  30
ENDBRANCH  24  25
ENDBRANCH  23  24
ENDBRANCH   1  23
TORSDOF 8
