REMARK  2 active torsions:
REMARK  status: ('A' for Active; 'I' for Inactive)
REMARK    1  A    between atoms: C8_9  and  C10_11 
REMARK    2  A    between atoms: C10_11  and  C11_12 
ROOT
HETATM    1  C1  UNL     1       4.586   1.164   0.762  1.00  0.00     0.002 A 
HETATM    2  C2  UNL     1       4.279  -0.211   0.654  1.00  0.00    -0.000 A 
HETATM    3  C3  UNL     1       2.932  -0.635   0.609  1.00  0.00    -0.002 A 
HETATM    4  C4  UNL     1       1.883   0.316   0.672  1.00  0.00     0.000 A 
HETATM    5  C5  UNL     1       2.192   1.701   0.785  1.00  0.00     0.090 A 
HETATM    6  C6  UNL     1       3.545   2.117   0.826  1.00  0.00     0.024 A 
HETATM    7  O1  UNL     1       1.221   2.639   0.846  1.00  0.00    -0.331 OA
HETATM    8  C7  UNL     1      -0.146   2.268   1.055  1.00  0.00     0.149 C 
HETATM    9  C8  UNL     1      -0.494   1.014   0.238  1.00  0.00     0.039 C 
HETATM   10  C9  UNL     1       0.469  -0.129   0.619  1.00  0.00     0.031 C 
ENDROOT
BRANCH   9  11
HETATM   11  C10 UNL     1      -1.955   0.604   0.432  1.00  0.00     0.029 C 
BRANCH  11  12
HETATM   12  C11 UNL     1      -2.326  -0.533  -0.451  1.00  0.00    -0.022 A 
HETATM   13  C12 UNL     1      -2.412  -1.836   0.076  1.00  0.00    -0.004 A 
HETATM   14  C13 UNL     1      -2.762  -2.910  -0.760  1.00  0.00    -0.000 A 
HETATM   15  C14 UNL     1      -3.027  -2.686  -2.121  1.00  0.00    -0.000 A 
HETATM   16  C15 UNL     1      -2.943  -1.385  -2.649  1.00  0.00    -0.000 A 
HETATM   17  C16 UNL     1      -2.592  -0.309  -1.813  1.00  0.00    -0.004 A 
ENDBRANCH  11  12
ENDBRANCH   9  11
TORSDOF 2
