REMARK  1 active torsions:
REMARK  status: ('A' for Active; 'I' for Inactive)
REMARK    1  A    between atoms: C1_1  and  O3_22 
ROOT
HETATM    1  C1  UNL     1      -2.070  -1.973  -2.027  1.00  0.00     0.116 C 
HETATM    2  C2  UNL     1      -2.154  -0.758  -1.295  1.00  0.00     0.122 A 
HETATM    3  C3  UNL     1      -1.416  -0.576  -0.148  1.00  0.00     0.026 A 
HETATM    4  C4  UNL     1      -0.609  -1.559   0.424  1.00  0.00    -0.002 C 
HETATM    5  C5  UNL     1      -0.266  -2.629  -0.412  1.00  0.00    -0.020 C 
HETATM    6  C6  UNL     1      -1.061  -2.897  -1.580  1.00  0.00     0.022 C 
HETATM    7  C7  UNL     1       0.963  -3.371  -0.039  1.00  0.00     0.026 C 
HETATM    8  C8  UNL     1       2.242  -2.461  -0.113  1.00  0.00     0.005 C 
HETATM    9  C9  UNL     1       2.459  -1.357   0.981  1.00  0.00     0.003 C 
HETATM   10  C10 UNL     1       2.223   0.133   0.555  1.00  0.00     0.033 C 
HETATM   11  C11 UNL     1       2.436   1.229   1.660  1.00  0.00     0.152 C 
HETATM   12  C12 UNL     1       1.971   2.701   1.340  1.00  0.00     0.038 C 
HETATM   13  C13 UNL     1       0.580   3.264   1.830  1.00  0.00     0.029 C 
HETATM   14  C14 UNL     1      -0.564   2.701   1.074  1.00  0.00    -0.022 C 
HETATM   15  C15 UNL     1      -1.398   3.451   0.174  1.00  0.00    -0.002 C 
HETATM   16  C16 UNL     1      -2.299   2.773  -0.715  1.00  0.00     0.024 C 
HETATM   17  C17 UNL     1      -2.270   1.355  -0.713  1.00  0.00     0.100 A 
HETATM   18  C18 UNL     1      -1.488   0.693   0.203  1.00  0.00     0.024 A 
HETATM   19  C19 UNL     1      -0.781   1.324   1.227  1.00  0.00    -0.002 C 
HETATM   20  O1  UNL     1      -2.799   0.455  -1.685  1.00  0.00    -0.305 OA
HETATM   21  O2  UNL     1       1.936   0.816   2.914  1.00  0.00    -0.224 OA
ENDROOT
BRANCH   1  22
HETATM   22  O3  UNL     1      -2.758  -2.342  -3.115  1.00  0.00    -0.326 OA
HETATM   23  C20 UNL     1      -3.750  -1.453  -3.609  1.00  0.00     0.181 C 
ENDBRANCH   1  22
TORSDOF 1
