REMARK  2 active torsions:
REMARK  status: ('A' for Active; 'I' for Inactive)
REMARK    1  A    between atoms: C10_11  and  C14_17 
REMARK    2  A    between atoms: C11_13  and  C12_14 
ROOT
HETATM    1  C1  UNL     1       3.568   0.359   1.176  1.00  0.00     0.019 A 
HETATM    2  C2  UNL     1       4.559  -0.365   0.461  1.00  0.00     0.002 A 
HETATM    3  C3  UNL     1       4.199  -1.162  -0.662  1.00  0.00     0.000 A 
HETATM    4  C4  UNL     1       2.846  -1.242  -1.082  1.00  0.00     0.002 A 
HETATM    5  C5  UNL     1       1.879  -0.508  -0.352  1.00  0.00     0.019 A 
HETATM    6  C6  UNL     1       2.225   0.271   0.748  1.00  0.00     0.081 A 
HETATM    7  N1  UNL     1       1.055   0.873   1.260  1.00  0.00    -0.244 NA
HETATM    8  C7  UNL     1       0.016   0.420   0.424  1.00  0.00     0.097 A 
HETATM    9  C8  UNL     1       0.549  -0.418  -0.547  1.00  0.00     0.022 A 
HETATM   10  C9  UNL     1      -0.277  -1.027  -1.535  1.00  0.00     0.027 A 
HETATM   11  C10 UNL     1      -1.686  -0.762  -1.522  1.00  0.00     0.145 A 
HETATM   12  N2  UNL     1      -2.213   0.080  -0.543  1.00  0.00    -0.240 NA
HETATM   13  C11 UNL     1      -1.375   0.646   0.394  1.00  0.00     0.107 A 
ENDROOT
BRANCH  11  14
HETATM   14  C14 UNL     1      -2.463  -1.434  -2.582  1.00  0.00     0.229 C 
HETATM   15  O2  UNL     1      -2.072  -2.174  -3.455  1.00  0.00    -0.643 OA
HETATM   16  O3  UNL     1      -3.736  -1.084  -2.424  1.00  0.00    -0.643 OA
ENDBRANCH  11  14
BRANCH  13  17
HETATM   17  C12 UNL     1      -1.977   1.529   1.406  1.00  0.00     0.193 C 
HETATM   18  C13 UNL     1      -3.127   0.840   2.140  1.00  0.00     0.042 C 
HETATM   19  O1  UNL     1      -2.484   2.686   0.779  1.00  0.00    -0.217 OA
ENDBRANCH  13  17
TORSDOF 2
