REMARK  7 active torsions:
REMARK  status: ('A' for Active; 'I' for Inactive)
REMARK    1  A    between atoms: C5_5  and  C7_7 
REMARK    2  A    between atoms: C7_7  and  O1_8 
REMARK    3  A    between atoms: O1_8  and  C8_9 
REMARK    4  A    between atoms: C8_9  and  C9_10 
REMARK    5  A    between atoms: C9_10  and  O2_11 
REMARK    6  A    between atoms: O2_11  and  C10_12 
REMARK    7  A    between atoms: C10_12  and  C11_13 
ROOT
HETATM    1  C7  UNL     1      -1.856  -0.232   0.000  1.00  0.00     0.296 C 
HETATM    2  O4  UNL     1      -2.481   0.803   0.000  1.00  0.00    -0.259 OA
ENDROOT
BRANCH   1   3
HETATM    3  C5  UNL     1      -2.555  -1.553   0.000  1.00  0.00     0.063 A 
HETATM    4  C4  UNL     1      -1.809  -2.746   0.000  1.00  0.00     0.005 A 
HETATM    5  C3  UNL     1      -2.467  -3.986   0.000  1.00  0.00     0.000 A 
HETATM    6  C2  UNL     1      -3.871  -4.037   0.000  1.00  0.00     0.000 A 
HETATM    7  C1  UNL     1      -4.619  -2.848   0.000  1.00  0.00     0.000 A 
HETATM    8  C6  UNL     1      -3.961  -1.606   0.000  1.00  0.00     0.005 A 
ENDBRANCH   1   3
BRANCH   1   9
HETATM    9  O1  UNL     1      -0.527  -0.295   0.000  1.00  0.00    -0.296 OA
BRANCH   9  10
HETATM   10  C8  UNL     1       0.074   0.990   0.000  1.00  0.00     0.184 C 
BRANCH  10  11
HETATM   11  C9  UNL     1       1.598   0.842   0.000  1.00  0.00     0.175 C 
BRANCH  11  12
HETATM   12  O2  UNL     1       2.166   2.131   0.000  1.00  0.00    -0.349 OA
BRANCH  12  13
HETATM   13  C10 UNL     1       3.576   2.115   0.000  1.00  0.00     0.178 C 
BRANCH  13  14
HETATM   14  C11 UNL     1       4.070   3.561   0.000  1.00  0.00     0.214 C 
HETATM   15  O3  UNL     1       5.480   3.545   0.000  1.00  0.00    -0.218 OA
ENDBRANCH  13  14
ENDBRANCH  12  13
ENDBRANCH  11  12
ENDBRANCH  10  11
ENDBRANCH   9  10
ENDBRANCH   1   9
TORSDOF 7
