REMARK  4 active torsions:
REMARK  status: ('A' for Active; 'I' for Inactive)
REMARK    1  A    between atoms: C1_1  and  C10_16 
REMARK    2  A    between atoms: C10_16  and  C11_17 
REMARK    3  A    between atoms: C11_17  and  C12_18 
REMARK    4  A    between atoms: C15_21  and  O7_24 
ROOT
HETATM    1  C1  UNL     1      -0.387  -0.979  -0.137  1.00  0.00     0.081 A 
HETATM    2  C2  UNL     1      -0.381  -2.317   0.037  1.00  0.00     0.062 A 
HETATM    3  C3  UNL     1      -1.641  -3.004   0.310  1.00  0.00     0.198 A 
HETATM    4  C4  UNL     1      -2.848  -2.158   0.353  1.00  0.00     0.070 A 
HETATM    5  C5  UNL     1      -4.258  -2.695   0.600  1.00  0.00     0.212 C 
HETATM    6  C6  UNL     1      -5.256  -2.135  -0.449  1.00  0.00     0.220 C 
HETATM    7  C7  UNL     1      -5.135  -0.588  -0.604  1.00  0.00     0.222 C 
HETATM    8  C8  UNL     1      -3.967   0.019   0.223  1.00  0.00     0.230 C 
HETATM    9  C9  UNL     1      -2.703  -0.822   0.160  1.00  0.00     0.112 A 
HETATM   10  O1  UNL     1      -1.506  -0.219  -0.078  1.00  0.00    -0.313 OA
HETATM   11  O2  UNL     1      -3.713   1.340  -0.225  1.00  0.00    -0.214 OA
HETATM   12  O3  UNL     1      -6.352   0.012  -0.193  1.00  0.00    -0.217 OA
HETATM   13  O4  UNL     1      -5.006  -2.729  -1.717  1.00  0.00    -0.217 OA
HETATM   14  O5  UNL     1      -4.344  -4.108   0.660  1.00  0.00    -0.216 OA
HETATM   15  O6  UNL     1      -1.654  -4.201   0.486  1.00  0.00    -0.287 OA
ENDROOT
BRANCH   1  16
HETATM   16  C10 UNL     1       0.935  -0.313  -0.412  1.00  0.00     0.056 C 
BRANCH  16  17
HETATM   17  C11 UNL     1       1.521   0.357   0.830  1.00  0.00     0.033 C 
BRANCH  17  18
HETATM   18  C12 UNL     1       2.832   0.998   0.541  1.00  0.00    -0.020 A 
HETATM   19  C13 UNL     1       4.025   0.295   0.781  1.00  0.00     0.025 A 
HETATM   20  C14 UNL     1       5.268   0.896   0.510  1.00  0.00     0.153 A 
HETATM   21  C15 UNL     1       5.314   2.205  -0.008  1.00  0.00     0.119 A 
HETATM   22  O8  UNL     1       6.383   0.232   0.738  1.00  0.00    -0.188 OA
HETATM   23  C16 UNL     1       4.119   2.906  -0.248  1.00  0.00     0.026 A 
HETATM   24  C17 UNL     1       2.879   2.305   0.025  1.00  0.00    -0.002 A 
BRANCH  21  25
HETATM   25  O7  UNL     1       6.473   2.777  -0.266  1.00  0.00    -0.326 OA
HETATM   26  C18 UNL     1       6.463   4.060  -0.873  1.00  0.00     0.181 C 
ENDBRANCH  21  25
ENDBRANCH  17  18
ENDBRANCH  16  17
ENDBRANCH   1  16
TORSDOF 4
