REMARK  6 active torsions:
REMARK  status: ('A' for Active; 'I' for Inactive)
REMARK    1  A    between atoms: C3_3  and  C13_15 
REMARK    2  A    between atoms: C4_4  and  O1_8 
REMARK    3  A    between atoms: O1_8  and  C8_9 
REMARK    4  A    between atoms: C8_9  and  C9_11 
REMARK    5  A    between atoms: C13_15  and  C14_16 
REMARK    6  A    between atoms: C13_15  and  O4_19 
ROOT
HETATM    1  C1  UNL     1       1.562  -3.160  -0.063  1.00  0.00    -0.004 A 
HETATM    2  C2  UNL     1       2.221  -1.918  -0.063  1.00  0.00    -0.000 A 
HETATM    3  C3  UNL     1       1.475  -0.725  -0.063  1.00  0.00     0.027 A 
HETATM    4  C4  UNL     1       0.066  -0.773  -0.063  1.00  0.00     0.101 A 
HETATM    5  C5  UNL     1      -0.586  -2.020  -0.063  1.00  0.00     0.020 A 
HETATM    6  C6  UNL     1       0.158  -3.211  -0.063  1.00  0.00    -0.020 A 
HETATM    7  C7  UNL     1      -0.537  -4.523  -0.063  1.00  0.00     0.031 C 
ENDROOT
BRANCH   4   8
HETATM    8  O1  UNL     1      -0.643   0.338  -0.063  1.00  0.00    -0.274 OA
BRANCH   8   9
HETATM    9  C8  UNL     1      -1.772   0.383  -0.764  1.00  0.00     0.296 C 
HETATM   10  O2  UNL     1      -2.006  -0.336  -1.707  1.00  0.00    -0.259 OA
BRANCH   9  11
HETATM   11  C9  UNL     1      -2.754   1.381  -0.326  1.00  0.00     0.037 C 
HETATM   12  C10 UNL     1      -2.502   2.174   0.728  1.00  0.00    -0.025 C 
HETATM   13  C11 UNL     1      -3.545   3.180   1.135  1.00  0.00     0.030 C 
HETATM   14  C12 UNL     1      -4.067   1.541  -1.049  1.00  0.00     0.036 C 
ENDBRANCH   9  11
ENDBRANCH   8   9
ENDBRANCH   4   8
BRANCH   3  15
HETATM   15  C13 UNL     1       2.180   0.584  -0.063  1.00  0.00     0.144 C 
HETATM   16  C15 UNL     1       3.689   0.410   0.113  1.00  0.00     0.037 C 
BRANCH  15  17
HETATM   17  C14 UNL     1       1.953   1.346  -1.369  1.00  0.00     0.213 C 
HETATM   18  O3  UNL     1       2.244   0.481  -2.442  1.00  0.00    -0.218 OA
ENDBRANCH  15  17
BRANCH  15  19
HETATM   19  O4  UNL     1       1.701   1.377   1.000  1.00  0.00    -0.350 OA
HETATM   20  C16 UNL     1       1.943   0.811   2.267  1.00  0.00     0.175 C 
ENDBRANCH  15  19
ENDBRANCH   3  15
TORSDOF 6
