REMARK  11 active torsions:
REMARK  status: ('A' for Active; 'I' for Inactive)
REMARK    1  A    between atoms: C1_1  and  O20_57 
REMARK    2  A    between atoms: C4_4  and  C7_7 
REMARK    3  A    between atoms: C8_8  and  O10_36 
REMARK    4  A    between atoms: C12_13  and  C22_30 
REMARK    5  A    between atoms: C13_14  and  O3_18 
REMARK    6  A    between atoms: O3_18  and  C16_19 
REMARK    7  A    between atoms: C17_21  and  O5_22 
REMARK    8  A    between atoms: C22_30  and  C23_31 
REMARK    9  A    between atoms: O10_36  and  C27_37 
REMARK   10  A    between atoms: C28_38  and  O14_46 
REMARK   11  A    between atoms: O14_46  and  C33_47 
ROOT
HETATM    1  C7  UNL     1       1.580   0.119  -1.033  1.00  0.00     0.125 A 
HETATM    2  C8  UNL     1       1.861  -1.111  -0.537  1.00  0.00     0.158 A 
HETATM    3  C9  UNL     1       0.762  -2.023  -0.146  1.00  0.00     0.224 A 
HETATM    4  C10 UNL     1      -0.619  -1.496  -0.334  1.00  0.00     0.089 A 
HETATM    5  C11 UNL     1      -0.777  -0.189  -0.863  1.00  0.00     0.103 A 
HETATM    6  O1  UNL     1       0.309   0.547  -1.183  1.00  0.00    -0.305 OA
HETATM    7  C12 UNL     1      -2.078   0.340  -1.055  1.00  0.00     0.028 A 
HETATM    8  C13 UNL     1      -3.213  -0.436  -0.715  1.00  0.00     0.097 A 
HETATM    9  C14 UNL     1      -3.051  -1.738  -0.185  1.00  0.00     0.052 A 
HETATM   10  C15 UNL     1      -1.756  -2.273   0.008  1.00  0.00     0.138 A 
HETATM   11  O2  UNL     1      -1.621  -3.510   0.510  1.00  0.00    -0.190 OA
HETATM   12  O9  UNL     1       1.074  -3.109   0.287  1.00  0.00    -0.284 OA
ENDROOT
BRANCH   2  13
HETATM   13  O10 UNL     1       3.123  -1.523  -0.394  1.00  0.00    -0.298 OA
BRANCH  13  14
HETATM   14  C27 UNL     1       3.809  -0.816   0.631  1.00  0.00     0.271 C 
HETATM   15  C28 UNL     1       3.885  -1.660   1.922  1.00  0.00     0.207 C 
HETATM   16  C29 UNL     1       4.776  -2.906   1.727  1.00  0.00     0.217 C 
HETATM   17  C30 UNL     1       6.143  -2.465   1.156  1.00  0.00     0.212 C 
HETATM   18  O13 UNL     1       4.961  -3.568   2.967  1.00  0.00    -0.218 OA
HETATM   19  C31 UNL     1       5.961  -1.592  -0.107  1.00  0.00     0.151 C 
HETATM   20  O12 UNL     1       6.916  -3.602   0.817  1.00  0.00    -0.218 OA
HETATM   21  O11 UNL     1       5.121  -0.482   0.195  1.00  0.00    -0.329 OA
HETATM   22  C32 UNL     1       7.281  -1.016  -0.633  1.00  0.00     0.035 C 
BRANCH  15  23
HETATM   23  O14 UNL     1       2.576  -2.041   2.301  1.00  0.00    -0.324 OA
BRANCH  23  24
HETATM   24  C33 UNL     1       1.807  -0.969   2.805  1.00  0.00     0.272 C 
HETATM   25  O15 UNL     1       2.420  -0.385   3.951  1.00  0.00    -0.300 OA
HETATM   26  C34 UNL     1       2.625  -1.248   5.072  1.00  0.00     0.304 C 
HETATM   27  C35 UNL     1       1.451  -2.270   5.240  1.00  0.00     0.244 C 
HETATM   28  O19 UNL     1       2.789  -0.418   6.207  1.00  0.00    -0.187 OA
HETATM   29  C36 UNL     1       0.123  -1.756   4.649  1.00  0.00     0.223 C 
HETATM   30  O18 UNL     1       1.289  -2.725   6.574  1.00  0.00    -0.215 OA
HETATM   31  C37 UNL     1       0.356  -1.441   3.139  1.00  0.00     0.241 C 
HETATM   32  O17 UNL     1      -0.297  -0.611   5.379  1.00  0.00    -0.218 OA
HETATM   33  O16 UNL     1      -0.584  -0.498   2.647  1.00  0.00    -0.215 OA
ENDBRANCH  23  24
ENDBRANCH  15  23
ENDBRANCH  13  14
ENDBRANCH   2  13
BRANCH   1  34
HETATM   34  C4  UNL     1       2.699   1.031  -1.424  1.00  0.00     0.025 A 
HETATM   35  C3  UNL     1       2.682   2.381  -1.025  1.00  0.00     0.004 A 
HETATM   36  C2  UNL     1       3.734   3.236  -1.392  1.00  0.00     0.024 A 
HETATM   37  C1  UNL     1       4.809   2.748  -2.158  1.00  0.00     0.094 A 
HETATM   38  C6  UNL     1       4.824   1.398  -2.555  1.00  0.00     0.024 A 
HETATM   39  C5  UNL     1       3.772   0.541  -2.189  1.00  0.00     0.004 A 
BRANCH  37  40
HETATM   40  O20 UNL     1       5.795   3.551  -2.504  1.00  0.00    -0.328 OA
HETATM   41  C38 UNL     1       6.897   2.992  -3.203  1.00  0.00     0.181 C 
ENDBRANCH  37  40
ENDBRANCH   1  34
BRANCH   7  42
HETATM   42  C22 UNL     1      -2.248   1.695  -1.605  1.00  0.00     0.056 C 
BRANCH  42  43
HETATM   43  C23 UNL     1      -2.420   2.729  -0.523  1.00  0.00    -0.030 C 
HETATM   44  C24 UNL     1      -2.742   3.983  -0.881  1.00  0.00    -0.048 C 
HETATM   45  C25 UNL     1      -3.246   4.397  -2.238  1.00  0.00     0.026 C 
HETATM   46  C26 UNL     1      -2.598   5.080   0.139  1.00  0.00     0.026 C 
ENDBRANCH  42  43
ENDBRANCH   7  42
BRANCH   8  47
HETATM   47  O3  UNL     1      -4.447   0.057  -0.891  1.00  0.00    -0.304 OA
BRANCH  47  48
HETATM   48  C16 UNL     1      -5.395  -0.748  -1.580  1.00  0.00     0.276 C 
HETATM   49  O4  UNL     1      -6.682  -0.576  -0.992  1.00  0.00    -0.302 OA
HETATM   50  C17 UNL     1      -7.397   0.564  -1.441  1.00  0.00     0.272 C 
HETATM   51  C19 UNL     1      -7.797   0.379  -2.943  1.00  0.00     0.241 C 
HETATM   52  O6  UNL     1      -9.090  -0.197  -3.094  1.00  0.00    -0.215 OA
HETATM   53  C20 UNL     1      -6.785  -0.506  -3.725  1.00  0.00     0.223 C 
HETATM   54  C21 UNL     1      -5.385  -0.375  -3.090  1.00  0.00     0.241 C 
HETATM   55  O8  UNL     1      -6.764  -0.113  -5.086  1.00  0.00    -0.218 OA
HETATM   56  O7  UNL     1      -4.455  -1.203  -3.762  1.00  0.00    -0.215 OA
BRANCH  50  57
HETATM   57  O5  UNL     1      -8.506   0.815  -0.598  1.00  0.00    -0.326 OA
HETATM   58  C18 UNL     1      -8.135   1.207   0.705  1.00  0.00     0.177 C 
ENDBRANCH  50  57
ENDBRANCH  47  48
ENDBRANCH   8  47
TORSDOF 11
