REMARK  9 active torsions:
REMARK  status: ('A' for Active; 'I' for Inactive)
REMARK    1  A    between atoms: C3_3  and  O3_19 
REMARK    2  A    between atoms: C5_5  and  C7_7 
REMARK    3  A    between atoms: C7_7  and  C8_8 
REMARK    4  A    between atoms: C8_8  and  C9_9 
REMARK    5  A    between atoms: C9_9  and  C10_10 
REMARK    6  A    between atoms: C10_10  and  C11_11 
REMARK    7  A    between atoms: C11_11  and  C12_12 
REMARK    8  A    between atoms: C13_13  and  C14_14 
REMARK    9  A    between atoms: C14_14  and  C15_15 
ROOT
HETATM    1  C8  UNL     1       1.369  -1.154  -0.237  1.00  0.00     0.069 C 
ENDROOT
BRANCH   1   2
HETATM    2  C7  UNL     1       1.184  -1.693  -1.655  1.00  0.00     0.034 C 
BRANCH   2   3
HETATM    3  C5  UNL     1       0.488  -3.008  -1.655  1.00  0.00    -0.020 A 
HETATM    4  C4  UNL     1      -0.916  -3.060  -1.655  1.00  0.00     0.022 A 
HETATM    5  C3  UNL     1      -1.578  -4.301  -1.655  1.00  0.00     0.119 A 
HETATM    6  C2  UNL     1      -0.830  -5.494  -1.655  1.00  0.00     0.153 A 
HETATM    7  C1  UNL     1       0.574  -5.439  -1.655  1.00  0.00     0.029 A 
HETATM    8  O4  UNL     1      -1.441  -6.662  -1.655  1.00  0.00    -0.188 OA
HETATM    9  C6  UNL     1       1.235  -4.199  -1.655  1.00  0.00    -0.002 A 
BRANCH   5  10
HETATM   10  O3  UNL     1      -2.894  -4.344  -1.655  1.00  0.00    -0.326 OA
HETATM   11  C17 UNL     1      -3.601  -3.111  -1.614  1.00  0.00     0.181 C 
ENDBRANCH   5  10
ENDBRANCH   2   3
ENDBRANCH   1   2
BRANCH   1  12
HETATM   12  C9  UNL     1       2.098   0.162  -0.213  1.00  0.00     0.154 C 
HETATM   13  O2  UNL     1       2.229   0.819  -1.219  1.00  0.00    -0.296 OA
BRANCH  12  14
HETATM   14  C10 UNL     1       2.660   0.637   1.101  1.00  0.00     0.102 C 
BRANCH  14  15
HETATM   15  C11 UNL     1       1.592   1.256   2.002  1.00  0.00     0.181 C 
HETATM   16  O1  UNL     1       0.731   0.229   2.437  1.00  0.00    -0.218 OA
BRANCH  15  17
HETATM   17  C12 UNL     1       0.789   2.317   1.297  1.00  0.00     0.002 C 
HETATM   18  C13 UNL     1       0.924   3.592   1.697  1.00  0.00    -0.028 C 
BRANCH  18  19
HETATM   19  C14 UNL     1       0.121   4.654   0.992  1.00  0.00     0.026 C 
BRANCH  19  20
HETATM   20  C15 UNL     1      -0.697   5.506   1.961  1.00  0.00     0.005 C 
HETATM   21  C16 UNL     1      -1.506   6.594   1.252  1.00  0.00     0.000 C 
ENDBRANCH  19  20
ENDBRANCH  18  19
ENDBRANCH  15  17
ENDBRANCH  14  15
ENDBRANCH  12  14
ENDBRANCH   1  12
TORSDOF 9
