REMARK  3 active torsions:
REMARK  status: ('A' for Active; 'I' for Inactive)
REMARK    1  A    between atoms: C1_1  and  O4_17 
REMARK    2  A    between atoms: C4_4  and  C7_8 
REMARK    3  A    between atoms: C7_8  and  C8_10 
ROOT
HETATM    1  C1  UNL     1       0.361   2.506   1.047  1.00  0.00     0.121 A 
HETATM    2  C2  UNL     1       0.627   1.226   1.569  1.00  0.00     0.153 A 
HETATM    3  C3  UNL     1       0.045   0.094   0.973  1.00  0.00     0.035 A 
HETATM    4  C4  UNL     1      -0.801   0.232  -0.140  1.00  0.00     0.067 A 
HETATM    5  C5  UNL     1      -1.068   1.514  -0.664  1.00  0.00     0.136 A 
HETATM    6  C6  UNL     1      -0.486   2.644  -0.066  1.00  0.00     0.054 A 
HETATM    7  O1  UNL     1      -1.861   1.660  -1.709  1.00  0.00    -0.190 OA
HETATM    8  O3  UNL     1       1.420   1.086   2.612  1.00  0.00    -0.188 OA
ENDROOT
BRANCH   4   9
HETATM    9  C7  UNL     1      -1.412  -0.981  -0.763  1.00  0.00     0.198 C 
HETATM   10  O2  UNL     1      -2.516  -0.940  -1.252  1.00  0.00    -0.286 OA
BRANCH   9  11
HETATM   11  C8  UNL     1      -0.619  -2.246  -0.763  1.00  0.00     0.039 A 
HETATM   12  C9  UNL     1      -1.275  -3.490  -0.763  1.00  0.00     0.003 A 
HETATM   13  C10 UNL     1      -0.529  -4.682  -0.763  1.00  0.00     0.000 A 
HETATM   14  C11 UNL     1       0.875  -4.629  -0.763  1.00  0.00     0.000 A 
HETATM   15  C12 UNL     1       1.533  -3.389  -0.763  1.00  0.00     0.000 A 
HETATM   16  C13 UNL     1       0.787  -2.197  -0.763  1.00  0.00     0.003 A 
ENDBRANCH   9  11
ENDBRANCH   4   9
BRANCH   1  17
HETATM   17  O4  UNL     1       0.902   3.574   1.600  1.00  0.00    -0.326 OA
HETATM   18  C14 UNL     1       0.732   4.822   0.944  1.00  0.00     0.181 C 
ENDBRANCH   1  17
TORSDOF 3
