REMARK  22 active torsions:
REMARK  status: ('A' for Active; 'I' for Inactive)
REMARK    1  A    between atoms: C1_2  and  C2_3 
REMARK    2  A    between atoms: C1_2  and  C49_79 
REMARK    3  A    between atoms: C2_3  and  O2_4 
REMARK    4  A    between atoms: C2_3  and  C10_16 
REMARK    5  A    between atoms: C2_3  and  C42_68 
REMARK    6  A    between atoms: O2_4  and  C3_5 
REMARK    7  A    between atoms: C3_5  and  C4_6 
REMARK    8  A    between atoms: C10_16  and  O7_17 
REMARK    9  A    between atoms: C10_16  and  C18_29 
REMARK   10  A    between atoms: C10_16  and  C35_57 
REMARK   11  A    between atoms: O7_17  and  C11_18 
REMARK   12  A    between atoms: C11_18  and  C12_19 
REMARK   13  A    between atoms: C18_29  and  O12_30 
REMARK   14  A    between atoms: C18_29  and  C26_42 
REMARK   15  A    between atoms: C18_29  and  C28_46 
REMARK   16  A    between atoms: O12_30  and  C19_31 
REMARK   17  A    between atoms: C19_31  and  C20_32 
REMARK   18  A    between atoms: C26_42  and  C27_44 
REMARK   19  A    between atoms: C28_46  and  C29_47 
REMARK   20  A    between atoms: C35_57  and  C36_58 
REMARK   21  A    between atoms: C42_68  and  C43_69 
REMARK   22  A    between atoms: C49_79  and  C50_80 
ROOT
HETATM    1  C10 UNL     1      -0.183   1.333   0.196  1.00  0.00     0.225 C 
ENDROOT
BRANCH   1   2
HETATM    2  C2  UNL     1      -0.424  -0.141  -0.130  1.00  0.00     0.246 C 
BRANCH   2   3
HETATM    3  C1  UNL     1      -0.918  -0.919   1.060  1.00  0.00     0.246 C 
HETATM    4  O1  UNL     1      -1.733  -0.448   1.817  1.00  0.00    -0.285 OA
BRANCH   3   5
HETATM    5  C49 UNL     1      -0.387  -2.269   1.286  1.00  0.00     0.233 C 
HETATM    6  O34 UNL     1       0.776  -2.515   1.065  1.00  0.00    -0.283 OA
BRANCH   5   7
HETATM    7  C50 UNL     1      -1.313  -3.327   1.792  1.00  0.00     0.046 A 
HETATM    8  C51 UNL     1      -0.798  -4.550   2.257  1.00  0.00     0.033 A 
HETATM    9  C52 UNL     1      -1.667  -5.547   2.734  1.00  0.00     0.158 A 
HETATM   10  O31 UNL     1      -1.178  -6.691   3.169  1.00  0.00    -0.188 OA
HETATM   11  C53 UNL     1      -3.056  -5.320   2.745  1.00  0.00     0.181 A 
HETATM   12  O32 UNL     1      -3.873  -6.254   3.191  1.00  0.00    -0.186 OA
HETATM   13  C54 UNL     1      -3.573  -4.096   2.279  1.00  0.00     0.158 A 
HETATM   14  O33 UNL     1      -4.873  -3.880   2.287  1.00  0.00    -0.188 OA
HETATM   15  C55 UNL     1      -2.700  -3.102   1.803  1.00  0.00     0.033 A 
ENDBRANCH   5   7
ENDBRANCH   3   5
ENDBRANCH   2   3
BRANCH   2  16
HETATM   16  O2  UNL     1       0.780  -0.722  -0.610  1.00  0.00    -0.285 OA
BRANCH  16  17
HETATM   17  C3  UNL     1       0.709  -1.043  -1.899  1.00  0.00     0.297 C 
HETATM   18  O6  UNL     1       0.101  -0.398  -2.721  1.00  0.00    -0.259 OA
BRANCH  17  19
HETATM   19  C4  UNL     1       1.444  -2.284  -2.287  1.00  0.00     0.067 A 
HETATM   20  C5  UNL     1       1.347  -2.779  -3.599  1.00  0.00     0.035 A 
HETATM   21  C6  UNL     1       2.038  -3.947  -3.967  1.00  0.00     0.158 A 
HETATM   22  O3  UNL     1       1.943  -4.406  -5.198  1.00  0.00    -0.188 OA
HETATM   23  C7  UNL     1       2.830  -4.621  -3.018  1.00  0.00     0.181 A 
HETATM   24  O4  UNL     1       3.479  -5.717  -3.361  1.00  0.00    -0.186 OA
HETATM   25  C8  UNL     1       2.928  -4.127  -1.704  1.00  0.00     0.158 A 
HETATM   26  O5  UNL     1       3.668  -4.755  -0.813  1.00  0.00    -0.188 OA
HETATM   27  C9  UNL     1       2.235  -2.959  -1.341  1.00  0.00     0.035 A 
ENDBRANCH  17  19
ENDBRANCH  16  17
ENDBRANCH   2  16
BRANCH   2  28
HETATM   28  C42 UNL     1      -1.515  -0.333  -1.150  1.00  0.00     0.208 C 
HETATM   29  O30 UNL     1      -1.763   0.525  -1.964  1.00  0.00    -0.288 OA
BRANCH  28  30
HETATM   30  C43 UNL     1      -2.282  -1.614  -1.126  1.00  0.00     0.042 A 
HETATM   31  C44 UNL     1      -3.687  -1.594  -1.104  1.00  0.00     0.033 A 
HETATM   32  C45 UNL     1      -4.411  -2.799  -1.082  1.00  0.00     0.158 A 
HETATM   33  O27 UNL     1      -5.729  -2.773  -1.061  1.00  0.00    -0.188 OA
HETATM   34  C46 UNL     1      -3.727  -4.029  -1.082  1.00  0.00     0.181 A 
HETATM   35  O28 UNL     1      -4.404  -5.160  -1.061  1.00  0.00    -0.186 OA
HETATM   36  C47 UNL     1      -2.319  -4.051  -1.104  1.00  0.00     0.158 A 
HETATM   37  O29 UNL     1      -1.674  -5.201  -1.104  1.00  0.00    -0.188 OA
HETATM   38  C48 UNL     1      -1.599  -2.844  -1.126  1.00  0.00     0.033 A 
ENDBRANCH  28  30
ENDBRANCH   2  28
ENDBRANCH   1   2
BRANCH   1  39
HETATM   39  O7  UNL     1      -1.106   1.755   1.190  1.00  0.00    -0.290 OA
BRANCH  39  40
HETATM   40  C11 UNL     1      -2.343   1.873   0.715  1.00  0.00     0.296 C 
HETATM   41  O11 UNL     1      -2.620   1.829  -0.461  1.00  0.00    -0.259 OA
BRANCH  40  42
HETATM   42  C12 UNL     1      -3.405   2.070   1.747  1.00  0.00     0.067 A 
HETATM   43  C13 UNL     1      -4.713   2.405   1.356  1.00  0.00     0.035 A 
HETATM   44  C14 UNL     1      -5.714   2.590   2.326  1.00  0.00     0.158 A 
HETATM   45  O8  UNL     1      -6.939   2.904   1.953  1.00  0.00    -0.188 OA
HETATM   46  C15 UNL     1      -5.405   2.441   3.691  1.00  0.00     0.181 A 
HETATM   47  O9  UNL     1      -6.343   2.614   4.602  1.00  0.00    -0.186 OA
HETATM   48  C16 UNL     1      -4.096   2.106   4.084  1.00  0.00     0.158 A 
HETATM   49  O10 UNL     1      -3.802   1.964   5.361  1.00  0.00    -0.188 OA
HETATM   50  C17 UNL     1      -3.098   1.921   3.111  1.00  0.00     0.035 A 
ENDBRANCH  40  42
ENDBRANCH  39  40
ENDBRANCH   1  39
BRANCH   1  51
HETATM   51  C18 UNL     1       1.242   1.606   0.676  1.00  0.00     0.219 C 
BRANCH  51  52
HETATM   52  O12 UNL     1       2.061   1.937  -0.436  1.00  0.00    -0.290 OA
BRANCH  52  53
HETATM   53  C19 UNL     1       2.492   0.859  -1.085  1.00  0.00     0.296 C 
HETATM   54  O16 UNL     1       2.748  -0.193  -0.548  1.00  0.00    -0.259 OA
BRANCH  53  55
HETATM   55  C20 UNL     1       2.647   1.025  -2.562  1.00  0.00     0.067 A 
HETATM   56  C21 UNL     1       3.140  -0.035  -3.342  1.00  0.00     0.035 A 
HETATM   57  C22 UNL     1       3.287   0.119  -4.732  1.00  0.00     0.158 A 
HETATM   58  O13 UNL     1       3.749  -0.879  -5.458  1.00  0.00    -0.188 OA
HETATM   59  C23 UNL     1       2.940   1.338  -5.343  1.00  0.00     0.181 A 
HETATM   60  O14 UNL     1       3.077   1.485  -6.646  1.00  0.00    -0.186 OA
HETATM   61  C24 UNL     1       2.447   2.401  -4.563  1.00  0.00     0.158 A 
HETATM   62  O15 UNL     1       2.120   3.545  -5.131  1.00  0.00    -0.188 OA
HETATM   63  C25 UNL     1       2.301   2.243  -3.174  1.00  0.00     0.035 A 
ENDBRANCH  53  55
ENDBRANCH  52  53
ENDBRANCH  51  52
BRANCH  51  64
HETATM   64  C26 UNL     1       1.311   2.730   1.711  1.00  0.00     0.220 C 
HETATM   65  O17 UNL     1       0.553   2.341   2.835  1.00  0.00    -0.217 OA
BRANCH  64  66
HETATM   66  C27 UNL     1       2.740   3.018   2.175  1.00  0.00     0.218 C 
HETATM   67  O18 UNL     1       2.700   4.096   3.082  1.00  0.00    -0.218 OA
ENDBRANCH  64  66
ENDBRANCH  51  64
BRANCH  51  68
HETATM   68  C28 UNL     1       1.837   0.432   1.406  1.00  0.00     0.203 C 
HETATM   69  O22 UNL     1       1.135  -0.446   1.849  1.00  0.00    -0.289 OA
BRANCH  68  70
HETATM   70  C29 UNL     1       3.322   0.383   1.567  1.00  0.00     0.042 A 
HETATM   71  C30 UNL     1       3.910  -0.606   2.374  1.00  0.00     0.033 A 
HETATM   72  C31 UNL     1       5.307  -0.654   2.527  1.00  0.00     0.158 A 
HETATM   73  O19 UNL     1       5.853  -1.584   3.285  1.00  0.00    -0.188 OA
HETATM   74  C32 UNL     1       6.118   0.290   1.870  1.00  0.00     0.181 A 
HETATM   75  O20 UNL     1       7.428   0.247   2.013  1.00  0.00    -0.186 OA
HETATM   76  C33 UNL     1       5.530   1.281   1.062  1.00  0.00     0.158 A 
HETATM   77  O21 UNL     1       6.285   2.168   0.445  1.00  0.00    -0.188 OA
HETATM   78  C34 UNL     1       4.133   1.326   0.912  1.00  0.00     0.033 A 
ENDBRANCH  68  70
ENDBRANCH  51  68
ENDBRANCH   1  51
BRANCH   1  79
HETATM   79  C35 UNL     1      -0.311   2.218  -1.015  1.00  0.00     0.204 C 
HETATM   80  O26 UNL     1      -0.063   1.799  -2.121  1.00  0.00    -0.289 OA
BRANCH  79  81
HETATM   81  C36 UNL     1      -0.755   3.630  -0.811  1.00  0.00     0.042 A 
HETATM   82  C37 UNL     1      -0.920   4.483  -1.916  1.00  0.00     0.033 A 
HETATM   83  C38 UNL     1      -1.338   5.812  -1.726  1.00  0.00     0.158 A 
HETATM   84  O23 UNL     1      -1.491   6.607  -2.766  1.00  0.00    -0.188 OA
HETATM   85  C39 UNL     1      -1.591   6.289  -0.426  1.00  0.00     0.181 A 
HETATM   86  O24 UNL     1      -1.983   7.535  -0.246  1.00  0.00    -0.186 OA
HETATM   87  C40 UNL     1      -1.426   5.436   0.681  1.00  0.00     0.158 A 
HETATM   88  O25 UNL     1      -1.662   5.879   1.900  1.00  0.00    -0.188 OA
HETATM   89  C41 UNL     1      -1.009   4.108   0.487  1.00  0.00     0.033 A 
ENDBRANCH  79  81
ENDBRANCH   1  79
TORSDOF 22
