REMARK  6 active torsions:
REMARK  status: ('A' for Active; 'I' for Inactive)
REMARK    1  A    between atoms: C8_8  and  C11_11 
REMARK    2  A    between atoms: C11_11  and  C12_13 
REMARK    3  A    between atoms: C12_13  and  C13_14 
REMARK    4  A    between atoms: C13_14  and  C15_16 
REMARK    5  A    between atoms: C15_16  and  O2_17 
REMARK    6  A    between atoms: O2_17  and  C16_18 
ROOT
HETATM    1  C1  UNL     1       5.744  -0.268   0.981  1.00  0.00    -0.000 A 
HETATM    2  C2  UNL     1       5.652  -1.676   1.022  1.00  0.00    -0.004 A 
HETATM    3  C3  UNL     1       4.391  -2.314   1.055  1.00  0.00    -0.022 A 
HETATM    4  C4  UNL     1       3.201  -1.527   1.045  1.00  0.00    -0.002 A 
HETATM    5  C5  UNL     1       3.295  -0.098   1.000  1.00  0.00     0.025 A 
HETATM    6  C6  UNL     1       4.572   0.522   0.969  1.00  0.00     0.002 A 
HETATM    7  C7  UNL     1       2.113   0.693   0.984  1.00  0.00     0.134 A 
HETATM    8  C8  UNL     1       0.846   0.059   1.020  1.00  0.00     0.060 A 
HETATM    9  C9  UNL     1       0.750  -1.352   1.067  1.00  0.00     0.005 A 
HETATM   10  C10 UNL     1       1.920  -2.143   1.080  1.00  0.00    -0.000 A 
HETATM   11  O4  UNL     1       2.184   2.033   0.940  1.00  0.00    -0.190 OA
HETATM   12  C18 UNL     1       4.346  -3.787   1.100  1.00  0.00     0.031 C 
ENDROOT
BRANCH   8  13
HETATM   13  C11 UNL     1      -0.389   0.871   1.004  1.00  0.00     0.175 C 
HETATM   14  O1  UNL     1      -0.603   1.934   1.539  1.00  0.00    -0.291 OA
BRANCH  13  15
HETATM   15  C12 UNL     1      -1.451   0.190   0.184  1.00  0.00     0.072 C 
BRANCH  15  16
HETATM   16  C13 UNL     1      -2.473   1.176  -0.383  1.00  0.00     0.038 C 
HETATM   17  C14 UNL     1      -1.844   2.203  -1.324  1.00  0.00     0.003 C 
BRANCH  16  18
HETATM   18  C15 UNL     1      -3.688   0.479  -1.000  1.00  0.00     0.152 C 
BRANCH  18  19
HETATM   19  O2  UNL     1      -4.645   1.451  -1.389  1.00  0.00    -0.302 OA
BRANCH  19  20
HETATM   20  C16 UNL     1      -5.729   0.906  -1.934  1.00  0.00     0.272 C 
HETATM   21  O3  UNL     1      -5.881  -0.285  -2.082  1.00  0.00    -0.264 OA
HETATM   22  C17 UNL     1      -6.787   1.883  -2.371  1.00  0.00     0.106 C 
ENDBRANCH  19  20
ENDBRANCH  18  19
ENDBRANCH  16  18
ENDBRANCH  15  16
ENDBRANCH  13  15
ENDBRANCH   8  13
TORSDOF 6
