REMARK  5 active torsions:
REMARK  status: ('A' for Active; 'I' for Inactive)
REMARK    1  A    between atoms: C15_15  and  C18_18 
REMARK    2  A    between atoms: C18_18  and  C19_19 
REMARK    3  A    between atoms: C19_19  and  C20_20 
REMARK    4  A    between atoms: C20_20  and  C21_21 
REMARK    5  A    between atoms: C21_21  and  C22_22 
ROOT
HETATM    1  C1  UNL     1       5.309  -1.805  -0.221  1.00  0.00     0.033 C 
HETATM    2  C2  UNL     1       5.557  -0.926  -1.453  1.00  0.00     0.152 C 
HETATM    3  C3  UNL     1       5.819   0.535  -1.035  1.00  0.00     0.028 C 
HETATM    4  C4  UNL     1       4.623   1.143  -0.233  1.00  0.00     0.002 C 
HETATM    5  C5  UNL     1       3.869   0.170   0.730  1.00  0.00     0.000 A 
HETATM    6  C6  UNL     1       4.094  -1.352   0.592  1.00  0.00     0.003 C 
HETATM    7  C7  UNL     1       2.449   0.486   1.250  1.00  0.00     0.000 A 
HETATM    8  C8  UNL     1       1.654   1.592   0.523  1.00  0.00     0.000 C 
HETATM    9  C9  UNL     1       2.531   2.592  -0.254  1.00  0.00     0.000 C 
HETATM   10  C10 UNL     1       3.627   1.938  -1.100  1.00  0.00     0.000 C 
HETATM   11  C11 UNL     1       0.600   0.908  -0.385  1.00  0.00     0.000 C 
HETATM   12  C12 UNL     1      -0.371   0.057   0.459  1.00  0.00     0.000 C 
HETATM   13  C13 UNL     1       0.414  -1.119   1.053  1.00  0.00     0.000 C 
HETATM   14  C14 UNL     1       1.549  -0.570   1.937  1.00  0.00     0.000 C 
HETATM   15  C15 UNL     1      -1.439  -0.318  -0.580  1.00  0.00     0.000 C 
HETATM   16  C16 UNL     1      -1.625   0.982  -1.375  1.00  0.00     0.000 C 
HETATM   17  C17 UNL     1      -0.387   1.844  -1.094  1.00  0.00     0.000 C 
HETATM   18  C28 UNL     1      -1.055   0.875   1.566  1.00  0.00     0.000 C 
HETATM   19  C29 UNL     1       1.238   0.043  -1.483  1.00  0.00     0.000 C 
HETATM   20  C30 UNL     1       3.660   0.791   2.103  1.00  0.00     0.000 A 
HETATM   21  C31 UNL     1       7.071   0.566  -0.145  1.00  0.00     0.003 C 
HETATM   22  C32 UNL     1       6.170   1.373  -2.276  1.00  0.00     0.003 C 
HETATM   23  O1  UNL     1       4.444  -1.016  -2.324  1.00  0.00    -0.224 OA
ENDROOT
BRANCH  15  24
HETATM   24  C18 UNL     1      -2.750  -0.844   0.006  1.00  0.00     0.000 C 
HETATM   25  C27 UNL     1      -3.375  -1.848  -0.963  1.00  0.00     0.000 C 
BRANCH  24  26
HETATM   26  C19 UNL     1      -3.676   0.332   0.316  1.00  0.00     0.004 C 
BRANCH  26  27
HETATM   27  C20 UNL     1      -4.723  -0.006   1.377  1.00  0.00     0.022 C 
BRANCH  27  28
HETATM   28  C21 UNL     1      -5.797  -0.920   0.853  1.00  0.00    -0.049 C 
HETATM   29  C25 UNL     1      -5.977  -2.107   1.455  1.00  0.00    -0.034 C 
HETATM   30  C26 UNL     1      -5.096  -2.463   2.623  1.00  0.00     0.030 C 
BRANCH  28  31
HETATM   31  C22 UNL     1      -6.590  -0.412  -0.320  1.00  0.00     0.018 C 
HETATM   32  C23 UNL     1      -7.693  -1.383  -0.742  1.00  0.00     0.004 C 
HETATM   33  C24 UNL     1      -7.107   1.012  -0.104  1.00  0.00     0.004 C 
ENDBRANCH  28  31
ENDBRANCH  27  28
ENDBRANCH  26  27
ENDBRANCH  24  26
ENDBRANCH  15  24
TORSDOF 5
