REMARK  8 active torsions:
REMARK  status: ('A' for Active; 'I' for Inactive)
REMARK    1  A    between atoms: C1_1  and  C2_3 
REMARK    2  A    between atoms: C3_4  and  C4_5 
REMARK    3  A    between atoms: C5_6  and  C6_7 
REMARK    4  A    between atoms: C7_8  and  C8_9 
REMARK    5  A    between atoms: C9_10  and  C10_11 
REMARK    6  A    between atoms: C11_12  and  C12_13 
REMARK    7  A    between atoms: C13_14  and  C14_15 
REMARK    8  A    between atoms: C15_16  and  C16_17 
ROOT
HETATM    1  C8  UNL     1      -0.361  -0.656   0.332  1.00  0.00    -0.000 C 
HETATM    2  C9  UNL     1       0.322   0.395   0.811  1.00  0.00    -0.000 C 
ENDROOT
BRANCH   1   3
HETATM    3  C7  UNL     1      -1.830  -0.656   0.332  1.00  0.00    -0.004 C 
HETATM    4  C6  UNL     1      -2.514  -1.424  -0.531  1.00  0.00    -0.022 C 
HETATM    5  C19 UNL     1      -1.742  -2.283  -1.498  1.00  0.00     0.031 C 
BRANCH   4   6
HETATM    6  C5  UNL     1      -3.981  -1.465  -0.576  1.00  0.00    -0.004 C 
HETATM    7  C4  UNL     1      -4.625  -2.598  -0.898  1.00  0.00    -0.000 C 
BRANCH   7   8
HETATM    8  C3  UNL     1      -6.092  -2.639  -0.943  1.00  0.00     0.002 C 
HETATM    9  C2  UNL     1      -6.731  -3.600  -1.631  1.00  0.00     0.043 C 
HETATM   10  C20 UNL     1      -5.906  -4.633  -2.352  1.00  0.00     0.037 C 
BRANCH   9  11
HETATM   11  C1  UNL     1      -8.193  -3.689  -1.711  1.00  0.00     0.207 C 
HETATM   12  O1  UNL     1      -8.688  -4.908  -1.902  1.00  0.00    -0.644 OA
HETATM   13  O4  UNL     1      -8.873  -2.695  -1.603  1.00  0.00    -0.644 OA
ENDBRANCH   9  11
ENDBRANCH   7   8
ENDBRANCH   4   6
ENDBRANCH   1   3
BRANCH   2  14
HETATM   14  C10 UNL     1       1.791   0.395   0.811  1.00  0.00    -0.004 C 
HETATM   15  C11 UNL     1       2.475   1.393   1.393  1.00  0.00    -0.022 C 
HETATM   16  C18 UNL     1       1.703   2.508   2.045  1.00  0.00     0.031 C 
BRANCH  15  17
HETATM   17  C12 UNL     1       3.943   1.393   1.393  1.00  0.00    -0.004 C 
HETATM   18  C13 UNL     1       4.627   2.549   1.393  1.00  0.00    -0.000 C 
BRANCH  18  19
HETATM   19  C14 UNL     1       6.096   2.549   1.393  1.00  0.00     0.002 C 
HETATM   20  C15 UNL     1       6.779   3.633   0.996  1.00  0.00     0.043 C 
HETATM   21  C17 UNL     1       6.008   4.846   0.551  1.00  0.00     0.037 C 
BRANCH  20  22
HETATM   22  C16 UNL     1       8.246   3.690   0.975  1.00  0.00     0.207 C 
HETATM   23  O2  UNL     1       8.897   2.680   0.834  1.00  0.00    -0.644 OA
HETATM   24  O3  UNL     1       8.779   4.899   1.119  1.00  0.00    -0.644 OA
ENDBRANCH  20  22
ENDBRANCH  18  19
ENDBRANCH  15  17
ENDBRANCH   2  14
TORSDOF 8
