REMARK  4 active torsions:
REMARK  status: ('A' for Active; 'I' for Inactive)
REMARK    1  A    between atoms: C3_4  and  C32_45 
REMARK    2  A    between atoms: C11_17  and  C13_21 
REMARK    3  A    between atoms: C32_45  and  C33_46 
REMARK    4  A    between atoms: C36_49  and  O8_52 
ROOT
HETATM    1  C1  UNL     1      -0.832   4.262  -1.816  1.00  0.00     0.185 C 
HETATM    2  C2  UNL     1      -1.854   3.410  -1.070  1.00  0.00     0.256 C 
HETATM    3  N1  UNL     1      -2.691   2.498  -1.691  1.00  0.00    -0.310 N 
HETATM    4  C3  UNL     1      -3.623   1.660  -0.883  1.00  0.00     0.169 C 
HETATM    5  C4  UNL     1      -2.883   0.545  -0.164  1.00  0.00     0.273 C 
HETATM    6  O1  UNL     1      -2.834   0.549   1.045  1.00  0.00    -0.269 OA
HETATM    7  N2  UNL     1      -2.274  -0.465  -0.879  1.00  0.00    -0.229 NA
HETATM    8  C5  UNL     1      -1.568  -1.586  -0.205  1.00  0.00     0.185 C 
HETATM    9  C6  UNL     1      -0.897  -2.533  -1.191  1.00  0.00     0.256 C 
HETATM   10  N3  UNL     1       0.398  -3.006  -1.029  1.00  0.00    -0.310 N 
HETATM   11  C7  UNL     1       1.283  -2.637   0.121  1.00  0.00     0.167 C 
HETATM   12  C8  UNL     1       2.740  -3.078  -0.104  1.00  0.00     0.255 C 
HETATM   13  N4  UNL     1       3.791  -2.240  -0.473  1.00  0.00    -0.310 N 
HETATM   14  C9  UNL     1       3.678  -0.762  -0.744  1.00  0.00     0.169 C 
HETATM   15  C10 UNL     1       3.168  -0.510  -2.160  1.00  0.00     0.273 C 
HETATM   16  N5  UNL     1       2.578   0.670  -2.582  1.00  0.00    -0.229 NA
HETATM   17  C11 UNL     1       2.297   1.938  -1.830  1.00  0.00     0.186 C 
HETATM   18  C12 UNL     1       0.865   2.406  -2.033  1.00  0.00     0.274 C 
HETATM   19  N6  UNL     1       0.539   3.703  -1.697  1.00  0.00    -0.229 NA
HETATM   20  O2  UNL     1       0.025   1.656  -2.475  1.00  0.00    -0.268 OA
HETATM   21  O3  UNL     1       3.281  -1.391  -2.986  1.00  0.00    -0.269 OA
HETATM   22  C15 UNL     1       5.033   0.018  -0.522  1.00  0.00     0.058 C 
HETATM   23  C16 UNL     1       5.518   0.227   0.898  1.00  0.00    -0.018 A 
HETATM   24  C17 UNL     1       6.701   0.938   1.164  1.00  0.00    -0.002 A 
HETATM   25  C18 UNL     1       7.135   1.137   2.488  1.00  0.00     0.029 A 
HETATM   26  C19 UNL     1       6.393   0.621   3.574  1.00  0.00     0.154 A 
HETATM   27  C20 UNL     1       5.209  -0.103   3.342  1.00  0.00     0.125 A 
HETATM   28  C21 UNL     1       4.799  -0.279   1.986  1.00  0.00     0.023 A 
HETATM   29  O4  UNL     1       4.512  -0.603   4.379  1.00  0.00    -0.305 OA
HETATM   30  C22 UNL     1       3.445  -1.350   4.113  1.00  0.00     0.100 C 
HETATM   31  C23 UNL     1       2.191  -0.740   3.912  1.00  0.00     0.024 C 
HETATM   32  C24 UNL     1       1.234  -1.410   3.133  1.00  0.00    -0.002 C 
HETATM   33  C25 UNL     1       1.537  -2.684   2.611  1.00  0.00    -0.020 C 
HETATM   34  C26 UNL     1       2.631  -3.402   3.127  1.00  0.00    -0.002 C 
HETATM   35  C27 UNL     1       3.592  -2.732   3.900  1.00  0.00     0.024 C 
HETATM   36  C28 UNL     1       0.742  -3.230   1.469  1.00  0.00     0.058 C 
HETATM   37  O5  UNL     1       6.815   0.820   4.807  1.00  0.00    -0.188 OA
HETATM   38  C29 UNL     1       5.127  -2.855  -0.631  1.00  0.00     0.129 C 
HETATM   39  O6  UNL     1       2.980  -4.254   0.061  1.00  0.00    -0.270 OA
HETATM   40  C30 UNL     1       0.924  -3.930  -2.061  1.00  0.00     0.129 C 
HETATM   41  O7  UNL     1      -1.529  -2.891  -2.160  1.00  0.00    -0.270 OA
HETATM   42  C31 UNL     1      -2.570  -2.381   0.641  1.00  0.00     0.037 C 
HETATM   43  C40 UNL     1      -2.672   2.307  -3.154  1.00  0.00     0.129 C 
HETATM   44  O9  UNL     1      -1.922   3.543   0.131  1.00  0.00    -0.270 OA
HETATM   45  C41 UNL     1      -1.143   4.625  -3.274  1.00  0.00     0.037 C 
ENDROOT
BRANCH   4  46
HETATM   46  C32 UNL     1      -4.791   1.119  -1.721  1.00  0.00     0.058 C 
BRANCH  46  47
HETATM   47  C33 UNL     1      -5.951   0.752  -0.869  1.00  0.00    -0.020 A 
HETATM   48  C34 UNL     1      -6.965   1.695  -0.619  1.00  0.00    -0.002 A 
HETATM   49  C35 UNL     1      -8.063   1.348   0.187  1.00  0.00     0.024 A 
HETATM   50  C36 UNL     1      -8.153   0.061   0.746  1.00  0.00     0.094 A 
HETATM   51  C37 UNL     1      -7.137  -0.879   0.494  1.00  0.00     0.024 A 
HETATM   52  C38 UNL     1      -6.037  -0.535  -0.311  1.00  0.00    -0.002 A 
BRANCH  50  53
HETATM   53  O8  UNL     1      -9.182  -0.264   1.502  1.00  0.00    -0.328 OA
HETATM   54  C39 UNL     1     -10.182   0.721   1.727  1.00  0.00     0.181 C 
ENDBRANCH  50  53
ENDBRANCH  46  47
ENDBRANCH   4  46
BRANCH  17  55
HETATM   55  C13 UNL     1       2.598   1.910  -0.330  1.00  0.00     0.034 C 
HETATM   56  C14 UNL     1       1.451   1.315   0.490  1.00  0.00     0.003 C 
ENDBRANCH  17  55
TORSDOF 4
