REMARK  9 active torsions:
REMARK  status: ('A' for Active; 'I' for Inactive)
REMARK    1  A    between atoms: C3_3  and  O8_37 
REMARK    2  A    between atoms: C4_4  and  O6_33 
REMARK    3  A    between atoms: C8_8  and  O4_28 
REMARK    4  A    between atoms: C11_11  and  O1_12 
REMARK    5  A    between atoms: O1_12  and  C12_13 
REMARK    6  A    between atoms: C12_13  and  C13_14 
REMARK    7  A    between atoms: O4_28  and  C25_29 
REMARK    8  A    between atoms: O6_33  and  C28_34 
REMARK    9  A    between atoms: O8_37  and  C30_38 
ROOT
HETATM    1  C1  UNL     1       3.586   1.020  -0.964  1.00  0.00     0.058 C 
HETATM    2  C2  UNL     1       2.998  -0.240  -1.591  1.00  0.00     0.180 C 
HETATM    3  C3  UNL     1       2.206  -0.106  -2.880  1.00  0.00     0.212 C 
HETATM    4  C4  UNL     1       0.690  -0.362  -2.739  1.00  0.00     0.177 C 
HETATM    5  C5  UNL     1       0.044   0.612  -1.778  1.00  0.00    -0.018 C 
HETATM    6  C6  UNL     1       0.023   0.367  -0.452  1.00  0.00    -0.027 C 
HETATM    7  C7  UNL     1      -0.442   1.389   0.565  1.00  0.00     0.082 C 
HETATM    8  C8  UNL     1       0.105   1.116   1.970  1.00  0.00     0.161 C 
HETATM    9  C9  UNL     1      -0.666   2.189   2.740  1.00  0.00     0.038 C 
HETATM   10  C10 UNL     1      -2.097   2.063   2.205  1.00  0.00     0.031 C 
HETATM   11  C11 UNL     1      -1.953   1.497   0.783  1.00  0.00     0.131 C 
HETATM   12  C19 UNL     1      -2.806   3.413   2.223  1.00  0.00     0.003 C 
HETATM   13  C20 UNL     1       1.624   1.230   2.042  1.00  0.00     0.194 C 
HETATM   14  C21 UNL     1       2.473   0.015   2.108  1.00  0.00     0.011 C 
HETATM   15  C22 UNL     1       3.611  -0.168   1.402  1.00  0.00    -0.027 C 
HETATM   16  C23 UNL     1       4.249   0.805   0.427  1.00  0.00     0.033 C 
HETATM   17  C24 UNL     1       2.065  -1.110   3.026  1.00  0.00     0.034 C 
HETATM   18  O3  UNL     1       2.147   2.321   2.043  1.00  0.00    -0.289 OA
HETATM   19  C27 UNL     1      -0.548   1.874  -2.353  1.00  0.00     0.029 C 
HETATM   20  O10 UNL     1       3.155  -1.332  -1.094  1.00  0.00    -0.293 OA
HETATM   21  C32 UNL     1       2.514   2.106  -0.851  1.00  0.00     0.008 C 
HETATM   22  C33 UNL     1       4.654   1.543  -1.932  1.00  0.00     0.008 C 
ENDROOT
BRANCH  11  23
HETATM   23  O1  UNL     1      -2.557   0.210   0.718  1.00  0.00    -0.301 OA
BRANCH  23  24
HETATM   24  C12 UNL     1      -3.885   0.273   0.718  1.00  0.00     0.296 C 
HETATM   25  O2  UNL     1      -4.510   1.307   0.718  1.00  0.00    -0.259 OA
BRANCH  24  26
HETATM   26  C13 UNL     1      -4.584  -1.047   0.718  1.00  0.00     0.063 A 
HETATM   27  C14 UNL     1      -5.990  -1.100   0.718  1.00  0.00     0.005 A 
HETATM   28  C15 UNL     1      -6.648  -2.342   0.718  1.00  0.00     0.000 A 
HETATM   29  C16 UNL     1      -5.902  -3.533   0.718  1.00  0.00     0.000 A 
HETATM   30  C17 UNL     1      -4.497  -3.482   0.718  1.00  0.00     0.000 A 
HETATM   31  C18 UNL     1      -3.838  -2.240   0.718  1.00  0.00     0.005 A 
ENDBRANCH  24  26
ENDBRANCH  23  24
ENDBRANCH  11  23
BRANCH   8  32
HETATM   32  O4  UNL     1      -0.345  -0.161   2.413  1.00  0.00    -0.299 OA
BRANCH  32  33
HETATM   33  C25 UNL     1      -0.544  -0.200   3.728  1.00  0.00     0.273 C 
HETATM   34  O5  UNL     1       0.182   0.333   4.534  1.00  0.00    -0.264 OA
HETATM   35  C26 UNL     1      -1.761  -0.967   4.168  1.00  0.00     0.106 C 
ENDBRANCH  32  33
ENDBRANCH   8  32
BRANCH   4  36
HETATM   36  O6  UNL     1       0.462  -1.704  -2.324  1.00  0.00    -0.297 OA
BRANCH  36  37
HETATM   37  C28 UNL     1      -0.817  -2.054  -2.422  1.00  0.00     0.273 C 
HETATM   38  O7  UNL     1      -1.684  -1.326  -2.844  1.00  0.00    -0.264 OA
HETATM   39  C29 UNL     1      -1.134  -3.453  -1.964  1.00  0.00     0.106 C 
ENDBRANCH  36  37
ENDBRANCH   4  36
BRANCH   3  40
HETATM   40  O8  UNL     1       2.737  -1.023  -3.827  1.00  0.00    -0.294 OA
BRANCH  40  41
HETATM   41  C30 UNL     1       3.822  -0.552  -4.434  1.00  0.00     0.273 C 
HETATM   42  O9  UNL     1       4.009   0.620  -4.665  1.00  0.00    -0.264 OA
HETATM   43  C31 UNL     1       4.837  -1.591  -4.829  1.00  0.00     0.106 C 
ENDBRANCH  40  41
ENDBRANCH   3  40
TORSDOF 9
