REMARK  0 active torsions:
REMARK  status: ('A' for Active; 'I' for Inactive)
ROOT
HETATM    1  C1  UNL     1       1.861   1.287  -0.678  1.00  0.00     0.000 C 
HETATM    2  C2  UNL     1       0.430   1.846  -0.299  1.00  0.00     0.000 C 
HETATM    3  C3  UNL     1      -0.207   0.613   0.332  1.00  0.00     0.004 C 
HETATM    4  C4  UNL     1      -0.301  -0.498  -0.758  1.00  0.00     0.004 C 
HETATM    5  C5  UNL     1       0.205  -1.631   0.111  1.00  0.00     0.015 C 
HETATM    6  C6  UNL     1       1.758  -1.338   0.143  1.00  0.00     0.004 C 
HETATM    7  C7  UNL     1       2.459   0.086   0.164  1.00  0.00     0.000 C 
HETATM    8  C8  UNL     1      -0.707  -1.357   1.299  1.00  0.00    -0.045 C 
HETATM    9  C9  UNL     1      -1.369   0.004   1.100  1.00  0.00     0.018 C 
HETATM   10  C10 UNL     1      -2.514  -0.056   0.100  1.00  0.00     0.004 C 
HETATM   11  C11 UNL     1      -1.787  -0.515  -1.160  1.00  0.00     0.001 C 
HETATM   12  C12 UNL     1      -0.895  -2.172   2.354  1.00  0.00    -0.009 C 
HETATM   13  C13 UNL     1      -0.100  -2.986  -0.523  1.00  0.00     0.004 C 
HETATM   14  C14 UNL     1       0.504   2.949   0.766  1.00  0.00     0.000 C 
HETATM   15  C15 UNL     1      -0.354   2.348  -1.516  1.00  0.00     0.000 C 
ENDROOT
TORSDOF 0
