REMARK  5 active torsions:
REMARK  status: ('A' for Active; 'I' for Inactive)
REMARK    1  A    between atoms: C11_14  and  O6_23 
REMARK    2  A    between atoms: C12_15  and  O4_16 
REMARK    3  A    between atoms: O4_16  and  C13_17 
REMARK    4  A    between atoms: C13_17  and  C14_19 
REMARK    5  A    between atoms: O6_23  and  C18_24 
ROOT
HETATM    1  C1  UNL     1      -1.113   0.012   0.383  1.00  0.00     0.030 A 
HETATM    2  C2  UNL     1      -1.320   0.783   1.564  1.00  0.00     0.094 A 
HETATM    3  C3  UNL     1      -2.627   1.197   1.916  1.00  0.00     0.049 A 
HETATM    4  C4  UNL     1      -3.731   0.857   1.098  1.00  0.00     0.105 A 
HETATM    5  C5  UNL     1      -3.518   0.094  -0.080  1.00  0.00     0.023 A 
HETATM    6  C6  UNL     1      -2.217  -0.328  -0.440  1.00  0.00     0.002 A 
HETATM    7  C7  UNL     1      -4.692  -0.252  -0.922  1.00  0.00     0.007 A 
HETATM    8  C8  UNL     1      -5.912   0.170  -0.539  1.00  0.00     0.069 A 
HETATM    9  C9  UNL     1      -6.067   0.965   0.699  1.00  0.00     0.300 A 
HETATM   10  O1  UNL     1      -4.977   1.260   1.437  1.00  0.00    -0.273 OA
HETATM   11  O2  UNL     1      -7.176   1.330   1.014  1.00  0.00    -0.259 OA
HETATM   12  O3  UNL     1      -0.295   1.131   2.375  1.00  0.00    -0.333 OA
HETATM   13  C10 UNL     1       1.070   0.986   1.959  1.00  0.00     0.127 C 
HETATM   14  C11 UNL     1       1.234  -0.346   1.199  1.00  0.00     0.181 C 
HETATM   15  C12 UNL     1       0.252  -0.438   0.016  1.00  0.00     0.179 C 
HETATM   16  C20 UNL     1       1.434   2.188   1.076  1.00  0.00     0.033 C 
HETATM   17  C21 UNL     1       1.943   1.014   3.217  1.00  0.00     0.033 C 
ENDROOT
BRANCH  15  18
HETATM   18  O4  UNL     1       0.728   0.361  -1.059  1.00  0.00    -0.294 OA
BRANCH  18  19
HETATM   19  C13 UNL     1       1.746  -0.205  -1.699  1.00  0.00     0.292 C 
HETATM   20  O5  UNL     1       2.156  -1.318  -1.461  1.00  0.00    -0.260 OA
BRANCH  19  21
HETATM   21  C14 UNL     1       2.375   0.609  -2.746  1.00  0.00     0.037 C 
HETATM   22  C15 UNL     1       2.574   0.162  -3.998  1.00  0.00    -0.025 C 
HETATM   23  C16 UNL     1       2.135  -1.234  -4.342  1.00  0.00     0.030 C 
HETATM   24  C17 UNL     1       2.814   2.006  -2.402  1.00  0.00     0.036 C 
ENDBRANCH  19  21
ENDBRANCH  18  19
ENDBRANCH  15  18
BRANCH  14  25
HETATM   25  O6  UNL     1       0.982  -1.426   2.090  1.00  0.00    -0.299 OA
BRANCH  25  26
HETATM   26  C18 UNL     1       1.435  -2.584   1.621  1.00  0.00     0.273 C 
HETATM   27  C19 UNL     1       0.935  -3.807   2.344  1.00  0.00     0.106 C 
HETATM   28  O7  UNL     1       2.197  -2.682   0.687  1.00  0.00    -0.264 OA
ENDBRANCH  25  26
ENDBRANCH  14  25
TORSDOF 5
