REMARK  1 active torsions:
REMARK  status: ('A' for Active; 'I' for Inactive)
REMARK    1  A    between atoms: C16_16  and  C24_24 
ROOT
HETATM    1  C1  UNL     1       5.016   1.092  -1.022  1.00  0.00     0.035 C 
HETATM    2  C2  UNL     1       5.506   0.311   0.207  1.00  0.00     0.180 C 
HETATM    3  C3  UNL     1       4.768  -1.041   0.367  1.00  0.00     0.155 C 
HETATM    4  C4  UNL     1       3.219  -0.830   0.394  1.00  0.00     0.031 C 
HETATM    5  C5  UNL     1       2.662   0.043  -0.777  1.00  0.00     0.003 C 
HETATM    6  C6  UNL     1       3.504   1.336  -0.940  1.00  0.00     0.003 C 
HETATM    7  C7  UNL     1       1.160   0.473  -0.541  1.00  0.00     0.005 C 
HETATM    8  C8  UNL     1       0.398  -0.326   0.547  1.00  0.00     0.004 C 
HETATM    9  C9  UNL     1       1.203  -0.385   1.879  1.00  0.00     0.000 C 
HETATM   10  C10 UNL     1       2.725  -0.262   1.732  1.00  0.00     0.003 C 
HETATM   11  C11 UNL     1      -1.010   0.326   0.810  1.00  0.00     0.015 C 
HETATM   12  C12 UNL     1      -1.783   0.645  -0.471  1.00  0.00    -0.049 C 
HETATM   13  C13 UNL     1      -1.152   0.723  -1.666  1.00  0.00    -0.035 C 
HETATM   14  C14 UNL     1       0.328   0.494  -1.846  1.00  0.00     0.025 C 
HETATM   15  C15 UNL     1      -3.287   0.910  -0.352  1.00  0.00     0.032 C 
HETATM   16  C16 UNL     1      -4.010  -0.125   0.549  1.00  0.00     0.082 C 
HETATM   17  C17 UNL     1      -3.297  -0.182   1.912  1.00  0.00     0.011 C 
HETATM   18  C18 UNL     1      -1.824  -0.584   1.768  1.00  0.00     0.004 C 
HETATM   19  C19 UNL     1      -5.481   0.295   0.764  1.00  0.00     0.015 C 
HETATM   20  C20 UNL     1      -6.260   0.465  -0.549  1.00  0.00     0.023 C 
HETATM   21  C21 UNL     1      -5.518   1.359  -1.514  1.00  0.00    -0.044 C 
HETATM   22  C22 UNL     1      -4.035   1.115  -1.693  1.00  0.00     0.026 C 
HETATM   23  C23 UNL     1      -6.151   2.342  -2.180  1.00  0.00    -0.009 C 
HETATM   24  C25 UNL     1      -0.852   1.707   1.475  1.00  0.00     0.004 C 
HETATM   25  C26 UNL     1       0.221  -1.762   0.014  1.00  0.00     0.000 C 
HETATM   26  C27 UNL     1       2.811  -0.769  -2.078  1.00  0.00     0.000 C 
HETATM   27  O3  UNL     1       5.086  -1.889  -0.725  1.00  0.00    -0.223 OA
HETATM   28  C28 UNL     1       5.258  -1.816   1.600  1.00  0.00     0.036 C 
HETATM   29  O4  UNL     1       6.908   0.135   0.115  1.00  0.00    -0.221 OA
ENDROOT
BRANCH  16  30
HETATM   30  C24 UNL     1      -3.984  -1.498  -0.092  1.00  0.00     0.184 C 
HETATM   31  O1  UNL     1      -3.236  -1.742  -1.010  1.00  0.00    -0.647 OA
HETATM   32  O2  UNL     1      -4.832  -2.381   0.428  1.00  0.00    -0.647 OA
ENDBRANCH  16  30
TORSDOF 1
