REMARK  7 active torsions:
REMARK  status: ('A' for Active; 'I' for Inactive)
REMARK    1  A    between atoms: C1_1  and  C2_2 
REMARK    2  A    between atoms: C3_3  and  C4_4 
REMARK    3  A    between atoms: C4_4  and  C5_5 
REMARK    4  A    between atoms: C5_5  and  C6_6 
REMARK    5  A    between atoms: C6_6  and  C7_7 
REMARK    6  A    between atoms: C7_7  and  C8_8 
REMARK    7  A    between atoms: C8_8  and  C9_9 
ROOT
HETATM    1  C5  UNL     1       1.154   0.053   0.394  1.00  0.00     0.005 C 
ENDROOT
BRANCH   1   2
HETATM    2  C4  UNL     1       1.769   0.875   1.527  1.00  0.00     0.026 C 
BRANCH   2   3
HETATM    3  C3  UNL     1       3.273   0.818   1.527  1.00  0.00    -0.023 C 
HETATM    4  C2  UNL     1       3.957   1.973   1.527  1.00  0.00     0.041 C 
BRANCH   4   5
HETATM    5  C1  UNL     1       5.426   1.973   1.527  1.00  0.00     0.234 C 
HETATM    6  O1  UNL     1       6.037   0.932   1.527  1.00  0.00    -0.283 OA
ENDBRANCH   4   5
ENDBRANCH   2   3
ENDBRANCH   1   2
BRANCH   1   7
HETATM    7  C6  UNL     1      -0.375   0.098   0.394  1.00  0.00     0.000 C 
BRANCH   7   8
HETATM    8  C7  UNL     1      -0.988  -0.723  -0.741  1.00  0.00     0.000 C 
BRANCH   8   9
HETATM    9  C8  UNL     1      -2.518  -0.678  -0.741  1.00  0.00     0.000 C 
BRANCH   9  10
HETATM   10  C9  UNL     1      -3.131  -1.498  -1.875  1.00  0.00     0.000 C 
HETATM   11  C10 UNL     1      -4.660  -1.453  -1.875  1.00  0.00     0.000 C 
ENDBRANCH   9  10
ENDBRANCH   8   9
ENDBRANCH   7   8
ENDBRANCH   1   7
TORSDOF 7
