REMARK  2 active torsions:
REMARK  status: ('A' for Active; 'I' for Inactive)
REMARK    1  A    between atoms: C8_10  and  C9_11 
REMARK    2  A    between atoms: C15_18  and  C18_21 
ROOT
HETATM    1  C1  UNL     1      -2.357   2.838  -0.598  1.00  0.00     0.300 C 
HETATM    2  O1  UNL     1      -1.582   3.102  -1.633  1.00  0.00    -0.302 OA
HETATM    3  C2  UNL     1      -0.246   2.744  -1.287  1.00  0.00     0.129 C 
HETATM    4  C3  UNL     1      -0.256   1.762  -0.088  1.00  0.00     0.095 C 
HETATM    5  C4  UNL     1      -1.641   2.133   0.514  1.00  0.00     0.207 C 
HETATM    6  C5  UNL     1      -1.477   3.055   1.717  1.00  0.00     0.043 C 
HETATM    7  O2  UNL     1      -2.399   1.024   0.938  1.00  0.00    -0.216 OA
HETATM    8  C6  UNL     1       0.197   0.410  -0.721  1.00  0.00     0.197 C 
HETATM    9  C7  UNL     1       1.205   0.949  -1.779  1.00  0.00     0.032 C 
HETATM   10  C8  UNL     1       0.459   2.090  -2.478  1.00  0.00     0.030 C 
HETATM   11  C11 UNL     1       2.541   1.547  -1.271  1.00  0.00     0.002 C 
HETATM   12  C12 UNL     1       3.256   0.785  -0.150  1.00  0.00     0.002 C 
HETATM   13  C13 UNL     1       3.258  -0.736  -0.330  1.00  0.00     0.035 C 
HETATM   14  C14 UNL     1       1.865  -1.394  -0.351  1.00  0.00     0.250 C 
HETATM   15  N1  UNL     1       0.809  -0.539   0.252  1.00  0.00     0.134 N 
HETATM   16  C15 UNL     1      -0.330  -1.291   0.789  1.00  0.00     0.247 C 
HETATM   17  C16 UNL     1      -1.268  -1.531  -0.391  1.00  0.00     0.038 C 
HETATM   18  C17 UNL     1      -0.957  -0.389  -1.361  1.00  0.00     0.034 C 
HETATM   19  O5  UNL     1      -3.531   3.125  -0.539  1.00  0.00    -0.262 OA
ENDROOT
BRANCH  16  20
HETATM   20  C18 UNL     1       0.016  -2.584   1.527  1.00  0.00     0.156 C 
HETATM   21  O3  UNL     1       1.092  -2.357   2.434  1.00  0.00    -0.302 OA
HETATM   22  C19 UNL     1       0.916  -3.172   3.467  1.00  0.00     0.271 C 
HETATM   23  C20 UNL     1      -0.387  -3.916   3.418  1.00  0.00     0.089 C 
HETATM   24  O4  UNL     1       1.705  -3.311   4.371  1.00  0.00    -0.264 OA
HETATM   25  C21 UNL     1      -1.152  -3.125   2.360  1.00  0.00     0.042 C 
HETATM   26  C22 UNL     1      -1.135  -3.943   4.746  1.00  0.00     0.011 C 
ENDBRANCH  16  20
BRANCH  10  27
HETATM   27  C9  UNL     1      -0.486   1.566  -3.559  1.00  0.00     0.003 C 
HETATM   28  C10 UNL     1      -0.629   2.613  -4.664  1.00  0.00     0.000 C 
ENDBRANCH  10  27
TORSDOF 2
