REMARK  12 active torsions:
REMARK  status: ('A' for Active; 'I' for Inactive)
REMARK    1  A    between atoms: C1_1  and  O13_34 
REMARK    2  A    between atoms: C2_2  and  O8_23 
REMARK    3  A    between atoms: C4_4  and  O3_9 
REMARK    4  A    between atoms: C5_6  and  C6_7 
REMARK    5  A    between atoms: O3_9  and  C7_10 
REMARK    6  A    between atoms: C7_10  and  C8_11 
REMARK    7  A    between atoms: C8_11  and  C9_12 
REMARK    8  A    between atoms: C8_11  and  O6_20 
REMARK    9  A    between atoms: O8_23  and  C16_24 
REMARK   10  A    between atoms: O13_34  and  C22_35 
REMARK   11  A    between atoms: C22_35  and  C23_36 
REMARK   12  A    between atoms: C24_37  and  C25_38 
ROOT
HETATM    1  C1  UNL     1       0.893  -0.205   1.238  1.00  0.00     0.184 C 
HETATM    2  C2  UNL     1       2.354   0.283   1.346  1.00  0.00     0.183 C 
HETATM    3  C3  UNL     1       3.352  -0.902   1.408  1.00  0.00     0.238 C 
HETATM    4  C4  UNL     1       2.760  -2.209   0.820  1.00  0.00     0.270 C 
HETATM    5  O1  UNL     1       1.500  -2.578   1.393  1.00  0.00    -0.326 OA
HETATM    6  C5  UNL     1       0.711  -1.543   1.981  1.00  0.00     0.181 C 
HETATM    7  O7  UNL     1       3.717  -1.141   2.758  1.00  0.00    -0.215 OA
ENDROOT
BRANCH   4   8
HETATM    8  O3  UNL     1       2.609  -2.059  -0.576  1.00  0.00    -0.326 OA
BRANCH   8   9
HETATM    9  C7  UNL     1       2.141  -3.225  -1.215  1.00  0.00     0.179 C 
BRANCH   9  10
HETATM   10  C8  UNL     1       0.721  -2.959  -1.717  1.00  0.00     0.167 C 
BRANCH  10  11
HETATM   11  C9  UNL     1       0.068  -4.205  -2.199  1.00  0.00     0.009 A 
HETATM   12  C10 UNL     1       0.623  -4.918  -3.277  1.00  0.00     0.000 A 
HETATM   13  C11 UNL     1       0.004  -6.094  -3.730  1.00  0.00     0.029 A 
HETATM   14  C12 UNL     1      -1.168  -6.563  -3.111  1.00  0.00     0.156 A 
HETATM   15  C13 UNL     1      -1.723  -5.850  -2.033  1.00  0.00     0.156 A 
HETATM   16  O5  UNL     1      -1.742  -7.668  -3.543  1.00  0.00    -0.188 OA
HETATM   17  C14 UNL     1      -1.104  -4.672  -1.580  1.00  0.00     0.028 A 
HETATM   18  O4  UNL     1      -2.822  -6.281  -1.447  1.00  0.00    -0.188 OA
ENDBRANCH  10  11
BRANCH  10  19
HETATM   19  O6  UNL     1       0.793  -2.025  -2.771  1.00  0.00    -0.347 OA
HETATM   20  C15 UNL     1      -0.467  -1.711  -3.320  1.00  0.00     0.175 C 
ENDBRANCH  10  19
ENDBRANCH   9  10
ENDBRANCH   8   9
ENDBRANCH   4   8
BRANCH   2  21
HETATM   21  O8  UNL     1       2.645   1.090   0.219  1.00  0.00    -0.326 OA
BRANCH  21  22
HETATM   22  C16 UNL     1       1.902   2.295   0.191  1.00  0.00     0.270 C 
HETATM   23  C17 UNL     1       2.803   3.457  -0.303  1.00  0.00     0.241 C 
HETATM   24  C18 UNL     1       3.084   3.342  -1.820  1.00  0.00     0.220 C 
HETATM   25  O12 UNL     1       2.150   4.682  -0.002  1.00  0.00    -0.215 OA
HETATM   26  C19 UNL     1       1.766   3.141  -2.600  1.00  0.00     0.212 C 
HETATM   27  O11 UNL     1       3.791   4.479  -2.295  1.00  0.00    -0.218 OA
HETATM   28  C20 UNL     1       0.947   1.967  -2.012  1.00  0.00     0.151 C 
HETATM   29  O10 UNL     1       2.047   2.859  -3.959  1.00  0.00    -0.218 OA
HETATM   30  O9  UNL     1       0.731   2.176  -0.617  1.00  0.00    -0.329 OA
HETATM   31  C21 UNL     1      -0.436   1.826  -2.654  1.00  0.00     0.035 C 
ENDBRANCH  21  22
ENDBRANCH   2  21
BRANCH   6  32
HETATM   32  C6  UNL     1      -0.738  -2.033   1.986  1.00  0.00     0.214 C 
HETATM   33  O2  UNL     1      -0.795  -3.231   2.731  1.00  0.00    -0.218 OA
ENDBRANCH   6  32
BRANCH   1  34
HETATM   34  O13 UNL     1       0.029   0.773   1.803  1.00  0.00    -0.296 OA
BRANCH  34  35
HETATM   35  C22 UNL     1      -1.166   0.789   1.223  1.00  0.00     0.296 C 
HETATM   36  O15 UNL     1      -1.469   0.088   0.285  1.00  0.00    -0.259 OA
BRANCH  35  37
HETATM   37  C23 UNL     1      -2.141   1.727   1.793  1.00  0.00     0.068 C 
HETATM   38  C24 UNL     1      -1.797   2.535   2.809  1.00  0.00     0.005 C 
BRANCH  38  39
HETATM   39  C25 UNL     1      -2.822   3.475   3.356  1.00  0.00     0.000 A 
HETATM   40  C26 UNL     1      -4.188   3.145   3.285  1.00  0.00     0.002 A 
HETATM   41  C27 UNL     1      -5.150   4.027   3.801  1.00  0.00     0.027 A 
HETATM   42  C28 UNL     1      -4.756   5.244   4.385  1.00  0.00     0.131 A 
HETATM   43  C29 UNL     1      -3.391   5.572   4.453  1.00  0.00     0.027 A 
HETATM   44  O14 UNL     1      -5.660   6.072   4.867  1.00  0.00    -0.190 OA
HETATM   45  C30 UNL     1      -2.424   4.689   3.940  1.00  0.00     0.002 A 
ENDBRANCH  38  39
ENDBRANCH  35  37
ENDBRANCH  34  35
ENDBRANCH   1  34
TORSDOF 12
