REMARK  8 active torsions:
REMARK  status: ('A' for Active; 'I' for Inactive)
REMARK    1  A    between atoms: C1_1  and  C2_2 
REMARK    2  A    between atoms: C1_1  and  C22_30 
REMARK    3  A    between atoms: C2_2  and  C3_3 
REMARK    4  A    between atoms: C7_8  and  C9_11 
REMARK    5  A    between atoms: C9_11  and  C10_12 
REMARK    6  A    between atoms: C15_18  and  C17_21 
REMARK    7  A    between atoms: C17_21  and  C18_22 
REMARK    8  A    between atoms: C18_22  and  C19_23 
ROOT
HETATM    1  C9  UNL     1      -1.467   0.555  -2.219  1.00  0.00     0.061 C 
ENDROOT
BRANCH   1   2
HETATM    2  C7  UNL     1       0.020   0.607  -2.219  1.00  0.00     0.033 A 
HETATM    3  C6  UNL     1       0.676   1.853  -2.219  1.00  0.00     0.127 A 
HETATM    4  C5  UNL     1       2.084   1.900  -2.219  1.00  0.00     0.029 A 
HETATM    5  O7  UNL     1      -0.023   2.971  -2.219  1.00  0.00    -0.191 OA
HETATM    6  C4  UNL     1       2.834   0.711  -2.219  1.00  0.00     0.134 A 
HETATM    7  C21 UNL     1       2.779   3.217  -2.219  1.00  0.00     0.035 C 
HETATM    8  C3  UNL     1       2.172  -0.533  -2.219  1.00  0.00     0.085 A 
HETATM    9  O1  UNL     1       4.152   0.762  -2.219  1.00  0.00    -0.190 OA
HETATM   10  C8  UNL     1       0.766  -0.586  -2.219  1.00  0.00     0.134 A 
HETATM   11  O2  UNL     1       0.145  -1.750  -2.219  1.00  0.00    -0.190 OA
BRANCH   8  12
HETATM   12  C2  UNL     1       2.967  -1.801  -2.219  1.00  0.00     0.177 C 
HETATM   13  O8  UNL     1       2.852  -2.608  -3.111  1.00  0.00    -0.291 OA
BRANCH  12  14
HETATM   14  C1  UNL     1       3.914  -2.043  -1.074  1.00  0.00     0.069 C 
BRANCH  14  15
HETATM   15  C22 UNL     1       3.563  -3.303  -0.283  1.00  0.00     0.008 C 
HETATM   16  C23 UNL     1       4.527  -3.563   0.875  1.00  0.00     0.001 C 
ENDBRANCH  14  15
ENDBRANCH  12  14
ENDBRANCH   8  12
ENDBRANCH   1   2
BRANCH   1  17
HETATM   17  C10 UNL     1      -1.980   1.018  -0.898  1.00  0.00     0.033 A 
HETATM   18  C11 UNL     1      -2.938   2.047  -0.842  1.00  0.00     0.127 A 
HETATM   19  O3  UNL     1      -3.381   2.603  -1.953  1.00  0.00    -0.191 OA
HETATM   20  C12 UNL     1      -3.422   2.482   0.406  1.00  0.00     0.029 A 
HETATM   21  C13 UNL     1      -4.434   3.572   0.469  1.00  0.00     0.035 C 
HETATM   22  C14 UNL     1      -2.951   1.893   1.594  1.00  0.00     0.134 A 
HETATM   23  C15 UNL     1      -1.994   0.861   1.531  1.00  0.00     0.085 A 
HETATM   24  O6  UNL     1      -3.410   2.305   2.762  1.00  0.00    -0.190 OA
HETATM   25  C16 UNL     1      -1.508   0.422   0.285  1.00  0.00     0.134 A 
HETATM   26  O4  UNL     1      -0.609  -0.543   0.225  1.00  0.00    -0.190 OA
BRANCH  23  27
HETATM   27  C17 UNL     1      -1.492   0.230   2.793  1.00  0.00     0.177 C 
HETATM   28  O5  UNL     1      -0.340   0.359   3.137  1.00  0.00    -0.291 OA
BRANCH  27  29
HETATM   29  C18 UNL     1      -2.463  -0.566   3.621  1.00  0.00     0.069 C 
BRANCH  29  30
HETATM   30  C19 UNL     1      -2.549  -2.027   3.176  1.00  0.00     0.008 C 
HETATM   31  C20 UNL     1      -1.240  -2.787   3.395  1.00  0.00     0.001 C 
ENDBRANCH  29  30
ENDBRANCH  27  29
ENDBRANCH  23  27
ENDBRANCH   1  17
TORSDOF 8
