REMARK  3 active torsions:
REMARK  status: ('A' for Active; 'I' for Inactive)
REMARK    1  A    between atoms: C7_7  and  O1_10 
REMARK    2  A    between atoms: O1_10  and  C9_11 
REMARK    3  A    between atoms: C13_15  and  C14_17 
ROOT
HETATM    1  C9  UNL     1       0.498  -0.693   0.567  1.00  0.00     0.274 C 
HETATM    2  C10 UNL     1       0.723  -2.180   0.922  1.00  0.00     0.241 C 
HETATM    3  C11 UNL     1       2.215  -2.563   0.795  1.00  0.00     0.220 C 
HETATM    4  C12 UNL     1       2.746  -2.117  -0.586  1.00  0.00     0.215 C 
HETATM    5  C13 UNL     1       2.422  -0.633  -0.863  1.00  0.00     0.184 C 
HETATM    6  O2  UNL     1       1.022  -0.422  -0.726  1.00  0.00    -0.326 OA
HETATM    7  O4  UNL     1       4.151  -2.293  -0.637  1.00  0.00    -0.218 OA
HETATM    8  O5  UNL     1       2.365  -3.965   0.942  1.00  0.00    -0.218 OA
HETATM    9  O6  UNL     1       0.276  -2.404   2.246  1.00  0.00    -0.215 OA
ENDROOT
BRANCH   1  10
HETATM   10  O1  UNL     1      -0.892  -0.399   0.572  1.00  0.00    -0.302 OA
BRANCH  10  11
HETATM   11  C7  UNL     1      -1.262   0.887   0.492  1.00  0.00     0.117 A 
HETATM   12  C5  UNL     1      -2.516   1.402   0.455  1.00  0.00     0.042 A 
HETATM   13  C4  UNL     1      -2.545   2.769   0.371  1.00  0.00     0.083 A 
HETATM   14  C6  UNL     1      -3.717   0.648   0.494  1.00  0.00     0.004 A 
HETATM   15  C3  UNL     1      -3.762   3.488   0.320  1.00  0.00     0.019 A 
HETATM   16  N1  UNL     1      -1.230   3.189   0.352  1.00  0.00    -0.242 NA
HETATM   17  C2  UNL     1      -4.976   2.758   0.359  1.00  0.00     0.002 A 
HETATM   18  C1  UNL     1      -4.955   1.340   0.447  1.00  0.00     0.000 A 
HETATM   19  C8  UNL     1      -0.428   2.025   0.426  1.00  0.00     0.123 A 
ENDBRANCH  10  11
ENDBRANCH   1  10
BRANCH   5  20
HETATM   20  C14 UNL     1       2.801  -0.197  -2.283  1.00  0.00     0.214 C 
HETATM   21  O3  UNL     1       2.619   1.197  -2.381  1.00  0.00    -0.218 OA
ENDBRANCH   5  20
TORSDOF 3
