REMARK  2 active torsions:
REMARK  status: ('A' for Active; 'I' for Inactive)
REMARK    1  A    between atoms: C1_1  and  O4_23 
REMARK    2  A    between atoms: C2_2  and  O3_21 
ROOT
HETATM    1  C1  UNL     1      -0.959   2.262  -0.662  1.00  0.00     0.116 A 
HETATM    2  C2  UNL     1       0.320   1.703  -0.449  1.00  0.00     0.116 A 
HETATM    3  C3  UNL     1       0.480   0.301  -0.158  1.00  0.00     0.026 A 
HETATM    4  C4  UNL     1      -0.715  -0.512  -0.096  1.00  0.00     0.021 A 
HETATM    5  C5  UNL     1      -1.994   0.086  -0.314  1.00  0.00     0.047 A 
HETATM    6  C6  UNL     1      -2.109   1.461  -0.596  1.00  0.00     0.030 A 
HETATM    7  C7  UNL     1      -3.227  -0.744  -0.248  1.00  0.00     0.251 A 
HETATM    8  C8  UNL     1      -3.037  -2.182   0.043  1.00  0.00     0.300 A 
HETATM    9  O1  UNL     1      -4.012  -2.897   0.104  1.00  0.00    -0.263 OA
HETATM   10  N1  UNL     1      -1.774  -2.707   0.242  1.00  0.00    -0.291 N 
HETATM   11  C9  UNL     1      -0.647  -1.920   0.180  1.00  0.00     0.063 A 
HETATM   12  C10 UNL     1       0.627  -2.504   0.395  1.00  0.00     0.017 A 
HETATM   13  C11 UNL     1       1.807  -1.735   0.346  1.00  0.00     0.002 A 
HETATM   14  C12 UNL     1       1.762  -0.326   0.074  1.00  0.00     0.002 A 
HETATM   15  C13 UNL     1       3.012   0.371   0.053  1.00  0.00     0.000 A 
HETATM   16  C14 UNL     1       4.234  -0.297   0.283  1.00  0.00     0.000 A 
HETATM   17  C15 UNL     1       4.252  -1.680   0.545  1.00  0.00     0.000 A 
HETATM   18  C16 UNL     1       3.041  -2.399   0.576  1.00  0.00     0.000 A 
HETATM   19  C17 UNL     1      -1.686  -4.160   0.527  1.00  0.00     0.134 C 
HETATM   20  O2  UNL     1      -4.363  -0.362  -0.408  1.00  0.00    -0.281 OA
ENDROOT
BRANCH   1  21
HETATM   21  O4  UNL     1      -1.088   3.568  -0.932  1.00  0.00    -0.326 OA
HETATM   22  C19 UNL     1      -2.379   4.058  -1.264  1.00  0.00     0.181 C 
ENDBRANCH   1  21
BRANCH   2  23
HETATM   23  O3  UNL     1       1.342   2.562  -0.541  1.00  0.00    -0.326 OA
HETATM   24  C18 UNL     1       1.508   3.515   0.500  1.00  0.00     0.181 C 
ENDBRANCH   2  23
TORSDOF 2
