REMARK  0 active torsions:
REMARK  status: ('A' for Active; 'I' for Inactive)
ROOT
HETATM    1  C1  UNL     1       0.795  -1.037   1.512  1.00  0.00     0.144 C 
HETATM    2  C2  UNL     1       0.893   0.406   0.959  1.00  0.00     0.064 C 
HETATM    3  C3  UNL     1      -0.459   1.115   0.811  1.00  0.00     0.034 C 
HETATM    4  C4  UNL     1      -1.291   0.736  -0.391  1.00  0.00     0.009 C 
HETATM    5  C5  UNL     1      -1.457  -0.668  -0.807  1.00  0.00     0.191 C 
HETATM    6  C6  UNL     1      -1.199  -1.834   0.061  1.00  0.00     0.035 C 
HETATM    7  C7  UNL     1      -0.283  -2.012   1.037  1.00  0.00    -0.013 C 
HETATM    8  C8  UNL     1      -0.316  -3.353   1.740  1.00  0.00     0.029 C 
HETATM    9  O1  UNL     1      -1.844  -0.902  -1.930  1.00  0.00    -0.287 OA
HETATM   10  C9  UNL     1      -1.883   1.731  -1.098  1.00  0.00    -0.044 C 
HETATM   11  C10 UNL     1      -1.379   3.137  -0.914  1.00  0.00     0.026 C 
HETATM   12  C11 UNL     1      -3.012   1.377  -2.027  1.00  0.00     0.026 C 
HETATM   13  C12 UNL     1       1.865   0.371  -0.258  1.00  0.00     0.130 C 
HETATM   14  C13 UNL     1       2.291  -1.101  -0.334  1.00  0.00     0.033 C 
HETATM   15  C14 UNL     1       2.184  -1.557   1.117  1.00  0.00     0.037 C 
HETATM   16  C15 UNL     1       1.350   0.854  -1.615  1.00  0.00     0.033 C 
HETATM   17  O2  UNL     1       3.016   1.158   0.018  1.00  0.00    -0.226 OA
HETATM   18  O3  UNL     1       0.717  -0.975   2.928  1.00  0.00    -0.222 OA
ENDROOT
TORSDOF 0
