REMARK  4 active torsions:
REMARK  status: ('A' for Active; 'I' for Inactive)
REMARK    1  A    between atoms: C3_3  and  C12_13 
REMARK    2  A    between atoms: C5_5  and  C7_8 
REMARK    3  A    between atoms: C7_8  and  C8_9 
REMARK    4  A    between atoms: C12_13  and  C13_14 
ROOT
HETATM    1  C1  UNL     1      -0.854  -1.007   2.099  1.00  0.00     0.027 A 
HETATM    2  C2  UNL     1      -0.395   0.282   2.417  1.00  0.00    -0.002 A 
HETATM    3  C3  UNL     1      -0.026   1.169   1.391  1.00  0.00    -0.018 A 
HETATM    4  C4  UNL     1      -0.118   0.764   0.047  1.00  0.00    -0.006 A 
HETATM    5  C5  UNL     1      -0.577  -0.527  -0.270  1.00  0.00     0.006 A 
HETATM    6  C6  UNL     1      -0.947  -1.417   0.757  1.00  0.00     0.127 A 
HETATM    7  O1  UNL     1      -1.379  -2.629   0.470  1.00  0.00    -0.191 OA
ENDROOT
BRANCH   5   8
HETATM    8  C7  UNL     1      -0.670  -0.944  -1.695  1.00  0.00     0.039 C 
HETATM    9  C10 UNL     1      -0.957   0.245  -2.612  1.00  0.00     0.009 C 
HETATM   10  C11 UNL     1      -1.666  -2.088  -1.883  1.00  0.00     0.009 C 
BRANCH   8  11
HETATM   11  C8  UNL     1       0.760  -1.406  -1.786  1.00  0.00    -0.023 C 
HETATM   12  C9  UNL     1       1.096  -2.568  -1.201  1.00  0.00    -0.005 C 
ENDBRANCH   8  11
ENDBRANCH   5   8
BRANCH   3  13
HETATM   13  C12 UNL     1       0.459   2.534   1.725  1.00  0.00     0.052 C 
BRANCH  13  14
HETATM   14  C13 UNL     1       1.962   2.616   1.725  1.00  0.00    -0.021 C 
HETATM   15  C14 UNL     1       2.537   3.830   1.725  1.00  0.00    -0.005 C 
ENDBRANCH  13  14
ENDBRANCH   3  13
TORSDOF 4
