REMARK  1 active torsions:
REMARK  status: ('A' for Active; 'I' for Inactive)
REMARK    1  A    between atoms: C4_4  and  C7_7 
ROOT
HETATM    1  C1  UNL     1       0.510  -1.734  -0.320  1.00  0.00    -0.045 C 
HETATM    2  C2  UNL     1      -0.639  -0.773  -0.027  1.00  0.00     0.015 C 
HETATM    3  C3  UNL     1      -0.205   0.652  -0.440  1.00  0.00     0.004 C 
HETATM    4  C4  UNL     1       1.051   1.150   0.309  1.00  0.00     0.001 C 
HETATM    5  C5  UNL     1       2.049   0.018   0.625  1.00  0.00     0.004 C 
HETATM    6  C6  UNL     1       1.918  -1.180  -0.326  1.00  0.00     0.022 C 
HETATM    7  C10 UNL     1      -1.949  -1.107  -0.762  1.00  0.00     0.004 C 
HETATM    8  C11 UNL     1      -3.047  -0.353  -0.014  1.00  0.00     0.000 C 
HETATM    9  C12 UNL     1      -2.485  -0.090   1.385  1.00  0.00     0.000 C 
HETATM   10  C13 UNL     1      -1.135  -0.811   1.434  1.00  0.00     0.003 C 
HETATM   11  C14 UNL     1      -1.360  -2.232   1.951  1.00  0.00     0.000 C 
HETATM   12  C15 UNL     1       0.305  -3.041  -0.570  1.00  0.00    -0.009 C 
ENDROOT
BRANCH   4  13
HETATM   13  C7  UNL     1       1.719   2.291  -0.465  1.00  0.00     0.000 C 
HETATM   14  C8  UNL     1       2.422   1.809  -1.734  1.00  0.00     0.000 C 
HETATM   15  C9  UNL     1       0.773   3.465  -0.723  1.00  0.00     0.000 C 
ENDBRANCH   4  13
TORSDOF 1
