REMARK  4 active torsions:
REMARK  status: ('A' for Active; 'I' for Inactive)
REMARK    1  A    between atoms: C3_3  and  C20_21 
REMARK    2  A    between atoms: C20_21  and  O2_22 
REMARK    3  A    between atoms: O2_22  and  C21_23 
REMARK    4  A    between atoms: C25_27  and  C26_29 
ROOT
HETATM    1  C1  UNL     1      -2.055   0.990   2.061  1.00  0.00     0.001 C 
HETATM    2  C2  UNL     1      -2.690  -0.399   1.906  1.00  0.00     0.009 C 
HETATM    3  C3  UNL     1      -1.818  -1.369   1.086  1.00  0.00     0.078 C 
HETATM    4  C4  UNL     1      -0.371  -1.397   1.656  1.00  0.00     0.011 C 
HETATM    5  C5  UNL     1       0.301   0.006   1.776  1.00  0.00     0.001 C 
HETATM    6  C6  UNL     1      -0.631   0.900   2.631  1.00  0.00     0.000 C 
HETATM    7  C7  UNL     1       1.705  -0.143   2.457  1.00  0.00     0.003 C 
HETATM    8  C8  UNL     1       2.619  -1.256   1.844  1.00  0.00     0.032 C 
HETATM    9  C9  UNL     1       1.857  -2.596   1.723  1.00  0.00     0.152 C 
HETATM   10  C10 UNL     1       0.547  -2.406   0.943  1.00  0.00     0.033 C 
HETATM   11  O1  UNL     1       2.631  -3.588   1.072  1.00  0.00    -0.224 OA
HETATM   12  C11 UNL     1       3.244  -0.770   0.512  1.00  0.00     0.007 C 
HETATM   13  C12 UNL     1       4.221   0.305   0.986  1.00  0.00     0.018 C 
HETATM   14  C13 UNL     1       3.402   1.533   1.402  1.00  0.00     0.004 C 
HETATM   15  C14 UNL     1       2.488   1.195   2.598  1.00  0.00     0.000 C 
HETATM   16  C15 UNL     1       4.846  -0.383   2.166  1.00  0.00    -0.044 C 
HETATM   17  C16 UNL     1       3.902  -1.420   2.705  1.00  0.00     0.024 C 
HETATM   18  C17 UNL     1       6.066  -0.117   2.660  1.00  0.00    -0.009 C 
HETATM   19  C18 UNL     1       0.445   0.666   0.399  1.00  0.00     0.000 C 
HETATM   20  C19 UNL     1      -2.451  -2.764   1.168  1.00  0.00     0.010 C 
ENDROOT
BRANCH   3  21
HETATM   21  C20 UNL     1      -1.842  -0.977  -0.373  1.00  0.00     0.273 C 
HETATM   22  O8  UNL     1      -1.141  -1.539  -1.182  1.00  0.00    -0.264 OA
BRANCH  21  23
HETATM   23  O2  UNL     1      -2.678   0.012  -0.680  1.00  0.00    -0.273 OA
BRANCH  23  24
HETATM   24  C21 UNL     1      -2.762   0.236  -2.080  1.00  0.00     0.276 C 
HETATM   25  C22 UNL     1      -3.975   1.135  -2.400  1.00  0.00     0.241 C 
HETATM   26  C23 UNL     1      -4.016   1.506  -3.898  1.00  0.00     0.220 C 
HETATM   27  O7  UNL     1      -5.158   0.441  -2.041  1.00  0.00    -0.215 OA
HETATM   28  C24 UNL     1      -2.641   2.060  -4.334  1.00  0.00     0.215 C 
HETATM   29  O6  UNL     1      -5.022   2.480  -4.125  1.00  0.00    -0.218 OA
HETATM   30  C25 UNL     1      -1.492   1.113  -3.914  1.00  0.00     0.184 C 
HETATM   31  O5  UNL     1      -2.609   2.217  -5.742  1.00  0.00    -0.218 OA
HETATM   32  O3  UNL     1      -1.566   0.871  -2.516  1.00  0.00    -0.326 OA
BRANCH  30  33
HETATM   33  C26 UNL     1      -0.104   1.699  -4.187  1.00  0.00     0.214 C 
HETATM   34  O4  UNL     1       0.855   0.699  -3.924  1.00  0.00    -0.218 OA
ENDBRANCH  30  33
ENDBRANCH  23  24
ENDBRANCH  21  23
ENDBRANCH   3  21
TORSDOF 4
