REMARK  4 active torsions:
REMARK  status: ('A' for Active; 'I' for Inactive)
REMARK    1  A    between atoms: C2_2  and  C21_24 
REMARK    2  A    between atoms: C11_11  and  O3_20 
REMARK    3  A    between atoms: C12_12  and  C15_16 
REMARK    4  A    between atoms: C15_16  and  C17_18 
ROOT
HETATM    1  C1  UNL     1      -2.957   2.619  -0.557  1.00  0.00     0.032 C 
HETATM    2  C2  UNL     1      -3.994   1.525  -0.402  1.00  0.00     0.034 C 
HETATM    3  C3  UNL     1      -3.629   0.228  -0.283  1.00  0.00    -0.042 C 
HETATM    4  C4  UNL     1      -2.168  -0.191  -0.352  1.00  0.00     0.022 C 
HETATM    5  C5  UNL     1      -1.191   0.906   0.160  1.00  0.00     0.024 C 
HETATM    6  C6  UNL     1      -1.506   2.137  -0.732  1.00  0.00     0.009 C 
HETATM    7  C7  UNL     1       0.250   0.457   0.103  1.00  0.00     0.001 A 
HETATM    8  C8  UNL     1       0.590  -0.930  -0.053  1.00  0.00    -0.002 A 
HETATM    9  C9  UNL     1      -0.449  -1.994  -0.111  1.00  0.00     0.028 C 
HETATM   10  C10 UNL     1      -1.848  -1.535   0.311  1.00  0.00     0.009 C 
HETATM   11  C11 UNL     1       1.951  -1.322  -0.158  1.00  0.00     0.086 A 
HETATM   12  C12 UNL     1       2.984  -0.363  -0.076  1.00  0.00     0.004 A 
HETATM   13  C13 UNL     1       2.664   0.992   0.129  1.00  0.00     0.025 A 
HETATM   14  C14 UNL     1       1.316   1.400   0.236  1.00  0.00     0.127 A 
HETATM   15  O1  UNL     1       1.080   2.693   0.494  1.00  0.00    -0.191 OA
HETATM   16  C19 UNL     1      -1.502   1.238   1.631  1.00  0.00     0.005 C 
HETATM   17  C20 UNL     1      -4.678  -0.844  -0.088  1.00  0.00     0.026 C 
ENDROOT
BRANCH  12  18
HETATM   18  C15 UNL     1       4.395  -0.772  -0.197  1.00  0.00     0.057 C 
HETATM   19  C16 UNL     1       5.297   0.051   0.723  1.00  0.00     0.007 C 
BRANCH  18  20
HETATM   20  C17 UNL     1       4.863  -0.758  -1.652  1.00  0.00     0.187 C 
HETATM   21  O2  UNL     1       6.109  -1.414  -1.719  1.00  0.00    -0.220 OA
ENDBRANCH  18  20
ENDBRANCH  12  18
BRANCH  11  22
HETATM   22  O3  UNL     1       2.264  -2.615  -0.338  1.00  0.00    -0.329 OA
HETATM   23  C18 UNL     1       2.297  -3.459   0.805  1.00  0.00     0.181 C 
ENDBRANCH  11  22
BRANCH   2  24
HETATM   24  C21 UNL     1      -5.410   1.932  -0.383  1.00  0.00     0.206 C 
HETATM   25  O4  UNL     1      -6.143   1.645  -1.301  1.00  0.00    -0.644 OA
HETATM   26  O5  UNL     1      -5.799   2.619   0.687  1.00  0.00    -0.644 OA
ENDBRANCH   2  24
TORSDOF 4
