REMARK  6 active torsions:
REMARK  status: ('A' for Active; 'I' for Inactive)
REMARK    1  A    between atoms: C4_4  and  O7_19 
REMARK    2  A    between atoms: C5_6  and  C6_7 
REMARK    3  A    between atoms: C6_7  and  O2_8 
REMARK    4  A    between atoms: O2_8  and  C7_9 
REMARK    5  A    between atoms: O7_19  and  C13_20 
REMARK    6  A    between atoms: C16_23  and  C19_26 
ROOT
HETATM    1  C1  UNL     1       1.875   2.717   1.854  1.00  0.00     0.215 C 
HETATM    2  C2  UNL     1       1.900   2.490   3.381  1.00  0.00     0.220 C 
HETATM    3  C3  UNL     1       2.289   1.025   3.684  1.00  0.00     0.241 C 
HETATM    4  C4  UNL     1       1.418   0.039   2.875  1.00  0.00     0.274 C 
HETATM    5  O1  UNL     1       1.502   0.350   1.490  1.00  0.00    -0.326 OA
HETATM    6  C5  UNL     1       1.027   1.641   1.135  1.00  0.00     0.180 C 
HETATM    7  O9  UNL     1       2.119   0.754   5.063  1.00  0.00    -0.215 OA
HETATM    8  O10 UNL     1       2.834   3.369   3.984  1.00  0.00    -0.218 OA
HETATM    9  O11 UNL     1       1.328   3.992   1.566  1.00  0.00    -0.218 OA
ENDROOT
BRANCH   6  10
HETATM   10  C6  UNL     1       1.109   1.736  -0.391  1.00  0.00     0.177 C 
BRANCH  10  11
HETATM   11  O2  UNL     1       0.152   0.857  -0.939  1.00  0.00    -0.326 OA
BRANCH  11  12
HETATM   12  C7  UNL     1       0.158   0.840  -2.355  1.00  0.00     0.270 C 
HETATM   13  C8  UNL     1      -0.775  -0.283  -2.871  1.00  0.00     0.241 C 
HETATM   14  C9  UNL     1      -2.266   0.086  -2.668  1.00  0.00     0.220 C 
HETATM   15  O6  UNL     1      -0.492  -0.498  -4.246  1.00  0.00    -0.215 OA
HETATM   16  C10 UNL     1      -2.549   1.500  -3.221  1.00  0.00     0.212 C 
HETATM   17  O5  UNL     1      -3.115  -0.881  -3.266  1.00  0.00    -0.218 OA
HETATM   18  C11 UNL     1      -1.549   2.531  -2.648  1.00  0.00     0.151 C 
HETATM   19  O4  UNL     1      -3.863   1.898  -2.873  1.00  0.00    -0.218 OA
HETATM   20  O3  UNL     1      -0.211   2.107  -2.900  1.00  0.00    -0.329 OA
HETATM   21  C12 UNL     1      -1.697   3.918  -3.285  1.00  0.00     0.035 C 
ENDBRANCH  11  12
ENDBRANCH  10  11
ENDBRANCH   6  10
BRANCH   4  22
HETATM   22  O7  UNL     1       1.875  -1.291   3.076  1.00  0.00    -0.304 OA
BRANCH  22  23
HETATM   23  C13 UNL     1       1.305  -2.252   2.379  1.00  0.00     0.097 A 
HETATM   24  C14 UNL     1       1.998  -3.449   2.127  1.00  0.00     0.024 A 
HETATM   25  C15 UNL     1       1.391  -4.477   1.383  1.00  0.00     0.005 A 
HETATM   26  C16 UNL     1       0.086  -4.309   0.887  1.00  0.00     0.035 A 
HETATM   27  C17 UNL     1      -0.609  -3.111   1.137  1.00  0.00     0.005 A 
HETATM   28  C18 UNL     1       0.000  -2.086   1.881  1.00  0.00     0.024 A 
BRANCH  26  29
HETATM   29  C19 UNL     1      -0.561  -5.399   0.098  1.00  0.00     0.173 C 
HETATM   30  O8  UNL     1       0.021  -6.434  -0.125  1.00  0.00    -0.291 OA
HETATM   31  C20 UNL     1      -1.957  -5.168  -0.416  1.00  0.00     0.077 C 
ENDBRANCH  26  29
ENDBRANCH  22  23
ENDBRANCH   4  22
TORSDOF 6
