REMARK  11 active torsions:
REMARK  status: ('A' for Active; 'I' for Inactive)
REMARK    1  A    between atoms: C1_1  and  C6_6 
REMARK    2  A    between atoms: C6_6  and  C7_7 
REMARK    3  A    between atoms: C7_7  and  C8_8 
REMARK    4  A    between atoms: C8_8  and  C9_9 
REMARK    5  A    between atoms: C9_9  and  C10_10 
REMARK    6  A    between atoms: C10_10  and  C11_11 
REMARK    7  A    between atoms: C11_11  and  C12_12 
REMARK    8  A    between atoms: C12_12  and  C13_13 
REMARK    9  A    between atoms: C13_13  and  C14_14 
REMARK   10  A    between atoms: C14_14  and  C15_15 
REMARK   11  A    between atoms: C15_15  and  C16_16 
ROOT
HETATM    1  C9  UNL     1      -0.137  -0.152  -0.260  1.00  0.00     0.000 C 
ENDROOT
BRANCH   1   2
HETATM    2  C8  UNL     1      -1.512  -0.111   0.406  1.00  0.00     0.000 C 
BRANCH   2   3
HETATM    3  C7  UNL     1      -2.394  -1.295   0.012  1.00  0.00     0.000 C 
BRANCH   3   4
HETATM    4  C6  UNL     1      -3.773  -1.250   0.674  1.00  0.00     0.000 C 
BRANCH   4   5
HETATM    5  C1  UNL     1      -4.582  -2.469   0.248  1.00  0.00     0.000 C 
HETATM    6  C2  UNL     1      -6.014  -2.422   0.768  1.00  0.00     0.000 C 
HETATM    7  C3  UNL     1      -6.473  -3.850   0.502  1.00  0.00     0.000 C 
HETATM    8  C4  UNL     1      -5.268  -4.707   0.889  1.00  0.00     0.000 C 
HETATM    9  C5  UNL     1      -4.066  -3.762   0.877  1.00  0.00     0.000 C 
ENDBRANCH   4   5
ENDBRANCH   3   4
ENDBRANCH   2   3
ENDBRANCH   1   2
BRANCH   1  10
HETATM   10  C10 UNL     1       0.744   1.033   0.131  1.00  0.00     0.000 C 
BRANCH  10  11
HETATM   11  C11 UNL     1       2.121   0.992  -0.535  1.00  0.00     0.000 C 
BRANCH  11  12
HETATM   12  C12 UNL     1       3.002   2.178  -0.145  1.00  0.00     0.000 C 
BRANCH  12  13
HETATM   13  C13 UNL     1       4.377   2.137  -0.811  1.00  0.00     0.001 C 
BRANCH  13  14
HETATM   14  C14 UNL     1       5.258   3.326  -0.424  1.00  0.00     0.011 C 
BRANCH  14  15
HETATM   15  C15 UNL     1       6.641   3.271  -1.072  1.00  0.00     0.098 C 
BRANCH  15  16
HETATM   16  C16 UNL     1       7.504   4.441  -0.682  1.00  0.00     0.185 C 
HETATM   17  O1  UNL     1       7.321   5.029   0.357  1.00  0.00    -0.647 OA
HETATM   18  O2  UNL     1       8.457   4.758  -1.555  1.00  0.00    -0.647 OA
ENDBRANCH  15  16
ENDBRANCH  14  15
ENDBRANCH  13  14
ENDBRANCH  12  13
ENDBRANCH  11  12
ENDBRANCH  10  11
ENDBRANCH   1  10
TORSDOF 11
