REMARK  3 active torsions:
REMARK  status: ('A' for Active; 'I' for Inactive)
REMARK    1  A    between atoms: C4_4  and  C7_7 
REMARK    2  A    between atoms: C7_7  and  C8_8 
REMARK    3  A    between atoms: C9_9  and  C10_10 
ROOT
HETATM    1  C7  UNL     1       0.162  -2.412   0.193  1.00  0.00     0.198 C 
HETATM    2  O2  UNL     1       1.135  -3.119   0.314  1.00  0.00    -0.286 OA
ENDROOT
BRANCH   1   3
HETATM    3  C4  UNL     1      -0.029  -1.213   1.062  1.00  0.00     0.064 A 
HETATM    4  C3  UNL     1       1.078  -0.441   1.470  1.00  0.00     0.136 A 
HETATM    5  C2  UNL     1       0.879   0.684   2.289  1.00  0.00     0.055 A 
HETATM    6  O3  UNL     1       2.299  -0.766   1.092  1.00  0.00    -0.190 OA
HETATM    7  C1  UNL     1      -0.416   1.045   2.703  1.00  0.00     0.133 A 
HETATM    8  C6  UNL     1      -1.518   0.273   2.295  1.00  0.00     0.028 A 
HETATM    9  O4  UNL     1      -0.596   2.102   3.471  1.00  0.00    -0.190 OA
HETATM   10  C5  UNL     1      -1.326  -0.854   1.476  1.00  0.00     0.007 A 
ENDBRANCH   1   3
BRANCH   1  11
HETATM   11  C8  UNL     1      -0.858  -2.719  -0.817  1.00  0.00     0.042 C 
HETATM   12  C9  UNL     1      -1.180  -1.818  -1.760  1.00  0.00     0.003 C 
BRANCH  12  13
HETATM   13  C10 UNL     1      -0.481  -0.500  -1.760  1.00  0.00     0.000 A 
HETATM   14  C11 UNL     1      -1.227   0.693  -1.760  1.00  0.00     0.002 A 
HETATM   15  C12 UNL     1      -0.567   1.934  -1.760  1.00  0.00     0.027 A 
HETATM   16  C13 UNL     1       0.838   1.990  -1.760  1.00  0.00     0.131 A 
HETATM   17  C14 UNL     1       1.582   0.795  -1.760  1.00  0.00     0.027 A 
HETATM   18  O1  UNL     1       1.455   3.154  -1.760  1.00  0.00    -0.190 OA
HETATM   19  C15 UNL     1       0.924  -0.447  -1.760  1.00  0.00     0.002 A 
ENDBRANCH  12  13
ENDBRANCH   1  11
TORSDOF 3
