REMARK  2 active torsions:
REMARK  status: ('A' for Active; 'I' for Inactive)
REMARK    1  A    between atoms: C9_10  and  C10_11 
REMARK    2  A    between atoms: C10_11  and  C11_12 
ROOT
HETATM    1  C1  UNL     1      -2.701   1.127   0.125  1.00  0.00     0.035 C 
HETATM    2  C2  UNL     1      -2.420  -0.373   0.283  1.00  0.00     0.033 C 
HETATM    3  C3  UNL     1      -1.336  -0.674   1.344  1.00  0.00     0.127 C 
HETATM    4  C4  UNL     1      -0.074   0.221   1.193  1.00  0.00     0.031 C 
HETATM    5  C5  UNL     1      -0.387   1.713   0.967  1.00  0.00     0.030 C 
HETATM    6  C6  UNL     1      -1.410   1.904  -0.178  1.00  0.00     0.152 C 
HETATM    7  O1  UNL     1      -1.719   3.276  -0.342  1.00  0.00    -0.224 OA
HETATM    8  C7  UNL     1       1.012   2.233   0.615  1.00  0.00     0.003 C 
HETATM    9  C8  UNL     1       1.563   1.195  -0.353  1.00  0.00     0.000 C 
HETATM   10  C9  UNL     1       0.934  -0.137   0.080  1.00  0.00     0.005 C 
HETATM   11  C14 UNL     1      -0.826   2.375   2.277  1.00  0.00     0.003 C 
HETATM   12  C15 UNL     1      -0.926  -2.150   1.344  1.00  0.00     0.033 C 
HETATM   13  O3  UNL     1      -1.906  -0.437   2.619  1.00  0.00    -0.226 OA
ENDROOT
BRANCH  10  14
HETATM   14  C10 UNL     1       0.361  -0.836  -1.150  1.00  0.00     0.031 C 
BRANCH  14  15
HETATM   15  C11 UNL     1       1.475  -1.605  -1.865  1.00  0.00     0.127 C 
HETATM   16  O2  UNL     1       0.986  -2.021  -3.121  1.00  0.00    -0.226 OA
HETATM   17  C12 UNL     1       2.643  -0.709  -2.273  1.00  0.00     0.033 C 
HETATM   18  C13 UNL     1       1.924  -2.846  -1.092  1.00  0.00     0.033 C 
ENDBRANCH  14  15
ENDBRANCH  10  14
TORSDOF 2
