REMARK  0 active torsions:
REMARK  status: ('A' for Active; 'I' for Inactive)
ROOT
HETATM    1  C1  UNL     1      -0.658  -1.244   0.000  1.00  0.00     0.103 A 
HETATM    2  C2  UNL     1      -1.404  -0.049   0.000  1.00  0.00     0.022 A 
HETATM    3  C3  UNL     1      -0.746   1.193   0.000  1.00  0.00     0.022 A 
HETATM    4  C4  UNL     1       0.662   1.246   0.000  1.00  0.00     0.103 A 
HETATM    5  C5  UNL     1       1.408   0.052   0.000  1.00  0.00     0.022 A 
HETATM    6  C6  UNL     1       0.748  -1.190   0.000  1.00  0.00     0.022 A 
HETATM    7  N1  UNL     1       1.303   2.457   0.000  1.00  0.00    -0.148 N 
HETATM    8  N2  UNL     1      -1.299  -2.455   0.000  1.00  0.00    -0.148 N 
ENDROOT
TORSDOF 0
