REMARK  32 active torsions:
REMARK  status: ('A' for Active; 'I' for Inactive)
REMARK    1  A    between atoms: C1_1  and  O4_18 
REMARK    2  A    between atoms: C3_3  and  O3_16 
REMARK    3  A    between atoms: C8_8  and  C12_12 
REMARK    4  A    between atoms: O4_18  and  C15_19 
REMARK    5  A    between atoms: C15_19  and  C16_20 
REMARK    6  A    between atoms: C16_20  and  C17_21 
REMARK    7  A    between atoms: C17_21  and  C18_22 
REMARK    8  A    between atoms: C18_22  and  C19_23 
REMARK    9  A    between atoms: C19_23  and  C20_24 
REMARK   10  A    between atoms: C20_24  and  O5_25 
REMARK   11  A    between atoms: O5_25  and  C21_26 
REMARK   12  A    between atoms: C21_26  and  C22_27 
REMARK   13  A    between atoms: C22_27  and  C23_28 
REMARK   14  A    between atoms: C23_28  and  C24_29 
REMARK   15  A    between atoms: C23_28  and  O15_48 
REMARK   16  A    between atoms: C24_29  and  C25_30 
REMARK   17  A    between atoms: C25_30  and  C26_31 
REMARK   18  A    between atoms: C26_31  and  C27_32 
REMARK   19  A    between atoms: C26_31  and  O7_34 
REMARK   20  A    between atoms: O7_34  and  C28_35 
REMARK   21  A    between atoms: C28_35  and  C29_36 
REMARK   22  A    between atoms: C29_36  and  C30_37 
REMARK   23  A    between atoms: C30_37  and  C31_38 
REMARK   24  A    between atoms: C31_38  and  C32_39 
REMARK   25  A    between atoms: C32_39  and  C33_40 
REMARK   26  A    between atoms: O15_48  and  C34_49 
REMARK   27  A    between atoms: C34_49  and  C35_50 
REMARK   28  A    between atoms: C35_50  and  C36_51 
REMARK   29  A    between atoms: C36_51  and  C37_52 
REMARK   30  A    between atoms: C37_52  and  C38_53 
REMARK   31  A    between atoms: C38_53  and  C39_54 
REMARK   32  A    between atoms: C39_54  and  C40_55 
ROOT
HETATM    1  C23 UNL     1      -2.514  -3.395   0.893  1.00  0.00     0.151 C 
ENDROOT
BRANCH   1   2
HETATM    2  C22 UNL     1      -2.256  -1.889   0.840  1.00  0.00     0.064 C 
BRANCH   2   3
HETATM    3  C21 UNL     1      -0.844  -1.547   0.359  1.00  0.00     0.145 C 
BRANCH   3   4
HETATM    4  O5  UNL     1      -0.783  -0.160   0.119  1.00  0.00    -0.351 OA
BRANCH   4   5
HETATM    5  C20 UNL     1       0.482   0.270  -0.332  1.00  0.00     0.178 C 
BRANCH   5   6
HETATM    6  C19 UNL     1       0.422   1.781  -0.555  1.00  0.00     0.214 C 
HETATM    7  O21 UNL     1      -0.201   2.018  -1.799  1.00  0.00    -0.218 OA
BRANCH   6   8
HETATM    8  C18 UNL     1       1.807   2.430  -0.582  1.00  0.00     0.218 C 
HETATM    9  O22 UNL     1       2.418   2.113  -1.812  1.00  0.00    -0.218 OA
BRANCH   8  10
HETATM   10  C17 UNL     1       1.748   3.951  -0.453  1.00  0.00     0.218 C 
HETATM   11  O23 UNL     1       1.078   4.465  -1.584  1.00  0.00    -0.218 OA
BRANCH  10  12
HETATM   12  C16 UNL     1       3.135   4.592  -0.389  1.00  0.00     0.215 C 
HETATM   13  O24 UNL     1       3.773   4.143   0.785  1.00  0.00    -0.218 OA
BRANCH  12  14
HETATM   14  C15 UNL     1       3.078   6.119  -0.346  1.00  0.00     0.184 C 
BRANCH  14  15
HETATM   15  O4  UNL     1       4.395   6.641  -0.250  1.00  0.00    -0.328 OA
BRANCH  15  16
HETATM   16  C1  UNL     1       4.551   7.973  -0.297  1.00  0.00     0.098 A 
HETATM   17  C2  UNL     1       3.393   8.783  -0.308  1.00  0.00     0.048 A 
HETATM   18  C3  UNL     1       3.504  10.192  -0.357  1.00  0.00     0.096 A 
HETATM   19  C4  UNL     1       4.777  10.803  -0.391  1.00  0.00     0.024 A 
HETATM   20  C5  UNL     1       5.947  10.000  -0.375  1.00  0.00     0.005 A 
HETATM   21  C6  UNL     1       5.844   8.574  -0.330  1.00  0.00     0.048 A 
HETATM   22  C10 UNL     1       7.221  10.623  -0.406  1.00  0.00    -0.004 A 
HETATM   23  C7  UNL     1       7.033   7.787  -0.320  1.00  0.00     0.135 A 
HETATM   24  C8  UNL     1       8.301   8.422  -0.353  1.00  0.00     0.056 A 
HETATM   25  O2  UNL     1       6.977   6.445  -0.279  1.00  0.00    -0.190 OA
HETATM   26  C9  UNL     1       8.397   9.836  -0.396  1.00  0.00    -0.017 A 
HETATM   27  C11 UNL     1       9.709  10.504  -0.430  1.00  0.00     0.031 C 
BRANCH  18  28
HETATM   28  O3  UNL     1       2.398  10.947  -0.371  1.00  0.00    -0.328 OA
HETATM   29  C14 UNL     1       1.139  10.291  -0.387  1.00  0.00     0.181 C 
ENDBRANCH  18  28
BRANCH  24  30
HETATM   30  C12 UNL     1       9.531   7.600  -0.344  1.00  0.00     0.175 C 
HETATM   31  C13 UNL     1      10.346   7.895   0.889  1.00  0.00     0.077 C 
HETATM   32  O1  UNL     1       9.908   6.789  -1.158  1.00  0.00    -0.291 OA
ENDBRANCH  24  30
ENDBRANCH  15  16
ENDBRANCH  14  15
ENDBRANCH  12  14
ENDBRANCH  10  12
ENDBRANCH   8  10
ENDBRANCH   6   8
ENDBRANCH   5   6
ENDBRANCH   4   5
ENDBRANCH   3   4
ENDBRANCH   2   3
ENDBRANCH   1   2
BRANCH   1  33
HETATM   33  C24 UNL     1      -3.324  -3.895  -0.303  1.00  0.00     0.212 C 
HETATM   34  O14 UNL     1      -2.643  -3.529  -1.482  1.00  0.00    -0.218 OA
BRANCH  33  35
HETATM   35  C25 UNL     1      -3.496  -5.414  -0.303  1.00  0.00     0.219 C 
HETATM   36  O13 UNL     1      -2.250  -6.000  -0.598  1.00  0.00    -0.217 OA
BRANCH  35  37
HETATM   37  C26 UNL     1      -4.510  -5.893  -1.344  1.00  0.00     0.212 C 
BRANCH  37  38
HETATM   38  C27 UNL     1      -5.086  -7.242  -1.006  1.00  0.00     0.239 C 
HETATM   39  O6  UNL     1      -4.484  -8.018  -0.303  1.00  0.00    -0.285 OA
ENDBRANCH  37  38
BRANCH  37  40
HETATM   40  O7  UNL     1      -3.859  -5.959  -2.594  1.00  0.00    -0.343 OA
BRANCH  40  41
HETATM   41  C28 UNL     1      -4.729  -6.279  -3.656  1.00  0.00     0.178 C 
BRANCH  41  42
HETATM   42  C29 UNL     1      -3.932  -6.227  -4.959  1.00  0.00     0.214 C 
HETATM   43  O12 UNL     1      -3.035  -7.315  -4.973  1.00  0.00    -0.218 OA
BRANCH  42  44
HETATM   44  C30 UNL     1      -4.820  -6.324  -6.199  1.00  0.00     0.218 C 
HETATM   45  O11 UNL     1      -5.479  -7.570  -6.174  1.00  0.00    -0.218 OA
BRANCH  44  46
HETATM   46  C31 UNL     1      -4.027  -6.229  -7.502  1.00  0.00     0.223 C 
HETATM   47  O10 UNL     1      -3.320  -5.010  -7.500  1.00  0.00    -0.217 OA
BRANCH  46  48
HETATM   48  C32 UNL     1      -4.922  -6.260  -8.742  1.00  0.00     0.249 C 
HETATM   49  O9  UNL     1      -5.668  -5.064  -8.777  1.00  0.00    -0.212 OA
BRANCH  48  50
HETATM   50  C33 UNL     1      -4.133  -6.397 -10.018  1.00  0.00     0.243 C 
HETATM   51  O8  UNL     1      -3.037  -6.904 -10.018  1.00  0.00    -0.285 OA
ENDBRANCH  48  50
ENDBRANCH  46  48
ENDBRANCH  44  46
ENDBRANCH  42  44
ENDBRANCH  41  42
ENDBRANCH  40  41
ENDBRANCH  37  40
ENDBRANCH  35  37
ENDBRANCH  33  35
ENDBRANCH   1  33
BRANCH   1  52
HETATM   52  O15 UNL     1      -3.240  -3.676   2.069  1.00  0.00    -0.354 OA
BRANCH  52  53
HETATM   53  C34 UNL     1      -2.484  -3.494   3.244  1.00  0.00     0.145 C 
BRANCH  53  54
HETATM   54  C35 UNL     1      -3.256  -4.117   4.408  1.00  0.00     0.068 C 
BRANCH  54  55
HETATM   55  C36 UNL     1      -2.531  -3.963   5.746  1.00  0.00     0.188 C 
HETATM   56  O20 UNL     1      -2.486  -2.592   6.067  1.00  0.00    -0.221 OA
BRANCH  55  57
HETATM   57  C37 UNL     1      -3.236  -4.697   6.887  1.00  0.00     0.216 C 
HETATM   58  O19 UNL     1      -3.545  -6.000   6.447  1.00  0.00    -0.218 OA
BRANCH  57  59
HETATM   59  C38 UNL     1      -2.369  -4.809   8.141  1.00  0.00     0.223 C 
HETATM   60  O18 UNL     1      -1.242  -5.596   7.830  1.00  0.00    -0.217 OA
BRANCH  59  61
HETATM   61  C39 UNL     1      -3.104  -5.465   9.311  1.00  0.00     0.249 C 
HETATM   62  O17 UNL     1      -3.123  -6.857   9.092  1.00  0.00    -0.212 OA
BRANCH  61  63
HETATM   63  C40 UNL     1      -2.453  -5.174  10.635  1.00  0.00     0.243 C 
HETATM   64  O16 UNL     1      -1.457  -4.492  10.701  1.00  0.00    -0.285 OA
ENDBRANCH  61  63
ENDBRANCH  59  61
ENDBRANCH  57  59
ENDBRANCH  55  57
ENDBRANCH  54  55
ENDBRANCH  53  54
ENDBRANCH  52  53
ENDBRANCH   1  52
TORSDOF 32
