REMARK  10 active torsions:
REMARK  status: ('A' for Active; 'I' for Inactive)
REMARK    1  A    between atoms: C2_2  and  O4_25 
REMARK    2  A    between atoms: C12_12  and  C15_15 
REMARK    3  A    between atoms: O4_25  and  C22_26 
REMARK    4  A    between atoms: C24_29  and  O6_30 
REMARK    5  A    between atoms: O6_30  and  C25_31 
REMARK    6  A    between atoms: C27_33  and  O12_49 
REMARK    7  A    between atoms: C28_34  and  O7_35 
REMARK    8  A    between atoms: O7_35  and  C29_36 
REMARK    9  A    between atoms: C31_38  and  O10_44 
REMARK   10  A    between atoms: C39_51  and  O13_53 
ROOT
HETATM    1  C22 UNL     1       1.449   0.678   0.404  1.00  0.00     0.238 C 
HETATM    2  O5  UNL     1       0.775   0.459  -0.828  1.00  0.00    -0.331 OA
HETATM    3  C23 UNL     1      -0.273  -0.500  -0.777  1.00  0.00     0.147 C 
HETATM    4  C24 UNL     1      -1.353  -0.033   0.227  1.00  0.00     0.172 C 
HETATM    5  C39 UNL     1      -0.738   0.268   1.611  1.00  0.00     0.150 C 
HETATM    6  C40 UNL     1       0.459   1.217   1.455  1.00  0.00     0.094 C 
HETATM    7  C42 UNL     1      -0.809  -0.650  -2.203  1.00  0.00     0.035 C 
ENDROOT
BRANCH   1   8
HETATM    8  O4  UNL     1       2.488   1.615   0.219  1.00  0.00    -0.331 OA
BRANCH   8   9
HETATM    9  C2  UNL     1       3.770   1.018   0.129  1.00  0.00     0.152 C 
HETATM   10  C1  UNL     1       4.869   2.102   0.143  1.00  0.00     0.180 C 
HETATM   11  C6  UNL     1       6.268   1.496  -0.119  1.00  0.00     0.039 C 
HETATM   12  O14 UNL     1       4.893   2.758   1.396  1.00  0.00    -0.221 OA
HETATM   13  C5  UNL     1       6.354   0.687  -1.438  1.00  0.00     0.018 C 
HETATM   14  C4  UNL     1       5.233  -0.350  -1.373  1.00  0.00    -0.046 C 
HETATM   15  C7  UNL     1       7.768   0.062  -1.707  1.00  0.00     0.011 C 
HETATM   16  C21 UNL     1       6.043   1.643  -2.602  1.00  0.00     0.004 C 
HETATM   17  C3  UNL     1       3.830   0.180  -1.160  1.00  0.00     0.054 C 
HETATM   18  C10 UNL     1       5.438  -1.680  -1.473  1.00  0.00    -0.034 C 
HETATM   19  C9  UNL     1       6.805  -2.277  -1.664  1.00  0.00     0.033 C 
HETATM   20  C8  UNL     1       7.942  -1.369  -1.176  1.00  0.00     0.062 C 
HETATM   21  C11 UNL     1       8.168  -1.354   0.318  1.00  0.00     0.153 C 
HETATM   22  C12 UNL     1       9.403  -0.592   0.768  1.00  0.00     0.069 C 
HETATM   23  O3  UNL     1       7.414  -1.904   1.088  1.00  0.00    -0.296 OA
HETATM   24  C13 UNL     1       9.363   0.848   0.203  1.00  0.00     0.011 C 
HETATM   25  C20 UNL     1      10.653  -1.326   0.271  1.00  0.00     0.011 C 
HETATM   26  C14 UNL     1       8.983   0.932  -1.293  1.00  0.00     0.002 C 
BRANCH  22  27
HETATM   27  C15 UNL     1       9.471  -0.545   2.271  1.00  0.00    -0.006 A 
HETATM   28  C16 UNL     1      10.461  -1.018   3.025  1.00  0.00     0.062 A 
HETATM   29  C17 UNL     1      10.104  -0.760   4.410  1.00  0.00     0.296 A 
HETATM   30  O1  UNL     1       8.920  -0.137   4.484  1.00  0.00    -0.297 OA
HETATM   31  O2  UNL     1      10.801  -1.074   5.346  1.00  0.00    -0.259 OA
HETATM   32  C18 UNL     1       8.404   0.053   3.152  1.00  0.00     0.143 A 
HETATM   33  C19 UNL     1       8.174   1.537   2.900  1.00  0.00     0.037 C 
ENDBRANCH  22  27
ENDBRANCH   8   9
ENDBRANCH   1   8
BRANCH   5  34
HETATM   34  O13 UNL     1      -1.697   0.873   2.461  1.00  0.00    -0.351 OA
HETATM   35  C41 UNL     1      -2.373  -0.051   3.283  1.00  0.00     0.174 C 
ENDBRANCH   5  34
BRANCH   4  36
HETATM   36  O6  UNL     1      -2.336  -1.047   0.348  1.00  0.00    -0.328 OA
BRANCH  36  37
HETATM   37  C25 UNL     1      -3.508  -0.775  -0.391  1.00  0.00     0.238 C 
HETATM   38  C26 UNL     1      -4.375  -2.049  -0.459  1.00  0.00     0.094 C 
HETATM   39  C27 UNL     1      -5.707  -1.764  -1.170  1.00  0.00     0.150 C 
HETATM   40  C28 UNL     1      -6.391  -0.537  -0.525  1.00  0.00     0.172 C 
HETATM   41  C36 UNL     1      -5.424   0.666  -0.439  1.00  0.00     0.147 C 
HETATM   42  O11 UNL     1      -4.236   0.273   0.236  1.00  0.00    -0.331 OA
HETATM   43  C37 UNL     1      -6.010   1.848   0.342  1.00  0.00     0.035 C 
BRANCH  39  44
HETATM   44  O12 UNL     1      -6.535  -2.908  -1.070  1.00  0.00    -0.351 OA
HETATM   45  C38 UNL     1      -7.332  -3.117  -2.213  1.00  0.00     0.174 C 
ENDBRANCH  39  44
BRANCH  40  46
HETATM   46  O7  UNL     1      -7.522  -0.162  -1.291  1.00  0.00    -0.328 OA
BRANCH  46  47
HETATM   47  C29 UNL     1      -8.650   0.148  -0.502  1.00  0.00     0.238 C 
HETATM   48  C30 UNL     1      -9.717   0.830  -1.383  1.00  0.00     0.094 C 
HETATM   49  C31 UNL     1     -11.000   1.092  -0.580  1.00  0.00     0.153 C 
HETATM   50  C32 UNL     1     -11.459  -0.209   0.113  1.00  0.00     0.206 C 
HETATM   51  C33 UNL     1     -10.305  -0.855   0.914  1.00  0.00     0.151 C 
HETATM   52  O9  UNL     1     -12.529   0.068   0.998  1.00  0.00    -0.218 OA
HETATM   53  O8  UNL     1      -9.182  -1.045   0.062  1.00  0.00    -0.331 OA
HETATM   54  C34 UNL     1     -10.668  -2.232   1.480  1.00  0.00     0.035 C 
BRANCH  49  55
HETATM   55  O10 UNL     1     -12.002   1.570  -1.459  1.00  0.00    -0.351 OA
HETATM   56  C35 UNL     1     -11.717   2.846  -1.984  1.00  0.00     0.174 C 
ENDBRANCH  49  55
ENDBRANCH  46  47
ENDBRANCH  40  46
ENDBRANCH  36  37
ENDBRANCH   4  36
TORSDOF 10
