REMARK  9 active torsions:
REMARK  status: ('A' for Active; 'I' for Inactive)
REMARK    1  A    between atoms: C1_1  and  O11_44 
REMARK    2  A    between atoms: C2_2  and  O9_40 
REMARK    3  A    between atoms: C15_18  and  C18_22 
REMARK    4  A    between atoms: C25_31  and  O7_32 
REMARK    5  A    between atoms: O7_32  and  C26_33 
REMARK    6  A    between atoms: C26_33  and  C27_35 
REMARK    7  A    between atoms: C27_35  and  C29_37 
REMARK    8  A    between atoms: O9_40  and  C32_41 
REMARK    9  A    between atoms: O11_44  and  C34_45 
ROOT
HETATM    1  C1  UNL     1       2.320  -0.834  -1.559  1.00  0.00     0.182 C 
HETATM    2  C2  UNL     1       2.904   0.564  -1.281  1.00  0.00     0.159 C 
HETATM    3  C3  UNL     1       2.176   1.326  -0.143  1.00  0.00     0.081 C 
HETATM    4  C4  UNL     1       0.666   1.414  -0.484  1.00  0.00     0.015 C 
HETATM    5  C5  UNL     1       0.055  -0.018  -0.467  1.00  0.00     0.065 C 
HETATM    6  C6  UNL     1       0.770  -0.856  -1.598  1.00  0.00     0.185 C 
HETATM    7  O1  UNL     1       0.359  -0.406  -2.879  1.00  0.00    -0.221 OA
HETATM    8  C7  UNL     1      -1.510   0.051  -0.699  1.00  0.00     0.065 C 
HETATM    9  C8  UNL     1      -2.273   1.107   0.178  1.00  0.00     0.041 C 
HETATM   10  C9  UNL     1      -1.600   2.498   0.062  1.00  0.00     0.153 C 
HETATM   11  C10 UNL     1      -0.104   2.420   0.404  1.00  0.00     0.033 C 
HETATM   12  O2  UNL     1      -1.746   3.037  -1.240  1.00  0.00    -0.223 OA
HETATM   13  C11 UNL     1      -3.748   1.105  -0.316  1.00  0.00     0.061 C 
HETATM   14  C12 UNL     1      -4.457  -0.268  -0.158  1.00  0.00     0.018 C 
HETATM   15  C13 UNL     1      -3.494  -1.449   0.057  1.00  0.00     0.065 C 
HETATM   16  C14 UNL     1      -2.213  -1.301  -0.725  1.00  0.00     0.150 C 
HETATM   17  O3  UNL     1      -1.787  -2.236  -1.361  1.00  0.00    -0.296 OA
HETATM   18  C15 UNL     1      -5.373  -0.092   1.078  1.00  0.00     0.033 C 
HETATM   19  C16 UNL     1      -5.826   1.363   1.019  1.00  0.00     0.069 C 
HETATM   20  C17 UNL     1      -4.676   2.074   0.371  1.00  0.00     0.151 C 
HETATM   21  O4  UNL     1      -4.522   3.273   0.398  1.00  0.00    -0.296 OA
HETATM   22  C22 UNL     1      -5.320  -0.479  -1.410  1.00  0.00     0.001 C 
HETATM   23  C23 UNL     1      -2.348   0.746   1.672  1.00  0.00     0.003 C 
HETATM   24  C24 UNL     1       0.350  -0.658   0.926  1.00  0.00     0.148 C 
HETATM   25  O6  UNL     1       1.732  -0.650   1.252  1.00  0.00    -0.331 OA
HETATM   26  C25 UNL     1       2.352   0.627   1.232  1.00  0.00     0.245 C 
HETATM   27  C31 UNL     1       2.791   2.732  -0.051  1.00  0.00     0.008 C 
ENDROOT
BRANCH  26  28
HETATM   28  O7  UNL     1       3.732   0.469   1.527  1.00  0.00    -0.276 OA
BRANCH  28  29
HETATM   29  C26 UNL     1       3.945   0.127   2.795  1.00  0.00     0.273 C 
HETATM   30  O8  UNL     1       3.064  -0.012   3.611  1.00  0.00    -0.264 OA
BRANCH  29  31
HETATM   31  C27 UNL     1       5.387  -0.084   3.168  1.00  0.00     0.086 C 
HETATM   32  C28 UNL     1       5.742   0.555   4.512  1.00  0.00     0.010 C 
BRANCH  31  33
HETATM   33  C29 UNL     1       5.803  -1.555   3.086  1.00  0.00     0.010 C 
HETATM   34  C30 UNL     1       5.627  -2.139   1.684  1.00  0.00     0.001 C 
ENDBRANCH  31  33
ENDBRANCH  29  31
ENDBRANCH  28  29
ENDBRANCH  26  28
BRANCH   2  35
HETATM   35  O9  UNL     1       2.834   1.332  -2.479  1.00  0.00    -0.301 OA
BRANCH  35  36
HETATM   36  C32 UNL     1       3.891   1.143  -3.264  1.00  0.00     0.272 C 
HETATM   37  O10 UNL     1       4.775   0.355  -3.025  1.00  0.00    -0.264 OA
HETATM   38  C33 UNL     1       3.926   1.994  -4.504  1.00  0.00     0.106 C 
ENDBRANCH  35  36
ENDBRANCH   2  35
BRANCH   1  39
HETATM   39  O11 UNL     1       2.865  -1.344  -2.770  1.00  0.00    -0.299 OA
BRANCH  39  40
HETATM   40  C34 UNL     1       2.680  -2.654  -2.897  1.00  0.00     0.273 C 
HETATM   41  O12 UNL     1       2.244  -3.361  -2.018  1.00  0.00    -0.264 OA
HETATM   42  C35 UNL     1       3.057  -3.229  -4.236  1.00  0.00     0.106 C 
ENDBRANCH  39  40
ENDBRANCH   1  39
BRANCH  18  43
HETATM   43  C18 UNL     1      -6.533  -1.063   1.129  1.00  0.00     0.005 A 
HETATM   44  C19 UNL     1      -7.895  -0.754   1.051  1.00  0.00     0.118 A 
HETATM   45  O5  UNL     1      -8.680  -1.867   1.127  1.00  0.00    -0.303 OA
HETATM   46  C20 UNL     1      -7.791  -2.895   1.258  1.00  0.00     0.122 A 
HETATM   47  C21 UNL     1      -6.467  -2.447   1.264  1.00  0.00     0.025 A 
ENDBRANCH  18  43
TORSDOF 9
