REMARK  2 active torsions:
REMARK  status: ('A' for Active; 'I' for Inactive)
REMARK    1  A    between atoms: C3_3  and  O4_11 
REMARK    2  A    between atoms: C6_6  and  C7_7 
ROOT
HETATM    1  C1  UNL     1       1.652   0.321  -0.277  1.00  0.00     0.036 A 
HETATM    2  C2  UNL     1       0.996  -0.924  -0.277  1.00  0.00     0.155 A 
HETATM    3  C3  UNL     1      -0.410  -0.974  -0.277  1.00  0.00     0.145 A 
HETATM    4  C4  UNL     1      -1.158   0.219  -0.277  1.00  0.00     0.155 A 
HETATM    5  C5  UNL     1      -0.498   1.459  -0.277  1.00  0.00     0.036 A 
HETATM    6  C6  UNL     1       0.908   1.512  -0.277  1.00  0.00     0.069 A 
HETATM    7  O3  UNL     1      -2.475   0.176  -0.277  1.00  0.00    -0.188 OA
HETATM    8  O5  UNL     1       1.701  -2.037  -0.277  1.00  0.00    -0.188 OA
ENDROOT
BRANCH   6   9
HETATM    9  C7  UNL     1       1.607   2.832  -0.277  1.00  0.00     0.211 C 
HETATM   10  O1  UNL     1       2.814   2.897  -0.277  1.00  0.00    -0.644 OA
HETATM   11  O2  UNL     1       0.809   3.897  -0.277  1.00  0.00    -0.644 OA
ENDBRANCH   6   9
BRANCH   3  12
HETATM   12  O4  UNL     1      -1.027  -2.138  -0.277  1.00  0.00    -0.324 OA
HETATM   13  C8  UNL     1      -1.440  -2.676   0.973  1.00  0.00     0.182 C 
ENDBRANCH   3  12
TORSDOF 2
