REMARK  5 active torsions:
REMARK  status: ('A' for Active; 'I' for Inactive)
REMARK    1  A    between atoms: C3_3  and  C26_36 
REMARK    2  A    between atoms: C15_17  and  C17_19 
REMARK    3  A    between atoms: C17_19  and  O3_20 
REMARK    4  A    between atoms: O3_20  and  C18_21 
REMARK    5  A    between atoms: C22_25  and  C23_27 
ROOT
HETATM    1  C1  UNL     1       4.305  -1.545  -0.928  1.00  0.00     0.001 C 
HETATM    2  C2  UNL     1       4.684  -0.115  -1.318  1.00  0.00     0.010 C 
HETATM    3  C3  UNL     1       3.914   0.385  -2.557  1.00  0.00     0.081 C 
HETATM    4  C4  UNL     1       2.371   0.209  -2.357  1.00  0.00     0.043 C 
HETATM    5  C5  UNL     1       1.951  -1.227  -1.914  1.00  0.00     0.003 C 
HETATM    6  C6  UNL     1       2.797  -1.664  -0.691  1.00  0.00     0.000 C 
HETATM    7  C7  UNL     1       0.408  -1.318  -1.606  1.00  0.00     0.003 C 
HETATM    8  C8  UNL     1      -0.463  -0.229  -2.301  1.00  0.00     0.036 C 
HETATM    9  C9  UNL     1       0.127   0.059  -3.695  1.00  0.00     0.182 C 
HETATM   10  C10 UNL     1       1.537   0.713  -3.582  1.00  0.00     0.183 C 
HETATM   11  O1  UNL     1       1.453   2.129  -3.514  1.00  0.00    -0.221 OA
HETATM   12  O2  UNL     1      -0.756   0.816  -4.510  1.00  0.00    -0.221 OA
HETATM   13  C11 UNL     1      -1.902  -0.785  -2.324  1.00  0.00     0.036 C 
HETATM   14  C12 UNL     1      -2.314  -0.611  -0.859  1.00  0.00     0.155 C 
HETATM   15  C13 UNL     1      -1.527  -1.602   0.025  1.00  0.00     0.033 C 
HETATM   16  C14 UNL     1      -0.008  -1.418  -0.119  1.00  0.00     0.003 C 
HETATM   17  C15 UNL     1      -1.961   0.875  -0.621  1.00  0.00     0.179 C 
HETATM   18  C16 UNL     1      -0.676   1.057  -1.459  1.00  0.00     0.038 C 
HETATM   19  O9  UNL     1      -2.961   1.748  -1.131  1.00  0.00    -0.221 OA
HETATM   20  O10 UNL     1      -3.697  -0.889  -0.699  1.00  0.00    -0.223 OA
HETATM   21  C24 UNL     1       2.262  -2.207  -3.061  1.00  0.00     0.000 C 
HETATM   22  C25 UNL     1       4.274   1.861  -2.772  1.00  0.00     0.011 C 
ENDROOT
BRANCH  17  23
HETATM   23  C17 UNL     1      -1.773   1.242   0.850  1.00  0.00     0.178 C 
BRANCH  23  24
HETATM   24  O3  UNL     1      -2.939   0.871   1.549  1.00  0.00    -0.326 OA
BRANCH  24  25
HETATM   25  C18 UNL     1      -2.900   1.211   2.920  1.00  0.00     0.270 C 
HETATM   26  C19 UNL     1      -4.285   0.988   3.576  1.00  0.00     0.241 C 
HETATM   27  C20 UNL     1      -4.219   1.205   5.104  1.00  0.00     0.220 C 
HETATM   28  O8  UNL     1      -5.223   1.893   3.014  1.00  0.00    -0.215 OA
HETATM   29  C21 UNL     1      -3.049   0.391   5.701  1.00  0.00     0.215 C 
HETATM   30  O7  UNL     1      -5.439   0.801   5.701  1.00  0.00    -0.218 OA
HETATM   31  C22 UNL     1      -1.732   0.656   4.938  1.00  0.00     0.184 C 
HETATM   32  O6  UNL     1      -2.865   0.740   7.061  1.00  0.00    -0.218 OA
HETATM   33  O4  UNL     1      -1.926   0.395   3.555  1.00  0.00    -0.326 OA
BRANCH  31  34
HETATM   34  C23 UNL     1      -0.582  -0.246   5.398  1.00  0.00     0.214 C 
HETATM   35  O5  UNL     1       0.600   0.187   4.768  1.00  0.00    -0.218 OA
ENDBRANCH  31  34
ENDBRANCH  24  25
ENDBRANCH  23  24
ENDBRANCH  17  23
BRANCH   3  36
HETATM   36  C26 UNL     1       4.418  -0.352  -3.777  1.00  0.00     0.184 C 
HETATM   37  O11 UNL     1       4.004  -0.086  -4.881  1.00  0.00    -0.647 OA
HETATM   38  O12 UNL     1       5.330  -1.289  -3.535  1.00  0.00    -0.647 OA
ENDBRANCH   3  36
TORSDOF 5
