REMARK  10 active torsions:
REMARK  status: ('A' for Active; 'I' for Inactive)
REMARK    1  A    between atoms: C1_1  and  C20_23 
REMARK    2  A    between atoms: C4_5  and  C6_8 
REMARK    3  A    between atoms: C4_5  and  C9_11 
REMARK    4  A    between atoms: C6_8  and  C7_9 
REMARK    5  A    between atoms: C9_11  and  C10_12 
REMARK    6  A    between atoms: C13_15  and  C14_17 
REMARK    7  A    between atoms: C13_15  and  C17_20 
REMARK    8  A    between atoms: C14_17  and  C15_18 
REMARK    9  A    between atoms: C17_20  and  C18_21 
REMARK   10  A    between atoms: C20_23  and  C21_24 
ROOT
HETATM    1  C1  UNL     1      -0.992  -0.793   0.543  1.00  0.00     0.030 C 
HETATM    2  C2  UNL     1       0.178  -0.209   0.221  1.00  0.00     0.086 C 
HETATM    3  C3  UNL     1       0.256   1.191  -0.318  1.00  0.00     0.298 C 
HETATM    4  N1  UNL     1      -0.805   2.016   0.271  1.00  0.00     0.346 N 
HETATM    5  C4  UNL     1      -2.162   1.471   0.053  1.00  0.00     0.281 C 
HETATM    6  C5  UNL     1      -2.238  -0.002   0.439  1.00  0.00     0.202 C 
HETATM    7  O1  UNL     1      -3.307  -0.527   0.666  1.00  0.00    -0.290 OA
HETATM    8  C12 UNL     1       1.676   1.656   0.020  1.00  0.00     0.065 C 
HETATM    9  C13 UNL     1       2.443   0.324  -0.078  1.00  0.00     0.087 C 
HETATM   10  N2  UNL     1       1.484  -0.703   0.314  1.00  0.00    -0.277 NA
ENDROOT
BRANCH   5  11
HETATM   11  C6  UNL     1      -3.133   2.285   0.916  1.00  0.00     0.042 C 
BRANCH  11  12
HETATM   12  C7  UNL     1      -2.731   2.309   2.391  1.00  0.00     0.003 C 
HETATM   13  C8  UNL     1      -3.723   3.086   3.260  1.00  0.00     0.000 C 
ENDBRANCH  11  12
ENDBRANCH   5  11
BRANCH   5  14
HETATM   14  C9  UNL     1      -2.545   1.619  -1.424  1.00  0.00     0.042 C 
BRANCH  14  15
HETATM   15  C10 UNL     1      -4.029   1.357  -1.678  1.00  0.00     0.003 C 
HETATM   16  C11 UNL     1      -4.369   1.283  -3.168  1.00  0.00     0.000 C 
ENDBRANCH  14  15
ENDBRANCH   5  14
BRANCH   1  17
HETATM   17  C20 UNL     1      -1.043  -2.227   1.016  1.00  0.00     0.031 C 
BRANCH  17  18
HETATM   18  C21 UNL     1      -0.977  -3.225  -0.141  1.00  0.00     0.005 C 
HETATM   19  C22 UNL     1      -1.215  -4.666   0.309  1.00  0.00     0.000 C 
ENDBRANCH  17  18
ENDBRANCH   1  17
BRANCH   9  20
HETATM   20  C14 UNL     1       2.893   0.115  -1.522  1.00  0.00     0.022 C 
BRANCH  20  21
HETATM   21  C15 UNL     1       3.656  -1.205  -1.633  1.00  0.00     0.002 C 
HETATM   22  C16 UNL     1       4.020  -1.559  -3.074  1.00  0.00     0.000 C 
ENDBRANCH  20  21
ENDBRANCH   9  20
BRANCH   9  23
HETATM   23  C17 UNL     1       3.645   0.369   0.859  1.00  0.00     0.022 C 
BRANCH  23  24
HETATM   24  C18 UNL     1       3.844  -1.006   1.498  1.00  0.00     0.002 C 
HETATM   25  C19 UNL     1       5.199  -1.145   2.191  1.00  0.00     0.000 C 
ENDBRANCH  23  24
ENDBRANCH   9  23
TORSDOF 10
