REMARK  8 active torsions:
REMARK  status: ('A' for Active; 'I' for Inactive)
REMARK    1  A    between atoms: C1_1  and  O6_25 
REMARK    2  A    between atoms: C5_5  and  C7_7 
REMARK    3  A    between atoms: C8_8  and  C9_9 
REMARK    4  A    between atoms: C9_9  and  O1_10 
REMARK    5  A    between atoms: O1_10  and  C10_11 
REMARK    6  A    between atoms: C10_11  and  C11_12 
REMARK    7  A    between atoms: C12_13  and  C13_14 
REMARK    8  A    between atoms: C17_18  and  O2_20 
ROOT
HETATM    1  C9  UNL     1      -1.131   1.356  -1.096  1.00  0.00     0.296 C 
HETATM    2  O4  UNL     1      -1.609   2.342  -1.605  1.00  0.00    -0.259 OA
ENDROOT
BRANCH   1   3
HETATM    3  C8  UNL     1      -1.855   0.080  -1.121  1.00  0.00     0.068 C 
HETATM    4  C7  UNL     1      -3.059  -0.014  -1.709  1.00  0.00     0.005 C 
BRANCH   4   5
HETATM    5  C5  UNL     1      -3.758  -1.334  -1.709  1.00  0.00     0.002 A 
HETATM    6  C4  UNL     1      -3.012  -2.525  -1.709  1.00  0.00     0.002 A 
HETATM    7  C3  UNL     1      -3.672  -3.766  -1.709  1.00  0.00     0.029 A 
HETATM    8  C2  UNL     1      -5.076  -3.820  -1.709  1.00  0.00     0.153 A 
HETATM    9  C1  UNL     1      -5.824  -2.627  -1.709  1.00  0.00     0.119 A 
HETATM   10  O5  UNL     1      -5.688  -4.988  -1.709  1.00  0.00    -0.188 OA
HETATM   11  C6  UNL     1      -5.162  -1.387  -1.709  1.00  0.00     0.026 A 
BRANCH   9  12
HETATM   12  O6  UNL     1      -7.141  -2.670  -1.709  1.00  0.00    -0.326 OA
HETATM   13  C20 UNL     1      -7.777  -3.641  -0.891  1.00  0.00     0.181 C 
ENDBRANCH   9  12
ENDBRANCH   4   5
ENDBRANCH   1   3
BRANCH   1  14
HETATM   14  O1  UNL     1       0.053   1.338  -0.488  1.00  0.00    -0.294 OA
BRANCH  14  15
HETATM   15  C10 UNL     1       0.689   2.606  -0.506  1.00  0.00     0.178 C 
BRANCH  15  16
HETATM   16  C11 UNL     1       2.018   2.510   0.197  1.00  0.00     0.006 C 
HETATM   17  C12 UNL     1       2.895   1.580  -0.215  1.00  0.00    -0.002 C 
BRANCH  17  18
HETATM   18  C13 UNL     1       4.213   1.481   0.479  1.00  0.00     0.002 A 
HETATM   19  C14 UNL     1       5.299   0.856  -0.158  1.00  0.00     0.002 A 
HETATM   20  C15 UNL     1       6.539   0.766   0.498  1.00  0.00     0.029 A 
HETATM   21  C16 UNL     1       6.699   1.297   1.789  1.00  0.00     0.153 A 
HETATM   22  C17 UNL     1       5.611   1.924   2.428  1.00  0.00     0.119 A 
HETATM   23  O3  UNL     1       7.865   1.207   2.397  1.00  0.00    -0.188 OA
HETATM   24  C18 UNL     1       4.371   2.014   1.772  1.00  0.00     0.026 A 
BRANCH  22  25
HETATM   25  O2  UNL     1       5.752   2.424   3.639  1.00  0.00    -0.326 OA
HETATM   26  C19 UNL     1       4.666   3.158   4.188  1.00  0.00     0.181 C 
ENDBRANCH  22  25
ENDBRANCH  17  18
ENDBRANCH  15  16
ENDBRANCH  14  15
ENDBRANCH   1  14
TORSDOF 8
