REMARK  2 active torsions:
REMARK  status: ('A' for Active; 'I' for Inactive)
REMARK    1  A    between atoms: C2_2  and  O5_32 
REMARK    2  A    between atoms: C2_2  and  O6_34 
ROOT
HETATM    1  C1  UNL     1      -5.242   0.022   0.184  1.00  0.00     0.056 C 
HETATM    2  C2  UNL     1      -5.844  -1.268  -0.428  1.00  0.00     0.187 C 
HETATM    3  C3  UNL     1      -4.963  -2.516  -0.156  1.00  0.00     0.056 C 
HETATM    4  C4  UNL     1      -3.457  -2.191  -0.094  1.00  0.00     0.005 C 
HETATM    5  C5  UNL     1      -3.113  -1.154   1.031  1.00  0.00     0.001 C 
HETATM    6  C6  UNL     1      -4.365  -0.305   1.400  1.00  0.00     0.005 C 
HETATM    7  C7  UNL     1      -1.932  -0.221   0.602  1.00  0.00     0.007 C 
HETATM    8  C8  UNL     1      -0.838  -1.010  -0.170  1.00  0.00     0.001 C 
HETATM    9  C9  UNL     1      -1.383  -1.660  -1.461  1.00  0.00     0.000 C 
HETATM   10  C10 UNL     1      -2.908  -1.787  -1.471  1.00  0.00     0.000 C 
HETATM   11  C11 UNL     1       0.315  -0.059  -0.543  1.00  0.00     0.011 C 
HETATM   12  C12 UNL     1       0.959   0.598   0.686  1.00  0.00     0.080 C 
HETATM   13  C13 UNL     1      -0.090   1.371   1.455  1.00  0.00     0.152 C 
HETATM   14  C14 UNL     1      -1.350   0.607   1.785  1.00  0.00     0.065 C 
HETATM   15  O1  UNL     1       0.061   2.524   1.793  1.00  0.00    -0.296 OA
HETATM   16  C15 UNL     1       1.488  -0.506   1.613  1.00  0.00     0.010 C 
HETATM   17  C16 UNL     1       2.127   1.383   0.022  1.00  0.00     0.162 C 
HETATM   18  C17 UNL     1       2.514   0.496  -1.178  1.00  0.00     0.146 C 
HETATM   19  C18 UNL     1       1.522  -0.670  -1.258  1.00  0.00     0.033 C 
HETATM   20  O2  UNL     1       3.826   0.066  -0.889  1.00  0.00    -0.335 OA
HETATM   21  C19 UNL     1       4.527   1.076  -0.187  1.00  0.00     0.189 C 
HETATM   22  C20 UNL     1       3.455   1.561   0.811  1.00  0.00     0.082 C 
HETATM   23  C21 UNL     1       3.713   2.940   1.428  1.00  0.00     0.008 C 
HETATM   24  C22 UNL     1       5.770   0.441   0.492  1.00  0.00     0.057 C 
HETATM   25  C23 UNL     1       6.850   1.502   0.736  1.00  0.00     0.007 C 
HETATM   26  C24 UNL     1       7.258   2.178  -0.592  1.00  0.00     0.030 C 
HETATM   27  C25 UNL     1       6.160   2.057  -1.674  1.00  0.00     0.145 C 
HETATM   28  O3  UNL     1       4.881   2.156  -1.062  1.00  0.00    -0.335 OA
HETATM   29  C26 UNL     1       8.590   1.631  -1.117  1.00  0.00     0.003 C 
HETATM   30  O4  UNL     1       1.678   2.631  -0.492  1.00  0.00    -0.223 OA
HETATM   31  C27 UNL     1      -2.709  -1.949   2.285  1.00  0.00     0.000 C 
ENDROOT
BRANCH   2  32
HETATM   32  O5  UNL     1      -7.123  -1.496   0.129  1.00  0.00    -0.332 OA
HETATM   33  C28 UNL     1      -7.740  -2.666  -0.359  1.00  0.00     0.177 C 
ENDBRANCH   2  32
BRANCH   2  34
HETATM   34  O6  UNL     1      -6.006  -1.088  -1.822  1.00  0.00    -0.332 OA
HETATM   35  C29 UNL     1      -6.816   0.020  -2.148  1.00  0.00     0.177 C 
ENDBRANCH   2  34
TORSDOF 2
