REMARK  16 active torsions:
REMARK  status: ('A' for Active; 'I' for Inactive)
REMARK    1  A    between atoms: C2_2  and  C23_32 
REMARK    2  A    between atoms: C3_4  and  C5_6 
REMARK    3  A    between atoms: C5_6  and  C6_7 
REMARK    4  A    between atoms: C6_7  and  C7_8 
REMARK    5  A    between atoms: C7_8  and  C8_9 
REMARK    6  A    between atoms: C8_9  and  C9_10 
REMARK    7  A    between atoms: C9_10  and  C10_11 
REMARK    8  A    between atoms: C10_11  and  C11_12 
REMARK    9  A    between atoms: C11_12  and  C12_13 
REMARK   10  A    between atoms: C12_13  and  C13_14 
REMARK   11  A    between atoms: C13_14  and  C14_15 
REMARK   12  A    between atoms: C14_15  and  C15_16 
REMARK   13  A    between atoms: C14_15  and  O3_20 
REMARK   14  A    between atoms: C15_16  and  C16_17 
REMARK   15  A    between atoms: O3_20  and  C17_21 
REMARK   16  A    between atoms: C21_28  and  C22_30 
ROOT
HETATM    1  C13 UNL     1       4.486   0.855  -0.213  1.00  0.00     0.030 C 
ENDROOT
BRANCH   1   2
HETATM    2  C12 UNL     1       3.135   0.797  -0.926  1.00  0.00     0.003 C 
BRANCH   2   3
HETATM    3  C11 UNL     1       2.260  -0.359  -0.439  1.00  0.00     0.000 C 
BRANCH   3   4
HETATM    4  C10 UNL     1       0.910  -0.418  -1.154  1.00  0.00     0.000 C 
BRANCH   4   5
HETATM    5  C9  UNL     1       0.037  -1.576  -0.670  1.00  0.00     0.000 C 
BRANCH   5   6
HETATM    6  C8  UNL     1      -1.315  -1.635  -1.383  1.00  0.00     0.000 C 
BRANCH   6   7
HETATM    7  C7  UNL     1      -2.188  -2.793  -0.898  1.00  0.00     0.000 C 
BRANCH   7   8
HETATM    8  C6  UNL     1      -3.539  -2.852  -1.611  1.00  0.00     0.002 C 
BRANCH   8   9
HETATM    9  C5  UNL     1      -4.414  -4.008  -1.125  1.00  0.00     0.036 C 
BRANCH   9  10
HETATM   10  C3  UNL     1      -5.715  -4.029  -1.918  1.00  0.00     0.257 C 
HETATM   11  N1  UNL     1      -6.561  -2.897  -1.557  1.00  0.00     0.337 N 
HETATM   12  C2  UNL     1      -7.932  -3.391  -1.490  1.00  0.00     0.286 C 
HETATM   13  C1  UNL     1      -7.916  -4.822  -2.029  1.00  0.00     0.041 C 
HETATM   14  C4  UNL     1      -6.524  -5.289  -1.623  1.00  0.00     0.038 C 
BRANCH  12  15
HETATM   15  C23 UNL     1      -8.401  -3.383  -0.039  1.00  0.00     0.186 C 
HETATM   16  C24 UNL     1      -8.801  -1.963   0.359  1.00  0.00     0.038 C 
HETATM   17  O9  UNL     1      -7.323  -3.783   0.775  1.00  0.00    -0.221 OA
ENDBRANCH  12  15
ENDBRANCH   9  10
ENDBRANCH   8   9
ENDBRANCH   7   8
ENDBRANCH   6   7
ENDBRANCH   5   6
ENDBRANCH   4   5
ENDBRANCH   3   4
ENDBRANCH   2   3
ENDBRANCH   1   2
BRANCH   1  18
HETATM   18  C14 UNL     1       5.340   2.041  -0.662  1.00  0.00     0.129 C 
BRANCH  18  19
HETATM   19  C15 UNL     1       6.783   1.646  -0.973  1.00  0.00     0.127 C 
BRANCH  19  20
HETATM   20  C16 UNL     1       7.574   2.779  -1.568  1.00  0.00     0.188 C 
HETATM   21  O1  UNL     1       8.873   2.541  -1.727  1.00  0.00    -0.647 OA
HETATM   22  O2  UNL     1       7.037   3.820  -1.873  1.00  0.00    -0.647 OA
ENDBRANCH  19  20
ENDBRANCH  18  19
BRANCH  18  23
HETATM   23  O3  UNL     1       5.357   2.992   0.379  1.00  0.00    -0.331 OA
BRANCH  23  24
HETATM   24  C17 UNL     1       4.121   3.670   0.539  1.00  0.00     0.270 C 
HETATM   25  C18 UNL     1       4.316   5.133   1.014  1.00  0.00     0.241 C 
HETATM   26  O4  UNL     1       5.193   5.824   0.137  1.00  0.00    -0.215 OA
HETATM   27  C19 UNL     1       4.826   5.201   2.469  1.00  0.00     0.220 C 
HETATM   28  O5  UNL     1       4.814   6.547   2.922  1.00  0.00    -0.218 OA
HETATM   29  C20 UNL     1       3.910   4.340   3.369  1.00  0.00     0.215 C 
HETATM   30  O6  UNL     1       4.467   4.242   4.668  1.00  0.00    -0.218 OA
HETATM   31  C21 UNL     1       3.724   2.914   2.801  1.00  0.00     0.184 C 
HETATM   32  O7  UNL     1       3.267   2.982   1.451  1.00  0.00    -0.326 OA
BRANCH  31  33
HETATM   33  C22 UNL     1       2.683   2.098   3.576  1.00  0.00     0.214 C 
HETATM   34  O8  UNL     1       2.736   0.766   3.115  1.00  0.00    -0.218 OA
ENDBRANCH  31  33
ENDBRANCH  23  24
ENDBRANCH  18  23
ENDBRANCH   1  18
TORSDOF 16
