REMARK  2 active torsions:
REMARK  status: ('A' for Active; 'I' for Inactive)
REMARK    1  A    between atoms: C3_3  and  C30_31 
REMARK    2  A    between atoms: C16_16  and  C25_25 
ROOT
HETATM    1  C1  UNL     1      -4.779   0.566  -1.752  1.00  0.00     0.182 C 
HETATM    2  C2  UNL     1      -5.492   0.285  -0.398  1.00  0.00     0.185 C 
HETATM    3  C3  UNL     1      -4.801  -0.832   0.416  1.00  0.00     0.061 C 
HETATM    4  C4  UNL     1      -3.361  -0.361   0.781  1.00  0.00     0.005 C 
HETATM    5  C5  UNL     1      -2.611   0.445  -0.338  1.00  0.00     0.003 C 
HETATM    6  C6  UNL     1      -3.277   0.209  -1.715  1.00  0.00     0.036 C 
HETATM    7  C7  UNL     1      -1.102   0.035  -0.420  1.00  0.00     0.005 C 
HETATM    8  C8  UNL     1      -0.385  -0.055   0.961  1.00  0.00     0.004 C 
HETATM    9  C9  UNL     1      -1.191  -0.961   1.941  1.00  0.00     0.000 C 
HETATM   10  C10 UNL     1      -2.506  -1.498   1.365  1.00  0.00     0.000 C 
HETATM   11  C11 UNL     1       1.059  -0.625   0.758  1.00  0.00     0.015 C 
HETATM   12  C12 UNL     1       1.830   0.152  -0.303  1.00  0.00    -0.049 C 
HETATM   13  C13 UNL     1       1.207   0.816  -1.301  1.00  0.00    -0.035 C 
HETATM   14  C14 UNL     1      -0.297   0.900  -1.420  1.00  0.00     0.025 C 
HETATM   15  C15 UNL     1       3.344   0.137  -0.143  1.00  0.00     0.025 C 
HETATM   16  C16 UNL     1       3.752   0.891   1.148  1.00  0.00     0.062 C 
HETATM   17  C17 UNL     1       2.748   0.615   2.307  1.00  0.00     0.008 C 
HETATM   18  C18 UNL     1       1.889  -0.645   2.082  1.00  0.00     0.004 C 
HETATM   19  C19 UNL     1       5.189   0.445   1.537  1.00  0.00     0.008 C 
HETATM   20  C20 UNL     1       6.080   0.062   0.334  1.00  0.00     0.001 C 
HETATM   21  C21 UNL     1       5.695   0.801  -0.959  1.00  0.00     0.000 C 
HETATM   22  C22 UNL     1       4.219   0.531  -1.365  1.00  0.00     0.004 C 
HETATM   23  C23 UNL     1       4.092  -0.529  -2.469  1.00  0.00     0.000 C 
HETATM   24  C24 UNL     1       6.695   0.516  -2.086  1.00  0.00     0.000 C 
HETATM   25  C26 UNL     1       0.973  -2.068   0.228  1.00  0.00     0.004 C 
HETATM   26  C27 UNL     1      -0.305   1.361   1.559  1.00  0.00     0.000 C 
HETATM   27  C28 UNL     1      -2.734   1.947  -0.025  1.00  0.00     0.000 C 
HETATM   28  C29 UNL     1      -5.572  -1.111   1.717  1.00  0.00     0.005 C 
HETATM   29  O3  UNL     1      -6.879   0.025  -0.561  1.00  0.00    -0.221 OA
HETATM   30  O4  UNL     1      -5.358  -0.143  -2.838  1.00  0.00    -0.221 OA
ENDROOT
BRANCH   3  31
HETATM   31  C30 UNL     1      -4.770  -2.137  -0.397  1.00  0.00     0.185 C 
HETATM   32  O2  UNL     1      -6.082  -2.650  -0.455  1.00  0.00    -0.221 OA
ENDBRANCH   3  31
BRANCH  16  33
HETATM   33  C25 UNL     1       3.750   2.385   0.891  1.00  0.00     0.207 C 
HETATM   34  O1  UNL     1       4.727   3.059   1.123  1.00  0.00    -0.288 OA
ENDBRANCH  16  33
TORSDOF 2
