REMARK  5 active torsions:
REMARK  status: ('A' for Active; 'I' for Inactive)
REMARK    1  A    between atoms: C15_15  and  C18_18 
REMARK    2  A    between atoms: C18_18  and  C19_19 
REMARK    3  A    between atoms: C19_19  and  C20_20 
REMARK    4  A    between atoms: C20_20  and  C21_21 
REMARK    5  A    between atoms: C21_21  and  C22_23 
ROOT
HETATM    1  C1  UNL     1      -4.238   2.521  -1.397  1.00  0.00     0.033 C 
HETATM    2  C2  UNL     1      -4.166   1.477  -2.535  1.00  0.00     0.152 C 
HETATM    3  C3  UNL     1      -4.561   0.047  -2.086  1.00  0.00     0.028 C 
HETATM    4  C4  UNL     1      -3.701  -0.436  -0.856  1.00  0.00     0.002 C 
HETATM    5  C5  UNL     1      -3.053   0.709  -0.002  1.00  0.00     0.001 C 
HETATM    6  C6  UNL     1      -4.010   1.918   0.000  1.00  0.00     0.003 C 
HETATM    7  C7  UNL     1      -1.637   1.143  -0.514  1.00  0.00     0.005 C 
HETATM    8  C8  UNL     1      -0.691  -0.053  -0.824  1.00  0.00     0.004 C 
HETATM    9  C9  UNL     1      -1.387  -1.061  -1.758  1.00  0.00     0.000 C 
HETATM   10  C10 UNL     1      -2.690  -1.570  -1.139  1.00  0.00     0.000 C 
HETATM   11  C11 UNL     1       0.564   0.539  -1.518  1.00  0.00     0.015 C 
HETATM   12  C12 UNL     1       1.219   1.592  -0.670  1.00  0.00    -0.049 C 
HETATM   13  C13 UNL     1       0.531   2.391   0.172  1.00  0.00    -0.035 C 
HETATM   14  C14 UNL     1      -0.955   2.205   0.392  1.00  0.00     0.025 C 
HETATM   15  C15 UNL     1       2.709   1.609  -0.854  1.00  0.00     0.018 C 
HETATM   16  C16 UNL     1       2.955   0.500  -1.885  1.00  0.00     0.004 C 
HETATM   17  C17 UNL     1       1.734  -0.430  -1.760  1.00  0.00     0.004 C 
HETATM   18  C26 UNL     1       0.246   1.154  -2.887  1.00  0.00     0.004 C 
HETATM   19  C27 UNL     1      -0.242  -0.750   0.475  1.00  0.00     0.000 C 
HETATM   20  C28 UNL     1      -2.932   0.201   1.445  1.00  0.00     0.000 C 
HETATM   21  C29 UNL     1      -4.434  -0.908  -3.283  1.00  0.00     0.003 C 
HETATM   22  C30 UNL     1      -6.047   0.051  -1.682  1.00  0.00     0.003 C 
HETATM   23  O3  UNL     1      -4.983   1.918  -3.608  1.00  0.00    -0.224 OA
ENDROOT
BRANCH  15  24
HETATM   24  C18 UNL     1       3.443   1.285   0.445  1.00  0.00     0.004 C 
HETATM   25  C25 UNL     1       4.930   1.600   0.283  1.00  0.00     0.000 C 
BRANCH  24  26
HETATM   26  C19 UNL     1       3.186  -0.172   0.826  1.00  0.00     0.003 C 
BRANCH  26  27
HETATM   27  C20 UNL     1       3.803  -0.549   2.174  1.00  0.00     0.035 C 
BRANCH  27  28
HETATM   28  C21 UNL     1       3.484  -1.986   2.588  1.00  0.00     0.180 C 
HETATM   29  O1  UNL     1       2.141  -2.037   3.008  1.00  0.00    -0.221 OA
BRANCH  28  30
HETATM   30  C22 UNL     1       4.363  -2.475   3.740  1.00  0.00     0.155 C 
HETATM   31  C23 UNL     1       4.434  -1.475   4.894  1.00  0.00     0.036 C 
HETATM   32  C24 UNL     1       3.998  -3.887   4.203  1.00  0.00     0.036 C 
HETATM   33  O2  UNL     1       5.631  -2.527   3.123  1.00  0.00    -0.223 OA
ENDBRANCH  28  30
ENDBRANCH  27  28
ENDBRANCH  26  27
ENDBRANCH  24  26
ENDBRANCH  15  24
TORSDOF 5
