REMARK  0 active torsions:
REMARK  status: ('A' for Active; 'I' for Inactive)
ROOT
HETATM    1  C1  UNL     1       0.545  -1.945   0.180  1.00  0.00    -0.041 C 
HETATM    2  C2  UNL     1       1.406  -0.690   0.246  1.00  0.00     0.043 C 
HETATM    3  C3  UNL     1       0.795   0.557  -0.451  1.00  0.00     0.103 C 
HETATM    4  C4  UNL     1      -0.336   1.189   0.385  1.00  0.00     0.054 C 
HETATM    5  C5  UNL     1      -1.514   0.348  -0.023  1.00  0.00     0.008 C 
HETATM    6  C6  UNL     1      -1.084  -0.604  -1.107  1.00  0.00     0.254 C 
HETATM    7  C7  UNL     1      -0.633  -1.910  -0.478  1.00  0.00     0.028 C 
HETATM    8  O1  UNL     1      -2.045  -0.791  -2.127  1.00  0.00    -0.186 OA
HETATM    9  O2  UNL     1       0.059   0.088  -1.576  1.00  0.00    -0.331 OA
HETATM   10  C8  UNL     1      -2.748   0.443   0.506  1.00  0.00    -0.046 C 
HETATM   11  C9  UNL     1      -3.916  -0.436   0.148  1.00  0.00     0.026 C 
HETATM   12  C10 UNL     1      -3.006   1.506   1.539  1.00  0.00     0.026 C 
HETATM   13  C11 UNL     1       1.986   1.432  -0.893  1.00  0.00     0.026 C 
HETATM   14  C12 UNL     1       3.225   0.613  -0.519  1.00  0.00     0.003 C 
HETATM   15  C13 UNL     1       2.736  -0.828  -0.488  1.00  0.00     0.006 C 
HETATM   16  C14 UNL     1       2.055   2.787  -0.189  1.00  0.00     0.002 C 
HETATM   17  C15 UNL     1       1.031  -3.205   0.848  1.00  0.00     0.026 C 
ENDROOT
TORSDOF 0
