REMARK  18 active torsions:
REMARK  status: ('A' for Active; 'I' for Inactive)
REMARK    1  A    between atoms: C2_2  and  C3_3 
REMARK    2  A    between atoms: C3_3  and  C4_4 
REMARK    3  A    between atoms: C4_4  and  C5_5 
REMARK    4  A    between atoms: C5_5  and  C6_6 
REMARK    5  A    between atoms: C6_6  and  C7_7 
REMARK    6  A    between atoms: C7_7  and  C8_8 
REMARK    7  A    between atoms: C8_8  and  C9_9 
REMARK    8  A    between atoms: C9_9  and  C10_10 
REMARK    9  A    between atoms: C10_10  and  C11_11 
REMARK   10  A    between atoms: C11_11  and  C12_12 
REMARK   11  A    between atoms: C12_12  and  C13_13 
REMARK   12  A    between atoms: C13_13  and  C14_14 
REMARK   13  A    between atoms: C14_14  and  C15_15 
REMARK   14  A    between atoms: C15_15  and  C16_16 
REMARK   15  A    between atoms: C16_16  and  O1_17 
REMARK   16  A    between atoms: O1_17  and  C17_18 
REMARK   17  A    between atoms: C17_18  and  C18_19 
REMARK   18  A    between atoms: C18_19  and  C19_20 
ROOT
HETATM    1  C12 UNL     1       1.809  -0.486   0.805  1.00  0.00     0.000 C 
ENDROOT
BRANCH   1   2
HETATM    2  C11 UNL     1       0.285  -0.510   0.681  1.00  0.00     0.000 C 
BRANCH   2   3
HETATM    3  C10 UNL     1      -0.255   0.641  -0.168  1.00  0.00     0.000 C 
BRANCH   3   4
HETATM    4  C9  UNL     1      -1.779   0.617  -0.293  1.00  0.00     0.000 C 
BRANCH   4   5
HETATM    5  C8  UNL     1      -2.320   1.768  -1.142  1.00  0.00     0.000 C 
BRANCH   5   6
HETATM    6  C7  UNL     1      -3.844   1.745  -1.266  1.00  0.00     0.000 C 
BRANCH   6   7
HETATM    7  C6  UNL     1      -4.384   2.895  -2.115  1.00  0.00     0.000 C 
BRANCH   7   8
HETATM    8  C5  UNL     1      -5.908   2.872  -2.240  1.00  0.00     0.000 C 
BRANCH   8   9
HETATM    9  C4  UNL     1      -6.449   4.023  -3.089  1.00  0.00     0.000 C 
BRANCH   9  10
HETATM   10  C3  UNL     1      -7.972   3.999  -3.213  1.00  0.00     0.000 C 
BRANCH  10  11
HETATM   11  C2  UNL     1      -8.513   5.150  -4.062  1.00  0.00     0.000 C 
HETATM   12  C1  UNL     1     -10.037   5.130  -4.182  1.00  0.00     0.000 C 
ENDBRANCH  10  11
ENDBRANCH   9  10
ENDBRANCH   8   9
ENDBRANCH   7   8
ENDBRANCH   6   7
ENDBRANCH   5   6
ENDBRANCH   4   5
ENDBRANCH   3   4
ENDBRANCH   2   3
ENDBRANCH   1   2
BRANCH   1  13
HETATM   13  C13 UNL     1       2.350  -1.637   1.654  1.00  0.00     0.001 C 
BRANCH  13  14
HETATM   14  C14 UNL     1       3.873  -1.612   1.780  1.00  0.00     0.010 C 
BRANCH  14  15
HETATM   15  C15 UNL     1       4.414  -2.766   2.625  1.00  0.00     0.096 C 
BRANCH  15  16
HETATM   16  C16 UNL     1       5.918  -2.773   2.692  1.00  0.00     0.272 C 
HETATM   17  O4  UNL     1       6.551  -1.750   2.572  1.00  0.00    -0.264 OA
BRANCH  16  18
HETATM   18  O1  UNL     1       6.470  -3.966   2.889  1.00  0.00    -0.299 OA
BRANCH  18  19
HETATM   19  C17 UNL     1       7.888  -3.904   2.942  1.00  0.00     0.187 C 
BRANCH  19  20
HETATM   20  C18 UNL     1       8.452  -5.307   3.170  1.00  0.00     0.215 C 
HETATM   21  O3  UNL     1       8.002  -5.765   4.425  1.00  0.00    -0.218 OA
BRANCH  20  22
HETATM   22  C19 UNL     1       9.981  -5.336   3.170  1.00  0.00     0.218 C 
HETATM   23  O2  UNL     1      10.396  -6.683   3.170  1.00  0.00    -0.218 OA
ENDBRANCH  20  22
ENDBRANCH  19  20
ENDBRANCH  18  19
ENDBRANCH  16  18
ENDBRANCH  15  16
ENDBRANCH  14  15
ENDBRANCH  13  14
ENDBRANCH   1  13
TORSDOF 18
