REMARK  3 active torsions:
REMARK  status: ('A' for Active; 'I' for Inactive)
REMARK    1  A    between atoms: C4_6  and  O3_9 
REMARK    2  A    between atoms: O3_9  and  C7_10 
REMARK    3  A    between atoms: C11_17  and  C12_19 
ROOT
HETATM    1  C7  UNL     1       0.418   0.445  -0.684  1.00  0.00     0.274 C 
HETATM    2  C8  UNL     1       0.092   1.922  -1.000  1.00  0.00     0.241 C 
HETATM    3  O4  UNL     1       1.197   2.727  -0.633  1.00  0.00    -0.215 OA
HETATM    4  C9  UNL     1      -1.184   2.385  -0.262  1.00  0.00     0.220 C 
HETATM    5  O5  UNL     1      -1.557   3.678  -0.713  1.00  0.00    -0.218 OA
HETATM    6  C10 UNL     1      -2.328   1.383  -0.533  1.00  0.00     0.215 C 
HETATM    7  O6  UNL     1      -3.439   1.689   0.289  1.00  0.00    -0.218 OA
HETATM    8  C11 UNL     1      -1.889  -0.072  -0.248  1.00  0.00     0.184 C 
HETATM    9  O7  UNL     1      -0.709  -0.369  -0.986  1.00  0.00    -0.326 OA
ENDROOT
BRANCH   1  10
HETATM   10  O3  UNL     1       0.783   0.291   0.683  1.00  0.00    -0.299 OA
BRANCH  10  11
HETATM   11  C4  UNL     1       1.512  -0.805   0.892  1.00  0.00     0.154 A 
HETATM   12  C3  UNL     1       0.863  -2.049   1.324  1.00  0.00     0.222 A 
HETATM   13  C2  UNL     1       1.740  -3.201   1.525  1.00  0.00     0.071 A 
HETATM   14  O2  UNL     1      -0.330  -2.121   1.504  1.00  0.00    -0.284 OA
HETATM   15  C1  UNL     1       3.063  -3.049   1.309  1.00  0.00     0.126 A 
HETATM   16  O1  UNL     1       3.647  -1.893   0.912  1.00  0.00    -0.307 OA
HETATM   17  C5  UNL     1       2.854  -0.807   0.717  1.00  0.00     0.103 A 
HETATM   18  C6  UNL     1       3.502   0.478   0.273  1.00  0.00     0.061 C 
ENDBRANCH  10  11
ENDBRANCH   1  10
BRANCH   8  19
HETATM   19  C12 UNL     1      -2.943  -1.104  -0.662  1.00  0.00     0.214 C 
HETATM   20  O8  UNL     1      -2.473  -2.383  -0.305  1.00  0.00    -0.218 OA
ENDBRANCH   8  19
TORSDOF 3
