REMARK  4 active torsions:
REMARK  status: ('A' for Active; 'I' for Inactive)
REMARK    1  A    between atoms: C5_5  and  C7_7 
REMARK    2  A    between atoms: C9_10  and  O3_21 
REMARK    3  A    between atoms: C13_14  and  C16_18 
REMARK    4  A    between atoms: C16_18  and  C17_19 
ROOT
HETATM    1  C7  UNL     1       1.584  -0.656  -1.174  1.00  0.00     0.146 C 
HETATM    2  O1  UNL     1       0.772  -1.836  -1.162  1.00  0.00    -0.330 OA
HETATM    3  C8  UNL     1      -0.482  -1.457  -0.945  1.00  0.00     0.103 C 
HETATM    4  C9  UNL     1      -0.643   0.006  -0.623  1.00  0.00     0.153 C 
HETATM    5  C10 UNL     1       0.625   0.561  -1.289  1.00  0.00     0.067 C 
HETATM    6  C11 UNL     1       0.381   0.848  -2.772  1.00  0.00     0.006 C 
HETATM    7  C12 UNL     1      -1.996   0.565  -1.031  1.00  0.00     0.006 C 
HETATM    8  C13 UNL     1      -3.064  -0.250  -1.152  1.00  0.00     0.020 C 
HETATM    9  C14 UNL     1      -2.910  -1.711  -0.992  1.00  0.00     0.194 C 
HETATM   10  C15 UNL     1      -1.549  -2.275  -1.033  1.00  0.00     0.064 C 
HETATM   11  O2  UNL     1      -3.871  -2.432  -0.850  1.00  0.00    -0.287 OA
ENDROOT
BRANCH   1  12
HETATM   12  C5  UNL     1       2.420  -0.627   0.043  1.00  0.00     0.007 A 
HETATM   13  C4  UNL     1       2.160  -1.512   1.109  1.00  0.00     0.000 A 
HETATM   14  C3  UNL     1       2.973  -1.465   2.262  1.00  0.00     0.026 A 
HETATM   15  C2  UNL     1       4.049  -0.545   2.365  1.00  0.00     0.119 A 
HETATM   16  C1  UNL     1       4.309   0.332   1.309  1.00  0.00     0.119 A 
HETATM   17  O4  UNL     1       4.934  -0.326   3.340  1.00  0.00    -0.300 OA
HETATM   18  C6  UNL     1       3.490   0.289   0.148  1.00  0.00     0.024 A 
HETATM   19  O5  UNL     1       5.354   1.098   1.623  1.00  0.00    -0.300 OA
HETATM   20  C20 UNL     1       5.832   0.731   2.936  1.00  0.00     0.304 A 
ENDBRANCH   1  12
BRANCH   4  21
HETATM   21  O3  UNL     1      -0.533   0.170   0.781  1.00  0.00    -0.346 OA
HETATM   22  C19 UNL     1      -0.773   1.492   1.205  1.00  0.00     0.175 C 
ENDBRANCH   4  21
BRANCH   8  23
HETATM   23  C16 UNL     1      -4.420   0.334  -1.461  1.00  0.00     0.055 C 
BRANCH  23  24
HETATM   24  C17 UNL     1      -5.047   0.898  -0.215  1.00  0.00    -0.021 C 
HETATM   25  C18 UNL     1      -5.731   0.068   0.592  1.00  0.00    -0.005 C 
ENDBRANCH  23  24
ENDBRANCH   8  23
TORSDOF 4
