REMARK  2 active torsions:
REMARK  status: ('A' for Active; 'I' for Inactive)
REMARK    1  A    between atoms: C1_1  and  C8_15 
REMARK    2  A    between atoms: C8_15  and  C9_17 
ROOT
HETATM    1  C1  UNL     1      -2.658   0.990   0.197  1.00  0.00     0.072 C 
HETATM    2  C2  UNL     1      -1.305   1.057   0.188  1.00  0.00     0.144 A 
HETATM    3  C3  UNL     1      -0.613   2.311   0.609  1.00  0.00     0.297 A 
HETATM    4  O1  UNL     1      -1.246   3.281   0.963  1.00  0.00    -0.264 OA
HETATM    5  N1  UNL     1       0.762   2.365   0.600  1.00  0.00    -0.199 NA
HETATM    6  C4  UNL     1       1.486   1.258   0.195  1.00  0.00     0.179 A 
HETATM    7  C5  UNL     1       0.865   0.105  -0.197  1.00  0.00     0.204 A 
HETATM    8  N2  UNL     1      -0.518  -0.014  -0.209  1.00  0.00    -0.220 NA
HETATM    9  N3  UNL     1       1.642  -0.975  -0.596  1.00  0.00    -0.037 NA
HETATM   10  C6  UNL     1       3.031  -0.895  -0.600  1.00  0.00     0.773 A 
HETATM   11  N4  UNL     1       3.656   0.178  -0.234  1.00  0.00    -0.016 NA
HETATM   12  C7  UNL     1       2.976   1.303   0.180  1.00  0.00     0.316 A 
HETATM   13  O2  UNL     1       3.594   2.289   0.514  1.00  0.00    -0.263 OA
HETATM   14  N5  UNL     1       3.775  -1.975  -0.996  1.00  0.00     0.062 N 
ENDROOT
BRANCH   1  15
HETATM   15  C8  UNL     1      -3.459  -0.184  -0.193  1.00  0.00     0.261 C 
HETATM   16  O3  UNL     1      -4.172  -0.141  -1.170  1.00  0.00    -0.280 OA
BRANCH  15  17
HETATM   17  C9  UNL     1      -3.379  -1.406   0.615  1.00  0.00     0.252 C 
HETATM   18  O4  UNL     1      -2.752  -1.416   1.648  1.00  0.00    -0.642 OA
HETATM   19  O5  UNL     1      -4.031  -2.461   0.135  1.00  0.00    -0.642 OA
ENDBRANCH  15  17
ENDBRANCH   1  15
TORSDOF 2
