REMARK  8 active torsions:
REMARK  status: ('A' for Active; 'I' for Inactive)
REMARK    1  A    between atoms: C1_1  and  O17_43 
REMARK    2  A    between atoms: C11_12  and  O4_18 
REMARK    3  A    between atoms: C12_13  and  O3_16 
REMARK    4  A    between atoms: O4_18  and  O5_19 
REMARK    5  A    between atoms: O5_19  and  C15_20 
REMARK    6  A    between atoms: C16_21  and  O6_22 
REMARK    7  A    between atoms: O6_22  and  C17_23 
REMARK    8  A    between atoms: C25_37  and  C26_39 
ROOT
HETATM    1  O4  UNL     1       1.627  -0.791   0.582  1.00  0.00    -0.190 OA
ENDROOT
BRANCH   1   2
HETATM    2  C11 UNL     1       0.486  -1.484   0.693  1.00  0.00     0.157 A 
HETATM    3  C10 UNL     1      -0.725  -0.924   0.231  1.00  0.00     0.054 A 
HETATM    4  C9  UNL     1      -1.936  -1.646   0.344  1.00  0.00     0.107 A 
HETATM    5  C8  UNL     1      -1.936  -2.945   0.932  1.00  0.00     0.089 A 
HETATM    6  O1  UNL     1      -3.078  -1.092  -0.107  1.00  0.00    -0.307 OA
HETATM    7  C7  UNL     1      -3.225  -3.711   1.057  1.00  0.00     0.202 A 
HETATM    8  C13 UNL     1      -0.713  -3.506   1.397  1.00  0.00     0.160 A 
HETATM    9  C5  UNL     1      -4.426  -2.988   0.525  1.00  0.00     0.064 A 
HETATM   10  O15 UNL     1      -3.293  -4.816   1.545  1.00  0.00    -0.286 OA
HETATM   11  C4  UNL     1      -4.287  -1.691  -0.045  1.00  0.00     0.105 A 
HETATM   12  C6  UNL     1      -5.707  -3.594   0.588  1.00  0.00     0.032 A 
HETATM   13  C3  UNL     1      -5.424  -1.018  -0.551  1.00  0.00     0.054 A 
HETATM   14  C2  UNL     1      -6.697  -1.629  -0.488  1.00  0.00     0.155 A 
HETATM   15  C1  UNL     1      -6.840  -2.916   0.082  1.00  0.00     0.120 A 
HETATM   16  O16 UNL     1      -7.770  -0.984  -0.971  1.00  0.00    -0.188 OA
HETATM   17  C12 UNL     1       0.492  -2.773   1.275  1.00  0.00     0.145 A 
HETATM   18  O2  UNL     1      -0.682  -4.727   1.951  1.00  0.00    -0.188 OA
BRANCH  15  19
HETATM   19  O17 UNL     1      -8.047  -3.496   0.147  1.00  0.00    -0.326 OA
HETATM   20  C27 UNL     1      -8.127  -4.813   0.668  1.00  0.00     0.181 C 
ENDBRANCH  15  19
BRANCH  17  21
HETATM   21  O3  UNL     1       1.645  -3.303   1.715  1.00  0.00    -0.324 OA
HETATM   22  C14 UNL     1       2.791  -3.180   0.887  1.00  0.00     0.182 C 
ENDBRANCH  17  21
ENDBRANCH   1   2
BRANCH   1  23
HETATM   23  O5  UNL     1       1.596   0.008  -0.586  1.00  0.00    -0.185 OA
BRANCH  23  24
HETATM   24  C15 UNL     1       2.826   0.713  -0.584  1.00  0.00     0.300 C 
HETATM   25  C16 UNL     1       2.818   1.904  -1.576  1.00  0.00     0.210 C 
HETATM   26  C23 UNL     1       2.807   1.430  -3.045  1.00  0.00     0.217 C 
HETATM   27  O11 UNL     1       2.984   2.537  -3.914  1.00  0.00    -0.218 OA
HETATM   28  C24 UNL     1       3.949   0.410  -3.258  1.00  0.00     0.215 C 
HETATM   29  O12 UNL     1       3.842  -0.172  -4.545  1.00  0.00    -0.218 OA
HETATM   30  C25 UNL     1       3.920  -0.717  -2.199  1.00  0.00     0.184 C 
HETATM   31  O13 UNL     1       3.918  -0.152  -0.889  1.00  0.00    -0.324 OA
BRANCH  25  32
HETATM   32  O6  UNL     1       1.715   2.760  -1.312  1.00  0.00    -0.323 OA
BRANCH  32  33
HETATM   33  C17 UNL     1       1.795   3.400  -0.055  1.00  0.00     0.270 C 
HETATM   34  C18 UNL     1       1.315   4.873  -0.144  1.00  0.00     0.241 C 
HETATM   35  O7  UNL     1      -0.014   4.930  -0.652  1.00  0.00    -0.215 OA
HETATM   36  C19 UNL     1       1.387   5.526   1.254  1.00  0.00     0.220 C 
HETATM   37  O8  UNL     1       0.871   6.848   1.229  1.00  0.00    -0.218 OA
HETATM   38  C20 UNL     1       0.645   4.654   2.293  1.00  0.00     0.212 C 
HETATM   39  O9  UNL     1       0.871   5.160   3.598  1.00  0.00    -0.218 OA
HETATM   40  C21 UNL     1       1.133   3.186   2.242  1.00  0.00     0.151 C 
HETATM   41  O10 UNL     1       1.033   2.686   0.914  1.00  0.00    -0.329 OA
HETATM   42  C22 UNL     1       0.305   2.252   3.131  1.00  0.00     0.035 C 
ENDBRANCH  32  33
ENDBRANCH  25  32
BRANCH  30  43
HETATM   43  C26 UNL     1       5.143  -1.637  -2.279  1.00  0.00     0.214 C 
HETATM   44  O14 UNL     1       5.018  -2.623  -1.281  1.00  0.00    -0.218 OA
ENDBRANCH  30  43
ENDBRANCH  23  24
ENDBRANCH   1  23
TORSDOF 8
