REMARK  2 active torsions:
REMARK  status: ('A' for Active; 'I' for Inactive)
REMARK    1  A    between atoms: C5_5  and  C10_11 
REMARK    2  A    between atoms: C8_8  and  C9_9 
ROOT
HETATM    1  C1  UNL     1      -1.277  -0.969   0.684  1.00  0.00    -0.045 C 
HETATM    2  C2  UNL     1      -1.848   0.379   0.967  1.00  0.00     0.018 C 
HETATM    3  C3  UNL     1      -0.668   1.381   0.949  1.00  0.00     0.004 C 
HETATM    4  C4  UNL     1       0.449   1.188  -0.129  1.00  0.00     0.004 C 
HETATM    5  C5  UNL     1       1.649   0.219   0.180  1.00  0.00     0.019 C 
HETATM    6  C6  UNL     1       1.482  -1.268  -0.295  1.00  0.00     0.009 C 
HETATM    7  C7  UNL     1       0.793  -2.240   0.697  1.00  0.00     0.029 C 
HETATM    8  C8  UNL     1      -0.273  -1.477   1.422  1.00  0.00     0.012 C 
HETATM    9  C13 UNL     1      -2.920   0.572  -0.131  1.00  0.00     0.004 C 
HETATM   10  C14 UNL     1      -3.236  -0.857  -0.607  1.00  0.00     0.005 C 
HETATM   11  C15 UNL     1      -1.896  -1.586  -0.533  1.00  0.00     0.022 C 
HETATM   12  C16 UNL     1      -2.475   1.389  -1.342  1.00  0.00     0.000 C 
ENDROOT
BRANCH   5  13
HETATM   13  C10 UNL     1       2.895   0.775  -0.471  1.00  0.00    -0.044 C 
HETATM   14  C11 UNL     1       3.906   1.170   0.318  1.00  0.00    -0.009 C 
HETATM   15  C12 UNL     1       3.051   0.910  -1.961  1.00  0.00     0.026 C 
ENDBRANCH   5  13
BRANCH   8  16
HETATM   16  C9  UNL     1      -0.131  -1.215   2.863  1.00  0.00     0.229 C 
HETATM   17  O1  UNL     1       0.875  -1.537   3.447  1.00  0.00    -0.283 OA
ENDBRANCH   8  16
TORSDOF 2
