REMARK  14 active torsions:
REMARK  status: ('A' for Active; 'I' for Inactive)
REMARK    1  A    between atoms: C2_2  and  C3_3 
REMARK    2  A    between atoms: C3_3  and  C4_4 
REMARK    3  A    between atoms: C4_4  and  C5_5 
REMARK    4  A    between atoms: C5_5  and  C6_6 
REMARK    5  A    between atoms: C7_7  and  C8_8 
REMARK    6  A    between atoms: C9_9  and  C10_10 
REMARK    7  A    between atoms: C10_10  and  C11_11 
REMARK    8  A    between atoms: C11_11  and  C12_12 
REMARK    9  A    between atoms: C12_12  and  C13_13 
REMARK   10  A    between atoms: C13_13  and  C14_14 
REMARK   11  A    between atoms: C14_14  and  C15_15 
REMARK   12  A    between atoms: C15_15  and  C16_16 
REMARK   13  A    between atoms: C16_16  and  C17_17 
REMARK   14  A    between atoms: C17_17  and  C18_18 
ROOT
HETATM    1  C10 UNL     1       0.568   0.406   1.877  1.00  0.00     0.174 C 
HETATM    2  O3  UNL     1       1.039   0.926   3.100  1.00  0.00    -0.219 OA
ENDROOT
BRANCH   1   3
HETATM    3  C9  UNL     1      -0.936   0.406   1.877  1.00  0.00     0.006 C 
HETATM    4  C8  UNL     1      -1.576  -0.773   1.877  1.00  0.00    -0.002 C 
BRANCH   4   5
HETATM    5  C7  UNL     1      -3.043  -0.828   1.877  1.00  0.00    -0.005 C 
HETATM    6  C6  UNL     1      -3.684  -2.010   1.877  1.00  0.00    -0.026 C 
BRANCH   6   7
HETATM    7  C5  UNL     1      -5.190  -2.010   1.877  1.00  0.00     0.026 C 
BRANCH   7   8
HETATM    8  C4  UNL     1      -5.774  -2.969   0.840  1.00  0.00     0.005 C 
BRANCH   8   9
HETATM    9  C3  UNL     1      -7.303  -2.984   0.844  1.00  0.00     0.000 C 
BRANCH   9  10
HETATM   10  C2  UNL     1      -7.885  -3.941  -0.195  1.00  0.00     0.000 C 
HETATM   11  C1  UNL     1      -9.414  -3.957  -0.191  1.00  0.00     0.000 C 
ENDBRANCH   9  10
ENDBRANCH   8   9
ENDBRANCH   7   8
ENDBRANCH   6   7
ENDBRANCH   4   5
ENDBRANCH   1   3
BRANCH   1  12
HETATM   12  C11 UNL     1       1.152   1.250   0.742  1.00  0.00     0.038 C 
BRANCH  12  13
HETATM   13  C12 UNL     1       2.664   1.074   0.594  1.00  0.00     0.003 C 
BRANCH  13  14
HETATM   14  C13 UNL     1       3.246   1.910  -0.545  1.00  0.00     0.000 C 
BRANCH  14  15
HETATM   15  C14 UNL     1       4.758   1.742  -0.689  1.00  0.00     0.000 C 
BRANCH  15  16
HETATM   16  C15 UNL     1       5.340   2.576  -1.830  1.00  0.00     0.001 C 
BRANCH  16  17
HETATM   17  C16 UNL     1       6.854   2.408  -1.975  1.00  0.00     0.011 C 
BRANCH  17  18
HETATM   18  C17 UNL     1       7.434   3.238  -3.119  1.00  0.00     0.098 C 
BRANCH  18  19
HETATM   19  C18 UNL     1       8.930   3.106  -3.225  1.00  0.00     0.185 C 
HETATM   20  O1  UNL     1       9.492   2.106  -2.842  1.00  0.00    -0.647 OA
HETATM   21  O2  UNL     1       9.555   4.150  -3.758  1.00  0.00    -0.647 OA
ENDBRANCH  18  19
ENDBRANCH  17  18
ENDBRANCH  16  17
ENDBRANCH  15  16
ENDBRANCH  14  15
ENDBRANCH  13  14
ENDBRANCH  12  13
ENDBRANCH   1  12
TORSDOF 14
