REMARK  12 active torsions:
REMARK  status: ('A' for Active; 'I' for Inactive)
REMARK    1  A    between atoms: C1_1  and  C2_2 
REMARK    2  A    between atoms: C1_1  and  O4_11 
REMARK    3  A    between atoms: O4_11  and  C8_12 
REMARK    4  A    between atoms: C8_12  and  C9_13 
REMARK    5  A    between atoms: C11_15  and  O23_58 
REMARK    6  A    between atoms: C13_17  and  O6_19 
REMARK    7  A    between atoms: O6_19  and  C14_20 
REMARK    8  A    between atoms: C14_20  and  C15_21 
REMARK    9  A    between atoms: C32_48  and  C34_52 
REMARK   10  A    between atoms: C34_52  and  C35_53 
REMARK   11  A    between atoms: O23_58  and  C36_59 
REMARK   12  A    between atoms: C36_59  and  C37_60 
ROOT
HETATM    1  C9  UNL     1      -0.305   1.328  -0.752  1.00  0.00     0.178 C 
HETATM    2  C10 UNL     1      -0.990   1.379   0.631  1.00  0.00     0.184 C 
HETATM    3  C11 UNL     1      -0.625   0.156   1.494  1.00  0.00     0.187 C 
HETATM    4  C12 UNL     1      -0.830  -1.160   0.709  1.00  0.00     0.211 C 
HETATM    5  C13 UNL     1      -0.107  -1.090  -0.650  1.00  0.00     0.274 C 
HETATM    6  O5  UNL     1      -0.523   0.064  -1.381  1.00  0.00    -0.326 OA
HETATM    7  O11 UNL     1      -2.209  -1.461   0.438  1.00  0.00    -0.291 OA
HETATM    8  C21 UNL     1      -3.025  -1.783   1.455  1.00  0.00     0.335 C 
HETATM    9  C22 UNL     1      -4.207  -2.631   1.184  1.00  0.00     0.258 C 
HETATM   10  C23 UNL     1      -5.596  -2.125   0.865  1.00  0.00     0.045 A 
HETATM   11  C24 UNL     1      -5.912  -0.791   0.418  1.00  0.00     0.009 A 
HETATM   12  C25 UNL     1      -4.897   0.283   0.195  1.00  0.00     0.075 C 
HETATM   13  C26 UNL     1      -5.301   1.227  -0.969  1.00  0.00     0.242 C 
HETATM   14  C27 UNL     1      -6.742   1.649  -0.820  1.00  0.00     0.307 C 
HETATM   15  O12 UNL     1      -7.623   0.773  -0.311  1.00  0.00    -0.273 OA
HETATM   16  C28 UNL     1      -7.276  -0.447   0.152  1.00  0.00     0.127 A 
HETATM   17  C29 UNL     1      -8.307  -1.387   0.359  1.00  0.00     0.178 A 
HETATM   18  C30 UNL     1      -7.998  -2.695   0.783  1.00  0.00     0.158 A 
HETATM   19  C31 UNL     1      -6.658  -3.057   1.021  1.00  0.00     0.033 A 
HETATM   20  O13 UNL     1      -8.975  -3.596   0.959  1.00  0.00    -0.188 OA
HETATM   21  O14 UNL     1      -9.584  -1.043   0.137  1.00  0.00    -0.186 OA
HETATM   22  O15 UNL     1      -7.070   2.762  -1.160  1.00  0.00    -0.261 OA
HETATM   23  O16 UNL     1      -5.139   0.574  -2.215  1.00  0.00    -0.212 OA
HETATM   24  C32 UNL     1      -4.607   1.135   1.477  1.00  0.00     0.104 C 
HETATM   25  C33 UNL     1      -3.180   1.631   1.504  1.00  0.00     0.272 C 
HETATM   26  O17 UNL     1      -2.404   1.404   0.432  1.00  0.00    -0.299 OA
HETATM   27  O18 UNL     1      -2.783   2.203   2.496  1.00  0.00    -0.264 OA
HETATM   28  O21 UNL     1      -3.922  -3.805   1.275  1.00  0.00    -0.281 OA
HETATM   29  O22 UNL     1      -2.838  -1.455   2.604  1.00  0.00    -0.256 OA
ENDROOT
BRANCH   1  30
HETATM   30  C8  UNL     1       1.197   1.631  -0.699  1.00  0.00     0.184 C 
BRANCH  30  31
HETATM   31  O4  UNL     1       1.775   1.385  -1.973  1.00  0.00    -0.296 OA
BRANCH  31  32
HETATM   32  C1  UNL     1       3.078   1.654  -2.000  1.00  0.00     0.296 C 
HETATM   33  O28 UNL     1       3.701   2.061  -1.047  1.00  0.00    -0.259 OA
BRANCH  32  34
HETATM   34  C2  UNL     1       3.750   1.416  -3.313  1.00  0.00     0.067 A 
HETATM   35  C3  UNL     1       5.125   1.666  -3.455  1.00  0.00     0.035 A 
HETATM   36  C4  UNL     1       5.760   1.443  -4.690  1.00  0.00     0.158 A 
HETATM   37  O1  UNL     1       7.051   1.680  -4.816  1.00  0.00    -0.188 OA
HETATM   38  C5  UNL     1       5.016   0.971  -5.785  1.00  0.00     0.181 A 
HETATM   39  O2  UNL     1       5.609   0.762  -6.945  1.00  0.00    -0.186 OA
HETATM   40  C6  UNL     1       3.637   0.721  -5.645  1.00  0.00     0.158 A 
HETATM   41  O3  UNL     1       2.936   0.277  -6.670  1.00  0.00    -0.188 OA
HETATM   42  C7  UNL     1       3.008   0.943  -4.408  1.00  0.00     0.035 A 
ENDBRANCH  32  34
ENDBRANCH  31  32
ENDBRANCH  30  31
ENDBRANCH   1  30
BRANCH   3  43
HETATM   43  O23 UNL     1       0.742   0.256   1.871  1.00  0.00    -0.296 OA
BRANCH  43  44
HETATM   44  C36 UNL     1       0.943   1.178   2.809  1.00  0.00     0.296 C 
HETATM   45  O27 UNL     1       0.055   1.758   3.385  1.00  0.00    -0.259 OA
BRANCH  44  46
HETATM   46  C37 UNL     1       2.377   1.465   3.121  1.00  0.00     0.067 A 
HETATM   47  C38 UNL     1       2.707   2.379   4.137  1.00  0.00     0.035 A 
HETATM   48  C39 UNL     1       4.053   2.650   4.432  1.00  0.00     0.158 A 
HETATM   49  O24 UNL     1       4.357   3.508   5.387  1.00  0.00    -0.188 OA
HETATM   50  C40 UNL     1       5.074   2.006   3.709  1.00  0.00     0.181 A 
HETATM   51  O25 UNL     1       6.338   2.260   3.984  1.00  0.00    -0.186 OA
HETATM   52  C41 UNL     1       4.746   1.092   2.689  1.00  0.00     0.158 A 
HETATM   53  O26 UNL     1       5.699   0.486   2.010  1.00  0.00    -0.188 OA
HETATM   54  C42 UNL     1       3.397   0.822   2.398  1.00  0.00     0.035 A 
ENDBRANCH  44  46
ENDBRANCH  43  44
ENDBRANCH   3  43
BRANCH   5  55
HETATM   55  O6  UNL     1       1.301  -1.115  -0.465  1.00  0.00    -0.270 OA
BRANCH  55  56
HETATM   56  C14 UNL     1       1.951  -1.480  -1.566  1.00  0.00     0.298 C 
HETATM   57  O10 UNL     1       1.480  -1.416  -2.678  1.00  0.00    -0.259 OA
BRANCH  56  58
HETATM   58  C15 UNL     1       3.338  -1.988  -1.348  1.00  0.00     0.068 A 
HETATM   59  C16 UNL     1       4.180  -2.238  -2.445  1.00  0.00     0.035 A 
HETATM   60  C17 UNL     1       5.484  -2.717  -2.242  1.00  0.00     0.158 A 
HETATM   61  O7  UNL     1       6.270  -2.947  -3.275  1.00  0.00    -0.188 OA
HETATM   62  C18 UNL     1       5.951  -2.947  -0.934  1.00  0.00     0.181 A 
HETATM   63  O8  UNL     1       7.176  -3.396  -0.740  1.00  0.00    -0.186 OA
HETATM   64  C19 UNL     1       5.111  -2.699   0.168  1.00  0.00     0.158 A 
HETATM   65  O9  UNL     1       5.543  -2.914   1.393  1.00  0.00    -0.188 OA
HETATM   66  C20 UNL     1       3.807  -2.221  -0.041  1.00  0.00     0.035 A 
ENDBRANCH  56  58
ENDBRANCH  55  56
ENDBRANCH   5  55
BRANCH  24  67
HETATM   67  C34 UNL     1      -4.932   0.438   2.809  1.00  0.00     0.108 C 
BRANCH  67  68
HETATM   68  C35 UNL     1      -6.236   0.900   3.398  1.00  0.00     0.186 C 
HETATM   69  O19 UNL     1      -6.242   1.039   4.721  1.00  0.00    -0.647 OA
HETATM   70  O20 UNL     1      -7.193   1.123   2.693  1.00  0.00    -0.647 OA
ENDBRANCH  67  68
ENDBRANCH  24  67
TORSDOF 12
