REMARK  2 active torsions:
REMARK  status: ('A' for Active; 'I' for Inactive)
REMARK    1  A    between atoms: C2_2  and  C11_11 
REMARK    2  A    between atoms: C6_6  and  C7_7 
ROOT
HETATM    1  C1  UNL     1      -0.211  -0.002  -0.088  1.00  0.00     0.123 A 
HETATM    2  C2  UNL     1       0.541  -1.193  -0.088  1.00  0.00     0.002 A 
HETATM    3  C3  UNL     1       1.947  -1.140  -0.088  1.00  0.00    -0.002 A 
HETATM    4  C4  UNL     1       2.604   0.100  -0.088  1.00  0.00    -0.001 A 
HETATM    5  C5  UNL     1       1.857   1.291  -0.088  1.00  0.00    -0.002 A 
HETATM    6  C6  UNL     1       0.453   1.240  -0.088  1.00  0.00     0.002 A 
HETATM    7  O1  UNL     1      -1.529  -0.051  -0.088  1.00  0.00    -0.191 OA
ENDROOT
BRANCH   2   8
HETATM    8  C11 UNL     1      -0.143  -2.514  -0.088  1.00  0.00     0.021 C 
HETATM    9  C12 UNL     1       0.787  -3.631  -0.566  1.00  0.00     0.004 C 
HETATM   10  C13 UNL     1      -1.457  -2.467  -0.867  1.00  0.00     0.004 C 
HETATM   11  C14 UNL     1      -0.356  -2.531   1.426  1.00  0.00     0.004 C 
ENDBRANCH   2   8
BRANCH   6  12
HETATM   12  C7  UNL     1      -0.326   2.508  -0.088  1.00  0.00     0.021 C 
HETATM   13  C8  UNL     1      -0.615   2.463   1.412  1.00  0.00     0.004 C 
HETATM   14  C9  UNL     1      -1.592   2.391  -0.937  1.00  0.00     0.004 C 
HETATM   15  C10 UNL     1       0.543   3.703  -0.486  1.00  0.00     0.004 C 
ENDBRANCH   6  12
TORSDOF 2
