REMARK  3 active torsions:
REMARK  status: ('A' for Active; 'I' for Inactive)
REMARK    1  A    between atoms: C5_5  and  C7_7 
REMARK    2  A    between atoms: C8_8  and  C9_9 
REMARK    3  A    between atoms: C12_13  and  O2_15 
ROOT
HETATM    1  C7  UNL     1       0.381   1.289  -0.031  1.00  0.00    -0.002 C 
HETATM    2  C8  UNL     1      -0.684   0.568   0.355  1.00  0.00     0.004 C 
ENDROOT
BRANCH   1   3
HETATM    3  C5  UNL     1       1.701   0.629  -0.094  1.00  0.00     0.002 A 
HETATM    4  C4  UNL     1       1.791  -0.748  -0.381  1.00  0.00     0.002 A 
HETATM    5  C3  UNL     1       3.064  -1.353  -0.434  1.00  0.00     0.026 A 
HETATM    6  C2  UNL     1       4.250  -0.605  -0.205  1.00  0.00     0.119 A 
HETATM    7  C1  UNL     1       4.156   0.760   0.082  1.00  0.00     0.119 A 
HETATM    8  O4  UNL     1       5.535  -0.963  -0.205  1.00  0.00    -0.300 OA
HETATM    9  C6  UNL     1       2.879   1.375   0.137  1.00  0.00     0.026 A 
HETATM   10  O5  UNL     1       5.383   1.252   0.258  1.00  0.00    -0.300 OA
HETATM   11  C15 UNL     1       6.350   0.193   0.084  1.00  0.00     0.304 A 
ENDBRANCH   1   3
BRANCH   2  12
HETATM   12  C9  UNL     1      -2.027   1.244   0.416  1.00  0.00     0.153 C 
HETATM   13  O1  UNL     1      -2.459   1.320   1.783  1.00  0.00    -0.296 OA
HETATM   14  C10 UNL     1      -2.977   0.207   2.338  1.00  0.00     0.298 C 
HETATM   15  C11 UNL     1      -3.412  -0.920   1.488  1.00  0.00     0.088 C 
HETATM   16  O3  UNL     1      -3.111   0.096   3.533  1.00  0.00    -0.259 OA
HETATM   17  C12 UNL     1      -3.473  -0.799   0.148  1.00  0.00     0.080 C 
HETATM   18  C13 UNL     1      -3.086   0.533  -0.449  1.00  0.00     0.086 C 
BRANCH  17  19
HETATM   19  O2  UNL     1      -3.854  -1.816  -0.617  1.00  0.00    -0.332 OA
HETATM   20  C14 UNL     1      -4.582  -1.393  -1.760  1.00  0.00     0.181 C 
ENDBRANCH  17  19
ENDBRANCH   2  12
TORSDOF 3
