REMARK  0 active torsions:
REMARK  status: ('A' for Active; 'I' for Inactive)
ROOT
HETATM    1  C1  UNL     1      -2.600  -2.328  -0.063  1.00  0.00    -0.000 A 
HETATM    2  C2  UNL     1      -3.758  -1.561   0.168  1.00  0.00    -0.004 A 
HETATM    3  C3  UNL     1      -3.654  -0.172   0.404  1.00  0.00    -0.022 A 
HETATM    4  C4  UNL     1      -2.373   0.455   0.408  1.00  0.00    -0.004 A 
HETATM    5  C5  UNL     1      -1.182  -0.318   0.178  1.00  0.00     0.002 A 
HETATM    6  C6  UNL     1      -1.326  -1.717  -0.059  1.00  0.00     0.000 A 
HETATM    7  C7  UNL     1       0.102   0.334   0.191  1.00  0.00     0.025 A 
HETATM    8  C8  UNL     1       0.162   1.746   0.428  1.00  0.00     0.044 A 
HETATM    9  C9  UNL     1      -1.021   2.486   0.648  1.00  0.00     0.003 A 
HETATM   10  C10 UNL     1      -2.275   1.850   0.642  1.00  0.00    -0.000 A 
HETATM   11  C11 UNL     1       1.471   2.471   0.445  1.00  0.00     0.234 A 
HETATM   12  C12 UNL     1       2.690   1.678   0.209  1.00  0.00     0.232 A 
HETATM   13  C13 UNL     1       2.559   0.234  -0.030  1.00  0.00     0.044 A 
HETATM   14  C14 UNL     1       1.387  -0.422  -0.035  1.00  0.00     0.093 A 
HETATM   15  O1  UNL     1       1.600  -1.723  -0.262  1.00  0.00    -0.331 OA
HETATM   16  C15 UNL     1       2.996  -2.016  -0.239  1.00  0.00     0.153 C 
HETATM   17  C16 UNL     1       3.719  -0.674  -0.295  1.00  0.00     0.058 C 
HETATM   18  C17 UNL     1       4.342  -0.426  -1.664  1.00  0.00     0.007 C 
HETATM   19  O2  UNL     1       3.779   2.199   0.211  1.00  0.00    -0.283 OA
HETATM   20  O3  UNL     1       1.631   3.656   0.635  1.00  0.00    -0.283 OA
HETATM   21  C18 UNL     1      -4.898   0.588   0.638  1.00  0.00     0.031 C 
ENDROOT
TORSDOF 0
