REMARK  1 active torsions:
REMARK  status: ('A' for Active; 'I' for Inactive)
REMARK    1  A    between atoms: C5_5  and  C13_13 
ROOT
HETATM    1  C1  UNL     1      -2.203   2.463  -0.232  1.00  0.00     0.026 C 
HETATM    2  C2  UNL     1      -2.185   0.953  -0.226  1.00  0.00    -0.052 C 
HETATM    3  C3  UNL     1      -1.049   0.254   0.025  1.00  0.00    -0.053 C 
HETATM    4  C4  UNL     1       0.270   0.957   0.315  1.00  0.00     0.024 C 
HETATM    5  C5  UNL     1       1.461   0.361  -0.453  1.00  0.00     0.032 C 
HETATM    6  C6  UNL     1       1.522  -1.160  -0.279  1.00  0.00     0.003 C 
HETATM    7  C7  UNL     1       0.205  -1.811  -0.717  1.00  0.00     0.004 C 
HETATM    8  C8  UNL     1      -1.021  -1.276   0.055  1.00  0.00     0.015 C 
HETATM    9  C9  UNL     1      -2.297  -1.902  -0.549  1.00  0.00     0.004 C 
HETATM   10  C10 UNL     1      -3.557  -1.184  -0.068  1.00  0.00     0.005 C 
HETATM   11  C11 UNL     1      -3.510   0.279  -0.514  1.00  0.00     0.021 C 
HETATM   12  C12 UNL     1      -0.918  -1.690   1.529  1.00  0.00     0.004 C 
ENDROOT
BRANCH   5  13
HETATM   13  C13 UNL     1       2.777   1.021  -0.029  1.00  0.00     0.127 C 
HETATM   14  C14 UNL     1       2.949   1.076   1.490  1.00  0.00     0.033 C 
HETATM   15  C15 UNL     1       3.992   0.422  -0.738  1.00  0.00     0.033 C 
HETATM   16  O1  UNL     1       2.598   2.338  -0.500  1.00  0.00    -0.226 OA
ENDBRANCH   5  13
TORSDOF 1
