REMARK  6 active torsions:
REMARK  status: ('A' for Active; 'I' for Inactive)
REMARK    1  A    between atoms: C3_3  and  O5_24 
REMARK    2  A    between atoms: C5_5  and  C7_7 
REMARK    3  A    between atoms: C10_11  and  C11_12 
REMARK    4  A    between atoms: C13_15  and  C17_20 
REMARK    5  A    between atoms: C15_17  and  O3_18 
REMARK    6  A    between atoms: C18_21  and  C19_22 
ROOT
HETATM    1  C7  UNL     1      -1.432   0.463   0.340  1.00  0.00     0.150 A 
HETATM    2  O1  UNL     1      -0.293   1.342   0.383  1.00  0.00    -0.327 OA
HETATM    3  C8  UNL     1       0.844   0.652   0.455  1.00  0.00     0.113 A 
HETATM    4  C9  UNL     1       0.623  -0.732   0.414  1.00  0.00     0.007 A 
HETATM    5  C10 UNL     1      -0.857  -0.994   0.293  1.00  0.00     0.089 A 
HETATM    6  C12 UNL     1       1.717  -1.631   0.481  1.00  0.00    -0.002 A 
HETATM    7  C13 UNL     1       3.033  -1.145   0.588  1.00  0.00     0.002 A 
HETATM    8  C14 UNL     1       3.260   0.244   0.629  1.00  0.00     0.026 A 
HETATM    9  C15 UNL     1       2.174   1.150   0.561  1.00  0.00     0.116 A 
ENDROOT
BRANCH   1  10
HETATM   10  C5  UNL     1      -2.287   0.805  -0.826  1.00  0.00     0.008 A 
HETATM   11  C4  UNL     1      -3.670   0.998  -0.652  1.00  0.00     0.024 A 
HETATM   12  C3  UNL     1      -4.484   1.320  -1.752  1.00  0.00     0.119 A 
HETATM   13  C2  UNL     1      -3.912   1.451  -3.031  1.00  0.00     0.153 A 
HETATM   14  C1  UNL     1      -2.531   1.258  -3.205  1.00  0.00     0.029 A 
HETATM   15  O6  UNL     1      -4.668   1.754  -4.068  1.00  0.00    -0.188 OA
HETATM   16  C6  UNL     1      -1.719   0.936  -2.104  1.00  0.00     0.000 A 
BRANCH  12  17
HETATM   17  O5  UNL     1      -5.777   1.500  -1.580  1.00  0.00    -0.326 OA
HETATM   18  C20 UNL     1      -6.322   1.248  -0.293  1.00  0.00     0.181 C 
ENDBRANCH  12  17
ENDBRANCH   1  10
BRANCH   5  19
HETATM   19  C11 UNL     1      -1.377  -1.848   1.447  1.00  0.00     0.190 C 
HETATM   20  O2  UNL     1      -0.939  -3.172   1.248  1.00  0.00    -0.220 OA
ENDBRANCH   5  19
BRANCH   9  21
HETATM   21  O3  UNL     1       2.539   2.439   0.607  1.00  0.00    -0.326 OA
HETATM   22  C16 UNL     1       1.518   3.424   0.549  1.00  0.00     0.181 C 
ENDBRANCH   9  21
BRANCH   7  23
HETATM   23  C17 UNL     1       4.170  -2.086   0.658  1.00  0.00    -0.002 C 
HETATM   24  C18 UNL     1       5.328  -1.658   1.188  1.00  0.00     0.009 C 
BRANCH  24  25
HETATM   25  C19 UNL     1       6.485  -2.621   1.258  1.00  0.00     0.209 C 
HETATM   26  O4  UNL     1       7.690  -1.900   1.373  1.00  0.00    -0.215 OA
ENDBRANCH  24  25
ENDBRANCH   7  23
TORSDOF 6
