REMARK  4 active torsions:
REMARK  status: ('A' for Active; 'I' for Inactive)
REMARK    1  A    between atoms: C5_5  and  O1_7 
REMARK    2  A    between atoms: C17_18  and  C19_21 
REMARK    3  A    between atoms: C21_23  and  O5_30 
REMARK    4  A    between atoms: C23_25  and  O3_27 
ROOT
HETATM    1  C1  UNL     1      -5.217   1.424  -3.639  1.00  0.00     0.133 A 
HETATM    2  C2  UNL     1      -3.830   1.146  -3.631  1.00  0.00     0.027 A 
HETATM    3  C3  UNL     1      -3.189   0.682  -2.445  1.00  0.00    -0.000 A 
HETATM    4  C4  UNL     1      -3.971   0.506  -1.262  1.00  0.00     0.001 A 
HETATM    5  C5  UNL     1      -5.361   0.793  -1.279  1.00  0.00     0.092 A 
HETATM    6  C6  UNL     1      -5.981   1.250  -2.465  1.00  0.00     0.051 A 
HETATM    7  C8  UNL     1      -3.322   0.012  -0.021  1.00  0.00     0.033 C 
HETATM    8  C9  UNL     1      -1.863   0.488   0.094  1.00  0.00     0.031 C 
HETATM    9  C10 UNL     1      -1.074   0.219  -1.144  1.00  0.00    -0.021 C 
HETATM   10  C11 UNL     1      -1.732   0.375  -2.406  1.00  0.00    -0.004 C 
HETATM   11  C12 UNL     1      -0.978   0.228  -3.602  1.00  0.00     0.002 C 
HETATM   12  C13 UNL     1       0.404  -0.037  -3.549  1.00  0.00     0.024 C 
HETATM   13  C14 UNL     1       1.053  -0.203  -2.311  1.00  0.00     0.092 C 
HETATM   14  C15 UNL     1       0.307  -0.166  -1.096  1.00  0.00     0.026 C 
HETATM   15  C16 UNL     1       0.994  -0.518   0.191  1.00  0.00     0.182 C 
HETATM   16  C17 UNL     1       2.481  -0.953   0.022  1.00  0.00     0.087 C 
HETATM   17  C18 UNL     1       3.147  -0.190  -1.127  1.00  0.00     0.156 C 
HETATM   18  O2  UNL     1       2.387  -0.393  -2.320  1.00  0.00    -0.331 OA
HETATM   19  O6  UNL     1       0.332  -1.606   0.818  1.00  0.00    -0.218 OA
HETATM   20  O7  UNL     1      -5.807   1.853  -4.762  1.00  0.00    -0.190 OA
ENDROOT
BRANCH  16  21
HETATM   21  C19 UNL     1       3.264  -0.811   1.285  1.00  0.00    -0.013 A 
HETATM   22  C20 UNL     1       3.801  -1.949   1.910  1.00  0.00     0.022 A 
HETATM   23  C21 UNL     1       4.537  -1.818   3.100  1.00  0.00     0.121 A 
HETATM   24  C22 UNL     1       4.736  -0.545   3.666  1.00  0.00     0.175 A 
HETATM   25  C23 UNL     1       4.199   0.596   3.039  1.00  0.00     0.121 A 
HETATM   26  O4  UNL     1       5.428  -0.420   4.781  1.00  0.00    -0.186 OA
HETATM   27  C24 UNL     1       3.463   0.459   1.850  1.00  0.00     0.022 A 
BRANCH  23  28
HETATM   28  O5  UNL     1       5.039  -2.889   3.684  1.00  0.00    -0.326 OA
HETATM   29  C26 UNL     1       4.809  -4.151   3.072  1.00  0.00     0.181 C 
ENDBRANCH  23  28
BRANCH  25  30
HETATM   30  O3  UNL     1       4.383   1.789   3.567  1.00  0.00    -0.326 OA
HETATM   31  C25 UNL     1       3.914   2.918   2.842  1.00  0.00     0.181 C 
ENDBRANCH  25  30
ENDBRANCH  16  21
BRANCH   5  32
HETATM   32  O1  UNL     1      -6.104   0.633  -0.174  1.00  0.00    -0.328 OA
HETATM   33  C7  UNL     1      -7.486   0.947  -0.248  1.00  0.00     0.181 C 
ENDBRANCH   5  32
TORSDOF 4
