REMARK  3 active torsions:
REMARK  status: ('A' for Active; 'I' for Inactive)
REMARK    1  A    between atoms: C2_2  and  C11_14 
REMARK    2  A    between atoms: C8_8  and  O2_11 
REMARK    3  A    between atoms: C11_14  and  C12_15 
ROOT
HETATM    1  C1  UNL     1       1.779   0.906   0.766  1.00  0.00     0.149 C 
HETATM    2  C2  UNL     1       0.422   0.975   0.049  1.00  0.00     0.039 C 
HETATM    3  C3  UNL     1      -0.460  -0.201   0.508  1.00  0.00     0.031 C 
HETATM    4  C4  UNL     1       0.274  -1.491   0.515  1.00  0.00     0.002 A 
HETATM    5  C5  UNL     1      -0.439  -2.716   0.517  1.00  0.00    -0.000 A 
HETATM    6  C6  UNL     1       0.259  -3.945   0.518  1.00  0.00     0.029 A 
HETATM    7  C7  UNL     1       1.672  -3.957   0.518  1.00  0.00     0.155 A 
HETATM    8  C8  UNL     1       2.391  -2.738   0.518  1.00  0.00     0.141 A 
HETATM    9  C9  UNL     1       1.699  -1.502   0.520  1.00  0.00     0.114 A 
HETATM   10  O1  UNL     1       2.413  -0.355   0.517  1.00  0.00    -0.329 OA
HETATM   11  O3  UNL     1       2.328  -5.126   0.518  1.00  0.00    -0.188 OA
ENDROOT
BRANCH   2  12
HETATM   12  C11 UNL     1      -0.270   2.321   0.283  1.00  0.00     0.029 C 
BRANCH  12  13
HETATM   13  C12 UNL     1      -1.522   2.437  -0.509  1.00  0.00    -0.022 A 
HETATM   14  C13 UNL     1      -1.461   2.733  -1.882  1.00  0.00    -0.002 A 
HETATM   15  C14 UNL     1      -2.646   2.842  -2.630  1.00  0.00     0.027 A 
HETATM   16  C15 UNL     1      -3.895   2.657  -2.010  1.00  0.00     0.131 A 
HETATM   17  C16 UNL     1      -3.952   2.362  -0.636  1.00  0.00     0.027 A 
HETATM   18  O4  UNL     1      -5.005   2.761  -2.712  1.00  0.00    -0.190 OA
HETATM   19  C17 UNL     1      -2.769   2.252   0.114  1.00  0.00    -0.002 A 
ENDBRANCH  12  13
ENDBRANCH   2  12
BRANCH   8  20
HETATM   20  O2  UNL     1       3.731  -2.753   0.517  1.00  0.00    -0.324 OA
HETATM   21  C10 UNL     1       4.410  -1.777   1.293  1.00  0.00     0.182 C 
ENDBRANCH   8  20
TORSDOF 3
