REMARK  5 active torsions:
REMARK  status: ('A' for Active; 'I' for Inactive)
REMARK    1  A    between atoms: C1_1  and  C2_2 
REMARK    2  A    between atoms: C2_2  and  C3_3 
REMARK    3  A    between atoms: C2_2  and  O1_9 
REMARK    4  A    between atoms: O1_9  and  C9_10 
REMARK    5  A    between atoms: C13_17  and  C14_19 
ROOT
HETATM    1  C9  UNL     1       0.988   0.834   0.402  1.00  0.00     0.271 C 
HETATM    2  C10 UNL     1       1.387   2.228  -0.145  1.00  0.00     0.241 C 
HETATM    3  O2  UNL     1       2.662   2.590   0.363  1.00  0.00    -0.215 OA
HETATM    4  C11 UNL     1       0.350   3.299   0.266  1.00  0.00     0.220 C 
HETATM    5  O3  UNL     1       0.629   4.521  -0.400  1.00  0.00    -0.218 OA
HETATM    6  C12 UNL     1      -1.070   2.816  -0.098  1.00  0.00     0.215 C 
HETATM    7  O4  UNL     1      -2.033   3.707   0.443  1.00  0.00    -0.218 OA
HETATM    8  C13 UNL     1      -1.342   1.400   0.455  1.00  0.00     0.184 C 
HETATM    9  O5  UNL     1      -0.334   0.512  -0.010  1.00  0.00    -0.326 OA
ENDROOT
BRANCH   1  10
HETATM   10  O1  UNL     1       1.867  -0.158  -0.094  1.00  0.00    -0.316 OA
BRANCH  10  11
HETATM   11  C2  UNL     1       1.703  -1.406   0.543  1.00  0.00     0.227 C 
BRANCH  11  12
HETATM   12  C1  UNL     1       2.990  -2.186   0.457  1.00  0.00     0.218 C 
HETATM   13  O7  UNL     1       3.398  -2.598  -0.604  1.00  0.00    -0.645 OA
HETATM   14  O8  UNL     1       3.615  -2.373   1.615  1.00  0.00    -0.645 OA
ENDBRANCH  11  12
BRANCH  11  15
HETATM   15  C3  UNL     1       0.566  -2.135  -0.078  1.00  0.00     0.015 A 
HETATM   16  C4  UNL     1      -0.475  -2.633   0.725  1.00  0.00    -0.001 A 
HETATM   17  C5  UNL     1      -1.549  -3.321   0.137  1.00  0.00    -0.000 A 
HETATM   18  C6  UNL     1      -1.586  -3.512  -1.254  1.00  0.00    -0.000 A 
HETATM   19  C7  UNL     1      -0.547  -3.014  -2.059  1.00  0.00    -0.000 A 
HETATM   20  C8  UNL     1       0.529  -2.326  -1.473  1.00  0.00    -0.001 A 
ENDBRANCH  11  15
ENDBRANCH  10  11
ENDBRANCH   1  10
BRANCH   8  21
HETATM   21  C14 UNL     1      -2.686   0.828  -0.010  1.00  0.00     0.214 C 
HETATM   22  O6  UNL     1      -2.904  -0.381   0.680  1.00  0.00    -0.218 OA
ENDBRANCH   8  21
TORSDOF 5
