REMARK  12 active torsions:
REMARK  status: ('A' for Active; 'I' for Inactive)
REMARK    1  A    between atoms: C2_2  and  O10_37 
REMARK    2  A    between atoms: C3_3  and  O9_35 
REMARK    3  A    between atoms: C5_5  and  C7_7 
REMARK    4  A    between atoms: C11_11  and  C12_12 
REMARK    5  A    between atoms: C12_12  and  O1_13 
REMARK    6  A    between atoms: O1_13  and  C13_14 
REMARK    7  A    between atoms: C14_16  and  C18_23 
REMARK    8  A    between atoms: C20_26  and  C24_31 
REMARK    9  A    between atoms: C22_28  and  O7_29 
REMARK   10  A    between atoms: C25_32  and  C26_33 
REMARK   11  A    between atoms: O10_37  and  C28_38 
REMARK   12  A    between atoms: C29_40  and  C33_47 
ROOT
HETATM    1  C7  UNL     1       1.117   0.326   1.061  1.00  0.00     0.033 C 
HETATM    2  C8  UNL     1       0.299   1.639   1.258  1.00  0.00     0.033 C 
HETATM    3  C9  UNL     1      -1.137   1.207   1.135  1.00  0.00    -0.003 A 
HETATM    4  C10 UNL     1      -1.242  -0.193   1.084  1.00  0.00    -0.022 A 
HETATM    5  C11 UNL     1       0.105  -0.859   1.168  1.00  0.00     0.056 C 
HETATM    6  C19 UNL     1      -2.525  -0.785   0.963  1.00  0.00    -0.004 A 
HETATM    7  C20 UNL     1      -3.686   0.012   0.901  1.00  0.00     0.001 A 
HETATM    8  C21 UNL     1      -3.572   1.414   0.955  1.00  0.00     0.024 A 
HETATM    9  C22 UNL     1      -2.301   2.026   1.072  1.00  0.00     0.090 A 
ENDROOT
BRANCH   1  10
HETATM   10  C5  UNL     1       1.842   0.322  -0.238  1.00  0.00    -0.020 A 
HETATM   11  C4  UNL     1       3.246   0.233  -0.260  1.00  0.00     0.022 A 
HETATM   12  C3  UNL     1       3.936   0.229  -1.486  1.00  0.00     0.116 A 
HETATM   13  C2  UNL     1       3.217   0.313  -2.693  1.00  0.00     0.119 A 
HETATM   14  C1  UNL     1       1.814   0.402  -2.670  1.00  0.00     0.026 A 
HETATM   15  C6  UNL     1       1.127   0.406  -1.443  1.00  0.00    -0.002 A 
BRANCH  12  16
HETATM   16  O9  UNL     1       5.250   0.145  -1.498  1.00  0.00    -0.326 OA
HETATM   17  C27 UNL     1       5.852  -0.754  -2.420  1.00  0.00     0.181 C 
ENDBRANCH  12  16
BRANCH  13  18
HETATM   18  O10 UNL     1       3.856   0.309  -3.848  1.00  0.00    -0.302 OA
BRANCH  18  19
HETATM   19  C28 UNL     1       3.424   1.217  -4.852  1.00  0.00     0.274 C 
HETATM   20  O11 UNL     1       3.613   2.545  -4.381  1.00  0.00    -0.326 OA
HETATM   21  C29 UNL     1       3.178   3.565  -5.271  1.00  0.00     0.184 C 
HETATM   22  C30 UNL     1       3.981   3.473  -6.590  1.00  0.00     0.215 C 
HETATM   23  C31 UNL     1       3.885   2.063  -7.211  1.00  0.00     0.220 C 
HETATM   24  O14 UNL     1       3.471   4.434  -7.500  1.00  0.00    -0.218 OA
HETATM   25  C32 UNL     1       4.234   1.000  -6.146  1.00  0.00     0.241 C 
HETATM   26  O13 UNL     1       4.777   1.955  -8.307  1.00  0.00    -0.218 OA
HETATM   27  O12 UNL     1       3.951  -0.295  -6.645  1.00  0.00    -0.215 OA
BRANCH  21  28
HETATM   28  C33 UNL     1       3.371   4.899  -4.545  1.00  0.00     0.214 C 
HETATM   29  O15 UNL     1       2.559   4.897  -3.393  1.00  0.00    -0.218 OA
ENDBRANCH  21  28
ENDBRANCH  18  19
ENDBRANCH  13  18
ENDBRANCH   1  10
BRANCH   5  30
HETATM   30  C12 UNL     1       0.262  -1.586   2.502  1.00  0.00     0.150 C 
BRANCH  30  31
HETATM   31  O1  UNL     1      -0.773  -2.535   2.611  1.00  0.00    -0.329 OA
BRANCH  31  32
HETATM   32  C13 UNL     1      -0.793  -3.197   3.860  1.00  0.00     0.270 C 
HETATM   33  O2  UNL     1      -1.447  -2.359   4.803  1.00  0.00    -0.326 OA
HETATM   34  C14 UNL     1      -1.502  -2.873   6.127  1.00  0.00     0.184 C 
HETATM   35  C15 UNL     1      -2.301  -4.195   6.133  1.00  0.00     0.215 C 
HETATM   36  C16 UNL     1      -1.709  -5.211   5.131  1.00  0.00     0.220 C 
HETATM   37  O5  UNL     1      -2.272  -4.738   7.442  1.00  0.00    -0.218 OA
HETATM   38  C17 UNL     1      -1.541  -4.551   3.744  1.00  0.00     0.241 C 
HETATM   39  O4  UNL     1      -2.564  -6.338   5.028  1.00  0.00    -0.218 OA
HETATM   40  O3  UNL     1      -0.811  -5.420   2.893  1.00  0.00    -0.215 OA
BRANCH  34  41
HETATM   41  C18 UNL     1      -2.143  -1.785   6.996  1.00  0.00     0.214 C 
HETATM   42  O6  UNL     1      -1.309  -0.648   6.965  1.00  0.00    -0.218 OA
ENDBRANCH  34  41
ENDBRANCH  31  32
ENDBRANCH  30  31
ENDBRANCH   5  30
BRANCH   9  43
HETATM   43  O7  UNL     1      -2.340   3.365   1.113  1.00  0.00    -0.328 OA
HETATM   44  C23 UNL     1      -3.361   4.024   0.379  1.00  0.00     0.181 C 
ENDBRANCH   9  43
BRANCH   7  45
HETATM   45  C24 UNL     1      -5.016  -0.621   0.777  1.00  0.00    -0.002 C 
HETATM   46  C25 UNL     1      -6.108   0.160   0.815  1.00  0.00     0.009 C 
BRANCH  46  47
HETATM   47  C26 UNL     1      -7.459  -0.488   0.690  1.00  0.00     0.209 C 
HETATM   48  O8  UNL     1      -8.443   0.371   1.219  1.00  0.00    -0.215 OA
ENDBRANCH  46  47
ENDBRANCH   7  45
TORSDOF 12
