REMARK  9 active torsions:
REMARK  status: ('A' for Active; 'I' for Inactive)
REMARK    1  A    between atoms: C5_5  and  C7_7 
REMARK    2  A    between atoms: C7_7  and  C8_8 
REMARK    3  A    between atoms: C8_8  and  C9_9 
REMARK    4  A    between atoms: C9_9  and  C10_10 
REMARK    5  A    between atoms: C10_10  and  C11_11 
REMARK    6  A    between atoms: C11_11  and  C12_12 
REMARK    7  A    between atoms: C12_12  and  C13_13 
REMARK    8  A    between atoms: C13_13  and  C14_14 
REMARK    9  A    between atoms: C14_14  and  C15_15 
ROOT
HETATM    1  C7  UNL     1       2.881   1.213   0.434  1.00  0.00     0.026 C 
ENDROOT
BRANCH   1   2
HETATM    2  C5  UNL     1       4.195   0.555   0.371  1.00  0.00    -0.020 A 
HETATM    3  C4  UNL     1       4.289  -0.822   0.084  1.00  0.00    -0.002 A 
HETATM    4  C3  UNL     1       5.563  -1.430   0.029  1.00  0.00     0.026 A 
HETATM    5  C2  UNL     1       6.746  -0.684   0.260  1.00  0.00     0.119 A 
HETATM    6  C1  UNL     1       6.652   0.683   0.545  1.00  0.00     0.119 A 
HETATM    7  O1  UNL     1       8.031  -1.039   0.260  1.00  0.00    -0.300 OA
HETATM    8  C6  UNL     1       5.375   1.297   0.602  1.00  0.00     0.022 A 
HETATM    9  O2  UNL     1       7.879   1.176   0.723  1.00  0.00    -0.300 OA
HETATM   10  C17 UNL     1       8.846   0.117   0.549  1.00  0.00     0.304 A 
ENDBRANCH   1   2
BRANCH   1  11
HETATM   11  C8  UNL     1       1.744   0.226   0.154  1.00  0.00     0.005 C 
BRANCH  11  12
HETATM   12  C9  UNL     1       0.365   0.885   0.211  1.00  0.00     0.000 C 
BRANCH  12  13
HETATM   13  C10 UNL     1      -0.770  -0.102  -0.066  1.00  0.00     0.000 C 
BRANCH  13  14
HETATM   14  C11 UNL     1      -2.149   0.557  -0.010  1.00  0.00     0.000 C 
BRANCH  14  15
HETATM   15  C12 UNL     1      -3.285  -0.428  -0.289  1.00  0.00     0.000 C 
BRANCH  15  16
HETATM   16  C13 UNL     1      -4.664   0.228  -0.231  1.00  0.00     0.000 C 
BRANCH  16  17
HETATM   17  C14 UNL     1      -5.799  -0.756  -0.510  1.00  0.00     0.000 C 
BRANCH  17  18
HETATM   18  C15 UNL     1      -7.178  -0.098  -0.453  1.00  0.00     0.000 C 
HETATM   19  C16 UNL     1      -8.315  -1.084  -0.731  1.00  0.00     0.000 C 
ENDBRANCH  17  18
ENDBRANCH  16  17
ENDBRANCH  15  16
ENDBRANCH  14  15
ENDBRANCH  13  14
ENDBRANCH  12  13
ENDBRANCH  11  12
ENDBRANCH   1  11
TORSDOF 9
