REMARK  3 active torsions:
REMARK  status: ('A' for Active; 'I' for Inactive)
REMARK    1  A    between atoms: C6_6  and  C7_7 
REMARK    2  A    between atoms: C7_7  and  C8_8 
REMARK    3  A    between atoms: C8_8  and  N1_9 
ROOT
HETATM    1  C1  UNL     1      -1.695  -0.447  -0.775  1.00  0.00    -0.002 A 
HETATM    2  C2  UNL     1      -2.352  -1.691  -0.775  1.00  0.00     0.027 A 
HETATM    3  C3  UNL     1      -1.608  -2.885  -0.775  1.00  0.00     0.131 A 
HETATM    4  C4  UNL     1      -0.203  -2.828  -0.775  1.00  0.00     0.027 A 
HETATM    5  C5  UNL     1       0.457  -1.588  -0.775  1.00  0.00    -0.002 A 
HETATM    6  C6  UNL     1      -0.289  -0.396  -0.775  1.00  0.00    -0.020 A 
HETATM    7  O1  UNL     1      -2.225  -4.049  -0.775  1.00  0.00    -0.190 OA
ENDROOT
BRANCH   6   8
HETATM    8  C7  UNL     1       0.406   0.918  -0.775  1.00  0.00     0.065 C 
BRANCH   8   9
HETATM    9  C8  UNL     1       0.678   1.410   0.647  1.00  0.00     0.295 C 
BRANCH   9  10
HETATM   10  N1  UNL     1       1.348   2.699   0.620  1.00  0.00     0.342 N 
HETATM   11  C9  UNL     1       1.582   3.180   1.971  1.00  0.00     0.328 C 
ENDBRANCH   9  10
ENDBRANCH   8   9
ENDBRANCH   6   8
TORSDOF 3
