REMARK  8 active torsions:
REMARK  status: ('A' for Active; 'I' for Inactive)
REMARK    1  A    between atoms: C3_4  and  C12_18 
REMARK    2  A    between atoms: C4_5  and  O5_14 
REMARK    3  A    between atoms: C5_6  and  O3_10 
REMARK    4  A    between atoms: O3_10  and  C8_11 
REMARK    5  A    between atoms: O5_14  and  C10_15 
REMARK    6  A    between atoms: C12_18  and  O7_19 
REMARK    7  A    between atoms: O7_19  and  C13_20 
REMARK    8  A    between atoms: C13_20  and  C14_21 
ROOT
HETATM    1  C1  UNL     1      -1.558   0.123  -0.457  1.00  0.00     0.143 A 
HETATM    2  C2  UNL     1      -0.375  -0.746  -0.007  1.00  0.00     0.145 A 
HETATM    3  O1  UNL     1      -0.473  -1.751   1.133  1.00  0.00    -0.351 OA
HETATM    4  C3  UNL     1      -0.650  -2.142  -0.240  1.00  0.00     0.173 A 
HETATM    5  C4  UNL     1      -2.103  -2.556  -0.548  1.00  0.00     0.184 C 
HETATM    6  C5  UNL     1      -3.033  -1.622   0.422  1.00  0.00     0.181 C 
HETATM    7  C6  UNL     1      -3.018  -0.074   0.060  1.00  0.00     0.145 A 
HETATM    8  O2  UNL     1      -1.974   0.953   0.516  1.00  0.00    -0.354 OA
HETATM    9  C7  UNL     1      -3.880   0.334  -1.161  1.00  0.00     0.035 C 
HETATM   10  C20 UNL     1       1.048  -0.167  -0.172  1.00  0.00     0.035 C 
HETATM   11  C21 UNL     1      -1.409   0.799  -1.856  1.00  0.00     0.035 C 
ENDROOT
BRANCH   4  12
HETATM   12  C12 UNL     1       0.408  -3.111  -0.842  1.00  0.00     0.184 C 
BRANCH  12  13
HETATM   13  O7  UNL     1       1.763  -2.991  -0.399  1.00  0.00    -0.296 OA
BRANCH  13  14
HETATM   14  C13 UNL     1       2.274  -4.295  -0.473  1.00  0.00     0.296 C 
HETATM   15  O8  UNL     1       1.518  -5.217  -0.805  1.00  0.00    -0.259 OA
BRANCH  14  16
HETATM   16  C14 UNL     1       3.664  -4.614  -0.166  1.00  0.00     0.063 A 
HETATM   17  C15 UNL     1       4.095  -6.014  -0.223  1.00  0.00     0.005 A 
HETATM   18  C16 UNL     1       5.359  -6.339   0.032  1.00  0.00     0.000 A 
HETATM   19  C17 UNL     1       6.325  -5.293   0.368  1.00  0.00     0.000 A 
HETATM   20  C18 UNL     1       5.937  -4.019   0.424  1.00  0.00     0.000 A 
HETATM   21  C19 UNL     1       4.539  -3.659   0.144  1.00  0.00     0.005 A 
ENDBRANCH  14  16
ENDBRANCH  13  14
ENDBRANCH  12  13
ENDBRANCH   4  12
BRANCH   5  22
HETATM   22  O5  UNL     1      -2.140  -3.988  -0.233  1.00  0.00    -0.299 OA
BRANCH  22  23
HETATM   23  C10 UNL     1      -3.162  -4.795  -0.875  1.00  0.00     0.273 C 
HETATM   24  C11 UNL     1      -4.130  -4.260  -1.925  1.00  0.00     0.106 C 
HETATM   25  O6  UNL     1      -3.213  -5.998  -0.597  1.00  0.00    -0.264 OA
ENDBRANCH  22  23
ENDBRANCH   5  22
BRANCH   6  26
HETATM   26  O3  UNL     1      -4.439  -1.962   0.474  1.00  0.00    -0.299 OA
BRANCH  26  27
HETATM   27  C8  UNL     1      -4.675  -3.090   1.295  1.00  0.00     0.273 C 
HETATM   28  C9  UNL     1      -6.071  -3.609   1.476  1.00  0.00     0.106 C 
HETATM   29  O4  UNL     1      -3.740  -3.643   1.889  1.00  0.00    -0.264 OA
ENDBRANCH  26  27
ENDBRANCH   6  26
TORSDOF 8
