REMARK  5 active torsions:
REMARK  status: ('A' for Active; 'I' for Inactive)
REMARK    1  A    between atoms: C1_1  and  C2_2 
REMARK    2  A    between atoms: C1_1  and  C10_11 
REMARK    3  A    between atoms: C2_2  and  C3_3 
REMARK    4  A    between atoms: C3_3  and  C4_4 
REMARK    5  A    between atoms: C15_16  and  O2_17 
ROOT
HETATM    1  C1  UNL     1      -0.652  -1.521   0.781  1.00  0.00     0.029 C 
ENDROOT
BRANCH   1   2
HETATM    2  C2  UNL     1       0.080  -0.180   0.818  1.00  0.00     0.009 C 
BRANCH   2   3
HETATM    3  C3  UNL     1      -0.051   0.526   2.168  1.00  0.00     0.027 C 
BRANCH   3   4
HETATM    4  C4  UNL     1       0.646   1.840   2.168  1.00  0.00    -0.022 A 
HETATM    5  C5  UNL     1      -0.100   3.031   2.168  1.00  0.00    -0.002 A 
HETATM    6  C6  UNL     1       0.558   4.272   2.168  1.00  0.00     0.027 A 
HETATM    7  C7  UNL     1       1.965   4.328   2.168  1.00  0.00     0.131 A 
HETATM    8  C8  UNL     1       2.707   3.133   2.168  1.00  0.00     0.027 A 
HETATM    9  O1  UNL     1       2.582   5.492   2.168  1.00  0.00    -0.190 OA
HETATM   10  C9  UNL     1       2.051   1.891   2.168  1.00  0.00    -0.002 A 
ENDBRANCH   3   4
ENDBRANCH   2   3
ENDBRANCH   1   2
BRANCH   1  11
HETATM   11  C10 UNL     1      -0.498  -2.193  -0.537  1.00  0.00     0.000 A 
HETATM   12  C11 UNL     1       0.465  -3.205  -0.693  1.00  0.00    -0.000 A 
HETATM   13  C12 UNL     1       0.617  -3.846  -1.935  1.00  0.00     0.027 A 
HETATM   14  C13 UNL     1      -0.192  -3.476  -3.025  1.00  0.00     0.133 A 
HETATM   15  C14 UNL     1      -1.152  -2.463  -2.865  1.00  0.00     0.051 A 
HETATM   16  O3  UNL     1      -0.047  -4.076  -4.189  1.00  0.00    -0.190 OA
HETATM   17  C15 UNL     1      -1.311  -1.818  -1.625  1.00  0.00     0.092 A 
BRANCH  17  18
HETATM   18  O2  UNL     1      -2.217  -0.871  -1.490  1.00  0.00    -0.328 OA
HETATM   19  C16 UNL     1      -2.955  -0.486  -2.641  1.00  0.00     0.181 C 
ENDBRANCH  17  18
ENDBRANCH   1  11
TORSDOF 5
