REMARK  6 active torsions:
REMARK  status: ('A' for Active; 'I' for Inactive)
REMARK    1  A    between atoms: C15_17  and  C18_21 
REMARK    2  A    between atoms: C18_21  and  C19_22 
REMARK    3  A    between atoms: C19_22  and  C20_23 
REMARK    4  A    between atoms: C20_23  and  C21_24 
REMARK    5  A    between atoms: C21_24  and  C22_25 
REMARK    6  A    between atoms: C22_25  and  C24_27 
ROOT
HETATM    1  C1  UNL     1      -5.846   0.594   1.475  1.00  0.00     0.065 C 
HETATM    2  C2  UNL     1      -6.504   0.580   0.121  1.00  0.00     0.150 C 
HETATM    3  C3  UNL     1      -5.793  -0.219  -0.949  1.00  0.00     0.052 C 
HETATM    4  C4  UNL     1      -4.289   0.184  -1.014  1.00  0.00     0.018 C 
HETATM    5  C5  UNL     1      -3.545   0.195   0.355  1.00  0.00     0.023 C 
HETATM    6  C6  UNL     1      -4.379   1.023   1.369  1.00  0.00     0.012 C 
HETATM    7  C7  UNL     1      -2.113   0.729   0.156  1.00  0.00     0.011 C 
HETATM    8  C8  UNL     1      -1.440   0.432  -0.994  1.00  0.00     0.017 C 
HETATM    9  C9  UNL     1      -2.043  -0.432  -2.041  1.00  0.00     0.169 C 
HETATM   10  C10 UNL     1      -3.529  -0.672  -2.045  1.00  0.00     0.070 C 
HETATM   11  O1  UNL     1      -1.381  -0.969  -2.897  1.00  0.00    -0.292 OA
HETATM   12  C11 UNL     1      -0.033   1.031  -1.135  1.00  0.00     0.073 C 
HETATM   13  C12 UNL     1       0.725   0.771   0.185  1.00  0.00     0.017 C 
HETATM   14  C13 UNL     1       0.076   1.654   1.252  1.00  0.00     0.070 C 
HETATM   15  C14 UNL     1      -1.440   1.559   1.215  1.00  0.00     0.169 C 
HETATM   16  O2  UNL     1      -2.057   2.172   2.053  1.00  0.00    -0.292 OA
HETATM   17  C15 UNL     1       2.191   1.055  -0.186  1.00  0.00     0.009 C 
HETATM   18  C16 UNL     1       2.303   0.326  -1.531  1.00  0.00     0.065 C 
HETATM   19  C17 UNL     1       0.945   0.498  -2.156  1.00  0.00     0.154 C 
HETATM   20  O3  UNL     1       0.715   0.271  -3.322  1.00  0.00    -0.296 OA
HETATM   21  C26 UNL     1       0.633  -0.711   0.600  1.00  0.00     0.001 C 
HETATM   22  C27 UNL     1      -0.174   2.523  -1.455  1.00  0.00     0.012 C 
HETATM   23  C28 UNL     1      -3.401  -1.232   0.902  1.00  0.00     0.004 C 
HETATM   24  C29 UNL     1      -6.459   0.045  -2.309  1.00  0.00     0.007 C 
HETATM   25  C30 UNL     1      -5.975  -1.703  -0.609  1.00  0.00     0.007 C 
HETATM   26  O7  UNL     1      -7.535   1.178  -0.082  1.00  0.00    -0.296 OA
ENDROOT
BRANCH  17  27
HETATM   27  C18 UNL     1       3.221   0.572   0.832  1.00  0.00     0.008 C 
HETATM   28  C25 UNL     1       2.955   1.240   2.182  1.00  0.00     0.001 C 
BRANCH  27  29
HETATM   29  C19 UNL     1       4.629   0.848   0.305  1.00  0.00     0.065 C 
BRANCH  29  30
HETATM   30  C20 UNL     1       5.127  -0.248  -0.600  1.00  0.00     0.151 C 
HETATM   31  O6  UNL     1       5.342  -0.039  -1.770  1.00  0.00    -0.296 OA
BRANCH  30  32
HETATM   32  C21 UNL     1       5.353  -1.609   0.000  1.00  0.00     0.075 C 
BRANCH  32  33
HETATM   33  C22 UNL     1       6.498  -1.619   1.014  1.00  0.00     0.095 C 
HETATM   34  C23 UNL     1       6.641  -2.963   1.730  1.00  0.00     0.012 C 
BRANCH  33  35
HETATM   35  C24 UNL     1       7.797  -1.145   0.420  1.00  0.00     0.185 C 
HETATM   36  O4  UNL     1       8.594  -1.930  -0.039  1.00  0.00    -0.647 OA
HETATM   37  O5  UNL     1       7.982   0.172   0.443  1.00  0.00    -0.647 OA
ENDBRANCH  33  35
ENDBRANCH  32  33
ENDBRANCH  30  32
ENDBRANCH  29  30
ENDBRANCH  27  29
ENDBRANCH  17  27
TORSDOF 6
