REMARK  4 active torsions:
REMARK  status: ('A' for Active; 'I' for Inactive)
REMARK    1  A    between atoms: C3_3  and  C8_8 
REMARK    2  A    between atoms: C8_8  and  C10_10 
REMARK    3  A    between atoms: C10_10  and  C11_11 
REMARK    4  A    between atoms: C11_11  and  C12_12 
ROOT
HETATM    1  C8  UNL     1       0.210   0.426  -0.488  1.00  0.00     0.004 C 
HETATM    2  C9  UNL     1       0.387   0.269  -1.999  1.00  0.00     0.000 C 
ENDROOT
BRANCH   1   3
HETATM    3  C3  UNL     1       1.514   0.798   0.224  1.00  0.00     0.022 C 
HETATM    4  C2  UNL     1       2.619  -0.170  -0.146  1.00  0.00    -0.027 C 
HETATM    5  C1  UNL     1       3.911   0.214  -0.176  1.00  0.00    -0.009 C 
HETATM    6  C6  UNL     1       4.338   1.592   0.147  1.00  0.00    -0.022 C 
HETATM    7  C5  UNL     1       3.281   2.606   0.532  1.00  0.00     0.026 C 
HETATM    8  C7  UNL     1       5.634   1.958   0.101  1.00  0.00    -0.004 C 
HETATM    9  C4  UNL     1       1.915   2.254  -0.074  1.00  0.00     0.009 C 
ENDBRANCH   1   3
BRANCH   1  10
HETATM   10  C10 UNL     1      -0.490  -0.773   0.152  1.00  0.00     0.005 C 
BRANCH  10  11
HETATM   11  C11 UNL     1      -1.927  -0.949  -0.340  1.00  0.00     0.025 C 
BRANCH  11  12
HETATM   12  C12 UNL     1      -2.658  -2.038   0.399  1.00  0.00    -0.034 C 
HETATM   13  C13 UNL     1      -3.969  -1.878   0.644  1.00  0.00    -0.048 C 
HETATM   14  C14 UNL     1      -4.789  -0.683   0.237  1.00  0.00     0.026 C 
HETATM   15  C15 UNL     1      -4.699  -2.967   1.382  1.00  0.00     0.026 C 
ENDBRANCH  11  12
ENDBRANCH  10  11
ENDBRANCH   1  10
TORSDOF 4
