REMARK  0 active torsions:
REMARK  status: ('A' for Active; 'I' for Inactive)
ROOT
HETATM    1  C1  UNL     1      -4.408  -0.271   1.832  1.00  0.00     0.065 C 
HETATM    2  C2  UNL     1      -5.355  -0.477   0.674  1.00  0.00     0.150 C 
HETATM    3  C3  UNL     1      -4.916  -0.014  -0.701  1.00  0.00     0.051 C 
HETATM    4  C4  UNL     1      -3.385   0.287  -0.750  1.00  0.00     0.006 C 
HETATM    5  C5  UNL     1      -2.539  -0.742   0.053  1.00  0.00     0.001 C 
HETATM    6  C6  UNL     1      -2.945  -0.668   1.553  1.00  0.00     0.008 C 
HETATM    7  C7  UNL     1      -0.994  -0.473  -0.096  1.00  0.00     0.005 C 
HETATM    8  C8  UNL     1      -0.613   0.939  -0.611  1.00  0.00     0.004 C 
HETATM    9  C9  UNL     1      -1.562   1.967   0.037  1.00  0.00     0.000 C 
HETATM   10  C10 UNL     1      -3.037   1.748  -0.353  1.00  0.00     0.000 C 
HETATM   11  C11 UNL     1       0.900   1.221  -0.307  1.00  0.00     0.015 C 
HETATM   12  C12 UNL     1       1.797   0.016  -0.600  1.00  0.00    -0.049 C 
HETATM   13  C13 UNL     1       1.275  -1.189  -0.941  1.00  0.00    -0.035 C 
HETATM   14  C14 UNL     1      -0.203  -1.500  -0.926  1.00  0.00     0.025 C 
HETATM   15  C15 UNL     1       3.309   0.248  -0.459  1.00  0.00     0.021 C 
HETATM   16  C16 UNL     1       3.688   0.949   0.891  1.00  0.00     0.029 C 
HETATM   17  C17 UNL     1       2.647   1.982   1.389  1.00  0.00     0.003 C 
HETATM   18  C18 UNL     1       1.180   1.578   1.170  1.00  0.00     0.004 C 
HETATM   19  C19 UNL     1       5.029   1.690   0.742  1.00  0.00     0.003 C 
HETATM   20  C20 UNL     1       3.924  -0.103   2.012  1.00  0.00     0.125 C 
HETATM   21  C21 UNL     1       5.074  -1.055   1.643  1.00  0.00     0.040 C 
HETATM   22  C22 UNL     1       4.309  -1.883   0.615  1.00  0.00     0.081 C 
HETATM   23  C23 UNL     1       4.207  -1.010  -0.660  1.00  0.00     0.014 C 
HETATM   24  C24 UNL     1       5.018  -3.213   0.373  1.00  0.00     0.010 C 
HETATM   25  C25 UNL     1       3.006  -2.002   1.359  1.00  0.00     0.271 C 
HETATM   26  O1  UNL     1       2.787  -0.959   2.154  1.00  0.00    -0.304 OA
HETATM   27  O2  UNL     1       2.264  -2.951   1.242  1.00  0.00    -0.264 OA
HETATM   28  C26 UNL     1       1.361   2.406  -1.182  1.00  0.00     0.004 C 
HETATM   29  C27 UNL     1      -0.814   1.018  -2.141  1.00  0.00     0.000 C 
HETATM   30  C28 UNL     1      -2.877  -2.162  -0.439  1.00  0.00     0.000 C 
HETATM   31  C29 UNL     1      -5.744   1.223  -1.076  1.00  0.00     0.007 C 
HETATM   32  C30 UNL     1      -5.272  -1.115  -1.709  1.00  0.00     0.007 C 
HETATM   33  O3  UNL     1      -6.434  -1.002   0.848  1.00  0.00    -0.296 OA
ENDROOT
TORSDOF 0
