REMARK  4 active torsions:
REMARK  status: ('A' for Active; 'I' for Inactive)
REMARK    1  A    between atoms: C5_5  and  C9_9 
REMARK    2  A    between atoms: C9_9  and  C10_10 
REMARK    3  A    between atoms: C10_10  and  C11_11 
REMARK    4  A    between atoms: C11_11  and  C12_13 
ROOT
HETATM    1  C1  UNL     1      -2.789   0.551  -0.316  1.00  0.00     0.033 C 
HETATM    2  C2  UNL     1      -2.494   2.037  -0.578  1.00  0.00     0.152 C 
HETATM    3  C3  UNL     1      -1.225   2.490   0.162  1.00  0.00     0.033 C 
HETATM    4  C4  UNL     1      -0.016   1.613  -0.205  1.00  0.00     0.003 C 
HETATM    5  C5  UNL     1      -0.315   0.113   0.019  1.00  0.00     0.001 C 
HETATM    6  C6  UNL     1      -1.602  -0.354  -0.709  1.00  0.00     0.003 C 
HETATM    7  C7  UNL     1      -1.402  -0.307  -2.231  1.00  0.00     0.000 C 
HETATM    8  C8  UNL     1      -1.928  -1.799  -0.315  1.00  0.00     0.000 C 
HETATM    9  C13 UNL     1       1.226   2.062   0.572  1.00  0.00     0.000 C 
HETATM   10  O3  UNL     1      -3.590   2.814  -0.141  1.00  0.00    -0.224 OA
ENDROOT
BRANCH   5  11
HETATM   11  C9  UNL     1       0.892  -0.754  -0.367  1.00  0.00     0.008 C 
BRANCH  11  12
HETATM   12  C10 UNL     1       1.705  -1.207   0.848  1.00  0.00     0.067 C 
BRANCH  12  13
HETATM   13  C11 UNL     1       2.906  -2.027   0.459  1.00  0.00     0.184 C 
HETATM   14  O1  UNL     1       3.174  -2.229  -0.701  1.00  0.00    -0.293 OA
BRANCH  13  15
HETATM   15  C12 UNL     1       3.764  -2.590   1.562  1.00  0.00     0.246 C 
HETATM   16  O2  UNL     1       4.512  -1.553   2.152  1.00  0.00    -0.212 OA
ENDBRANCH  13  15
ENDBRANCH  12  13
ENDBRANCH  11  12
ENDBRANCH   5  11
TORSDOF 4
