REMARK  4 active torsions:
REMARK  status: ('A' for Active; 'I' for Inactive)
REMARK    1  A    between atoms: C1_1  and  C2_2 
REMARK    2  A    between atoms: C3_3  and  C4_4 
REMARK    3  A    between atoms: C4_4  and  C5_5 
REMARK    4  A    between atoms: C5_5  and  C6_6 
ROOT
HETATM    1  C4  UNL     1      -0.713  -0.080   0.211  1.00  0.00     0.030 C 
ENDROOT
BRANCH   1   2
HETATM    2  C3  UNL     1      -1.193  -0.844  -0.994  1.00  0.00    -0.032 C 
HETATM    3  C2  UNL     1      -1.910  -1.963  -0.799  1.00  0.00    -0.015 C 
HETATM    4  C10 UNL     1      -2.195  -2.397   0.613  1.00  0.00     0.029 C 
BRANCH   3   5
HETATM    5  C1  UNL     1      -2.463  -2.842  -1.891  1.00  0.00     0.204 C 
HETATM    6  O1  UNL     1      -1.402  -3.469  -2.572  1.00  0.00    -0.216 OA
ENDBRANCH   3   5
ENDBRANCH   1   2
BRANCH   1   7
HETATM    7  C5  UNL     1       0.402   0.908  -0.131  1.00  0.00     0.030 C 
BRANCH   7   8
HETATM    8  C6  UNL     1       0.879   1.676   1.072  1.00  0.00    -0.034 C 
HETATM    9  C7  UNL     1       2.076   2.281   1.014  1.00  0.00    -0.048 C 
HETATM   10  C8  UNL     1       2.588   2.982   2.242  1.00  0.00     0.026 C 
HETATM   11  C9  UNL     1       2.844   2.229  -0.279  1.00  0.00     0.026 C 
ENDBRANCH   7   8
ENDBRANCH   1   7
TORSDOF 4
