REMARK  6 active torsions:
REMARK  status: ('A' for Active; 'I' for Inactive)
REMARK    1  A    between atoms: C3_3  and  C19_19 
REMARK    2  A    between atoms: C7_7  and  C12_12 
REMARK    3  A    between atoms: C12_12  and  C13_13 
REMARK    4  A    between atoms: C14_14  and  C15_15 
REMARK    5  A    between atoms: C19_19  and  O1_20 
REMARK    6  A    between atoms: O1_20  and  C20_21 
ROOT
HETATM    1  C1  UNL     1       2.732   0.180   0.344  1.00  0.00     0.000 C 
HETATM    2  C2  UNL     1       2.729  -1.154   1.096  1.00  0.00     0.002 C 
HETATM    3  C3  UNL     1       1.539  -2.049   0.697  1.00  0.00     0.028 C 
HETATM    4  C4  UNL     1       0.203  -1.271   0.871  1.00  0.00     0.003 C 
HETATM    5  C5  UNL     1       0.172   0.113   0.158  1.00  0.00     0.004 C 
HETATM    6  C6  UNL     1       1.416   0.938   0.561  1.00  0.00     0.000 C 
HETATM    7  C7  UNL     1      -1.107   0.881   0.596  1.00  0.00     0.023 C 
HETATM    8  C8  UNL     1      -2.357   0.026   0.555  1.00  0.00    -0.044 C 
HETATM    9  C9  UNL     1      -2.248  -1.371  -0.008  1.00  0.00     0.022 C 
HETATM   10  C10 UNL     1      -1.039  -2.144   0.545  1.00  0.00     0.004 C 
HETATM   11  C11 UNL     1      -3.533   0.494   1.016  1.00  0.00    -0.009 C 
HETATM   12  C18 UNL     1       0.176  -0.072  -1.369  1.00  0.00     0.000 C 
HETATM   13  C22 UNL     1       1.537  -3.291   1.596  1.00  0.00     0.003 C 
ENDROOT
BRANCH   3  14
HETATM   14  C19 UNL     1       1.725  -2.517  -0.754  1.00  0.00     0.152 C 
BRANCH  14  15
HETATM   15  O1  UNL     1       2.826  -3.410  -0.824  1.00  0.00    -0.302 OA
BRANCH  15  16
HETATM   16  C20 UNL     1       3.039  -3.855  -2.061  1.00  0.00     0.272 C 
HETATM   17  O2  UNL     1       2.371  -3.535  -3.016  1.00  0.00    -0.264 OA
HETATM   18  C21 UNL     1       4.193  -4.808  -2.207  1.00  0.00     0.106 C 
ENDBRANCH  15  16
ENDBRANCH  14  15
ENDBRANCH   3  14
BRANCH   7  19
HETATM   19  C12 UNL     1      -1.311   2.174  -0.209  1.00  0.00     0.030 C 
BRANCH  19  20
HETATM   20  C13 UNL     1      -1.955   3.262   0.605  1.00  0.00    -0.030 C 
HETATM   21  C14 UNL     1      -2.535   4.287  -0.039  1.00  0.00    -0.026 C 
HETATM   22  C17 UNL     1      -2.514   4.293  -1.545  1.00  0.00     0.031 C 
BRANCH  21  23
HETATM   23  C15 UNL     1      -3.191   5.401   0.656  1.00  0.00    -0.005 C 
HETATM   24  C16 UNL     1      -2.647   5.934   1.762  1.00  0.00    -0.000 C 
ENDBRANCH  21  23
ENDBRANCH  19  20
ENDBRANCH   7  19
TORSDOF 6
