REMARK  1 active torsions:
REMARK  status: ('A' for Active; 'I' for Inactive)
REMARK    1  A    between atoms: C8_8  and  C9_10 
ROOT
HETATM    1  C1  UNL     1       2.690   3.592  -0.001  1.00  0.00     0.028 A 
HETATM    2  C2  UNL     1       1.428   4.254  -0.003  1.00  0.00     0.133 A 
HETATM    3  C3  UNL     1       0.223   3.500  -0.002  1.00  0.00     0.052 A 
HETATM    4  C4  UNL     1       0.342   2.094   0.000  1.00  0.00     0.102 A 
HETATM    5  C5  UNL     1       1.541   1.448   0.001  1.00  0.00     0.025 A 
HETATM    6  C6  UNL     1       2.757   2.171   0.002  1.00  0.00     0.004 A 
HETATM    7  C7  UNL     1       1.365   0.108   0.001  1.00  0.00     0.027 A 
HETATM    8  C8  UNL     1      -0.035  -0.096   0.001  1.00  0.00     0.100 A 
HETATM    9  O1  UNL     1      -0.691   1.174   0.001  1.00  0.00    -0.307 OA
HETATM   10  O4  UNL     1       1.377   5.593  -0.008  1.00  0.00    -0.190 OA
ENDROOT
BRANCH   8  11
HETATM   11  C9  UNL     1      -0.790  -1.370   0.001  1.00  0.00     0.027 A 
HETATM   12  C10 UNL     1      -2.197  -1.356   0.001  1.00  0.00     0.029 A 
HETATM   13  C11 UNL     1      -2.916  -2.565   0.001  1.00  0.00     0.133 A 
HETATM   14  C12 UNL     1      -2.222  -3.788   0.001  1.00  0.00     0.055 A 
HETATM   15  O3  UNL     1      -4.234  -2.551   0.001  1.00  0.00    -0.190 OA
HETATM   16  C13 UNL     1      -0.817  -3.808   0.001  1.00  0.00     0.133 A 
HETATM   17  C14 UNL     1      -0.102  -2.597   0.001  1.00  0.00     0.029 A 
HETATM   18  O2  UNL     1      -0.172  -4.957   0.001  1.00  0.00    -0.190 OA
ENDBRANCH   8  11
TORSDOF 1
