REMARK  8 active torsions:
REMARK  status: ('A' for Active; 'I' for Inactive)
REMARK    1  A    between atoms: C2_2  and  O5_35 
REMARK    2  A    between atoms: C3_3  and  C30_33 
REMARK    3  A    between atoms: C16_16  and  C25_26 
REMARK    4  A    between atoms: O5_35  and  C31_36 
REMARK    5  A    between atoms: C33_38  and  O9_45 
REMARK    6  A    between atoms: C35_40  and  C36_42 
REMARK    7  A    between atoms: O9_45  and  C37_46 
REMARK    8  A    between atoms: C41_50  and  C42_52 
ROOT
HETATM    1  C1  UNL     1       1.697   0.082  -2.469  1.00  0.00     0.179 C 
HETATM    2  C2  UNL     1       2.289   0.238  -1.029  1.00  0.00     0.150 C 
HETATM    3  C3  UNL     1       1.207   0.410   0.074  1.00  0.00     0.058 C 
HETATM    4  C4  UNL     1       0.186   1.508  -0.369  1.00  0.00     0.005 C 
HETATM    5  C5  UNL     1      -0.482   1.270  -1.770  1.00  0.00     0.003 C 
HETATM    6  C6  UNL     1       0.158   0.059  -2.494  1.00  0.00     0.035 C 
HETATM    7  C7  UNL     1      -2.045   1.143  -1.684  1.00  0.00     0.005 C 
HETATM    8  C8  UNL     1      -2.631   0.397  -0.451  1.00  0.00     0.004 C 
HETATM    9  C9  UNL     1      -1.937   0.811   0.879  1.00  0.00     0.000 C 
HETATM   10  C10 UNL     1      -0.857   1.879   0.703  1.00  0.00     0.000 C 
HETATM   11  C11 UNL     1      -4.191   0.633  -0.383  1.00  0.00     0.017 C 
HETATM   12  C12 UNL     1      -4.863   0.559  -1.762  1.00  0.00    -0.049 C 
HETATM   13  C13 UNL     1      -4.164   0.475  -2.914  1.00  0.00    -0.035 C 
HETATM   14  C14 UNL     1      -2.662   0.553  -2.969  1.00  0.00     0.025 C 
HETATM   15  C15 UNL     1      -6.381   0.680  -1.848  1.00  0.00     0.030 C 
HETATM   16  C16 UNL     1      -6.801   2.057  -1.268  1.00  0.00     0.110 C 
HETATM   17  C17 UNL     1      -6.172   2.217   0.147  1.00  0.00     0.162 C 
HETATM   18  C18 UNL     1      -4.629   2.029   0.152  1.00  0.00     0.037 C 
HETATM   19  O1  UNL     1      -6.475   3.490   0.695  1.00  0.00    -0.223 OA
HETATM   20  C19 UNL     1      -8.346   2.188  -1.270  1.00  0.00     0.013 C 
HETATM   21  C20 UNL     1      -9.078   0.979  -0.666  1.00  0.00     0.001 C 
HETATM   22  C21 UNL     1      -8.688  -0.344  -1.352  1.00  0.00     0.000 C 
HETATM   23  C22 UNL     1      -7.164  -0.512  -1.246  1.00  0.00     0.005 C 
HETATM   24  C23 UNL     1      -9.131  -0.344  -2.820  1.00  0.00     0.000 C 
HETATM   25  C24 UNL     1      -9.387  -1.510  -0.648  1.00  0.00     0.000 C 
HETATM   26  C26 UNL     1      -4.746  -0.420   0.590  1.00  0.00     0.004 C 
HETATM   27  C27 UNL     1      -2.369  -1.111  -0.650  1.00  0.00     0.000 C 
HETATM   28  C28 UNL     1      -0.191   2.500  -2.652  1.00  0.00     0.000 C 
HETATM   29  C29 UNL     1       1.895   0.855   1.377  1.00  0.00     0.005 C 
HETATM   30  O16 UNL     1       2.162  -1.064  -3.164  1.00  0.00    -0.221 OA
ENDROOT
BRANCH   2  31
HETATM   31  O5  UNL     1       3.184  -0.807  -0.670  1.00  0.00    -0.329 OA
BRANCH  31  32
HETATM   32  C31 UNL     1       4.461  -0.674  -1.262  1.00  0.00     0.270 C 
HETATM   33  C32 UNL     1       5.336   0.301  -0.408  1.00  0.00     0.238 C 
HETATM   34  C33 UNL     1       6.358  -0.426   0.494  1.00  0.00     0.186 C 
HETATM   35  O15 UNL     1       6.055   1.152  -1.283  1.00  0.00    -0.215 OA
HETATM   36  C34 UNL     1       7.158  -1.498  -0.297  1.00  0.00     0.211 C 
HETATM   37  C35 UNL     1       6.440  -1.992  -1.584  1.00  0.00     0.184 C 
HETATM   38  O8  UNL     1       8.410  -0.953  -0.678  1.00  0.00    -0.218 OA
HETATM   39  O6  UNL     1       5.037  -1.973  -1.365  1.00  0.00    -0.326 OA
BRANCH  34  40
HETATM   40  O9  UNL     1       5.639  -1.068   1.531  1.00  0.00    -0.326 OA
BRANCH  40  41
HETATM   41  C37 UNL     1       6.443  -1.400   2.645  1.00  0.00     0.270 C 
HETATM   42  C38 UNL     1       5.725  -2.441   3.545  1.00  0.00     0.241 C 
HETATM   43  C39 UNL     1       6.514  -2.713   4.846  1.00  0.00     0.220 C 
HETATM   44  O14 UNL     1       5.498  -3.648   2.836  1.00  0.00    -0.215 OA
HETATM   45  C40 UNL     1       6.828  -1.355   5.516  1.00  0.00     0.215 C 
HETATM   46  O13 UNL     1       7.723  -3.406   4.553  1.00  0.00    -0.218 OA
HETATM   47  C41 UNL     1       7.514  -0.373   4.537  1.00  0.00     0.184 C 
HETATM   48  O12 UNL     1       7.635  -1.535   6.670  1.00  0.00    -0.218 OA
HETATM   49  O10 UNL     1       6.692  -0.211   3.387  1.00  0.00    -0.326 OA
BRANCH  47  50
HETATM   50  C42 UNL     1       7.711   1.023   5.135  1.00  0.00     0.214 C 
HETATM   51  O11 UNL     1       8.471   1.789   4.227  1.00  0.00    -0.218 OA
ENDBRANCH  47  50
ENDBRANCH  40  41
ENDBRANCH  34  40
BRANCH  37  52
HETATM   52  C36 UNL     1       6.826  -3.426  -1.955  1.00  0.00     0.214 C 
HETATM   53  O7  UNL     1       6.307  -3.705  -3.236  1.00  0.00    -0.218 OA
ENDBRANCH  37  52
ENDBRANCH  31  32
ENDBRANCH   2  31
BRANCH   3  54
HETATM   54  C30 UNL     1       0.527  -0.937   0.355  1.00  0.00     0.185 C 
HETATM   55  O4  UNL     1       0.592  -1.184   1.742  1.00  0.00    -0.221 OA
ENDBRANCH   3  54
BRANCH  16  56
HETATM   56  C25 UNL     1      -6.268   3.149  -2.178  1.00  0.00     0.187 C 
HETATM   57  O2  UNL     1      -5.463   2.898  -3.045  1.00  0.00    -0.647 OA
HETATM   58  O3  UNL     1      -6.748   4.367  -1.941  1.00  0.00    -0.647 OA
ENDBRANCH  16  56
TORSDOF 8
