REMARK  15 active torsions:
REMARK  status: ('A' for Active; 'I' for Inactive)
REMARK    1  A    between atoms: C1_2  and  C3_4 
REMARK    2  A    between atoms: C3_4  and  C4_5 
REMARK    3  A    between atoms: C4_5  and  C5_6 
REMARK    4  A    between atoms: C5_6  and  C6_7 
REMARK    5  A    between atoms: C6_7  and  C7_8 
REMARK    6  A    between atoms: C7_8  and  C8_9 
REMARK    7  A    between atoms: C8_9  and  C9_10 
REMARK    8  A    between atoms: C9_10  and  C10_11 
REMARK    9  A    between atoms: C10_11  and  C11_12 
REMARK   10  A    between atoms: C11_12  and  C12_13 
REMARK   11  A    between atoms: C12_13  and  C13_14 
REMARK   12  A    between atoms: C13_14  and  C14_15 
REMARK   13  A    between atoms: C14_15  and  C15_16 
REMARK   14  A    between atoms: C15_16  and  C16_17 
REMARK   15  A    between atoms: C16_17  and  C17_18 
ROOT
HETATM    1  C9  UNL     1       0.883  -0.034   0.296  1.00  0.00     0.000 C 
ENDROOT
BRANCH   1   2
HETATM    2  C8  UNL     1       1.959   0.553  -0.619  1.00  0.00     0.000 C 
BRANCH   2   3
HETATM    3  C7  UNL     1       3.359   0.469  -0.012  1.00  0.00     0.000 C 
BRANCH   3   4
HETATM    4  C6  UNL     1       4.435   1.057  -0.927  1.00  0.00     0.000 C 
BRANCH   4   5
HETATM    5  C5  UNL     1       5.836   0.973  -0.320  1.00  0.00     0.000 C 
BRANCH   5   6
HETATM    6  C4  UNL     1       6.911   1.560  -1.234  1.00  0.00     0.003 C 
BRANCH   6   7
HETATM    7  C3  UNL     1       8.312   1.477  -0.627  1.00  0.00     0.032 C 
BRANCH   7   8
HETATM    8  C1  UNL     1       9.320   2.084  -1.593  1.00  0.00     0.145 A 
HETATM    9  O1  UNL     1       9.924   3.171  -0.971  1.00  0.00    -0.352 OA
HETATM   10  C2  UNL     1      10.848   2.168  -1.245  1.00  0.00     0.172 A 
ENDBRANCH   7   8
ENDBRANCH   6   7
ENDBRANCH   5   6
ENDBRANCH   4   5
ENDBRANCH   3   4
ENDBRANCH   2   3
ENDBRANCH   1   2
BRANCH   1  11
HETATM   11  C10 UNL     1      -0.518   0.049  -0.311  1.00  0.00     0.000 C 
BRANCH  11  12
HETATM   12  C11 UNL     1      -1.593  -0.538   0.603  1.00  0.00     0.000 C 
BRANCH  12  13
HETATM   13  C12 UNL     1      -2.994  -0.454  -0.004  1.00  0.00     0.000 C 
BRANCH  13  14
HETATM   14  C13 UNL     1      -4.069  -1.042   0.911  1.00  0.00     0.000 C 
BRANCH  14  15
HETATM   15  C14 UNL     1      -5.470  -0.958   0.304  1.00  0.00     0.000 C 
BRANCH  15  16
HETATM   16  C15 UNL     1      -6.545  -1.546   1.219  1.00  0.00     0.000 C 
BRANCH  16  17
HETATM   17  C16 UNL     1      -7.946  -1.462   0.612  1.00  0.00     0.000 C 
BRANCH  17  18
HETATM   18  C17 UNL     1      -9.022  -2.049   1.526  1.00  0.00     0.000 C 
HETATM   19  C18 UNL     1     -10.422  -1.966   0.919  1.00  0.00     0.000 C 
ENDBRANCH  17  18
ENDBRANCH  16  17
ENDBRANCH  15  16
ENDBRANCH  14  15
ENDBRANCH  13  14
ENDBRANCH  12  13
ENDBRANCH  11  12
ENDBRANCH   1  11
TORSDOF 15
