REMARK  6 active torsions:
REMARK  status: ('A' for Active; 'I' for Inactive)
REMARK    1  A    between atoms: C15_15  and  C18_18 
REMARK    2  A    between atoms: C18_18  and  C20_20 
REMARK    3  A    between atoms: C20_20  and  C21_21 
REMARK    4  A    between atoms: C21_21  and  C22_22 
REMARK    5  A    between atoms: C22_22  and  C23_23 
REMARK    6  A    between atoms: C22_22  and  C26_26 
ROOT
HETATM    1  C1  UNL     1       6.732   0.104  -1.199  1.00  0.00     0.033 C 
HETATM    2  C2  UNL     1       7.287   0.049   0.232  1.00  0.00     0.152 C 
HETATM    3  C3  UNL     1       6.568  -1.008   1.102  1.00  0.00     0.033 C 
HETATM    4  C4  UNL     1       5.178  -1.432   0.564  1.00  0.00     0.006 C 
HETATM    5  C5  UNL     1       4.398  -0.232  -0.051  1.00  0.00     0.015 C 
HETATM    6  C6  UNL     1       5.203   0.307  -1.273  1.00  0.00     0.006 C 
HETATM    7  C7  UNL     1       2.978  -0.646  -0.428  1.00  0.00    -0.049 C 
HETATM    8  C8  UNL     1       2.230  -1.617   0.471  1.00  0.00     0.018 C 
HETATM    9  C9  UNL     1       2.949  -1.842   1.811  1.00  0.00     0.004 C 
HETATM   10  C10 UNL     1       4.404  -2.270   1.611  1.00  0.00     0.001 C 
HETATM   11  C11 UNL     1       0.769  -1.172   0.701  1.00  0.00     0.004 C 
HETATM   12  C12 UNL     1       0.035  -0.728  -0.596  1.00  0.00     0.004 C 
HETATM   13  C13 UNL     1       0.949  -0.709  -1.832  1.00  0.00     0.025 C 
HETATM   14  C14 UNL     1       2.334  -0.189  -1.523  1.00  0.00    -0.035 C 
HETATM   15  C15 UNL     1      -0.465   0.699  -0.297  1.00  0.00     0.000 C 
HETATM   16  C16 UNL     1      -0.666   0.688   1.211  1.00  0.00     0.000 C 
HETATM   17  C17 UNL     1       0.635   0.031   1.645  1.00  0.00     0.000 C 
HETATM   18  C28 UNL     1      -1.158  -1.666  -0.813  1.00  0.00     0.000 C 
HETATM   19  C29 UNL     1       4.244   0.885   0.992  1.00  0.00     0.004 C 
HETATM   20  O1  UNL     1       7.174   1.332   0.818  1.00  0.00    -0.224 OA
ENDROOT
BRANCH  15  21
HETATM   21  C18 UNL     1      -1.738   1.113  -1.031  1.00  0.00     0.000 C 
HETATM   22  C19 UNL     1      -1.690   2.611  -1.332  1.00  0.00     0.000 C 
BRANCH  21  23
HETATM   23  C20 UNL     1      -2.957   0.719  -0.197  1.00  0.00     0.000 C 
BRANCH  23  24
HETATM   24  C21 UNL     1      -4.274   0.885  -0.959  1.00  0.00     0.000 C 
BRANCH  24  25
HETATM   25  C22 UNL     1      -5.485   0.416  -0.154  1.00  0.00     0.000 C 
BRANCH  25  26
HETATM   26  C23 UNL     1      -6.565   1.492  -0.031  1.00  0.00     0.000 C 
HETATM   27  C24 UNL     1      -7.877   0.951   0.535  1.00  0.00     0.000 C 
HETATM   28  C25 UNL     1      -6.072   2.738   0.705  1.00  0.00     0.000 C 
ENDBRANCH  25  26
BRANCH  25  29
HETATM   29  C26 UNL     1      -6.039  -0.922  -0.647  1.00  0.00     0.000 C 
HETATM   30  C27 UNL     1      -4.971  -2.014  -0.717  1.00  0.00     0.000 C 
ENDBRANCH  25  29
ENDBRANCH  24  25
ENDBRANCH  23  24
ENDBRANCH  21  23
ENDBRANCH  15  21
TORSDOF 6
