REMARK  2 active torsions:
REMARK  status: ('A' for Active; 'I' for Inactive)
REMARK    1  A    between atoms: C8_9  and  C11_13 
REMARK    2  A    between atoms: C15_17  and  O3_19 
ROOT
HETATM    1  C1  UNL     1      -3.951   0.631   0.461  1.00  0.00     0.127 A 
HETATM    2  C2  UNL     1      -3.838   1.924   1.027  1.00  0.00     0.029 A 
HETATM    3  C3  UNL     1      -2.562   2.518   1.189  1.00  0.00     0.134 A 
HETATM    4  C4  UNL     1      -1.398   1.817   0.781  1.00  0.00     0.082 A 
HETATM    5  C5  UNL     1      -1.510   0.502   0.244  1.00  0.00     0.097 A 
HETATM    6  C6  UNL     1      -2.789  -0.078   0.068  1.00  0.00     0.026 A 
HETATM    7  C7  UNL     1      -2.912  -1.424  -0.516  1.00  0.00     0.035 C 
HETATM    8  O1  UNL     1      -0.412  -0.205  -0.102  1.00  0.00    -0.329 OA
HETATM    9  C8  UNL     1       0.875   0.149   0.418  1.00  0.00     0.153 C 
HETATM   10  C9  UNL     1       1.102   1.668   0.303  1.00  0.00     0.104 C 
HETATM   11  C10 UNL     1      -0.051   2.447   0.896  1.00  0.00     0.180 C 
HETATM   12  O2  UNL     1       0.209   3.514   1.408  1.00  0.00    -0.291 OA
HETATM   13  O5  UNL     1      -2.467   3.746   1.721  1.00  0.00    -0.190 OA
HETATM   14  C18 UNL     1      -5.049   2.653   1.447  1.00  0.00     0.035 C 
HETATM   15  O6  UNL     1      -5.162   0.076   0.295  1.00  0.00    -0.191 OA
ENDROOT
BRANCH   9  16
HETATM   16  C11 UNL     1       1.920  -0.637  -0.295  1.00  0.00     0.033 A 
HETATM   17  C12 UNL     1       1.957  -0.656  -1.703  1.00  0.00     0.129 A 
HETATM   18  C13 UNL     1       2.951  -1.402  -2.362  1.00  0.00     0.029 A 
HETATM   19  O4  UNL     1       1.070   0.018  -2.406  1.00  0.00    -0.190 OA
HETATM   20  C14 UNL     1       3.902  -2.125  -1.619  1.00  0.00     0.026 A 
HETATM   21  C15 UNL     1       3.865  -2.105  -0.215  1.00  0.00     0.094 A 
HETATM   22  C16 UNL     1       2.871  -1.359   0.445  1.00  0.00     0.024 A 
BRANCH  21  23
HETATM   23  O3  UNL     1       4.756  -2.783   0.480  1.00  0.00    -0.328 OA
HETATM   24  C17 UNL     1       5.678  -3.596  -0.231  1.00  0.00     0.181 C 
ENDBRANCH  21  23
ENDBRANCH   9  16
TORSDOF 2
