REMARK  14 active torsions:
REMARK  status: ('A' for Active; 'I' for Inactive)
REMARK    1  A    between atoms: C7_7  and  C9_11 
REMARK    2  A    between atoms: C9_11  and  C10_12 
REMARK    3  A    between atoms: C9_11  and  S1_15 
REMARK    4  A    between atoms: C10_12  and  C11_13 
REMARK    5  A    between atoms: S1_15  and  C13_16 
REMARK    6  A    between atoms: C13_16  and  C14_17 
REMARK    7  A    between atoms: C14_17  and  C15_18 
REMARK    8  A    between atoms: C14_17  and  N2_25 
REMARK       I    between atoms: C15_18  and  N1_20 
REMARK    9  A    between atoms: N1_20  and  C16_21 
REMARK   10  A    between atoms: C16_21  and  C17_22 
REMARK       I    between atoms: N2_25  and  C18_26 
REMARK   11  A    between atoms: C18_26  and  C19_27 
REMARK   12  A    between atoms: C19_27  and  C20_28 
REMARK   13  A    between atoms: C20_28  and  C21_29 
REMARK   14  A    between atoms: C21_29  and  C22_31 
ROOT
HETATM    1  C14 UNL     1       0.377  -0.652   0.883  1.00  0.00     0.197 C 
ENDROOT
BRANCH   1   2
HETATM    2  C13 UNL     1       0.442  -0.701  -0.645  1.00  0.00     0.092 C 
BRANCH   2   3
HETATM    3  S1  UNL     1      -0.951   0.201  -1.381  1.00  0.00    -0.132 SA
BRANCH   3   4
HETATM    4  C9  UNL     1      -0.541  -0.043  -3.133  1.00  0.00     0.092 C 
BRANCH   4   5
HETATM    5  C7  UNL     1      -0.744  -1.488  -3.500  1.00  0.00     0.083 A 
HETATM    6  C5  UNL     1       0.262  -2.289  -3.881  1.00  0.00    -0.011 A 
HETATM    7  C4  UNL     1      -0.262  -3.633  -4.244  1.00  0.00     0.128 A 
HETATM    8  C6  UNL     1       1.746  -2.010  -3.904  1.00  0.00     0.029 C 
HETATM    9  C3  UNL     1       0.512  -4.668  -3.463  1.00  0.00    -0.017 C 
HETATM   10  C8  UNL     1      -1.685  -3.391  -3.820  1.00  0.00     0.283 A 
HETATM   11  C2  UNL     1       1.850  -4.520  -3.346  1.00  0.00    -0.029 C 
HETATM   12  C1  UNL     1       2.543  -3.336  -4.002  1.00  0.00     0.030 C 
HETATM   13  O1  UNL     1      -1.930  -2.117  -3.465  1.00  0.00    -0.280 OA
HETATM   14  O2  UNL     1      -2.510  -4.276  -3.815  1.00  0.00    -0.263 OA
ENDBRANCH   4   5
BRANCH   4  15
HETATM   15  C10 UNL     1      -1.351   0.904  -4.022  1.00  0.00     0.017 C 
BRANCH  15  16
HETATM   16  C11 UNL     1      -1.088   2.377  -3.709  1.00  0.00     0.001 C 
HETATM   17  C12 UNL     1      -1.879   3.322  -4.611  1.00  0.00     0.000 C 
ENDBRANCH  15  16
ENDBRANCH   4  15
ENDBRANCH   3   4
ENDBRANCH   2   3
ENDBRANCH   1   2
BRANCH   1  18
HETATM   18  C15 UNL     1       1.436  -1.508   1.527  1.00  0.00     0.275 C 
HETATM   19  O3  UNL     1       2.369  -1.930   0.889  1.00  0.00    -0.268 OA
HETATM   20  N1  UNL     1       1.320  -1.801   2.857  1.00  0.00    -0.225 NA
BRANCH  20  21
HETATM   21  C16 UNL     1       2.344  -2.633   3.504  1.00  0.00     0.226 C 
BRANCH  21  22
HETATM   22  C17 UNL     1       2.045  -2.844   4.965  1.00  0.00     0.211 C 
HETATM   23  O4  UNL     1       2.928  -3.592   5.619  1.00  0.00    -0.646 OA
HETATM   24  O5  UNL     1       1.065  -2.358   5.475  1.00  0.00    -0.646 OA
ENDBRANCH  21  22
ENDBRANCH  20  21
ENDBRANCH   1  18
BRANCH   1  25
HETATM   25  N2  UNL     1       0.432   0.734   1.367  1.00  0.00    -0.229 NA
HETATM   26  C18 UNL     1      -0.443   1.141   2.334  1.00  0.00     0.252 C 
HETATM   27  O8  UNL     1      -1.256   0.369   2.785  1.00  0.00    -0.271 OA
BRANCH  26  28
HETATM   28  C19 UNL     1      -0.375   2.564   2.818  1.00  0.00     0.092 C 
BRANCH  28  29
HETATM   29  C20 UNL     1      -1.394   2.855   3.920  1.00  0.00     0.060 C 
BRANCH  29  30
HETATM   30  C21 UNL     1      -1.357   4.311   4.391  1.00  0.00     0.388 C 
HETATM   31  N3  UNL     1      -0.082   4.609   5.020  1.00  0.00     0.628 N 
BRANCH  30  32
HETATM   32  C22 UNL     1      -2.488   4.641   5.326  1.00  0.00     0.224 C 
HETATM   33  O6  UNL     1      -2.922   5.896   5.270  1.00  0.00    -0.646 OA
HETATM   34  O7  UNL     1      -2.947   3.803   6.066  1.00  0.00    -0.646 OA
ENDBRANCH  30  32
ENDBRANCH  29  30
ENDBRANCH  28  29
ENDBRANCH  26  28
ENDBRANCH   1  25
TORSDOF 14
