REMARK  5 active torsions:
REMARK  status: ('A' for Active; 'I' for Inactive)
REMARK    1  A    between atoms: C7_8  and  C16_24 
REMARK    2  A    between atoms: C9_11  and  O3_12 
REMARK    3  A    between atoms: O3_12  and  C10_13 
REMARK    4  A    between atoms: C14_17  and  C15_19 
REMARK    5  A    between atoms: C16_24  and  O10_26 
ROOT
HETATM    1  C1  UNL     1       3.315   0.467   1.555  1.00  0.00     0.028 C 
HETATM    2  C2  UNL     1       2.807  -0.781   0.879  1.00  0.00    -0.017 C 
HETATM    3  C3  UNL     1       1.539  -1.023   0.531  1.00  0.00     0.011 C 
HETATM    4  C4  UNL     1       1.381  -2.344  -0.151  1.00  0.00     0.055 C 
HETATM    5  C5  UNL     1       2.668  -3.088   0.264  1.00  0.00     0.046 C 
HETATM    6  C6  UNL     1       3.680  -1.949   0.521  1.00  0.00     0.171 C 
HETATM    7  O1  UNL     1       4.408  -1.666  -0.658  1.00  0.00    -0.219 OA
HETATM    8  C7  UNL     1       0.065  -2.979   0.250  1.00  0.00     0.069 C 
HETATM    9  C8  UNL     1      -0.859  -2.273   0.947  1.00  0.00     0.120 C 
HETATM   10  O2  UNL     1      -0.732  -0.984   1.336  1.00  0.00    -0.301 OA
HETATM   11  C9  UNL     1       0.316  -0.180   0.773  1.00  0.00     0.262 C 
ENDROOT
BRANCH  11  12
HETATM   12  O3  UNL     1      -0.113   0.395  -0.444  1.00  0.00    -0.300 OA
BRANCH  12  13
HETATM   13  C10 UNL     1      -1.215   1.266  -0.297  1.00  0.00     0.272 C 
HETATM   14  C11 UNL     1      -1.787   1.658  -1.684  1.00  0.00     0.241 C 
HETATM   15  C12 UNL     1      -2.894   2.727  -1.545  1.00  0.00     0.220 C 
HETATM   16  O8  UNL     1      -2.320   0.506  -2.319  1.00  0.00    -0.215 OA
HETATM   17  C13 UNL     1      -2.389   3.895  -0.672  1.00  0.00     0.215 C 
HETATM   18  O7  UNL     1      -3.266   3.207  -2.826  1.00  0.00    -0.218 OA
HETATM   19  C14 UNL     1      -1.799   3.389   0.662  1.00  0.00     0.184 C 
HETATM   20  O6  UNL     1      -3.457   4.781  -0.389  1.00  0.00    -0.218 OA
HETATM   21  O4  UNL     1      -0.781   2.432   0.394  1.00  0.00    -0.326 OA
BRANCH  19  22
HETATM   22  C15 UNL     1      -1.152   4.506   1.488  1.00  0.00     0.214 C 
HETATM   23  O5  UNL     1      -0.787   3.971   2.740  1.00  0.00    -0.218 OA
ENDBRANCH  19  22
ENDBRANCH  12  13
ENDBRANCH  11  12
BRANCH   8  24
HETATM   24  C16 UNL     1      -0.185  -4.375  -0.139  1.00  0.00     0.294 C 
HETATM   25  O9  UNL     1      -1.029  -5.027   0.431  1.00  0.00    -0.259 OA
BRANCH  24  26
HETATM   26  O10 UNL     1       0.565  -4.844  -1.133  1.00  0.00    -0.296 OA
HETATM   27  C17 UNL     1       0.268  -6.197  -1.444  1.00  0.00     0.185 C 
ENDBRANCH  24  26
ENDBRANCH   8  24
TORSDOF 5
