REMARK  4 active torsions:
REMARK  status: ('A' for Active; 'I' for Inactive)
REMARK    1  A    between atoms: C4_4  and  C7_8 
REMARK    2  A    between atoms: C7_8  and  C8_9 
REMARK    3  A    between atoms: C8_9  and  C9_10 
REMARK    4  A    between atoms: C11_12  and  O3_17 
ROOT
HETATM    1  C9  UNL     1      -0.984   0.777   0.644  1.00  0.00    -0.018 A 
HETATM    2  C10 UNL     1      -0.373   2.037   0.517  1.00  0.00     0.020 A 
HETATM    3  C11 UNL     1      -1.158   3.205   0.504  1.00  0.00     0.096 A 
HETATM    4  C12 UNL     1      -2.557   3.105   0.621  1.00  0.00     0.051 A 
HETATM    5  C13 UNL     1      -3.172   1.848   0.750  1.00  0.00     0.133 A 
HETATM    6  C14 UNL     1      -2.381   0.683   0.762  1.00  0.00     0.023 A 
HETATM    7  O2  UNL     1      -4.481   1.760   0.859  1.00  0.00    -0.190 OA
ENDROOT
BRANCH   1   8
HETATM    8  C8  UNL     1      -0.152  -0.453   0.658  1.00  0.00     0.031 C 
BRANCH   8   9
HETATM    9  C7  UNL     1       0.393  -0.779  -0.733  1.00  0.00     0.033 C 
BRANCH   9  10
HETATM   10  C4  UNL     1       1.174  -2.045  -0.733  1.00  0.00     0.004 A 
HETATM   11  C3  UNL     1       2.580  -1.994  -0.733  1.00  0.00    -0.002 A 
HETATM   12  C2  UNL     1       3.326  -3.186  -0.733  1.00  0.00    -0.000 A 
HETATM   13  C1  UNL     1       2.668  -4.426  -0.733  1.00  0.00     0.002 A 
HETATM   14  C6  UNL     1       1.264  -4.477  -0.733  1.00  0.00     0.027 A 
HETATM   15  C5  UNL     1       0.512  -3.289  -0.733  1.00  0.00     0.127 A 
HETATM   16  O1  UNL     1      -0.805  -3.348  -0.733  1.00  0.00    -0.191 OA
ENDBRANCH   9  10
ENDBRANCH   8   9
ENDBRANCH   1   8
BRANCH   3  17
HETATM   17  O3  UNL     1      -0.586   4.387   0.385  1.00  0.00    -0.328 OA
HETATM   18  C15 UNL     1       0.832   4.437   0.332  1.00  0.00     0.181 C 
ENDBRANCH   3  17
TORSDOF 4
