REMARK  2 active torsions:
REMARK  status: ('A' for Active; 'I' for Inactive)
REMARK    1  A    between atoms: C14_16  and  C18_20 
REMARK    2  A    between atoms: C18_20  and  O4_22 
ROOT
HETATM    1  O1  UNL     1      -3.387   3.645   0.037  1.00  0.00    -0.307 OA
HETATM    2  C1  UNL     1      -2.688   2.453   0.225  1.00  0.00     0.101 A 
HETATM    3  C2  UNL     1      -3.590   1.471   0.588  1.00  0.00     0.001 A 
HETATM    4  C3  UNL     1      -4.834   2.024   0.635  1.00  0.00     0.024 A 
HETATM    5  C4  UNL     1      -4.736   3.369   0.299  1.00  0.00     0.122 A 
HETATM    6  C5  UNL     1      -3.168   0.037   0.875  1.00  0.00     0.024 C 
HETATM    7  C6  UNL     1      -1.773  -0.221   0.238  1.00  0.00     0.007 C 
HETATM    8  C7  UNL     1      -0.746   0.877   0.660  1.00  0.00     0.036 C 
HETATM    9  C8  UNL     1      -1.187   2.236   0.090  1.00  0.00     0.160 C 
HETATM   10  O2  UNL     1      -0.787   2.145  -1.260  1.00  0.00    -0.353 OA
HETATM   11  C9  UNL     1       0.373   1.340  -1.397  1.00  0.00     0.116 C 
HETATM   12  C10 UNL     1       0.650   0.725   0.010  1.00  0.00     0.028 C 
HETATM   13  C11 UNL     1       1.148  -0.742   0.178  1.00  0.00     0.012 C 
HETATM   14  C12 UNL     1       0.117  -1.816  -0.221  1.00  0.00     0.001 C 
HETATM   15  C13 UNL     1      -1.205  -1.611   0.523  1.00  0.00     0.000 C 
HETATM   16  C14 UNL     1       2.543  -0.916  -0.471  1.00  0.00     0.086 C 
HETATM   17  C15 UNL     1       3.561   0.029   0.193  1.00  0.00     0.010 C 
HETATM   18  C16 UNL     1       3.094   1.488   0.172  1.00  0.00     0.001 C 
HETATM   19  C17 UNL     1       1.668   1.654   0.725  1.00  0.00     0.003 C 
HETATM   20  C20 UNL     1       0.096   0.358  -2.525  1.00  0.00     0.032 C 
HETATM   21  C21 UNL     1      -3.184  -0.215   2.387  1.00  0.00     0.005 C 
ENDROOT
BRANCH  16  22
HETATM   22  C18 UNL     1       3.051  -2.336  -0.383  1.00  0.00     0.271 C 
HETATM   23  O3  UNL     1       3.135  -2.900   0.684  1.00  0.00    -0.264 OA
BRANCH  22  24
HETATM   24  O4  UNL     1       3.389  -2.889  -1.543  1.00  0.00    -0.299 OA
HETATM   25  C19 UNL     1       3.863  -4.219  -1.391  1.00  0.00     0.184 C 
ENDBRANCH  22  24
ENDBRANCH  16  22
TORSDOF 2
