REMARK  1 active torsions:
REMARK  status: ('A' for Active; 'I' for Inactive)
REMARK    1  A    between atoms: C16_16  and  C24_24 
ROOT
HETATM    1  C1  UNL     1       4.935  -1.402   0.734  1.00  0.00     0.182 C 
HETATM    2  C2  UNL     1       5.527  -0.316  -0.191  1.00  0.00     0.182 C 
HETATM    3  C3  UNL     1       4.797   1.035   0.008  1.00  0.00     0.031 C 
HETATM    4  C4  UNL     1       3.248   0.893  -0.139  1.00  0.00     0.003 C 
HETATM    5  C5  UNL     1       2.615  -0.266   0.697  1.00  0.00     0.003 C 
HETATM    6  C6  UNL     1       3.424  -1.578   0.516  1.00  0.00     0.036 C 
HETATM    7  C7  UNL     1       1.127  -0.559   0.266  1.00  0.00     0.005 C 
HETATM    8  C8  UNL     1       0.396   0.605  -0.455  1.00  0.00     0.004 C 
HETATM    9  C9  UNL     1       1.242   1.148  -1.650  1.00  0.00     0.000 C 
HETATM   10  C10 UNL     1       2.740   0.818  -1.584  1.00  0.00     0.000 C 
HETATM   11  C11 UNL     1      -1.004   0.119  -0.975  1.00  0.00     0.015 C 
HETATM   12  C12 UNL     1      -1.819  -0.648   0.070  1.00  0.00    -0.049 C 
HETATM   13  C13 UNL     1      -1.213  -1.207   1.144  1.00  0.00    -0.035 C 
HETATM   14  C14 UNL     1       0.262  -1.086   1.434  1.00  0.00     0.025 C 
HETATM   15  C15 UNL     1      -3.328  -0.811  -0.152  1.00  0.00     0.028 C 
HETATM   16  C16 UNL     1      -4.035   0.434  -0.750  1.00  0.00     0.082 C 
HETATM   17  C17 UNL     1      -3.229   0.984  -1.940  1.00  0.00     0.011 C 
HETATM   18  C18 UNL     1      -1.791   1.328  -1.543  1.00  0.00     0.004 C 
HETATM   19  C19 UNL     1      -5.465   0.062  -1.236  1.00  0.00     0.011 C 
HETATM   20  C20 UNL     1      -6.102  -1.123  -0.486  1.00  0.00     0.001 C 
HETATM   21  C21 UNL     1      -5.647  -1.195   0.975  1.00  0.00     0.000 C 
HETATM   22  C22 UNL     1      -4.115  -1.357   1.074  1.00  0.00     0.004 C 
HETATM   23  C23 UNL     1      -6.381  -2.301   1.740  1.00  0.00     0.000 C 
HETATM   24  C25 UNL     1      -0.826  -0.914  -2.102  1.00  0.00     0.004 C 
HETATM   25  C26 UNL     1       0.219   1.738   0.576  1.00  0.00     0.000 C 
HETATM   26  C27 UNL     1       2.699   0.143   2.178  1.00  0.00     0.000 C 
HETATM   27  C28 UNL     1       5.129   1.553   1.414  1.00  0.00     0.003 C 
HETATM   28  C29 UNL     1       5.348   2.098  -0.957  1.00  0.00     0.003 C 
HETATM   29  O3  UNL     1       5.449  -0.719  -1.551  1.00  0.00    -0.221 OA
HETATM   30  O4  UNL     1       5.592  -2.643   0.545  1.00  0.00    -0.221 OA
ENDROOT
BRANCH  16  31
HETATM   31  C24 UNL     1      -4.137   1.512   0.311  1.00  0.00     0.184 C 
HETATM   32  O1  UNL     1      -4.862   2.574  -0.029  1.00  0.00    -0.647 OA
HETATM   33  O2  UNL     1      -3.586   1.387   1.379  1.00  0.00    -0.647 OA
ENDBRANCH  16  31
TORSDOF 1
