REMARK  9 active torsions:
REMARK  status: ('A' for Active; 'I' for Inactive)
REMARK    1  A    between atoms: C1_1  and  C7_7 
REMARK    2  A    between atoms: C7_7  and  C8_8 
REMARK    3  A    between atoms: C8_8  and  C9_9 
REMARK    4  A    between atoms: C9_9  and  C10_10 
REMARK    5  A    between atoms: C10_10  and  C11_11 
REMARK    6  A    between atoms: C11_11  and  C12_12 
REMARK    7  A    between atoms: C12_12  and  C13_13 
REMARK    8  A    between atoms: C13_13  and  C14_14 
REMARK    9  A    between atoms: C16_16  and  O3_22 
ROOT
HETATM    1  C11 UNL     1       0.412   0.678  -0.728  1.00  0.00     0.160 C 
HETATM    2  O4  UNL     1       1.682   0.432  -1.291  1.00  0.00    -0.223 OA
ENDROOT
BRANCH   1   3
HETATM    3  C10 UNL     1      -0.320  -0.658  -0.599  1.00  0.00     0.097 C 
BRANCH   3   4
HETATM    4  C9  UNL     1      -0.687  -1.244  -1.935  1.00  0.00     0.153 C 
HETATM    5  O5  UNL     1      -0.441  -0.654  -2.963  1.00  0.00    -0.296 OA
BRANCH   4   6
HETATM    6  C8  UNL     1      -1.371  -2.584  -1.959  1.00  0.00     0.069 C 
BRANCH   6   7
HETATM    7  C7  UNL     1      -1.650  -3.072  -3.381  1.00  0.00     0.034 C 
BRANCH   7   8
HETATM    8  C1  UNL     1      -2.347  -4.387  -3.381  1.00  0.00    -0.022 A 
HETATM    9  C2  UNL     1      -3.752  -4.440  -3.381  1.00  0.00    -0.004 A 
HETATM   10  C3  UNL     1      -4.410  -5.682  -3.381  1.00  0.00    -0.000 A 
HETATM   11  C4  UNL     1      -3.664  -6.871  -3.381  1.00  0.00    -0.000 A 
HETATM   12  C5  UNL     1      -2.260  -6.820  -3.381  1.00  0.00    -0.000 A 
HETATM   13  C6  UNL     1      -1.601  -5.578  -3.381  1.00  0.00    -0.004 A 
ENDBRANCH   7   8
ENDBRANCH   6   7
ENDBRANCH   4   6
ENDBRANCH   3   4
ENDBRANCH   1   3
BRANCH   1  14
HETATM   14  C12 UNL     1       0.614   1.373   0.619  1.00  0.00     0.038 C 
BRANCH  14  15
HETATM   15  C13 UNL     1       1.125   2.807   0.473  1.00  0.00     0.029 C 
BRANCH  15  16
HETATM   16  C14 UNL     1       1.264   3.475   1.793  1.00  0.00    -0.018 A 
HETATM   17  C15 UNL     1       2.481   3.402   2.493  1.00  0.00     0.022 A 
HETATM   18  C16 UNL     1       2.616   4.035   3.743  1.00  0.00     0.121 A 
HETATM   19  C17 UNL     1       1.530   4.740   4.291  1.00  0.00     0.178 A 
HETATM   20  C18 UNL     1       0.311   4.814   3.590  1.00  0.00     0.158 A 
HETATM   21  O2  UNL     1       1.653   5.334   5.461  1.00  0.00    -0.186 OA
HETATM   22  C19 UNL     1       0.180   4.182   2.342  1.00  0.00     0.025 A 
HETATM   23  O1  UNL     1      -0.709   5.475   4.102  1.00  0.00    -0.188 OA
BRANCH  18  24
HETATM   24  O3  UNL     1       3.758   3.963   4.395  1.00  0.00    -0.326 OA
HETATM   25  C20 UNL     1       4.778   3.131   3.864  1.00  0.00     0.181 C 
ENDBRANCH  18  24
ENDBRANCH  15  16
ENDBRANCH  14  15
ENDBRANCH   1  14
TORSDOF 9
