REMARK  4 active torsions:
REMARK  status: ('A' for Active; 'I' for Inactive)
REMARK    1  A    between atoms: C5_5  and  C7_7 
REMARK    2  A    between atoms: C13_14  and  O2_22 
REMARK    3  A    between atoms: C14_15  and  C16_17 
REMARK    4  A    between atoms: C16_17  and  C17_18 
ROOT
HETATM    1  C7  UNL     1       2.047  -1.766  -1.150  1.00  0.00     0.151 C 
HETATM    2  C8  UNL     1       1.371  -1.472  -2.505  1.00  0.00     0.104 C 
HETATM    3  C9  UNL     1       0.507  -0.230  -2.439  1.00  0.00     0.178 C 
HETATM    4  C10 UNL     1      -0.147   0.038  -1.128  1.00  0.00     0.057 A 
HETATM    5  C11 UNL     1       0.158  -0.786  -0.011  1.00  0.00     0.099 A 
HETATM    6  O1  UNL     1       1.076  -1.771  -0.096  1.00  0.00    -0.328 OA
HETATM    7  C12 UNL     1      -0.513  -0.573   1.217  1.00  0.00     0.048 A 
HETATM    8  C13 UNL     1      -1.452   0.477   1.344  1.00  0.00     0.092 A 
HETATM    9  C14 UNL     1      -1.726   1.321   0.239  1.00  0.00     0.005 A 
HETATM   10  C15 UNL     1      -1.073   1.101  -0.997  1.00  0.00     0.003 A 
HETATM   11  O3  UNL     1       0.410   0.437  -3.444  1.00  0.00    -0.291 OA
ENDROOT
BRANCH   1  12
HETATM   12  C5  UNL     1       2.775  -3.063  -1.150  1.00  0.00     0.006 A 
HETATM   13  C4  UNL     1       4.181  -3.082  -1.150  1.00  0.00     0.000 A 
HETATM   14  C3  UNL     1       4.867  -4.308  -1.150  1.00  0.00     0.027 A 
HETATM   15  C2  UNL     1       4.153  -5.519  -1.150  1.00  0.00     0.131 A 
HETATM   16  C1  UNL     1       2.747  -5.498  -1.150  1.00  0.00     0.027 A 
HETATM   17  O4  UNL     1       4.798  -6.669  -1.150  1.00  0.00    -0.190 OA
HETATM   18  C6  UNL     1       2.058  -4.273  -1.150  1.00  0.00     0.000 A 
ENDBRANCH   1  12
BRANCH   8  19
HETATM   19  O2  UNL     1      -2.075   0.669   2.515  1.00  0.00    -0.328 OA
HETATM   20  C21 UNL     1      -1.808  -0.243   3.570  1.00  0.00     0.181 C 
ENDBRANCH   8  19
BRANCH   9  21
HETATM   21  C16 UNL     1      -2.691   2.426   0.368  1.00  0.00     0.054 C 
BRANCH  21  22
HETATM   22  C17 UNL     1      -2.078   3.640   1.013  1.00  0.00    -0.030 C 
HETATM   23  C18 UNL     1      -2.758   4.798   0.975  1.00  0.00    -0.048 C 
HETATM   24  C19 UNL     1      -4.106   4.993   0.334  1.00  0.00     0.026 C 
HETATM   25  C20 UNL     1      -2.146   6.012   1.620  1.00  0.00     0.026 C 
ENDBRANCH  21  22
ENDBRANCH   9  21
TORSDOF 4
