REMARK  9 active torsions:
REMARK  status: ('A' for Active; 'I' for Inactive)
REMARK    1  A    between atoms: C2_2  and  C3_3 
REMARK    2  A    between atoms: C3_3  and  C4_4 
REMARK    3  A    between atoms: C4_4  and  C5_5 
REMARK    4  A    between atoms: C5_5  and  C6_6 
REMARK    5  A    between atoms: C6_6  and  C7_7 
REMARK    6  A    between atoms: C7_7  and  C8_8 
REMARK    7  A    between atoms: C8_8  and  C9_9 
REMARK    8  A    between atoms: C9_9  and  C10_10 
REMARK    9  A    between atoms: C10_10  and  C11_11 
ROOT
HETATM    1  C6  UNL     1      -0.156  -1.250   1.602  1.00  0.00     0.000 C 
HETATM    2  C14 UNL     1      -0.275  -2.727   1.980  1.00  0.00     0.000 C 
ENDROOT
BRANCH   1   3
HETATM    3  C5  UNL     1       0.697  -0.455   2.592  1.00  0.00     0.000 C 
BRANCH   3   4
HETATM    4  C4  UNL     1       0.453   1.051   2.502  1.00  0.00     0.000 C 
BRANCH   4   5
HETATM    5  C3  UNL     1       1.219   1.836   3.568  1.00  0.00     0.000 C 
BRANCH   5   6
HETATM    6  C2  UNL     1       0.904   3.332   3.539  1.00  0.00     0.000 C 
HETATM    7  C1  UNL     1       1.445   4.074   4.762  1.00  0.00     0.000 C 
HETATM    8  C15 UNL     1       1.309   3.994   2.221  1.00  0.00     0.000 C 
ENDBRANCH   5   6
ENDBRANCH   4   5
ENDBRANCH   3   4
ENDBRANCH   1   3
BRANCH   1   9
HETATM    9  C7  UNL     1       0.281  -1.047   0.150  1.00  0.00     0.000 C 
BRANCH   9  10
HETATM   10  C8  UNL     1      -0.693  -1.668  -0.852  1.00  0.00     0.000 C 
BRANCH  10  11
HETATM   11  C9  UNL     1      -0.352  -1.322  -2.301  1.00  0.00     0.000 C 
BRANCH  11  12
HETATM   12  C10 UNL     1      -1.322  -1.945  -3.303  1.00  0.00     0.000 C 
BRANCH  12  13
HETATM   13  C11 UNL     1      -0.906  -1.711  -4.754  1.00  0.00     0.000 C 
HETATM   14  C12 UNL     1      -1.635  -2.631  -5.735  1.00  0.00     0.000 C 
HETATM   15  C13 UNL     1      -0.982  -0.238  -5.158  1.00  0.00     0.000 C 
ENDBRANCH  12  13
ENDBRANCH  11  12
ENDBRANCH  10  11
ENDBRANCH   9  10
ENDBRANCH   1   9
TORSDOF 9
