REMARK  4 active torsions:
REMARK  status: ('A' for Active; 'I' for Inactive)
REMARK    1  A    between atoms: C1_1  and  C2_2 
REMARK    2  A    between atoms: C1_1  and  C5_8 
REMARK    3  A    between atoms: C2_2  and  C3_4 
REMARK    4  A    between atoms: C3_4  and  C4_6 
ROOT
HETATM    1  C2  UNL     1       0.188   0.289  -0.041  1.00  0.00     0.188 C 
HETATM    2  O1  UNL     1       0.662   0.818  -1.259  1.00  0.00    -0.221 OA
ENDROOT
BRANCH   1   3
HETATM    3  C1  UNL     1      -1.341   0.315  -0.071  1.00  0.00     0.071 C 
BRANCH   3   4
HETATM    4  C5  UNL     1      -1.906   1.734  -0.134  1.00  0.00     0.185 C 
HETATM    5  O4  UNL     1      -3.312   1.652  -0.067  1.00  0.00    -0.221 OA
ENDBRANCH   3   4
ENDBRANCH   1   3
BRANCH   1   6
HETATM    6  C3  UNL     1       0.751  -1.123   0.119  1.00  0.00     0.215 C 
HETATM    7  O2  UNL     1       0.300  -1.641   1.351  1.00  0.00    -0.218 OA
BRANCH   6   8
HETATM    8  C4  UNL     1       2.280  -1.152   0.119  1.00  0.00     0.218 C 
HETATM    9  O3  UNL     1       2.696  -2.499   0.119  1.00  0.00    -0.218 OA
ENDBRANCH   6   8
ENDBRANCH   1   6
TORSDOF 4
