REMARK  15 active torsions:
REMARK  status: ('A' for Active; 'I' for Inactive)
REMARK    1  A    between atoms: C2_2  and  O11_48 
REMARK    2  A    between atoms: C3_3  and  C37_46 
REMARK    3  A    between atoms: C16_16  and  C26_28 
REMARK    4  A    between atoms: C21_21  and  C24_24 
REMARK    5  A    between atoms: C24_24  and  O2_26 
REMARK    6  A    between atoms: C26_28  and  O3_29 
REMARK    7  A    between atoms: O3_29  and  C27_30 
REMARK    8  A    between atoms: C31_34  and  C32_36 
REMARK    9  A    between atoms: O11_48  and  C38_49 
REMARK   10  A    between atoms: C39_50  and  O20_68 
REMARK   11  A    between atoms: C41_52  and  O12_53 
REMARK   12  A    between atoms: O12_53  and  C42_54 
REMARK   13  A    between atoms: C46_58  and  C47_60 
REMARK   14  A    between atoms: O20_68  and  C49_69 
REMARK   15  A    between atoms: C53_73  and  C54_75 
ROOT
HETATM    1  C1  UNL     1      -2.086  -0.414  -0.295  1.00  0.00     0.030 C 
HETATM    2  C2  UNL     1      -3.096   0.758  -0.324  1.00  0.00     0.120 C 
HETATM    3  C3  UNL     1      -2.662   1.998   0.533  1.00  0.00     0.056 C 
HETATM    4  C4  UNL     1      -1.117   1.990   0.674  1.00  0.00     0.005 C 
HETATM    5  C5  UNL     1      -0.576   0.748   1.436  1.00  0.00     0.001 C 
HETATM    6  C6  UNL     1      -1.387  -0.525   1.063  1.00  0.00     0.003 C 
HETATM    7  C7  UNL     1       0.975   0.637   1.197  1.00  0.00     0.005 C 
HETATM    8  C8  UNL     1       1.695   1.992   0.897  1.00  0.00     0.004 C 
HETATM    9  C9  UNL     1       0.981   3.127   1.668  1.00  0.00     0.000 C 
HETATM   10  C10 UNL     1      -0.498   3.293   1.240  1.00  0.00     0.000 C 
HETATM   11  C11 UNL     1       3.199   1.801   1.275  1.00  0.00     0.015 C 
HETATM   12  C12 UNL     1       3.783   0.641   0.459  1.00  0.00    -0.049 C 
HETATM   13  C13 UNL     1       2.983  -0.355  -0.008  1.00  0.00    -0.035 C 
HETATM   14  C14 UNL     1       1.479  -0.412   0.197  1.00  0.00     0.025 C 
HETATM   15  C15 UNL     1       5.283   0.664   0.131  1.00  0.00     0.027 C 
HETATM   16  C16 UNL     1       6.156   1.533   1.094  1.00  0.00     0.082 C 
HETATM   17  C17 UNL     1       5.508   2.914   1.406  1.00  0.00     0.010 C 
HETATM   18  C18 UNL     1       4.043   3.055   0.965  1.00  0.00     0.004 C 
HETATM   19  C19 UNL     1       6.451   0.758   2.406  1.00  0.00     0.010 C 
HETATM   20  C20 UNL     1       7.057  -0.637   2.180  1.00  0.00     0.010 C 
HETATM   21  C21 UNL     1       6.193  -1.500   1.242  1.00  0.00     0.078 C 
HETATM   22  C22 UNL     1       5.951  -0.727  -0.070  1.00  0.00     0.014 C 
HETATM   23  C23 UNL     1       4.873  -1.871   1.924  1.00  0.00     0.010 C 
HETATM   24  C33 UNL     1       3.307   1.510   2.781  1.00  0.00     0.004 C 
HETATM   25  C34 UNL     1       1.625   2.354  -0.603  1.00  0.00     0.000 C 
HETATM   26  C35 UNL     1      -0.787   0.967   2.949  1.00  0.00     0.000 C 
HETATM   27  C36 UNL     1      -3.299   2.012   1.936  1.00  0.00     0.005 C 
ENDROOT
BRANCH   2  28
HETATM   28  O11 UNL     1      -4.373   0.287   0.072  1.00  0.00    -0.332 OA
BRANCH  28  29
HETATM   29  C38 UNL     1      -5.039  -0.437  -0.941  1.00  0.00     0.267 C 
HETATM   30  C39 UNL     1      -6.113  -1.371  -0.324  1.00  0.00     0.207 C 
HETATM   31  C40 UNL     1      -6.965  -2.055  -1.420  1.00  0.00     0.214 C 
HETATM   32  C41 UNL     1      -7.465  -1.004  -2.436  1.00  0.00     0.180 C 
HETATM   33  O19 UNL     1      -8.076  -2.705  -0.826  1.00  0.00    -0.218 OA
HETATM   34  C48 UNL     1      -6.313  -0.113  -2.939  1.00  0.00     0.177 C 
HETATM   35  O18 UNL     1      -5.650   0.484  -1.834  1.00  0.00    -0.326 OA
BRANCH  30  36
HETATM   36  O20 UNL     1      -5.477  -2.367   0.459  1.00  0.00    -0.324 OA
BRANCH  36  37
HETATM   37  C49 UNL     1      -5.438  -2.051   1.836  1.00  0.00     0.270 C 
HETATM   38  C50 UNL     1      -6.822  -2.322   2.504  1.00  0.00     0.241 C 
HETATM   39  C51 UNL     1      -6.857  -3.648   3.309  1.00  0.00     0.220 C 
HETATM   40  O25 UNL     1      -7.129  -1.256   3.383  1.00  0.00    -0.215 OA
HETATM   41  C52 UNL     1      -5.949  -4.715   2.658  1.00  0.00     0.215 C 
HETATM   42  O24 UNL     1      -8.188  -4.117   3.457  1.00  0.00    -0.218 OA
HETATM   43  C53 UNL     1      -4.492  -4.195   2.463  1.00  0.00     0.184 C 
HETATM   44  O23 UNL     1      -6.473  -5.104   1.399  1.00  0.00    -0.218 OA
HETATM   45  O21 UNL     1      -4.410  -2.770   2.516  1.00  0.00    -0.326 OA
BRANCH  43  46
HETATM   46  C54 UNL     1      -3.545  -4.707   3.553  1.00  0.00     0.214 C 
HETATM   47  O22 UNL     1      -2.225  -4.393   3.170  1.00  0.00    -0.218 OA
ENDBRANCH  43  46
ENDBRANCH  36  37
ENDBRANCH  30  36
BRANCH  32  48
HETATM   48  O12 UNL     1      -8.051  -1.650  -3.553  1.00  0.00    -0.326 OA
BRANCH  48  49
HETATM   49  C42 UNL     1      -8.727  -0.760  -4.420  1.00  0.00     0.270 C 
HETATM   50  C43 UNL     1      -7.967  -0.645  -5.781  1.00  0.00     0.241 C 
HETATM   51  C44 UNL     1      -8.545  -1.555  -6.902  1.00  0.00     0.220 C 
HETATM   52  O17 UNL     1      -7.910   0.721  -6.174  1.00  0.00    -0.215 OA
HETATM   53  C45 UNL     1      -9.188  -2.799  -6.252  1.00  0.00     0.215 C 
HETATM   54  O16 UNL     1      -9.531  -0.885  -7.684  1.00  0.00    -0.218 OA
HETATM   55  C46 UNL     1     -10.293  -2.438  -5.221  1.00  0.00     0.184 C 
HETATM   56  O15 UNL     1      -9.703  -3.682  -7.234  1.00  0.00    -0.218 OA
HETATM   57  O13 UNL     1     -10.084  -1.150  -4.633  1.00  0.00    -0.326 OA
BRANCH  55  58
HETATM   58  C47 UNL     1     -10.404  -3.479  -4.100  1.00  0.00     0.214 C 
HETATM   59  O14 UNL     1     -11.498  -3.129  -3.281  1.00  0.00    -0.218 OA
ENDBRANCH  55  58
ENDBRANCH  48  49
ENDBRANCH  32  48
ENDBRANCH  28  29
ENDBRANCH   2  28
BRANCH   3  60
HETATM   60  C37 UNL     1      -3.119   3.275  -0.184  1.00  0.00     0.184 C 
HETATM   61  O10 UNL     1      -4.506   3.182  -0.412  1.00  0.00    -0.221 OA
ENDBRANCH   3  60
BRANCH  16  62
HETATM   62  C26 UNL     1       7.492   1.809   0.434  1.00  0.00     0.273 C 
HETATM   63  O9  UNL     1       7.633   1.688  -0.760  1.00  0.00    -0.264 OA
BRANCH  62  64
HETATM   64  O3  UNL     1       8.465   2.186   1.260  1.00  0.00    -0.273 OA
BRANCH  64  65
HETATM   65  C27 UNL     1       9.676   2.475   0.574  1.00  0.00     0.276 C 
HETATM   66  C28 UNL     1      10.875   2.627   1.559  1.00  0.00     0.241 C 
HETATM   67  C29 UNL     1      11.990   3.578   1.027  1.00  0.00     0.220 C 
HETATM   68  O8  UNL     1      10.442   2.994   2.859  1.00  0.00    -0.215 OA
HETATM   69  C30 UNL     1      11.965   3.524  -0.516  1.00  0.00     0.215 C 
HETATM   70  O7  UNL     1      11.793   4.922   1.447  1.00  0.00    -0.218 OA
HETATM   71  C31 UNL     1      10.582   3.924  -1.117  1.00  0.00     0.184 C 
HETATM   72  O6  UNL     1      13.022   4.281  -1.082  1.00  0.00    -0.218 OA
HETATM   73  O4  UNL     1       9.524   3.654  -0.199  1.00  0.00    -0.326 OA
BRANCH  71  74
HETATM   74  C32 UNL     1      10.444   5.404  -1.494  1.00  0.00     0.214 C 
HETATM   75  O5  UNL     1       9.238   5.567  -2.207  1.00  0.00    -0.218 OA
ENDBRANCH  71  74
ENDBRANCH  64  65
ENDBRANCH  62  64
ENDBRANCH  16  62
BRANCH  21  76
HETATM   76  C24 UNL     1       6.918  -2.789   0.940  1.00  0.00     0.271 C 
HETATM   77  O1  UNL     1       7.045  -3.178  -0.197  1.00  0.00    -0.264 OA
BRANCH  76  78
HETATM   78  O2  UNL     1       7.391  -3.436   2.002  1.00  0.00    -0.299 OA
HETATM   79  C25 UNL     1       8.063  -4.635   1.649  1.00  0.00     0.184 C 
ENDBRANCH  76  78
ENDBRANCH  21  76
TORSDOF 15
