REMARK  1 active torsions:
REMARK  status: ('A' for Active; 'I' for Inactive)
REMARK    1  A    between atoms: C3_3  and  O2_16 
ROOT
HETATM    1  C1  UNL     1      -3.252  -0.356   0.246  1.00  0.00     0.158 A 
HETATM    2  C2  UNL     1      -2.543   0.842   0.438  1.00  0.00     0.178 A 
HETATM    3  C3  UNL     1      -1.127   0.867   0.383  1.00  0.00     0.121 A 
HETATM    4  C4  UNL     1      -0.361  -0.334   0.139  1.00  0.00     0.026 A 
HETATM    5  C5  UNL     1      -1.133  -1.543  -0.055  1.00  0.00     0.004 A 
HETATM    6  C6  UNL     1      -2.549  -1.545   0.000  1.00  0.00     0.030 A 
HETATM    7  C7  UNL     1      -0.514  -2.783  -0.309  1.00  0.00     0.000 A 
HETATM    8  C8  UNL     1       0.881  -2.875  -0.379  1.00  0.00     0.000 A 
HETATM    9  C9  UNL     1       1.680  -1.727  -0.195  1.00  0.00     0.002 A 
HETATM   10  C10 UNL     1       1.094  -0.430   0.068  1.00  0.00     0.027 A 
HETATM   11  C11 UNL     1       2.031   0.656   0.240  1.00  0.00     0.131 A 
HETATM   12  C12 UNL     1       3.428   0.449   0.146  1.00  0.00     0.027 A 
HETATM   13  C13 UNL     1       3.955  -0.826  -0.115  1.00  0.00     0.002 A 
HETATM   14  C14 UNL     1       3.082  -1.912  -0.285  1.00  0.00     0.000 A 
HETATM   15  O1  UNL     1       1.697   1.924   0.496  1.00  0.00    -0.190 OA
HETATM   16  O3  UNL     1      -3.223   1.975   0.670  1.00  0.00    -0.186 OA
HETATM   17  O4  UNL     1      -4.592  -0.367   0.297  1.00  0.00    -0.188 OA
ENDROOT
BRANCH   3  18
HETATM   18  O2  UNL     1      -0.600   2.078   0.578  1.00  0.00    -0.326 OA
HETATM   19  C15 UNL     1      -0.586   2.982  -0.518  1.00  0.00     0.181 C 
ENDBRANCH   3  18
TORSDOF 1
