REMARK  9 active torsions:
REMARK  status: ('A' for Active; 'I' for Inactive)
REMARK    1  A    between atoms: C4_4  and  C23_28 
REMARK    2  A    between atoms: C10_10  and  C19_22 
REMARK    3  A    between atoms: C12_13  and  C13_16 
REMARK    4  A    between atoms: C23_28  and  O6_29 
REMARK    5  A    between atoms: O6_29  and  C24_30 
REMARK    6  A    between atoms: C24_30  and  C25_31 
REMARK    7  A    between atoms: C26_32  and  C27_33 
REMARK    8  A    between atoms: C27_33  and  C28_35 
REMARK    9  A    between atoms: C29_36  and  C30_37 
ROOT
HETATM    1  C1  UNL     1      -1.975  -2.715   0.811  1.00  0.00     0.059 C 
HETATM    2  C2  UNL     1      -3.018  -2.266  -0.254  1.00  0.00     0.187 C 
HETATM    3  C3  UNL     1      -3.164  -0.713  -0.238  1.00  0.00     0.215 C 
HETATM    4  C4  UNL     1      -1.959   0.189  -0.678  1.00  0.00     0.212 C 
HETATM    5  C5  UNL     1      -0.594  -0.139  -0.002  1.00  0.00     0.190 C 
HETATM    6  C6  UNL     1       0.029  -1.535  -0.330  1.00  0.00     0.088 C 
HETATM    7  C7  UNL     1      -0.451  -2.789   0.488  1.00  0.00     0.105 C 
HETATM    8  C8  UNL     1      -0.062  -4.092  -0.295  1.00  0.00     0.028 C 
HETATM    9  C9  UNL     1       1.233  -3.906  -1.123  1.00  0.00     0.036 C 
HETATM   10  C10 UNL     1       2.203  -2.918  -0.453  1.00  0.00     0.138 C 
HETATM   11  C11 UNL     1       1.578  -1.510  -0.248  1.00  0.00     0.153 C 
HETATM   12  O1  UNL     1       1.883  -1.311   1.111  1.00  0.00    -0.309 OA
HETATM   13  C12 UNL     1       1.643  -2.531   1.756  1.00  0.00     0.318 C 
HETATM   14  O2  UNL     1       0.233  -2.805   1.766  1.00  0.00    -0.314 OA
HETATM   15  O3  UNL     1       2.397  -3.350   0.887  1.00  0.00    -0.308 OA
HETATM   16  C22 UNL     1       0.043  -5.348   0.592  1.00  0.00     0.003 C 
HETATM   17  O4  UNL     1      -0.687   0.084   1.393  1.00  0.00    -0.221 OA
HETATM   18  O5  UNL     1      -1.766   0.098  -2.080  1.00  0.00    -0.218 OA
HETATM   19  O8  UNL     1      -4.318  -0.338  -0.980  1.00  0.00    -0.218 OA
HETATM   20  C33 UNL     1      -4.340  -2.983   0.209  1.00  0.00     0.182 C 
HETATM   21  C34 UNL     1      -4.025  -3.609   1.572  1.00  0.00     0.033 C 
HETATM   22  C35 UNL     1      -2.568  -4.006   1.383  1.00  0.00     0.008 C 
HETATM   23  C36 UNL     1      -4.891  -4.791   2.012  1.00  0.00     0.003 C 
HETATM   24  O9  UNL     1      -4.793  -3.988  -0.689  1.00  0.00    -0.221 OA
HETATM   25  O10 UNL     1      -2.615  -2.678  -1.555  1.00  0.00    -0.221 OA
ENDROOT
BRANCH   4  26
HETATM   26  C23 UNL     1      -2.299   1.674  -0.449  1.00  0.00     0.178 C 
BRANCH  26  27
HETATM   27  O6  UNL     1      -1.197   2.447  -0.865  1.00  0.00    -0.347 OA
BRANCH  27  28
HETATM   28  C24 UNL     1      -1.396   3.832  -0.699  1.00  0.00     0.169 C 
BRANCH  28  29
HETATM   29  C25 UNL     1      -0.176   4.576  -1.168  1.00  0.00     0.009 C 
HETATM   30  C26 UNL     1      -0.301   5.869  -1.506  1.00  0.00     0.040 C 
BRANCH  30  31
HETATM   31  C27 UNL     1       0.859   6.641  -1.967  1.00  0.00     0.196 C 
HETATM   32  O7  UNL     1       1.945   6.117  -2.051  1.00  0.00    -0.287 OA
BRANCH  31  33
HETATM   33  C28 UNL     1       0.686   8.053  -2.328  1.00  0.00     0.042 C 
HETATM   34  C29 UNL     1       1.727   8.783  -2.754  1.00  0.00     0.003 C 
BRANCH  34  35
HETATM   35  C30 UNL     1       1.553  10.195  -3.115  1.00  0.00    -0.004 C 
HETATM   36  C31 UNL     1       2.594  10.928  -3.541  1.00  0.00    -0.026 C 
HETATM   37  C32 UNL     1       2.360  12.371  -3.898  1.00  0.00     0.031 C 
ENDBRANCH  34  35
ENDBRANCH  31  33
ENDBRANCH  30  31
ENDBRANCH  28  29
ENDBRANCH  27  28
ENDBRANCH  26  27
ENDBRANCH   4  26
BRANCH  10  38
HETATM   38  C19 UNL     1       3.541  -2.877  -1.150  1.00  0.00    -0.017 C 
HETATM   39  C20 UNL     1       4.744  -2.180  -0.574  1.00  0.00     0.029 C 
HETATM   40  C21 UNL     1       3.664  -3.490  -2.340  1.00  0.00    -0.007 C 
ENDBRANCH  10  38
BRANCH  13  41
HETATM   41  C13 UNL     1       2.197  -2.543   3.133  1.00  0.00     0.058 A 
HETATM   42  C14 UNL     1       3.504  -3.010   3.361  1.00  0.00     0.003 A 
HETATM   43  C15 UNL     1       4.029  -3.022   4.666  1.00  0.00    -0.000 A 
HETATM   44  C16 UNL     1       3.248  -2.568   5.742  1.00  0.00    -0.000 A 
HETATM   45  C17 UNL     1       1.942  -2.102   5.516  1.00  0.00    -0.000 A 
HETATM   46  C18 UNL     1       1.416  -2.090   4.211  1.00  0.00     0.003 A 
ENDBRANCH  13  41
TORSDOF 9
