REMARK  3 active torsions:
REMARK  status: ('A' for Active; 'I' for Inactive)
REMARK    1  A    between atoms: C6_8  and  C8_10 
REMARK    2  A    between atoms: C9_11  and  C10_12 
REMARK    3  A    between atoms: C11_13  and  C12_14 
REMARK       I    between atoms: C12_14  and  N1_16 
ROOT
HETATM    1  C8  UNL     1      -0.340   2.014   1.440  1.00  0.00     0.000 C 
HETATM    2  C9  UNL     1      -0.271   0.963   0.606  1.00  0.00     0.000 C 
ENDROOT
BRANCH   1   3
HETATM    3  C6  UNL     1       0.883   2.807   1.684  1.00  0.00     0.002 A 
HETATM    4  C5  UNL     1       0.787   4.182   1.973  1.00  0.00     0.002 A 
HETATM    5  C4  UNL     1       1.971   4.918   2.201  1.00  0.00     0.026 A 
HETATM    6  C3  UNL     1       3.248   4.299   2.145  1.00  0.00     0.119 A 
HETATM    7  C2  UNL     1       3.338   2.932   1.859  1.00  0.00     0.119 A 
HETATM    8  O2  UNL     1       4.477   4.787   2.320  1.00  0.00    -0.300 OA
HETATM    9  O1  UNL     1       4.621   2.570   1.858  1.00  0.00    -0.300 OA
HETATM   10  C7  UNL     1       2.151   2.187   1.629  1.00  0.00     0.026 A 
HETATM   11  C1  UNL     1       5.440   3.725   2.147  1.00  0.00     0.304 A 
ENDBRANCH   1   3
BRANCH   2  12
HETATM   12  C10 UNL     1      -1.459   0.144   0.332  1.00  0.00     0.005 C 
HETATM   13  C11 UNL     1      -1.391  -0.904  -0.502  1.00  0.00     0.060 C 
BRANCH  13  14
HETATM   14  C12 UNL     1      -2.578  -1.723  -0.775  1.00  0.00     0.257 C 
HETATM   15  O3  UNL     1      -3.658  -1.400  -0.334  1.00  0.00    -0.267 OA
HETATM   16  N1  UNL     1      -2.445  -2.883  -1.555  1.00  0.00    -0.317 N 
HETATM   17  C13 UNL     1      -3.559  -3.748  -1.891  1.00  0.00     0.104 C 
HETATM   18  C16 UNL     1      -1.180  -3.332  -2.102  1.00  0.00     0.104 C 
HETATM   19  C14 UNL     1      -2.986  -4.686  -2.955  1.00  0.00     0.026 C 
HETATM   20  C15 UNL     1      -1.482  -4.738  -2.619  1.00  0.00     0.026 C 
ENDBRANCH  13  14
ENDBRANCH   2  12
TORSDOF 3
