REMARK  1 active torsions:
REMARK  status: ('A' for Active; 'I' for Inactive)
REMARK    1  A    between atoms: C2_2  and  C13_13 
ROOT
HETATM    1  C1  UNL     1      -1.510   1.719   0.395  1.00  0.00     0.176 C 
HETATM    2  C2  UNL     1      -1.615   0.221   0.570  1.00  0.00     0.081 C 
HETATM    3  C3  UNL     1      -0.684  -0.465  -0.437  1.00  0.00     0.016 C 
HETATM    4  C4  UNL     1       0.791   0.039  -0.400  1.00  0.00     0.020 C 
HETATM    5  C5  UNL     1       0.920   1.506  -0.004  1.00  0.00    -0.020 C 
HETATM    6  C6  UNL     1      -0.154   2.275   0.270  1.00  0.00     0.034 C 
HETATM    7  C7  UNL     1       2.285   2.051   0.108  1.00  0.00    -0.009 C 
HETATM    8  C8  UNL     1       3.334   1.242   0.352  1.00  0.00    -0.026 C 
HETATM    9  C9  UNL     1       3.162  -0.256   0.512  1.00  0.00     0.026 C 
HETATM   10  C10 UNL     1       1.689  -0.734   0.600  1.00  0.00     0.008 C 
HETATM   11  C11 UNL     1       1.621  -2.256   0.412  1.00  0.00     0.001 C 
HETATM   12  C12 UNL     1       1.363  -0.121  -1.820  1.00  0.00     0.004 C 
HETATM   13  O1  UNL     1      -2.477   2.445   0.367  1.00  0.00    -0.291 OA
ENDROOT
BRANCH   2  14
HETATM   14  C13 UNL     1      -3.041  -0.254   0.420  1.00  0.00    -0.037 C 
HETATM   15  C14 UNL     1      -3.797  -0.186  -0.881  1.00  0.00     0.027 C 
HETATM   16  C15 UNL     1      -3.664  -0.762   1.496  1.00  0.00    -0.009 C 
ENDBRANCH   2  14
TORSDOF 1
