REMARK  5 active torsions:
REMARK  status: ('A' for Active; 'I' for Inactive)
REMARK    1  A    between atoms: C6_6  and  O1_7 
REMARK    2  A    between atoms: C10_11  and  C11_13 
REMARK    3  A    between atoms: C11_13  and  O4_15 
REMARK    4  A    between atoms: O4_15  and  C12_16 
REMARK    5  A    between atoms: C15_20  and  C17_22 
ROOT
HETATM    1  C1  UNL     1       0.851   1.141  -0.831  1.00  0.00     0.025 A 
HETATM    2  C2  UNL     1      -0.513   0.849  -0.958  1.00  0.00     0.094 A 
HETATM    3  C3  UNL     1      -1.102   0.000   0.005  1.00  0.00     0.049 A 
HETATM    4  C4  UNL     1      -0.357  -0.546   1.066  1.00  0.00     0.104 A 
HETATM    5  C5  UNL     1       1.026  -0.249   1.189  1.00  0.00     0.045 A 
HETATM    6  C6  UNL     1       1.644   0.610   0.224  1.00  0.00     0.094 A 
HETATM    7  C8  UNL     1       1.757  -0.876   2.355  1.00  0.00     0.006 A 
HETATM    8  C9  UNL     1       0.935  -1.730   3.244  1.00  0.00     0.030 A 
HETATM    9  C10 UNL     1      -0.378  -1.926   3.006  1.00  0.00     0.163 A 
HETATM   10  O2  UNL     1      -0.986  -1.350   1.952  1.00  0.00    -0.302 OA
HETATM   11  C14 UNL     1       3.069  -0.731   2.656  1.00  0.00     0.000 C 
HETATM   12  O5  UNL     1      -1.070   1.441  -2.013  1.00  0.00    -0.331 OA
HETATM   13  C15 UNL     1      -0.105   2.233  -2.725  1.00  0.00     0.154 A 
HETATM   14  C16 UNL     1       1.245   2.057  -1.962  1.00  0.00     0.063 A 
ENDROOT
BRANCH   9  15
HETATM   15  C11 UNL     1      -1.171  -2.779   3.902  1.00  0.00     0.319 C 
HETATM   16  O3  UNL     1      -0.655  -3.311   4.856  1.00  0.00    -0.257 OA
BRANCH  15  17
HETATM   17  O4  UNL     1      -2.457  -2.911   3.586  1.00  0.00    -0.297 OA
BRANCH  17  18
HETATM   18  C12 UNL     1      -3.154  -3.748   4.496  1.00  0.00     0.152 C 
HETATM   19  C13 UNL     1      -4.619  -3.854   4.072  1.00  0.00     0.035 C 
ENDBRANCH  17  18
ENDBRANCH  15  17
ENDBRANCH   9  15
BRANCH   6  20
HETATM   20  O1  UNL     1       2.948   0.873   0.364  1.00  0.00    -0.328 OA
HETATM   21  C7  UNL     1       3.427   2.132  -0.087  1.00  0.00     0.181 C 
ENDBRANCH   6  20
BRANCH  13  22
HETATM   22  C17 UNL     1      -0.015   1.751  -4.169  1.00  0.00     0.152 C 
HETATM   23  C18 UNL     1      -1.398   1.825  -4.818  1.00  0.00     0.036 C 
HETATM   24  O6  UNL     1       0.401   0.404  -4.169  1.00  0.00    -0.224 OA
HETATM   25  C19 UNL     1       1.033   2.575  -4.917  1.00  0.00     0.036 C 
ENDBRANCH  13  22
TORSDOF 5
