REMARK  11 active torsions:
REMARK  status: ('A' for Active; 'I' for Inactive)
REMARK    1  A    between atoms: C22_23  and  C24_25 
REMARK    2  A    between atoms: C24_25  and  O17_58 
REMARK    3  A    between atoms: C25_26  and  O11_46 
REMARK    4  A    between atoms: C26_27  and  O5_34 
REMARK    5  A    between atoms: C28_29  and  C29_31 
REMARK    6  A    between atoms: O5_34  and  C30_35 
REMARK    7  A    between atoms: C34_39  and  C35_41 
REMARK    8  A    between atoms: O11_46  and  C36_47 
REMARK    9  A    between atoms: C40_51  and  C41_53 
REMARK   10  A    between atoms: O17_58  and  C42_59 
REMARK   11  A    between atoms: C46_63  and  C47_65 
ROOT
HETATM    1  C24 UNL     1      -2.217  -0.799   0.484  1.00  0.00     0.217 C 
HETATM    2  C25 UNL     1      -3.428   0.082   0.061  1.00  0.00     0.199 C 
HETATM    3  C26 UNL     1      -4.777  -0.685   0.133  1.00  0.00     0.183 C 
HETATM    4  C27 UNL     1      -4.691  -1.887   1.107  1.00  0.00     0.211 C 
HETATM    5  C28 UNL     1      -3.707  -1.590   2.262  1.00  0.00     0.183 C 
HETATM    6  O2  UNL     1      -2.375  -1.391   1.777  1.00  0.00    -0.330 OA
HETATM    7  O4  UNL     1      -5.978  -2.154   1.635  1.00  0.00    -0.218 OA
ENDROOT
BRANCH   1   8
HETATM    8  C22 UNL     1      -0.889  -0.037   0.494  1.00  0.00     0.054 C 
HETATM    9  C21 UNL     1      -0.099  -0.310   1.783  1.00  0.00     0.005 C 
HETATM   10  C20 UNL     1       1.233   0.449   1.789  1.00  0.00     0.000 C 
HETATM   11  C19 UNL     1       2.123   0.113   0.564  1.00  0.00     0.000 C 
HETATM   12  C14 UNL     1       3.445   0.953   0.553  1.00  0.00     0.000 C 
HETATM   13  C18 UNL     1       1.328   0.336  -0.750  1.00  0.00     0.000 C 
HETATM   14  C48 UNL     1       2.488  -1.379   0.656  1.00  0.00     0.000 C 
HETATM   15  C13 UNL     1       3.438   2.287   1.338  1.00  0.00     0.000 C 
HETATM   16  C15 UNL     1       3.971   1.258  -0.865  1.00  0.00     0.000 C 
HETATM   17  C12 UNL     1       4.625   3.211   0.977  1.00  0.00     0.000 C 
HETATM   18  C11 UNL     1       5.863   2.416   0.514  1.00  0.00     0.003 C 
HETATM   19  C7  UNL     1       7.000   3.369   0.053  1.00  0.00     0.032 C 
HETATM   20  C10 UNL     1       5.471   1.608  -0.754  1.00  0.00     0.003 C 
HETATM   21  C49 UNL     1       6.330   1.514   1.656  1.00  0.00     0.000 C 
HETATM   22  C6  UNL     1       8.449   3.172   0.537  1.00  0.00     0.054 C 
HETATM   23  C8  UNL     1       7.192   3.135  -1.443  1.00  0.00     0.118 C 
HETATM   24  C5  UNL     1       9.063   2.129  -0.434  1.00  0.00     0.187 C 
HETATM   25  C50 UNL     1       9.102   4.561   0.467  1.00  0.00     0.005 C 
HETATM   26  C4  UNL     1       9.010   0.656   0.031  1.00  0.00     0.056 C 
HETATM   27  O1  UNL     1       8.260   2.219  -1.594  1.00  0.00    -0.337 OA
HETATM   28  O23 UNL     1      10.414   2.438  -0.775  1.00  0.00    -0.335 OA
HETATM   29  C3  UNL     1       9.973   0.420   1.203  1.00  0.00     0.007 C 
HETATM   30  C2  UNL     1      11.389   0.875   0.826  1.00  0.00     0.030 C 
HETATM   31  C1  UNL     1      12.037  -0.086  -0.178  1.00  0.00     0.003 C 
HETATM   32  C51 UNL     1      11.360   2.318   0.287  1.00  0.00     0.145 C 
HETATM   33  C9  UNL     1       5.885   2.516  -1.916  1.00  0.00     0.030 C 
HETATM   34  C16 UNL     1       3.664   0.133  -1.856  1.00  0.00     0.000 C 
HETATM   35  C17 UNL     1       2.147  -0.074  -2.002  1.00  0.00     0.000 C 
HETATM   36  C23 UNL     1      -0.041  -0.377  -0.742  1.00  0.00     0.005 C 
ENDBRANCH   1   8
BRANCH   1  37
HETATM   37  O17 UNL     1      -2.057  -1.830  -0.471  1.00  0.00    -0.306 OA
BRANCH  37  38
HETATM   38  C42 UNL     1      -1.367  -2.955   0.035  1.00  0.00     0.272 C 
HETATM   39  C43 UNL     1      -0.867  -3.871  -1.111  1.00  0.00     0.241 C 
HETATM   40  C44 UNL     1      -0.055  -5.063  -0.541  1.00  0.00     0.220 C 
HETATM   41  O22 UNL     1      -0.041  -3.145  -2.006  1.00  0.00    -0.215 OA
HETATM   42  C45 UNL     1      -0.558  -5.477   0.867  1.00  0.00     0.215 C 
HETATM   43  O21 UNL     1      -0.180  -6.164  -1.424  1.00  0.00    -0.218 OA
HETATM   44  C46 UNL     1      -2.027  -5.049   1.109  1.00  0.00     0.184 C 
HETATM   45  O20 UNL     1       0.264  -4.885   1.859  1.00  0.00    -0.218 OA
HETATM   46  O18 UNL     1      -2.242  -3.646   0.928  1.00  0.00    -0.326 OA
BRANCH  44  47
HETATM   47  C47 UNL     1      -3.000  -5.779   0.178  1.00  0.00     0.214 C 
HETATM   48  O19 UNL     1      -4.273  -5.775   0.779  1.00  0.00    -0.218 OA
ENDBRANCH  44  47
ENDBRANCH  37  38
ENDBRANCH   1  37
BRANCH   2  49
HETATM   49  O11 UNL     1      -3.498   1.219   0.904  1.00  0.00    -0.324 OA
BRANCH  49  50
HETATM   50  C36 UNL     1      -3.818   2.408   0.209  1.00  0.00     0.270 C 
HETATM   51  C37 UNL     1      -3.769   3.625   1.170  1.00  0.00     0.241 C 
HETATM   52  C38 UNL     1      -4.262   4.908   0.461  1.00  0.00     0.220 C 
HETATM   53  O16 UNL     1      -2.439   3.818   1.623  1.00  0.00    -0.215 OA
HETATM   54  C39 UNL     1      -5.623   4.643  -0.219  1.00  0.00     0.215 C 
HETATM   55  O15 UNL     1      -4.394   5.961   1.404  1.00  0.00    -0.218 OA
HETATM   56  C40 UNL     1      -5.568   3.383  -1.111  1.00  0.00     0.184 C 
HETATM   57  O14 UNL     1      -5.984   5.752  -1.022  1.00  0.00    -0.218 OA
HETATM   58  O12 UNL     1      -5.123   2.275  -0.338  1.00  0.00    -0.326 OA
BRANCH  56  59
HETATM   59  C41 UNL     1      -6.937   3.004  -1.688  1.00  0.00     0.214 C 
HETATM   60  O13 UNL     1      -6.752   1.959  -2.615  1.00  0.00    -0.218 OA
ENDBRANCH  56  59
ENDBRANCH  49  50
ENDBRANCH   2  49
BRANCH   3  61
HETATM   61  O5  UNL     1      -5.115  -1.164  -1.156  1.00  0.00    -0.326 OA
BRANCH  61  62
HETATM   62  C30 UNL     1      -6.387  -1.781  -1.203  1.00  0.00     0.270 C 
HETATM   63  C31 UNL     1      -6.725  -2.215  -2.654  1.00  0.00     0.241 C 
HETATM   64  C32 UNL     1      -8.170  -2.754  -2.748  1.00  0.00     0.220 C 
HETATM   65  O10 UNL     1      -5.816  -3.225  -3.068  1.00  0.00    -0.215 OA
HETATM   66  C33 UNL     1      -9.147  -1.746  -2.104  1.00  0.00     0.215 C 
HETATM   67  O9  UNL     1      -8.520  -2.961  -4.107  1.00  0.00    -0.218 OA
HETATM   68  C34 UNL     1      -8.689  -1.348  -0.684  1.00  0.00     0.184 C 
HETATM   69  O8  UNL     1     -10.440  -2.318  -2.022  1.00  0.00    -0.218 OA
HETATM   70  O6  UNL     1      -7.357  -0.852  -0.738  1.00  0.00    -0.326 OA
BRANCH  68  71
HETATM   71  C35 UNL     1      -9.553  -0.240  -0.070  1.00  0.00     0.214 C 
HETATM   72  O7  UNL     1      -9.117  -0.021   1.252  1.00  0.00    -0.218 OA
ENDBRANCH  68  71
ENDBRANCH  61  62
ENDBRANCH   3  61
BRANCH   5  73
HETATM   73  C29 UNL     1      -3.633  -2.709   3.307  1.00  0.00     0.214 C 
HETATM   74  O3  UNL     1      -2.531  -2.455   4.148  1.00  0.00    -0.218 OA
ENDBRANCH   5  73
TORSDOF 11
