REMARK  1 active torsions:
REMARK  status: ('A' for Active; 'I' for Inactive)
REMARK    1  A    between atoms: C4_4  and  C9_10 
ROOT
HETATM    1  C1  UNL     1      -0.728  -1.168  -0.695  1.00  0.00     0.035 C 
HETATM    2  C2  UNL     1      -0.965  -0.086   0.375  1.00  0.00     0.052 C 
HETATM    3  C3  UNL     1       0.063   1.031   0.395  1.00  0.00    -0.030 C 
HETATM    4  C4  UNL     1       1.381   0.883   0.135  1.00  0.00    -0.021 C 
HETATM    5  C5  UNL     1       2.057  -0.434  -0.211  1.00  0.00     0.027 C 
HETATM    6  C6  UNL     1       1.486  -1.680   0.488  1.00  0.00     0.035 C 
HETATM    7  C7  UNL     1       0.223  -2.271  -0.180  1.00  0.00     0.128 C 
HETATM    8  C8  UNL     1      -0.496  -3.225   0.787  1.00  0.00     0.033 C 
HETATM    9  O1  UNL     1       0.623  -3.053  -1.289  1.00  0.00    -0.226 OA
HETATM   10  C12 UNL     1      -2.391   0.389   0.055  1.00  0.00     0.131 C 
HETATM   11  C13 UNL     1      -3.101  -0.937  -0.199  1.00  0.00     0.031 C 
HETATM   12  C14 UNL     1      -2.125  -1.654  -1.123  1.00  0.00     0.005 C 
HETATM   13  C15 UNL     1      -2.486   1.320  -1.154  1.00  0.00     0.033 C 
HETATM   14  O3  UNL     1      -2.969   1.045   1.166  1.00  0.00    -0.226 OA
ENDROOT
BRANCH   4  15
HETATM   15  C9  UNL     1       2.272   2.098   0.191  1.00  0.00     0.142 C 
HETATM   16  O2  UNL     1       2.977   2.006  -1.025  1.00  0.00    -0.222 OA
HETATM   17  C10 UNL     1       3.281   2.029   1.338  1.00  0.00     0.037 C 
HETATM   18  C11 UNL     1       1.475   3.404   0.184  1.00  0.00     0.037 C 
ENDBRANCH   4  15
TORSDOF 1
