REMARK  4 active torsions:
REMARK  status: ('A' for Active; 'I' for Inactive)
REMARK    1  A    between atoms: C15_15  and  C18_18 
REMARK    2  A    between atoms: C18_18  and  C20_21 
REMARK    3  A    between atoms: C20_21  and  C21_22 
REMARK    4  A    between atoms: C22_23  and  C23_24 
ROOT
HETATM    1  C1  UNL     1      -5.490  -1.824   0.481  1.00  0.00     0.033 C 
HETATM    2  C2  UNL     1      -6.168  -0.438   0.455  1.00  0.00     0.152 C 
HETATM    3  C3  UNL     1      -5.451   0.582   1.369  1.00  0.00     0.028 C 
HETATM    4  C4  UNL     1      -3.959   0.769   0.940  1.00  0.00     0.002 C 
HETATM    5  C5  UNL     1      -3.250  -0.529   0.406  1.00  0.00     0.000 C 
HETATM    6  C6  UNL     1      -4.008  -1.783   0.902  1.00  0.00     0.003 C 
HETATM    7  C7  UNL     1      -1.756  -0.594   0.867  1.00  0.00     0.000 C 
HETATM    8  C8  UNL     1      -1.026   0.781   0.746  1.00  0.00     0.000 C 
HETATM    9  C9  UNL     1      -1.756   1.900   1.539  1.00  0.00     0.000 C 
HETATM   10  C10 UNL     1      -3.143   1.480   2.039  1.00  0.00     0.000 C 
HETATM   11  C11 UNL     1       0.412   0.596   1.315  1.00  0.00     0.000 C 
HETATM   12  C12 UNL     1       1.176  -0.477   0.522  1.00  0.00     0.002 C 
HETATM   13  C13 UNL     1       0.502  -1.842   0.686  1.00  0.00     0.000 C 
HETATM   14  C14 UNL     1      -0.947  -1.727   0.180  1.00  0.00     0.000 C 
HETATM   15  C15 UNL     1       2.607  -0.365   1.047  1.00  0.00     0.028 C 
HETATM   16  C16 UNL     1       2.785   1.150   1.215  1.00  0.00     0.003 C 
HETATM   17  C17 UNL     1       1.385   1.768   1.139  1.00  0.00     0.000 C 
HETATM   18  C26 UNL     1       0.400   0.254   2.815  1.00  0.00     0.000 C 
HETATM   19  C27 UNL     1      -0.922   1.199  -0.732  1.00  0.00     0.000 C 
HETATM   20  C28 UNL     1      -3.297  -0.533  -1.131  1.00  0.00     0.000 C 
HETATM   21  C29 UNL     1      -6.180   1.934   1.328  1.00  0.00     0.003 C 
HETATM   22  C30 UNL     1      -5.553   0.074   2.817  1.00  0.00     0.003 C 
HETATM   23  O3  UNL     1      -6.203   0.047  -0.877  1.00  0.00    -0.224 OA
ENDROOT
BRANCH  15  24
HETATM   24  C18 UNL     1       3.627  -0.971   0.088  1.00  0.00     0.131 C 
HETATM   25  C19 UNL     1       5.039  -0.611   0.553  1.00  0.00     0.033 C 
HETATM   26  O1  UNL     1       3.484  -2.373   0.123  1.00  0.00    -0.226 OA
BRANCH  24  27
HETATM   27  C20 UNL     1       3.334  -0.494  -1.334  1.00  0.00     0.056 C 
BRANCH  27  28
HETATM   28  C21 UNL     1       4.533  -0.615  -2.238  1.00  0.00    -0.026 C 
HETATM   29  C22 UNL     1       5.115   0.510  -2.684  1.00  0.00    -0.001 C 
BRANCH  29  30
HETATM   30  C23 UNL     1       6.314   0.391  -3.586  1.00  0.00     0.145 C 
HETATM   31  C24 UNL     1       6.061   0.978  -4.975  1.00  0.00     0.038 C 
HETATM   32  C25 UNL     1       6.861  -1.035  -3.641  1.00  0.00     0.038 C 
HETATM   33  O2  UNL     1       7.262   1.201  -2.930  1.00  0.00    -0.222 OA
ENDBRANCH  29  30
ENDBRANCH  27  28
ENDBRANCH  24  27
ENDBRANCH  15  24
TORSDOF 4
