REMARK  0 active torsions:
REMARK  status: ('A' for Active; 'I' for Inactive)
ROOT
HETATM    1  C1  UNL     1       1.070  -2.691   0.805  1.00  0.00     0.006 C 
HETATM    2  C2  UNL     1       2.311  -2.535  -0.074  1.00  0.00     0.024 C 
HETATM    3  C3  UNL     1       3.000  -1.195   0.205  1.00  0.00     0.097 C 
HETATM    4  N1  UNL     1       2.080  -0.094  -0.074  1.00  0.00    -0.370 N 
HETATM    5  C4  UNL     1       0.775  -0.129   0.621  1.00  0.00     0.080 C 
HETATM    6  C5  UNL     1       0.086  -1.520   0.648  1.00  0.00     0.043 C 
HETATM    7  C6  UNL     1      -0.910  -1.691  -0.516  1.00  0.00     0.106 C 
HETATM    8  N2  UNL     1      -1.967  -0.641  -0.459  1.00  0.00    -0.318 N 
HETATM    9  C7  UNL     1      -1.607   0.705   0.102  1.00  0.00     0.090 C 
HETATM   10  C8  UNL     1      -0.094   0.949  -0.066  1.00  0.00     0.041 C 
HETATM   11  C9  UNL     1       0.410   2.348   0.338  1.00  0.00     0.006 C 
HETATM   12  C10 UNL     1       1.932   2.344   0.604  1.00  0.00     0.024 C 
HETATM   13  C11 UNL     1       2.697   1.250  -0.180  1.00  0.00     0.097 C 
HETATM   14  C12 UNL     1      -2.455   1.832  -0.535  1.00  0.00     0.049 C 
HETATM   15  C13 UNL     1      -3.920   1.477  -0.654  1.00  0.00    -0.019 C 
HETATM   16  C14 UNL     1      -4.268   0.190  -0.842  1.00  0.00     0.056 C 
HETATM   17  C15 UNL     1      -3.254  -0.885  -0.894  1.00  0.00     0.257 C 
HETATM   18  O1  UNL     1      -3.568  -1.973  -1.322  1.00  0.00    -0.267 OA
ENDROOT
TORSDOF 0
