REMARK  1 active torsions:
REMARK  status: ('A' for Active; 'I' for Inactive)
REMARK    1  A    between atoms: C7_8  and  C9_10 
ROOT
HETATM    1  C1  UNL     1      -2.475   0.807  -0.080  1.00  0.00     0.105 A 
HETATM    2  C2  UNL     1      -2.529  -0.533  -0.529  1.00  0.00     0.023 A 
HETATM    3  C3  UNL     1      -1.342  -1.211  -0.871  1.00  0.00    -0.000 A 
HETATM    4  C4  UNL     1      -0.086  -0.557  -0.768  1.00  0.00     0.003 A 
HETATM    5  C5  UNL     1      -0.012   0.772  -0.318  1.00  0.00     0.092 A 
HETATM    6  C6  UNL     1      -1.219   1.441   0.020  1.00  0.00     0.049 A 
HETATM    7  O1  UNL     1       1.242   1.221  -0.277  1.00  0.00    -0.333 OA
HETATM    8  C7  UNL     1       2.168   0.201  -0.693  1.00  0.00     0.126 A 
HETATM    9  C8  UNL     1       1.307  -1.045  -1.066  1.00  0.00     0.058 A 
HETATM   10  C12 UNL     1      -3.853  -1.201  -0.629  1.00  0.00     0.007 A 
HETATM   11  C13 UNL     1      -4.955  -0.502  -0.291  1.00  0.00     0.069 A 
HETATM   12  C14 UNL     1      -4.832   0.900   0.172  1.00  0.00     0.300 A 
HETATM   13  O2  UNL     1      -3.609   1.465   0.248  1.00  0.00    -0.273 OA
HETATM   14  O3  UNL     1      -5.840   1.500   0.467  1.00  0.00    -0.259 OA
ENDROOT
BRANCH   8  15
HETATM   15  C9  UNL     1       3.131  -0.102   0.449  1.00  0.00     0.028 C 
HETATM   16  C10 UNL     1       2.338  -0.346   1.734  1.00  0.00     0.003 C 
HETATM   17  C11 UNL     1       4.139   1.041   0.584  1.00  0.00     0.003 C 
ENDBRANCH   8  15
TORSDOF 1
