REMARK  0 active torsions:
REMARK  status: ('A' for Active; 'I' for Inactive)
ROOT
HETATM    1  C1  UNL     1       3.510  -1.176  -0.789  1.00  0.00     0.005 C 
HETATM    2  C2  UNL     1       4.023  -0.326   0.363  1.00  0.00     0.004 C 
HETATM    3  C3  UNL     1       3.211   0.975   0.477  1.00  0.00     0.022 C 
HETATM    4  C4  UNL     1       1.699   0.752   0.377  1.00  0.00     0.012 A 
HETATM    5  C5  UNL     1       1.152  -0.426  -0.037  1.00  0.00    -0.021 A 
HETATM    6  C6  UNL     1       2.053  -1.557  -0.525  1.00  0.00     0.026 C 
HETATM    7  C7  UNL     1      -0.342  -0.619  -0.023  1.00  0.00     0.026 A 
HETATM    8  C8  UNL     1      -1.203   0.557   0.324  1.00  0.00     0.027 A 
HETATM    9  C9  UNL     1      -0.645   1.727   0.678  1.00  0.00     0.044 A 
HETATM   10  C10 UNL     1       0.812   1.887   0.738  1.00  0.00     0.191 A 
HETATM   11  O1  UNL     1       1.266   2.957   1.080  1.00  0.00    -0.287 OA
HETATM   12  C11 UNL     1      -2.672   0.420   0.281  1.00  0.00     0.093 A 
HETATM   13  C12 UNL     1      -3.233  -0.746  -0.031  1.00  0.00     0.043 A 
HETATM   14  C13 UNL     1      -2.424  -1.935  -0.326  1.00  0.00     0.219 A 
HETATM   15  C14 UNL     1      -0.947  -1.812  -0.301  1.00  0.00     0.169 A 
HETATM   16  O2  UNL     1      -0.258  -2.920  -0.557  1.00  0.00    -0.187 OA
HETATM   17  O3  UNL     1      -2.955  -2.990  -0.584  1.00  0.00    -0.285 OA
HETATM   18  C15 UNL     1      -4.723  -0.644  -0.029  1.00  0.00     0.058 A 
HETATM   19  C16 UNL     1      -4.877   0.801   0.477  1.00  0.00     0.153 A 
HETATM   20  O4  UNL     1      -3.565   1.377   0.533  1.00  0.00    -0.331 OA
HETATM   21  C17 UNL     1      -5.320  -0.820  -1.422  1.00  0.00     0.007 C 
HETATM   22  C18 UNL     1       3.615   1.928  -0.654  1.00  0.00     0.004 C 
HETATM   23  C19 UNL     1       3.572   1.623   1.820  1.00  0.00     0.004 C 
ENDROOT
TORSDOF 0
