REMARK  5 active torsions:
REMARK  status: ('A' for Active; 'I' for Inactive)
REMARK    1  A    between atoms: C2_2  and  O6_23 
REMARK    2  A    between atoms: C12_14  and  C13_15 
REMARK    3  A    between atoms: C13_15  and  O3_16 
REMARK    4  A    between atoms: O3_16  and  C14_17 
REMARK    5  A    between atoms: O6_23  and  C18_24 
ROOT
HETATM    1  C1  UNL     1      -2.063  -0.451   0.576  1.00  0.00     0.067 C 
HETATM    2  C2  UNL     1      -1.613   0.742  -0.270  1.00  0.00     0.145 C 
HETATM    3  C3  UNL     1      -1.189   0.299  -1.654  1.00  0.00    -0.015 C 
HETATM    4  C4  UNL     1      -0.219  -0.865  -1.760  1.00  0.00     0.055 C 
HETATM    5  C5  UNL     1      -0.590  -2.057  -0.811  1.00  0.00     0.035 C 
HETATM    6  C6  UNL     1      -0.975  -1.537   0.611  1.00  0.00     0.155 C 
HETATM    7  O1  UNL     1      -1.424  -2.603   1.428  1.00  0.00    -0.223 OA
HETATM    8  C7  UNL     1       0.604  -3.051  -0.729  1.00  0.00     0.007 C 
HETATM    9  C8  UNL     1       1.861  -2.447  -0.072  1.00  0.00     0.024 C 
HETATM   10  C9  UNL     1       1.969  -0.992  -0.441  1.00  0.00    -0.013 C 
HETATM   11  C10 UNL     1       1.266  -0.434  -1.647  1.00  0.00     0.147 C 
HETATM   12  O2  UNL     1       1.447   0.990  -1.518  1.00  0.00    -0.297 OA
HETATM   13  C11 UNL     1       2.289   1.231  -0.498  1.00  0.00     0.294 C 
HETATM   14  C12 UNL     1       2.602  -0.008   0.195  1.00  0.00     0.066 C 
HETATM   15  O5  UNL     1       2.727   2.311  -0.180  1.00  0.00    -0.259 OA
HETATM   16  C16 UNL     1      -1.793  -2.795  -1.426  1.00  0.00     0.003 C 
HETATM   17  C17 UNL     1      -1.654   0.906  -2.762  1.00  0.00    -0.007 C 
ENDROOT
BRANCH  14  18
HETATM   18  C13 UNL     1       3.465  -0.148   1.422  1.00  0.00     0.183 C 
BRANCH  18  19
HETATM   19  O3  UNL     1       3.387   1.041   2.193  1.00  0.00    -0.297 OA
BRANCH  19  20
HETATM   20  C14 UNL     1       2.215   1.168   2.811  1.00  0.00     0.273 C 
HETATM   21  C15 UNL     1       2.080   2.389   3.680  1.00  0.00     0.106 C 
HETATM   22  O4  UNL     1       1.307   0.379   2.699  1.00  0.00    -0.264 OA
ENDBRANCH  19  20
ENDBRANCH  18  19
ENDBRANCH  14  18
BRANCH   2  23
HETATM   23  O6  UNL     1      -2.674   1.690  -0.332  1.00  0.00    -0.300 OA
BRANCH  23  24
HETATM   24  C18 UNL     1      -2.236   2.924  -0.570  1.00  0.00     0.273 C 
HETATM   25  C19 UNL     1      -3.289   3.998  -0.508  1.00  0.00     0.106 C 
HETATM   26  O7  UNL     1      -1.086   3.193  -0.822  1.00  0.00    -0.264 OA
ENDBRANCH  23  24
ENDBRANCH   2  23
TORSDOF 5
