REMARK  11 active torsions:
REMARK  status: ('A' for Active; 'I' for Inactive)
REMARK    1  A    between atoms: C2_2  and  C27_37 
REMARK    2  A    between atoms: C4_4  and  O6_22 
REMARK    3  A    between atoms: C6_6  and  O1_7 
REMARK    4  A    between atoms: O1_7  and  C7_8 
REMARK    5  A    between atoms: C7_8  and  C8_9 
REMARK    6  A    between atoms: C8_9  and  C9_10 
REMARK    7  A    between atoms: C10_11  and  C11_12 
REMARK    8  A    between atoms: O6_22  and  C17_23 
REMARK    9  A    between atoms: C17_23  and  C18_24 
REMARK   10  A    between atoms: C18_24  and  C19_25 
REMARK   11  A    between atoms: C20_26  and  C21_27 
ROOT
HETATM    1  C1  UNL     1       3.461  -2.699  -2.807  1.00  0.00     0.073 C 
HETATM    2  C2  UNL     1       4.545  -1.752  -2.231  1.00  0.00     0.208 C 
HETATM    3  C3  UNL     1       4.109  -0.272  -2.303  1.00  0.00     0.073 C 
HETATM    4  C4  UNL     1       2.705  -0.039  -1.705  1.00  0.00     0.152 C 
HETATM    5  C5  UNL     1       1.627  -0.945  -2.354  1.00  0.00     0.206 C 
HETATM    6  C6  UNL     1       2.025  -2.438  -2.293  1.00  0.00     0.152 C 
HETATM    7  O5  UNL     1       1.441  -0.598  -3.717  1.00  0.00    -0.218 OA
HETATM    8  O10 UNL     1       4.770  -2.086  -0.873  1.00  0.00    -0.215 OA
ENDROOT
BRANCH   4   9
HETATM    9  O6  UNL     1       2.359   1.328  -1.830  1.00  0.00    -0.346 OA
BRANCH   9  10
HETATM   10  C17 UNL     1       1.172   1.666  -1.148  1.00  0.00     0.211 C 
BRANCH  10  11
HETATM   11  C18 UNL     1       1.064   3.164  -1.039  1.00  0.00     0.203 C 
HETATM   12  O9  UNL     1       2.051   3.852  -0.916  1.00  0.00    -0.289 OA
BRANCH  11  13
HETATM   13  C19 UNL     1      -0.270   3.777  -1.086  1.00  0.00     0.040 C 
HETATM   14  C20 UNL     1      -0.412   5.109  -0.998  1.00  0.00     0.003 C 
BRANCH  14  15
HETATM   15  C21 UNL     1      -1.789   5.688  -1.051  1.00  0.00     0.002 A 
HETATM   16  C22 UNL     1      -2.803   5.029  -1.766  1.00  0.00     0.002 A 
HETATM   17  C23 UNL     1      -4.098   5.574  -1.813  1.00  0.00     0.029 A 
HETATM   18  C24 UNL     1      -4.381   6.779  -1.147  1.00  0.00     0.156 A 
HETATM   19  C25 UNL     1      -3.365   7.441  -0.430  1.00  0.00     0.156 A 
HETATM   20  O8  UNL     1      -5.598   7.287  -1.195  1.00  0.00    -0.188 OA
HETATM   21  C26 UNL     1      -2.072   6.893  -0.383  1.00  0.00     0.029 A 
HETATM   22  O7  UNL     1      -3.625   8.570   0.197  1.00  0.00    -0.188 OA
ENDBRANCH  14  15
ENDBRANCH  11  13
ENDBRANCH  10  11
ENDBRANCH   9  10
ENDBRANCH   4   9
BRANCH   2  23
HETATM   23  C27 UNL     1       5.859  -1.953  -2.945  1.00  0.00     0.214 C 
HETATM   24  O11 UNL     1       6.559  -1.012  -3.234  1.00  0.00    -0.646 OA
HETATM   25  O12 UNL     1       6.166  -3.219  -3.219  1.00  0.00    -0.646 OA
ENDBRANCH   2  23
BRANCH   6  26
HETATM   26  O1  UNL     1       1.906  -2.893  -0.959  1.00  0.00    -0.346 OA
BRANCH  26  27
HETATM   27  C7  UNL     1       0.578  -2.900  -0.490  1.00  0.00     0.211 C 
BRANCH  27  28
HETATM   28  C8  UNL     1       0.465  -3.840   0.682  1.00  0.00     0.203 C 
HETATM   29  O4  UNL     1       1.135  -4.844   0.742  1.00  0.00    -0.289 OA
BRANCH  28  30
HETATM   30  C9  UNL     1      -0.480  -3.512   1.756  1.00  0.00     0.040 C 
HETATM   31  C10 UNL     1      -0.609  -4.317   2.822  1.00  0.00     0.003 C 
BRANCH  31  32
HETATM   32  C11 UNL     1      -1.584  -3.942   3.891  1.00  0.00     0.002 A 
HETATM   33  C12 UNL     1      -1.881  -2.588   4.131  1.00  0.00     0.002 A 
HETATM   34  C13 UNL     1      -2.799  -2.238   5.137  1.00  0.00     0.029 A 
HETATM   35  C14 UNL     1      -3.422  -3.236   5.904  1.00  0.00     0.156 A 
HETATM   36  C15 UNL     1      -3.127  -4.592   5.666  1.00  0.00     0.156 A 
HETATM   37  O3  UNL     1      -4.281  -2.900   6.846  1.00  0.00    -0.188 OA
HETATM   38  C16 UNL     1      -2.209  -4.942   4.658  1.00  0.00     0.029 A 
HETATM   39  O2  UNL     1      -3.707  -5.533   6.381  1.00  0.00    -0.188 OA
ENDBRANCH  31  32
ENDBRANCH  28  30
ENDBRANCH  27  28
ENDBRANCH  26  27
ENDBRANCH   6  26
TORSDOF 11
