REMARK  1 active torsions:
REMARK  status: ('A' for Active; 'I' for Inactive)
REMARK    1  A    between atoms: C8_8  and  C13_13 
ROOT
HETATM    1  C1  UNL     1       0.775  -1.143   1.275  1.00  0.00     0.019 C 
HETATM    2  C2  UNL     1       0.602   0.240   0.721  1.00  0.00    -0.045 C 
HETATM    3  C3  UNL     1       1.676   0.658   0.041  1.00  0.00    -0.034 C 
HETATM    4  C4  UNL     1       2.734  -0.404   0.017  1.00  0.00     0.022 C 
HETATM    5  C5  UNL     1       2.279  -1.424   1.080  1.00  0.00     0.008 C 
HETATM    6  C6  UNL     1       4.125   0.143   0.318  1.00  0.00     0.004 C 
HETATM    7  C7  UNL     1      -0.666   1.025   0.935  1.00  0.00     0.043 C 
HETATM    8  C8  UNL     1      -1.727   0.574  -0.041  1.00  0.00    -0.045 C 
HETATM    9  C9  UNL     1      -2.156  -0.705  -0.106  1.00  0.00    -0.034 C 
HETATM   10  C10 UNL     1      -1.635  -1.811   0.791  1.00  0.00     0.026 C 
HETATM   11  C11 UNL     1      -0.145  -2.178   0.601  1.00  0.00     0.008 C 
HETATM   12  C12 UNL     1       0.213  -2.381  -0.877  1.00  0.00     0.001 C 
ENDROOT
BRANCH   8  13
HETATM   13  C13 UNL     1      -2.309   1.607  -0.973  1.00  0.00     0.018 C 
HETATM   14  C14 UNL     1      -1.279   2.139  -1.969  1.00  0.00     0.004 C 
HETATM   15  C15 UNL     1      -3.037   2.723  -0.223  1.00  0.00     0.004 C 
ENDBRANCH   8  13
TORSDOF 1
