REMARK  7 active torsions:
REMARK  status: ('A' for Active; 'I' for Inactive)
REMARK    1  A    between atoms: C1_1  and  C3_3 
REMARK    2  A    between atoms: C3_3  and  C4_4 
REMARK    3  A    between atoms: C4_4  and  C5_5 
REMARK    4  A    between atoms: C5_5  and  C6_6 
REMARK    5  A    between atoms: C6_6  and  O1_8 
REMARK    6  A    between atoms: C6_6  and  C10_12 
REMARK    7  A    between atoms: O1_8  and  C8_9 
ROOT
HETATM    1  C6  UNL     1      -1.642   0.838  -1.193  1.00  0.00     0.120 C 
HETATM    2  C7  UNL     1      -1.045   1.475  -2.447  1.00  0.00     0.035 C 
ENDROOT
BRANCH   1   3
HETATM    3  C5  UNL     1      -0.877  -0.404  -0.740  1.00  0.00     0.032 C 
BRANCH   3   4
HETATM    4  C4  UNL     1       0.490  -0.070  -0.143  1.00  0.00     0.003 C 
BRANCH   4   5
HETATM    5  C3  UNL     1       1.270  -1.316   0.279  1.00  0.00     0.000 C 
BRANCH   5   6
HETATM    6  C1  UNL     1       2.569  -0.979   1.014  1.00  0.00     0.000 C 
HETATM    7  C2  UNL     1       3.174  -2.188   1.727  1.00  0.00     0.000 C 
HETATM    8  C12 UNL     1       3.578  -0.250   0.125  1.00  0.00     0.000 C 
ENDBRANCH   5   6
ENDBRANCH   4   5
ENDBRANCH   3   4
ENDBRANCH   1   3
BRANCH   1   9
HETATM    9  O1  UNL     1      -1.662   1.793  -0.141  1.00  0.00    -0.302 OA
BRANCH   9  10
HETATM   10  C8  UNL     1      -2.051   1.264   1.016  1.00  0.00     0.273 C 
HETATM   11  C9  UNL     1      -1.539   1.965   2.244  1.00  0.00     0.106 C 
HETATM   12  O2  UNL     1      -2.764   0.291   1.105  1.00  0.00    -0.264 OA
ENDBRANCH   9  10
ENDBRANCH   1   9
BRANCH   1  13
HETATM   13  C10 UNL     1      -3.121   0.586  -1.326  1.00  0.00     0.001 C 
HETATM   14  C11 UNL     1      -3.531  -0.637  -1.703  1.00  0.00    -0.003 C 
ENDBRANCH   1  13
TORSDOF 7
