REMARK  1 active torsions:
REMARK  status: ('A' for Active; 'I' for Inactive)
REMARK    1  A    between atoms: C21_21  and  C24_24 
ROOT
HETATM    1  C1  UNL     1       5.594   0.981  -0.730  1.00  0.00     0.038 C 
HETATM    2  C2  UNL     1       6.205  -0.137   0.115  1.00  0.00     0.156 C 
HETATM    3  C3  UNL     1       5.412  -0.334   1.434  1.00  0.00     0.047 C 
HETATM    4  C4  UNL     1       3.932  -0.392   1.195  1.00  0.00    -0.025 A 
HETATM    5  C5  UNL     1       3.330   0.047  -0.027  1.00  0.00    -0.030 A 
HETATM    6  C6  UNL     1       4.168   0.598  -1.135  1.00  0.00     0.028 C 
HETATM    7  C7  UNL     1       1.914  -0.043  -0.205  1.00  0.00    -0.030 A 
HETATM    8  C8  UNL     1       1.086  -0.537   0.854  1.00  0.00    -0.027 A 
HETATM    9  C9  UNL     1       1.701  -0.961   2.059  1.00  0.00    -0.005 A 
HETATM   10  C10 UNL     1       3.096  -0.889   2.227  1.00  0.00    -0.005 A 
HETATM   11  C11 UNL     1      -0.410  -0.644   0.719  1.00  0.00     0.019 C 
HETATM   12  C12 UNL     1      -0.984   0.254  -0.422  1.00  0.00     0.004 C 
HETATM   13  C13 UNL     1      -0.156  -0.004  -1.695  1.00  0.00     0.005 C 
HETATM   14  C14 UNL     1       1.316   0.385  -1.502  1.00  0.00     0.026 C 
HETATM   15  C15 UNL     1      -2.496  -0.076  -0.672  1.00  0.00     0.000 C 
HETATM   16  C16 UNL     1      -3.318  -0.344   0.639  1.00  0.00     0.000 C 
HETATM   17  C17 UNL     1      -2.594   0.229   1.871  1.00  0.00     0.000 C 
HETATM   18  C18 UNL     1      -1.150  -0.287   2.047  1.00  0.00     0.004 C 
HETATM   19  C19 UNL     1      -4.731   0.281   0.555  1.00  0.00     0.000 C 
HETATM   20  C20 UNL     1      -5.404  -0.019  -0.791  1.00  0.00     0.003 C 
HETATM   21  C21 UNL     1      -4.627   0.572  -1.992  1.00  0.00     0.031 C 
HETATM   22  C22 UNL     1      -3.190   0.969  -1.584  1.00  0.00     0.003 C 
HETATM   23  C23 UNL     1      -4.574  -0.455  -3.129  1.00  0.00     0.003 C 
HETATM   24  C25 UNL     1      -3.506  -1.855   0.848  1.00  0.00     0.000 C 
HETATM   25  C26 UNL     1      -0.832   1.744  -0.047  1.00  0.00     0.000 C 
HETATM   26  C27 UNL     1      -0.676  -2.125   0.387  1.00  0.00     0.004 C 
HETATM   27  C28 UNL     1       5.904  -1.637   2.090  1.00  0.00     0.007 C 
HETATM   28  C29 UNL     1       5.676   0.828   2.406  1.00  0.00     0.007 C 
HETATM   29  O2  UNL     1       7.565   0.166   0.377  1.00  0.00    -0.223 OA
ENDROOT
BRANCH  21  30
HETATM   30  C24 UNL     1      -5.350   1.820  -2.518  1.00  0.00     0.182 C 
HETATM   31  O1  UNL     1      -5.484   2.733  -1.451  1.00  0.00    -0.221 OA
ENDBRANCH  21  30
TORSDOF 1
