REMARK  4 active torsions:
REMARK  status: ('A' for Active; 'I' for Inactive)
REMARK    1  A    between atoms: C15_16  and  C18_20 
REMARK    2  A    between atoms: C18_20  and  C19_21 
REMARK    3  A    between atoms: C19_21  and  C20_22 
REMARK    4  A    between atoms: C20_22  and  C21_24 
ROOT
HETATM    1  C1  UNL     1      -5.090   0.564   0.525  1.00  0.00     0.065 C 
HETATM    2  C2  UNL     1      -5.670  -0.705  -0.057  1.00  0.00     0.150 C 
HETATM    3  C3  UNL     1      -5.086  -1.193  -1.371  1.00  0.00     0.051 C 
HETATM    4  C4  UNL     1      -3.527  -1.174  -1.287  1.00  0.00     0.007 C 
HETATM    5  C5  UNL     1      -2.943   0.201  -0.832  1.00  0.00     0.003 C 
HETATM    6  C6  UNL     1      -3.551   0.566   0.543  1.00  0.00     0.008 C 
HETATM    7  C7  UNL     1      -1.371   0.178  -0.836  1.00  0.00     0.031 C 
HETATM    8  C8  UNL     1      -0.727  -1.221  -0.496  1.00  0.00     0.006 C 
HETATM    9  C9  UNL     1      -1.687  -2.135   0.287  1.00  0.00     0.000 C 
HETATM   10  C10 UNL     1      -3.027  -2.357  -0.420  1.00  0.00     0.000 C 
HETATM   11  C11 UNL     1       0.586  -1.107   0.350  1.00  0.00     0.022 A 
HETATM   12  C12 UNL     1       1.438   0.014  -0.191  1.00  0.00    -0.043 A 
HETATM   13  C13 UNL     1       0.852   1.389  -0.379  1.00  0.00     0.055 C 
HETATM   14  C14 UNL     1      -0.670   1.367  -0.107  1.00  0.00     0.156 C 
HETATM   15  O1  UNL     1      -1.186   2.615  -0.529  1.00  0.00    -0.223 OA
HETATM   16  C15 UNL     1       2.688  -0.373  -0.471  1.00  0.00     0.004 A 
HETATM   17  C16 UNL     1       2.850  -1.787  -0.180  1.00  0.00     0.169 A 
HETATM   18  C17 UNL     1       1.541  -2.342   0.328  1.00  0.00     0.072 A 
HETATM   19  O2  UNL     1       3.869  -2.422  -0.320  1.00  0.00    -0.292 OA
HETATM   20  C26 UNL     1       0.342  -0.805   1.832  1.00  0.00     0.004 C 
HETATM   21  C27 UNL     1      -0.355  -1.922  -1.818  1.00  0.00     0.000 C 
HETATM   22  C28 UNL     1      -3.381   1.285  -1.836  1.00  0.00     0.000 C 
HETATM   23  C29 UNL     1      -5.586  -2.613  -1.680  1.00  0.00     0.007 C 
HETATM   24  C30 UNL     1      -5.617  -0.297  -2.496  1.00  0.00     0.007 C 
HETATM   25  O5  UNL     1      -6.555  -1.301   0.514  1.00  0.00    -0.296 OA
ENDROOT
BRANCH  16  26
HETATM   26  C18 UNL     1       3.772   0.523  -1.012  1.00  0.00     0.027 C 
HETATM   27  C25 UNL     1       3.848   0.490  -2.537  1.00  0.00     0.005 C 
BRANCH  26  28
HETATM   28  C19 UNL     1       5.125   0.270  -0.348  1.00  0.00     0.040 C 
BRANCH  28  29
HETATM   29  C20 UNL     1       5.076   0.436   1.172  1.00  0.00     0.182 C 
HETATM   30  O3  UNL     1       6.309   0.002   1.703  1.00  0.00    -0.221 OA
BRANCH  29  31
HETATM   31  C21 UNL     1       4.902   1.908   1.516  1.00  0.00     0.170 A 
HETATM   32  O4  UNL     1       3.608   2.098   1.986  1.00  0.00    -0.354 OA
HETATM   33  C22 UNL     1       4.549   2.393   2.969  1.00  0.00     0.120 A 
HETATM   34  C23 UNL     1       4.387   1.387   4.100  1.00  0.00     0.032 C 
HETATM   35  C24 UNL     1       4.471   3.883   3.270  1.00  0.00     0.032 C 
ENDBRANCH  29  31
ENDBRANCH  28  29
ENDBRANCH  26  28
ENDBRANCH  16  26
TORSDOF 4
