REMARK  2 active torsions:
REMARK  status: ('A' for Active; 'I' for Inactive)
REMARK    1  A    between atoms: C6_6  and  O1_7 
REMARK    2  A    between atoms: C12_13  and  O3_20 
ROOT
HETATM    1  C1  UNL     1      -3.674   0.953   0.117  1.00  0.00     0.153 A 
HETATM    2  C2  UNL     1      -3.377  -0.406  -0.119  1.00  0.00     0.029 A 
HETATM    3  C3  UNL     1      -2.035  -0.848  -0.141  1.00  0.00     0.002 A 
HETATM    4  C4  UNL     1      -0.965   0.061   0.100  1.00  0.00    -0.000 A 
HETATM    5  C5  UNL     1      -1.275   1.440   0.311  1.00  0.00     0.003 A 
HETATM    6  C6  UNL     1      -2.627   1.877   0.328  1.00  0.00     0.115 A 
HETATM    7  C8  UNL     1      -0.172   2.414   0.514  1.00  0.00     0.033 C 
HETATM    8  C9  UNL     1       1.078   2.037  -0.301  1.00  0.00     0.031 C 
HETATM    9  C10 UNL     1       1.477   0.617  -0.096  1.00  0.00    -0.022 A 
HETATM   10  C11 UNL     1       0.465  -0.371   0.123  1.00  0.00     0.018 A 
HETATM   11  C12 UNL     1       0.865  -1.725   0.363  1.00  0.00     0.092 A 
HETATM   12  C13 UNL     1       2.234  -2.082   0.326  1.00  0.00     0.025 A 
HETATM   13  C14 UNL     1       3.223  -1.103   0.078  1.00  0.00     0.125 A 
HETATM   14  C15 UNL     1       2.850   0.244  -0.127  1.00  0.00    -0.001 A 
HETATM   15  C16 UNL     1       3.902   1.248  -0.373  1.00  0.00     0.033 C 
HETATM   16  O2  UNL     1       4.516  -1.453   0.043  1.00  0.00    -0.191 OA
HETATM   17  C17 UNL     1       2.637  -3.482   0.551  1.00  0.00     0.035 C 
HETATM   18  O4  UNL     1      -4.949   1.363   0.141  1.00  0.00    -0.188 OA
ENDROOT
BRANCH   6  19
HETATM   19  O1  UNL     1      -2.920   3.166   0.547  1.00  0.00    -0.326 OA
HETATM   20  C7  UNL     1      -3.940   3.762  -0.242  1.00  0.00     0.181 C 
ENDBRANCH   6  19
BRANCH  11  21
HETATM   21  O3  UNL     1      -0.020  -2.689   0.654  1.00  0.00    -0.328 OA
HETATM   22  C18 UNL     1      -0.174  -3.752  -0.273  1.00  0.00     0.181 C 
ENDBRANCH  11  21
TORSDOF 2
