REMARK  6 active torsions:
REMARK  status: ('A' for Active; 'I' for Inactive)
REMARK    1  A    between atoms: C2_2  and  C9_11 
REMARK    2  A    between atoms: C4_4  and  O2_9 
REMARK    3  A    between atoms: C5_5  and  O1_7 
REMARK    4  A    between atoms: C9_11  and  C10_12 
REMARK    5  A    between atoms: C12_14  and  C14_17 
REMARK    6  A    between atoms: C16_19  and  O5_24 
ROOT
HETATM    1  C10 UNL     1      -1.965  -1.199   0.994  1.00  0.00     0.094 C 
HETATM    2  C11 UNL     1      -0.475  -1.133   1.174  1.00  0.00     0.184 C 
HETATM    3  C12 UNL     1       0.129  -2.482   0.902  1.00  0.00     0.195 C 
HETATM    4  O3  UNL     1      -0.957  -3.178   0.324  1.00  0.00    -0.344 OA
HETATM    5  C13 UNL     1      -2.188  -2.705   0.844  1.00  0.00     0.151 C 
HETATM    6  O6  UNL     1       0.141  -0.141   1.494  1.00  0.00    -0.293 OA
ENDROOT
BRANCH   1   7
HETATM    7  C9  UNL     1      -2.416  -0.445  -0.252  1.00  0.00     0.036 C 
BRANCH   7   8
HETATM    8  C2  UNL     1      -2.184   1.018  -0.123  1.00  0.00    -0.020 A 
HETATM    9  C1  UNL     1      -1.123   1.627  -0.814  1.00  0.00    -0.002 A 
HETATM   10  C6  UNL     1      -0.906   3.008  -0.689  1.00  0.00     0.026 A 
HETATM   11  C5  UNL     1      -1.748   3.787   0.125  1.00  0.00     0.116 A 
HETATM   12  C4  UNL     1      -2.811   3.178   0.818  1.00  0.00     0.116 A 
HETATM   13  C3  UNL     1      -3.027   1.793   0.691  1.00  0.00     0.022 A 
BRANCH  11  14
HETATM   14  O1  UNL     1      -1.537   5.084   0.238  1.00  0.00    -0.326 OA
HETATM   15  C7  UNL     1      -0.453   5.649  -0.482  1.00  0.00     0.181 C 
ENDBRANCH  11  14
BRANCH  12  16
HETATM   16  O2  UNL     1      -3.604   3.899   1.584  1.00  0.00    -0.326 OA
HETATM   17  C8  UNL     1      -3.014   4.904   2.395  1.00  0.00     0.181 C 
ENDBRANCH  12  16
ENDBRANCH   7   8
ENDBRANCH   1   7
BRANCH   3  18
HETATM   18  C14 UNL     1       1.281  -2.463  -0.037  1.00  0.00     0.014 A 
HETATM   19  C15 UNL     1       2.502  -3.055   0.334  1.00  0.00     0.025 A 
HETATM   20  C16 UNL     1       3.594  -3.039  -0.551  1.00  0.00     0.119 A 
HETATM   21  C17 UNL     1       3.467  -2.428  -1.813  1.00  0.00     0.153 A 
HETATM   22  C18 UNL     1       2.246  -1.836  -2.182  1.00  0.00     0.029 A 
HETATM   23  O4  UNL     1       4.484  -2.408  -2.648  1.00  0.00    -0.188 OA
HETATM   24  C19 UNL     1       1.154  -1.854  -1.297  1.00  0.00     0.001 A 
BRANCH  20  25
HETATM   25  O5  UNL     1       4.734  -3.598  -0.195  1.00  0.00    -0.326 OA
HETATM   26  C20 UNL     1       5.084  -4.838  -0.793  1.00  0.00     0.181 C 
ENDBRANCH  20  25
ENDBRANCH   3  18
TORSDOF 6
