REMARK  3 active torsions:
REMARK  status: ('A' for Active; 'I' for Inactive)
REMARK    1  A    between atoms: C4_5  and  C5_6 
REMARK    2  A    between atoms: C5_6  and  O2_7 
REMARK    3  A    between atoms: O2_7  and  C6_8 
ROOT
HETATM    1  O1  UNL     1      -0.574   1.174  -0.908  1.00  0.00    -0.269 OA
HETATM    2  C1  UNL     1      -0.334   2.459  -1.152  1.00  0.00     0.274 C 
HETATM    3  C2  UNL     1       1.107   2.838  -0.986  1.00  0.00     0.102 C 
HETATM    4  C3  UNL     1       1.662   1.633  -0.232  1.00  0.00     0.080 C 
HETATM    5  C4  UNL     1       0.678   0.531  -0.670  1.00  0.00     0.304 C 
HETATM    6  O4  UNL     1       1.139  -0.055  -1.873  1.00  0.00    -0.184 OA
HETATM    7  O5  UNL     1      -1.176   3.268  -1.467  1.00  0.00    -0.264 OA
ENDROOT
BRANCH   5   8
HETATM    8  C5  UNL     1       0.500  -0.566   0.350  1.00  0.00     0.327 C 
HETATM    9  O3  UNL     1       1.396  -0.863   1.105  1.00  0.00    -0.259 OA
BRANCH   8  10
HETATM   10  O2  UNL     1      -0.692  -1.158   0.342  1.00  0.00    -0.298 OA
BRANCH  10  11
HETATM   11  C6  UNL     1      -0.793  -2.180   1.322  1.00  0.00     0.152 C 
HETATM   12  C7  UNL     1      -2.184  -2.813   1.256  1.00  0.00     0.035 C 
ENDBRANCH  10  11
ENDBRANCH   8  10
ENDBRANCH   5   8
TORSDOF 3
