REMARK  6 active torsions:
REMARK  status: ('A' for Active; 'I' for Inactive)
REMARK    1  A    between atoms: C9_11  and  C13_17 
REMARK    2  A    between atoms: C10_12  and  O4_15 
REMARK    3  A    between atoms: C17_21  and  C18_23 
REMARK    4  A    between atoms: C20_30  and  C24_36 
REMARK    5  A    between atoms: C21_31  and  O12_34 
REMARK    6  A    between atoms: C28_40  and  C29_42 
ROOT
HETATM    1  C1  UNL     1       0.316  -1.286   2.374  1.00  0.00     0.018 A 
HETATM    2  C2  UNL     1      -0.358  -0.026   2.363  1.00  0.00     0.062 A 
HETATM    3  C3  UNL     1      -1.760   0.101   1.860  1.00  0.00     0.300 C 
HETATM    4  O1  UNL     1      -2.452  -0.918   1.342  1.00  0.00    -0.271 OA
HETATM    5  C4  UNL     1      -2.366  -1.218   0.034  1.00  0.00     0.133 A 
HETATM    6  C5  UNL     1      -1.340  -2.066  -0.482  1.00  0.00     0.060 A 
HETATM    7  C6  UNL     1      -0.302  -2.702   0.398  1.00  0.00     0.179 C 
HETATM    8  C7  UNL     1      -0.352  -2.534   1.906  1.00  0.00     0.098 C 
HETATM    9  O2  UNL     1       0.618  -3.381  -0.003  1.00  0.00    -0.291 OA
HETATM   10  C8  UNL     1      -1.292  -2.320  -1.862  1.00  0.00     0.005 A 
HETATM   11  C9  UNL     1      -2.251  -1.761  -2.723  1.00  0.00     0.032 A 
HETATM   12  C10 UNL     1      -3.271  -0.939  -2.209  1.00  0.00     0.120 A 
HETATM   13  C11 UNL     1      -3.326  -0.670  -0.830  1.00  0.00     0.176 A 
HETATM   14  O3  UNL     1      -4.277   0.101  -0.341  1.00  0.00    -0.186 OA
HETATM   15  O10 UNL     1      -2.359   1.153   1.896  1.00  0.00    -0.259 OA
HETATM   16  C19 UNL     1       0.301   1.122   2.830  1.00  0.00     0.005 A 
HETATM   17  C20 UNL     1       1.623   1.041   3.296  1.00  0.00     0.032 A 
HETATM   18  C21 UNL     1       2.297  -0.193   3.296  1.00  0.00     0.117 A 
HETATM   19  C22 UNL     1       1.647  -1.351   2.834  1.00  0.00     0.149 A 
HETATM   20  O11 UNL     1       2.292  -2.502   2.834  1.00  0.00    -0.188 OA
ENDROOT
BRANCH  11  21
HETATM   21  C13 UNL     1      -2.181  -2.046  -4.184  1.00  0.00     0.172 C 
HETATM   22  C14 UNL     1      -3.360  -2.920  -4.688  1.00  0.00     0.216 C 
HETATM   23  C15 UNL     1      -3.324  -3.075  -6.226  1.00  0.00     0.218 C 
HETATM   24  O9  UNL     1      -3.285  -4.204  -4.088  1.00  0.00    -0.218 OA
HETATM   25  C16 UNL     1      -3.191  -1.687  -6.890  1.00  0.00     0.214 C 
HETATM   26  O8  UNL     1      -4.511  -3.710  -6.676  1.00  0.00    -0.218 OA
HETATM   27  C17 UNL     1      -2.016  -0.888  -6.282  1.00  0.00     0.181 C 
HETATM   28  O7  UNL     1      -2.966  -1.837  -8.281  1.00  0.00    -0.218 OA
HETATM   29  O5  UNL     1      -2.184  -0.801  -4.873  1.00  0.00    -0.347 OA
BRANCH  27  30
HETATM   30  C18 UNL     1      -1.937   0.549  -6.808  1.00  0.00     0.214 C 
HETATM   31  O6  UNL     1      -0.748   1.131  -6.323  1.00  0.00    -0.218 OA
ENDBRANCH  27  30
ENDBRANCH  11  21
BRANCH  12  32
HETATM   32  O4  UNL     1      -4.174  -0.418  -3.016  1.00  0.00    -0.326 OA
HETATM   33  C12 UNL     1      -5.521  -0.373  -2.568  1.00  0.00     0.181 C 
ENDBRANCH  12  32
BRANCH  18  34
HETATM   34  O12 UNL     1       3.540  -0.268   3.729  1.00  0.00    -0.326 OA
HETATM   35  C23 UNL     1       3.783  -0.962   4.943  1.00  0.00     0.181 C 
ENDBRANCH  18  34
BRANCH  17  36
HETATM   36  C24 UNL     1       2.306   2.271   3.788  1.00  0.00     0.172 C 
HETATM   37  C25 UNL     1       2.549   2.257   5.320  1.00  0.00     0.216 C 
HETATM   38  C26 UNL     1       3.380   3.482   5.766  1.00  0.00     0.218 C 
HETATM   39  O17 UNL     1       1.301   2.268   5.995  1.00  0.00    -0.218 OA
HETATM   40  C27 UNL     1       4.645   3.605   4.890  1.00  0.00     0.214 C 
HETATM   41  O16 UNL     1       3.751   3.345   7.129  1.00  0.00    -0.218 OA
HETATM   42  C28 UNL     1       4.290   3.563   3.387  1.00  0.00     0.181 C 
HETATM   43  O15 UNL     1       5.307   4.827   5.166  1.00  0.00    -0.218 OA
HETATM   44  O13 UNL     1       3.551   2.381   3.109  1.00  0.00    -0.347 OA
BRANCH  42  45
HETATM   45  C29 UNL     1       5.526   3.536   2.482  1.00  0.00     0.214 C 
HETATM   46  O14 UNL     1       5.098   3.665   1.145  1.00  0.00    -0.218 OA
ENDBRANCH  42  45
ENDBRANCH  17  36
TORSDOF 6
