REMARK  1 active torsions:
REMARK  status: ('A' for Active; 'I' for Inactive)
REMARK    1  A    between atoms: C13_13  and  O1_15 
ROOT
HETATM    1  C1  UNL     1       3.803  -0.223   0.000  1.00  0.00     0.127 A 
HETATM    2  C2  UNL     1       3.019  -1.373  -0.244  1.00  0.00     0.004 A 
HETATM    3  C3  UNL     1       1.607  -1.279  -0.256  1.00  0.00    -0.003 A 
HETATM    4  C4  UNL     1       0.955  -0.037  -0.006  1.00  0.00    -0.002 A 
HETATM    5  C5  UNL     1       1.762   1.121   0.219  1.00  0.00    -0.020 A 
HETATM    6  C6  UNL     1       3.174   1.022   0.227  1.00  0.00     0.023 A 
HETATM    7  C7  UNL     1       1.117   2.438   0.451  1.00  0.00     0.031 C 
HETATM    8  C8  UNL     1      -0.192   2.582  -0.345  1.00  0.00     0.031 C 
HETATM    9  C9  UNL     1      -1.086   1.410  -0.164  1.00  0.00    -0.018 A 
HETATM   10  C10 UNL     1      -0.529   0.106   0.018  1.00  0.00     0.021 A 
HETATM   11  C11 UNL     1      -1.426  -0.994   0.223  1.00  0.00     0.133 A 
HETATM   12  C12 UNL     1      -2.824  -0.789   0.205  1.00  0.00     0.051 A 
HETATM   13  C13 UNL     1      -3.358   0.502   0.000  1.00  0.00     0.096 A 
HETATM   14  C14 UNL     1      -2.490   1.600  -0.178  1.00  0.00     0.020 A 
HETATM   15  O2  UNL     1      -0.994  -2.240   0.461  1.00  0.00    -0.190 OA
HETATM   16  C16 UNL     1       3.668  -2.672  -0.490  1.00  0.00     0.033 C 
HETATM   17  O3  UNL     1       5.141  -0.301   0.018  1.00  0.00    -0.191 OA
ENDROOT
BRANCH  13  18
HETATM   18  O1  UNL     1      -4.686   0.686  -0.019  1.00  0.00    -0.328 OA
HETATM   19  C15 UNL     1      -5.518  -0.459   0.098  1.00  0.00     0.181 C 
ENDBRANCH  13  18
TORSDOF 1
