REMARK  7 active torsions:
REMARK  status: ('A' for Active; 'I' for Inactive)
REMARK    1  A    between atoms: C6_6  and  C13_15 
REMARK    2  A    between atoms: C7_7  and  O1_8 
REMARK    3  A    between atoms: O1_8  and  C8_9 
REMARK    4  A    between atoms: C8_9  and  C9_10 
REMARK    5  A    between atoms: C9_10  and  C10_11 
REMARK    6  A    between atoms: C13_15  and  C14_16 
REMARK    7  A    between atoms: C14_16  and  O3_17 
ROOT
HETATM    1  C13 UNL     1      -3.141   1.744  -0.012  1.00  0.00     0.084 C 
HETATM    2  C16 UNL     1      -2.314   0.948  -1.175  1.00  0.00     0.029 C 
HETATM    3  C17 UNL     1      -0.761   1.179  -0.902  1.00  0.00     0.038 C 
HETATM    4  C18 UNL     1      -1.004   2.757  -0.775  1.00  0.00     0.047 C 
HETATM    5  C19 UNL     1      -2.126   2.881   0.263  1.00  0.00     0.016 C 
HETATM    6  C20 UNL     1       0.095   3.836  -0.384  1.00  0.00     0.130 C 
HETATM    7  C21 UNL     1       1.394   3.628  -1.120  1.00  0.00     0.031 C 
HETATM    8  C22 UNL     1       2.164   2.467  -0.343  1.00  0.00     0.009 C 
HETATM    9  C23 UNL     1       1.614   0.996  -0.355  1.00  0.00     0.056 C 
HETATM   10  C24 UNL     1       0.121   0.546   0.141  1.00  0.00     0.129 C 
HETATM   11  O5  UNL     1       0.304  -0.875   0.063  1.00  0.00    -0.301 OA
HETATM   12  C25 UNL     1       1.637  -1.155   0.397  1.00  0.00     0.292 C 
HETATM   13  C26 UNL     1       2.424   0.043   0.356  1.00  0.00     0.043 C 
HETATM   14  C27 UNL     1       3.740   0.123   0.526  1.00  0.00     0.001 C 
HETATM   15  O6  UNL     1       2.098  -2.282   0.623  1.00  0.00    -0.260 OA
HETATM   16  C28 UNL     1       0.447   3.839   1.152  1.00  0.00     0.033 C 
HETATM   17  O7  UNL     1      -0.455   5.145  -0.650  1.00  0.00    -0.226 OA
HETATM   18  C29 UNL     1      -1.588   2.933  -2.119  1.00  0.00    -0.029 C 
HETATM   19  C30 UNL     1      -2.345   1.875  -2.366  1.00  0.00    -0.031 C 
HETATM   20  C31 UNL     1      -2.780  -0.473  -1.582  1.00  0.00     0.005 C 
ENDROOT
BRANCH   1  21
HETATM   21  C6  UNL     1      -4.655   2.271  -0.547  1.00  0.00     0.037 C 
HETATM   22  C5  UNL     1      -5.621   1.021  -0.505  1.00  0.00     0.007 C 
HETATM   23  C4  UNL     1      -7.161   1.113  -0.840  1.00  0.00     0.026 C 
HETATM   24  C3  UNL     1      -7.891   2.034   0.091  1.00  0.00     0.066 C 
HETATM   25  C32 UNL     1      -7.892  -0.183  -0.529  1.00  0.00    -0.041 C 
HETATM   26  C2  UNL     1      -7.804   3.533  -0.130  1.00  0.00     0.010 C 
HETATM   27  C34 UNL     1      -9.264   1.480   0.039  1.00  0.00     0.172 C 
HETATM   28  C1  UNL     1      -6.431   4.082  -0.387  1.00  0.00     0.031 C 
HETATM   29  C36 UNL     1      -8.445   4.241   1.081  1.00  0.00     0.001 C 
HETATM   30  C7  UNL     1      -5.163   3.566   0.272  1.00  0.00     0.125 C 
HETATM   31  C33 UNL     1      -9.146   0.045  -0.117  1.00  0.00     0.029 C 
HETATM   32  O8  UNL     1     -10.308   2.084   0.314  1.00  0.00    -0.291 OA
HETATM   33  C35 UNL     1      -7.335  -1.547  -0.791  1.00  0.00     0.026 C 
BRANCH  30  34
HETATM   34  O1  UNL     1      -4.222   4.592  -0.138  1.00  0.00    -0.304 OA
BRANCH  34  35
HETATM   35  C8  UNL     1      -4.400   5.893   0.343  1.00  0.00     0.272 C 
HETATM   36  O2  UNL     1      -5.225   6.165   1.225  1.00  0.00    -0.264 OA
BRANCH  35  37
HETATM   37  C9  UNL     1      -3.683   6.992  -0.416  1.00  0.00     0.096 C 
BRANCH  37  38
HETATM   38  C10 UNL     1      -3.755   8.354   0.277  1.00  0.00     0.010 C 
HETATM   39  C11 UNL     1      -3.168   9.420  -0.670  1.00  0.00     0.001 C 
HETATM   40  C12 UNL     1      -2.927   8.313   1.573  1.00  0.00     0.001 C 
ENDBRANCH  37  38
ENDBRANCH  35  37
ENDBRANCH  34  35
ENDBRANCH  30  34
ENDBRANCH   1  21
BRANCH   1  41
HETATM   41  C14 UNL     1      -3.371   1.043   1.335  1.00  0.00     0.271 C 
HETATM   42  O4  UNL     1      -3.821   1.677   2.297  1.00  0.00    -0.264 OA
BRANCH  41  43
HETATM   43  O3  UNL     1      -3.250  -0.351   1.437  1.00  0.00    -0.299 OA
HETATM   44  C15 UNL     1      -3.677  -0.793   2.733  1.00  0.00     0.184 C 
ENDBRANCH  41  43
ENDBRANCH   1  41
TORSDOF 7
