REMARK  6 active torsions:
REMARK  status: ('A' for Active; 'I' for Inactive)
REMARK    1  A    between atoms: C1_1  and  O5_24 
REMARK    2  A    between atoms: C5_5  and  C7_7 
REMARK    3  A    between atoms: C7_7  and  C8_8 
REMARK    4  A    between atoms: C9_9  and  C10_10 
REMARK    5  A    between atoms: C10_10  and  C11_11 
REMARK    6  A    between atoms: C15_15  and  O1_17 
ROOT
HETATM    1  C8  UNL     1       2.571  -0.445   0.158  1.00  0.00     0.037 C 
HETATM    2  C9  UNL     1       1.311  -1.014   0.814  1.00  0.00     0.037 C 
HETATM    3  C18 UNL     1       1.592  -2.518   0.764  1.00  0.00     0.143 C 
HETATM    4  O3  UNL     1       2.998  -2.637   0.770  1.00  0.00    -0.354 OA
HETATM    5  C19 UNL     1       3.612  -1.369   0.783  1.00  0.00     0.143 C 
ENDROOT
BRANCH   1   6
HETATM    6  C7  UNL     1       2.811   1.021   0.500  1.00  0.00     0.029 C 
BRANCH   6   7
HETATM    7  C5  UNL     1       1.949   1.920  -0.313  1.00  0.00    -0.020 A 
HETATM    8  C4  UNL     1       2.072   1.937  -1.713  1.00  0.00    -0.002 A 
HETATM    9  C3  UNL     1       1.256   2.789  -2.477  1.00  0.00     0.029 A 
HETATM   10  C2  UNL     1       0.315   3.623  -1.848  1.00  0.00     0.153 A 
HETATM   11  C1  UNL     1       0.192   3.605  -0.445  1.00  0.00     0.119 A 
HETATM   12  O4  UNL     1      -0.447   4.418  -2.570  1.00  0.00    -0.188 OA
HETATM   13  C6  UNL     1       1.008   2.754   0.318  1.00  0.00     0.022 A 
BRANCH  11  14
HETATM   14  O5  UNL     1      -0.687   4.383   0.154  1.00  0.00    -0.326 OA
HETATM   15  C20 UNL     1      -0.840   5.711  -0.326  1.00  0.00     0.181 C 
ENDBRANCH  11  14
ENDBRANCH   6   7
ENDBRANCH   1   6
BRANCH   2  16
HETATM   16  C10 UNL     1       0.035  -0.631   0.068  1.00  0.00     0.029 C 
BRANCH  16  17
HETATM   17  C11 UNL     1      -1.156  -1.315   0.637  1.00  0.00    -0.020 A 
HETATM   18  C12 UNL     1      -1.738  -0.844   1.826  1.00  0.00    -0.002 A 
HETATM   19  C13 UNL     1      -2.865  -1.492   2.359  1.00  0.00     0.029 A 
HETATM   20  C14 UNL     1      -3.412  -2.611   1.707  1.00  0.00     0.153 A 
HETATM   21  C15 UNL     1      -2.830  -3.082   0.516  1.00  0.00     0.119 A 
HETATM   22  O2  UNL     1      -4.469  -3.215   2.213  1.00  0.00    -0.188 OA
HETATM   23  C16 UNL     1      -1.703  -2.432  -0.018  1.00  0.00     0.022 A 
BRANCH  21  24
HETATM   24  O1  UNL     1      -3.338  -4.131  -0.104  1.00  0.00    -0.326 OA
HETATM   25  C17 UNL     1      -2.783  -4.498  -1.357  1.00  0.00     0.181 C 
ENDBRANCH  21  24
ENDBRANCH  16  17
ENDBRANCH   2  16
TORSDOF 6
