REMARK  1 active torsions:
REMARK  status: ('A' for Active; 'I' for Inactive)
REMARK    1  A    between atoms: C2_2  and  O1_8 
ROOT
HETATM    1  C1  UNL     1       1.482   1.084   0.022  1.00  0.00     0.153 A 
HETATM    2  C2  UNL     1       0.076   1.031   0.022  1.00  0.00     0.119 A 
HETATM    3  C3  UNL     1      -0.578  -0.213   0.022  1.00  0.00     0.022 A 
HETATM    4  C4  UNL     1       0.166  -1.404   0.022  1.00  0.00    -0.020 A 
HETATM    5  C5  UNL     1       1.570  -1.352   0.022  1.00  0.00    -0.002 A 
HETATM    6  C6  UNL     1       2.227  -0.109   0.022  1.00  0.00     0.029 A 
HETATM    7  C7  UNL     1      -0.531  -2.717   0.022  1.00  0.00     0.031 C 
HETATM    8  O2  UNL     1       2.106   2.246   0.022  1.00  0.00    -0.188 OA
ENDROOT
BRANCH   2   9
HETATM    9  O1  UNL     1      -0.629   2.147   0.022  1.00  0.00    -0.326 OA
HETATM   10  C8  UNL     1      -2.041   2.041  -0.090  1.00  0.00     0.181 C 
ENDBRANCH   2   9
TORSDOF 1
