REMARK  3 active torsions:
REMARK  status: ('A' for Active; 'I' for Inactive)
REMARK    1  A    between atoms: C1_1  and  C13_13 
REMARK    2  A    between atoms: C3_3  and  C10_10 
REMARK    3  A    between atoms: C4_4  and  C8_8 
ROOT
HETATM    1  C1  UNL     1      -1.412   0.275   0.193  1.00  0.00    -0.048 C 
HETATM    2  C2  UNL     1      -0.608  -0.795   0.310  1.00  0.00    -0.030 C 
HETATM    3  C3  UNL     1       0.787  -0.594   0.865  1.00  0.00     0.043 C 
HETATM    4  C4  UNL     1       1.500   0.631   0.217  1.00  0.00     0.026 C 
HETATM    5  C5  UNL     1       0.531   1.840   0.021  1.00  0.00     0.009 C 
HETATM    6  C6  UNL     1      -0.879   1.629   0.598  1.00  0.00     0.022 C 
HETATM    7  C7  UNL     1       2.683   1.051   1.099  1.00  0.00     0.005 C 
ENDROOT
BRANCH   1   8
HETATM    8  C13 UNL     1      -2.819   0.154  -0.334  1.00  0.00     0.018 C 
HETATM    9  C14 UNL     1      -2.994   0.840  -1.690  1.00  0.00     0.004 C 
HETATM   10  C15 UNL     1      -3.865   0.590   0.689  1.00  0.00     0.004 C 
ENDBRANCH   1   8
BRANCH   3  11
HETATM   11  C10 UNL     1       1.576  -1.881   0.775  1.00  0.00    -0.040 C 
HETATM   12  C11 UNL     1       2.142  -2.363   1.892  1.00  0.00    -0.009 C 
HETATM   13  C12 UNL     1       1.754  -2.645  -0.510  1.00  0.00     0.026 C 
ENDBRANCH   3  11
BRANCH   4  14
HETATM   14  C8  UNL     1       2.078   0.248  -1.127  1.00  0.00    -0.026 C 
HETATM   15  C9  UNL     1       1.238   0.090  -2.164  1.00  0.00    -0.005 C 
ENDBRANCH   4  14
TORSDOF 3
