REMARK  10 active torsions:
REMARK  status: ('A' for Active; 'I' for Inactive)
REMARK    1  A    between atoms: C3_3  and  C19_21 
REMARK    2  A    between atoms: C7_7  and  C12_12 
REMARK    3  A    between atoms: C12_12  and  C13_13 
REMARK    4  A    between atoms: C13_13  and  C14_14 
REMARK    5  A    between atoms: C19_21  and  O3_22 
REMARK    6  A    between atoms: O3_22  and  C20_23 
REMARK    7  A    between atoms: C20_23  and  C21_24 
REMARK    8  A    between atoms: C23_26  and  O5_29 
REMARK    9  A    between atoms: O5_29  and  C25_30 
REMARK   10  A    between atoms: C28_33  and  C30_37 
ROOT
HETATM    1  C19 UNL     1       1.559  -0.398   0.781  1.00  0.00     0.142 C 
ENDROOT
BRANCH   1   2
HETATM    2  C3  UNL     1       1.742   0.070   2.232  1.00  0.00     0.028 C 
HETATM    3  C2  UNL     1       0.555   0.965   2.631  1.00  0.00     0.002 C 
HETATM    4  C1  UNL     1       0.551   2.301   1.879  1.00  0.00     0.000 C 
HETATM    5  C6  UNL     1       1.865   3.057   2.096  1.00  0.00     0.000 C 
HETATM    6  C5  UNL     1       3.109   2.232   1.693  1.00  0.00     0.004 C 
HETATM    7  C4  UNL     1       3.080   0.848   2.406  1.00  0.00     0.003 C 
HETATM    8  C7  UNL     1       4.389   3.002   2.131  1.00  0.00     0.019 C 
HETATM    9  C18 UNL     1       3.105   2.049   0.166  1.00  0.00     0.000 C 
HETATM   10  C10 UNL     1       4.320  -0.025   2.080  1.00  0.00     0.004 C 
HETATM   11  C9  UNL     1       5.531   0.748   1.527  1.00  0.00     0.022 C 
HETATM   12  C8  UNL     1       5.641   2.146   2.090  1.00  0.00    -0.044 C 
HETATM   13  C11 UNL     1       6.815   2.613   2.551  1.00  0.00    -0.009 C 
HETATM   14  C31 UNL     1       1.746  -1.172   3.131  1.00  0.00     0.003 C 
BRANCH   8  15
HETATM   15  C12 UNL     1       4.592   4.293   1.326  1.00  0.00     0.009 C 
BRANCH  15  16
HETATM   16  C13 UNL     1       4.920   5.494   2.213  1.00  0.00     0.032 C 
BRANCH  16  17
HETATM   17  C14 UNL     1       3.729   5.969   3.000  1.00  0.00     0.039 A 
HETATM   18  C15 UNL     1       3.484   5.715   4.410  1.00  0.00     0.292 A 
HETATM   19  O1  UNL     1       2.332   6.281   4.785  1.00  0.00    -0.294 OA
HETATM   20  O2  UNL     1       4.230   5.082   5.119  1.00  0.00    -0.260 OA
HETATM   21  C16 UNL     1       1.752   6.943   3.646  1.00  0.00     0.178 A 
HETATM   22  C17 UNL     1       2.721   6.695   2.518  1.00  0.00     0.007 A 
ENDBRANCH  16  17
ENDBRANCH  15  16
ENDBRANCH   8  15
ENDBRANCH   1   2
BRANCH   1  23
HETATM   23  O3  UNL     1       0.439  -1.254   0.734  1.00  0.00    -0.351 OA
BRANCH  23  24
HETATM   24  C20 UNL     1       0.168  -1.744  -0.559  1.00  0.00     0.178 C 
BRANCH  24  25
HETATM   25  C21 UNL     1      -1.057  -2.652  -0.479  1.00  0.00     0.214 C 
HETATM   26  C22 UNL     1      -1.531  -3.082  -1.897  1.00  0.00     0.241 C 
HETATM   27  C23 UNL     1      -3.053  -3.006  -1.764  1.00  0.00     0.270 C 
HETATM   28  O11 UNL     1      -1.111  -4.377  -2.295  1.00  0.00    -0.215 OA
HETATM   29  O4  UNL     1      -3.211  -1.877  -0.943  1.00  0.00    -0.326 OA
HETATM   30  C24 UNL     1      -2.281  -1.924   0.113  1.00  0.00     0.180 C 
HETATM   31  O12 UNL     1      -0.721  -3.746   0.359  1.00  0.00    -0.218 OA
BRANCH  27  32
HETATM   32  O5  UNL     1      -3.684  -2.834  -3.016  1.00  0.00    -0.323 OA
BRANCH  32  33
HETATM   33  C25 UNL     1      -5.096  -2.953  -2.953  1.00  0.00     0.210 C 
HETATM   34  C26 UNL     1      -5.715  -2.205  -4.158  1.00  0.00     0.217 C 
HETATM   35  C27 UNL     1      -5.600  -3.018  -5.469  1.00  0.00     0.215 C 
HETATM   36  O10 UNL     1      -7.084  -1.965  -3.891  1.00  0.00    -0.218 OA
HETATM   37  C28 UNL     1      -5.963  -4.516  -5.295  1.00  0.00     0.184 C 
HETATM   38  O9  UNL     1      -4.275  -2.914  -5.963  1.00  0.00    -0.218 OA
HETATM   39  O6  UNL     1      -5.283  -5.090  -4.176  1.00  0.00    -0.324 OA
HETATM   40  C29 UNL     1      -5.467  -4.459  -2.904  1.00  0.00     0.299 C 
HETATM   41  O7  UNL     1      -6.777  -4.625  -2.397  1.00  0.00    -0.187 OA
BRANCH  37  42
HETATM   42  C30 UNL     1      -7.473  -4.760  -5.182  1.00  0.00     0.214 C 
HETATM   43  O8  UNL     1      -7.680  -6.135  -4.949  1.00  0.00    -0.218 OA
ENDBRANCH  37  42
ENDBRANCH  32  33
ENDBRANCH  27  32
ENDBRANCH  24  25
ENDBRANCH  23  24
ENDBRANCH   1  23
TORSDOF 10
