REMARK  3 active torsions:
REMARK  status: ('A' for Active; 'I' for Inactive)
REMARK    1  A    between atoms: C2_2  and  C3_4 
REMARK    2  A    between atoms: C3_4  and  C4_6 
REMARK    3  A    between atoms: C4_6  and  C5_8 
ROOT
HETATM    1  C3  UNL     1      -0.252   0.109   0.211  1.00  0.00     0.215 C 
HETATM    2  O2  UNL     1      -0.674  -0.486   1.416  1.00  0.00    -0.218 OA
ENDROOT
BRANCH   1   3
HETATM    3  C2  UNL     1      -0.842  -0.691  -0.951  1.00  0.00     0.185 C 
HETATM    4  C1  UNL     1      -2.371  -0.691  -0.951  1.00  0.00     0.038 C 
HETATM    5  O1  UNL     1      -0.402  -0.109  -2.156  1.00  0.00    -0.221 OA
ENDBRANCH   1   3
BRANCH   1   6
HETATM    6  C4  UNL     1       1.276   0.131   0.196  1.00  0.00     0.218 C 
HETATM    7  O3  UNL     1       1.738  -1.197   0.297  1.00  0.00    -0.218 OA
BRANCH   6   8
HETATM    8  C5  UNL     1       1.865   0.934   1.356  1.00  0.00     0.218 C 
HETATM    9  O4  UNL     1       1.508   2.285   1.186  1.00  0.00    -0.218 OA
ENDBRANCH   6   8
ENDBRANCH   1   6
TORSDOF 3
