REMARK  7 active torsions:
REMARK  status: ('A' for Active; 'I' for Inactive)
REMARK    1  A    between atoms: C11_11  and  C26_28 
REMARK    2  A    between atoms: C16_16  and  C25_25 
REMARK    3  A    between atoms: C26_28  and  O3_29 
REMARK    4  A    between atoms: O3_29  and  C27_30 
REMARK    5  A    between atoms: C27_30  and  C28_32 
REMARK    6  A    between atoms: C29_33  and  C30_34 
REMARK    7  A    between atoms: C34_38  and  O5_40 
ROOT
HETATM    1  C1  UNL     1       4.473   1.832   0.898  1.00  0.00     0.033 C 
HETATM    2  C2  UNL     1       5.225   0.766   0.092  1.00  0.00     0.152 C 
HETATM    3  C3  UNL     1       4.277  -0.246  -0.602  1.00  0.00     0.028 C 
HETATM    4  C4  UNL     1       3.205   0.529  -1.426  1.00  0.00     0.002 C 
HETATM    5  C5  UNL     1       2.395   1.572  -0.596  1.00  0.00     0.001 C 
HETATM    6  C6  UNL     1       3.420   2.549   0.037  1.00  0.00     0.003 C 
HETATM    7  C7  UNL     1       1.397   2.324  -1.541  1.00  0.00     0.005 C 
HETATM    8  C8  UNL     1       0.471   1.438  -2.436  1.00  0.00     0.006 C 
HETATM    9  C9  UNL     1       1.322   0.355  -3.148  1.00  0.00     0.000 C 
HETATM   10  C10 UNL     1       2.303  -0.412  -2.246  1.00  0.00     0.000 C 
HETATM   11  C11 UNL     1      -0.750   0.824  -1.650  1.00  0.00     0.043 C 
HETATM   12  C12 UNL     1      -1.408   1.842  -0.721  1.00  0.00    -0.046 C 
HETATM   13  C13 UNL     1      -0.779   2.967  -0.312  1.00  0.00    -0.035 C 
HETATM   14  C14 UNL     1       0.561   3.416  -0.842  1.00  0.00     0.025 C 
HETATM   15  C15 UNL     1      -2.842   1.607  -0.254  1.00  0.00     0.028 C 
HETATM   16  C16 UNL     1      -3.346   0.146  -0.436  1.00  0.00     0.082 C 
HETATM   17  C17 UNL     1      -3.055  -0.365  -1.877  1.00  0.00     0.011 C 
HETATM   18  C18 UNL     1      -1.859   0.303  -2.596  1.00  0.00     0.007 C 
HETATM   19  C19 UNL     1      -4.852   0.039  -0.105  1.00  0.00     0.011 C 
HETATM   20  C20 UNL     1      -5.725   1.080  -0.816  1.00  0.00     0.001 C 
HETATM   21  C21 UNL     1      -5.238   2.514  -0.551  1.00  0.00     0.000 C 
HETATM   22  C22 UNL     1      -3.762   2.629  -0.965  1.00  0.00     0.004 C 
HETATM   23  C23 UNL     1      -5.393   2.861   0.934  1.00  0.00     0.000 C 
HETATM   24  C24 UNL     1      -6.082   3.502  -1.365  1.00  0.00     0.000 C 
HETATM   25  C37 UNL     1      -0.080   2.355  -3.545  1.00  0.00     0.000 C 
HETATM   26  C38 UNL     1       1.637   0.932   0.572  1.00  0.00     0.000 C 
HETATM   27  C39 UNL     1       3.598  -1.160   0.430  1.00  0.00     0.003 C 
HETATM   28  C40 UNL     1       5.107  -1.137  -1.541  1.00  0.00     0.003 C 
HETATM   29  O7  UNL     1       6.129   0.096   0.951  1.00  0.00    -0.224 OA
ENDROOT
BRANCH  11  30
HETATM   30  C26 UNL     1      -0.311  -0.375  -0.814  1.00  0.00     0.156 C 
BRANCH  30  31
HETATM   31  O3  UNL     1      -0.719  -0.189   0.533  1.00  0.00    -0.298 OA
BRANCH  31  32
HETATM   32  C27 UNL     1      -0.121  -1.037   1.365  1.00  0.00     0.296 C 
HETATM   33  O4  UNL     1       0.342  -2.102   1.025  1.00  0.00    -0.259 OA
BRANCH  32  34
HETATM   34  C28 UNL     1      -0.047  -0.609   2.768  1.00  0.00     0.068 C 
HETATM   35  C29 UNL     1       0.025  -1.514   3.756  1.00  0.00     0.005 C 
BRANCH  35  36
HETATM   36  C30 UNL     1       0.029  -2.965   3.402  1.00  0.00     0.002 A 
HETATM   37  C31 UNL     1      -1.154  -3.590   2.971  1.00  0.00     0.002 A 
HETATM   38  C32 UNL     1      -1.147  -4.955   2.639  1.00  0.00     0.029 A 
HETATM   39  C33 UNL     1       0.041  -5.701   2.734  1.00  0.00     0.153 A 
HETATM   40  C34 UNL     1       1.227  -5.076   3.168  1.00  0.00     0.119 A 
HETATM   41  O6  UNL     1       0.039  -6.981   2.422  1.00  0.00    -0.188 OA
HETATM   42  C35 UNL     1       1.219  -3.711   3.500  1.00  0.00     0.026 A 
BRANCH  40  43
HETATM   43  O5  UNL     1       2.344  -5.770   3.262  1.00  0.00    -0.326 OA
HETATM   44  C36 UNL     1       3.555  -5.057   3.475  1.00  0.00     0.181 C 
ENDBRANCH  40  43
ENDBRANCH  35  36
ENDBRANCH  32  34
ENDBRANCH  31  32
ENDBRANCH  30  31
ENDBRANCH  11  30
BRANCH  16  45
HETATM   45  C25 UNL     1      -2.678  -0.750   0.584  1.00  0.00     0.184 C 
HETATM   46  O1  UNL     1      -2.541  -0.393   1.731  1.00  0.00    -0.647 OA
HETATM   47  O2  UNL     1      -2.268  -1.926   0.121  1.00  0.00    -0.647 OA
ENDBRANCH  16  45
TORSDOF 7
