REMARK  2 active torsions:
REMARK  status: ('A' for Active; 'I' for Inactive)
REMARK    1  A    between atoms: C1_1  and  C2_2 
REMARK    2  A    between atoms: C3_3  and  O2_9 
ROOT
HETATM    1  C2  UNL     1       1.260   0.580   0.032  1.00  0.00     0.065 A 
HETATM    2  C3  UNL     1      -0.148   0.529   0.032  1.00  0.00     0.099 A 
HETATM    3  C4  UNL     1      -0.801  -0.717   0.032  1.00  0.00     0.052 A 
HETATM    4  C5  UNL     1      -0.058  -1.910   0.032  1.00  0.00     0.133 A 
HETATM    5  C6  UNL     1       1.346  -1.855   0.032  1.00  0.00     0.028 A 
HETATM    6  C7  UNL     1       2.004  -0.613   0.032  1.00  0.00     0.007 A 
HETATM    7  O1  UNL     1      -0.674  -3.074   0.032  1.00  0.00    -0.190 OA
ENDROOT
BRANCH   1   8
HETATM    8  C1  UNL     1       1.971   1.895   0.032  1.00  0.00     0.236 C 
HETATM    9  O3  UNL     1       3.178   1.947   0.032  1.00  0.00    -0.283 OA
ENDBRANCH   1   8
BRANCH   2  10
HETATM   10  O2  UNL     1      -0.861   1.639   0.032  1.00  0.00    -0.328 OA
HETATM   11  C8  UNL     1      -2.269   1.527  -0.118  1.00  0.00     0.181 C 
ENDBRANCH   2  10
TORSDOF 2
