REMARK  10 active torsions:
REMARK  status: ('A' for Active; 'I' for Inactive)
REMARK    1  A    between atoms: C2_2  and  O9_26 
REMARK    2  A    between atoms: C3_3  and  O5_12 
REMARK    3  A    between atoms: C6_6  and  C7_8 
REMARK    4  A    between atoms: O5_12  and  C8_13 
REMARK    5  A    between atoms: C8_13  and  C9_14 
REMARK    6  A    between atoms: C10_15  and  C11_16 
REMARK    7  A    between atoms: C14_19  and  O7_23 
REMARK    8  A    between atoms: O9_26  and  C18_27 
REMARK    9  A    between atoms: C18_27  and  C19_28 
REMARK   10  A    between atoms: C20_29  and  C21_30 
ROOT
HETATM    1  C1  UNL     1       4.755   0.276   1.688  1.00  0.00     0.074 C 
HETATM    2  C2  UNL     1       3.227   0.189   1.533  1.00  0.00     0.158 C 
HETATM    3  C3  UNL     1       2.823  -0.942   0.573  1.00  0.00     0.182 C 
HETATM    4  C4  UNL     1       3.408  -2.306   0.991  1.00  0.00     0.185 C 
HETATM    5  C5  UNL     1       4.934  -2.233   1.220  1.00  0.00     0.077 C 
HETATM    6  C6  UNL     1       5.396  -1.061   2.124  1.00  0.00     0.209 C 
HETATM    7  O1  UNL     1       5.010  -1.327   3.459  1.00  0.00    -0.215 OA
HETATM    8  O4  UNL     1       2.769  -2.771   2.165  1.00  0.00    -0.221 OA
ENDROOT
BRANCH   3   9
HETATM    9  O5  UNL     1       1.405  -1.017   0.491  1.00  0.00    -0.296 OA
BRANCH   9  10
HETATM   10  C8  UNL     1       0.995  -1.703  -0.573  1.00  0.00     0.296 C 
HETATM   11  O8  UNL     1       1.738  -2.129  -1.426  1.00  0.00    -0.259 OA
BRANCH  10  12
HETATM   12  C9  UNL     1      -0.452  -1.927  -0.668  1.00  0.00     0.068 C 
HETATM   13  C10 UNL     1      -0.973  -2.608  -1.701  1.00  0.00     0.005 C 
BRANCH  13  14
HETATM   14  C11 UNL     1      -2.452  -2.811  -1.754  1.00  0.00     0.002 A 
HETATM   15  C12 UNL     1      -3.271  -2.294  -0.735  1.00  0.00     0.002 A 
HETATM   16  C13 UNL     1      -4.662  -2.487  -0.788  1.00  0.00     0.026 A 
HETATM   17  C14 UNL     1      -5.239  -3.195  -1.857  1.00  0.00     0.119 A 
HETATM   18  C15 UNL     1      -4.420  -3.713  -2.878  1.00  0.00     0.153 A 
HETATM   19  C16 UNL     1      -3.028  -3.519  -2.824  1.00  0.00     0.029 A 
HETATM   20  O6  UNL     1      -4.953  -4.378  -3.883  1.00  0.00    -0.188 OA
BRANCH  17  21
HETATM   21  O7  UNL     1      -6.545  -3.371  -1.899  1.00  0.00    -0.326 OA
HETATM   22  C17 UNL     1      -7.314  -2.925  -0.793  1.00  0.00     0.181 C 
ENDBRANCH  17  21
ENDBRANCH  13  14
ENDBRANCH  10  12
ENDBRANCH   9  10
ENDBRANCH   3   9
BRANCH   2  23
HETATM   23  O9  UNL     1       2.741   1.425   1.028  1.00  0.00    -0.298 OA
BRANCH  23  24
HETATM   24  C18 UNL     1       1.459   1.622   1.320  1.00  0.00     0.296 C 
HETATM   25  O12 UNL     1       0.825   0.924   2.076  1.00  0.00    -0.259 OA
BRANCH  24  26
HETATM   26  C19 UNL     1       0.823   2.769   0.659  1.00  0.00     0.068 C 
HETATM   27  C20 UNL     1      -0.469   3.058   0.883  1.00  0.00     0.005 C 
BRANCH  27  28
HETATM   28  C21 UNL     1      -1.071   4.235   0.188  1.00  0.00     0.002 A 
HETATM   29  C22 UNL     1      -0.271   5.340  -0.149  1.00  0.00     0.002 A 
HETATM   30  C23 UNL     1      -0.840   6.446  -0.803  1.00  0.00     0.029 A 
HETATM   31  C24 UNL     1      -2.209   6.451  -1.124  1.00  0.00     0.156 A 
HETATM   32  C25 UNL     1      -3.012   5.344  -0.788  1.00  0.00     0.156 A 
HETATM   33  O11 UNL     1      -2.736   7.491  -1.738  1.00  0.00    -0.188 OA
HETATM   34  C26 UNL     1      -2.440   4.238  -0.133  1.00  0.00     0.029 A 
HETATM   35  O10 UNL     1      -4.296   5.340  -1.085  1.00  0.00    -0.188 OA
ENDBRANCH  27  28
ENDBRANCH  24  26
ENDBRANCH  23  24
ENDBRANCH   2  23
BRANCH   6  36
HETATM   36  C7  UNL     1       6.901  -0.952   2.124  1.00  0.00     0.214 C 
HETATM   37  O2  UNL     1       7.447   0.126   2.124  1.00  0.00    -0.646 OA
HETATM   38  O3  UNL     1       7.552  -2.112   2.124  1.00  0.00    -0.646 OA
ENDBRANCH   6  36
TORSDOF 10
