REMARK  2 active torsions:
REMARK  status: ('A' for Active; 'I' for Inactive)
REMARK    1  A    between atoms: C9_10  and  C10_11 
REMARK    2  A    between atoms: C10_11  and  C11_12 
ROOT
HETATM    1  C1  UNL     1      -2.586   1.053   0.547  1.00  0.00     0.185 C 
HETATM    2  C2  UNL     1      -2.359  -0.428   0.191  1.00  0.00     0.066 C 
HETATM    3  C3  UNL     1      -1.316  -1.098   1.107  1.00  0.00     0.129 C 
HETATM    4  C4  UNL     1      -0.002  -0.285   1.225  1.00  0.00     0.031 C 
HETATM    5  C5  UNL     1      -0.172   1.246   1.387  1.00  0.00     0.033 C 
HETATM    6  C6  UNL     1      -1.264   1.848   0.463  1.00  0.00     0.182 C 
HETATM    7  O1  UNL     1      -1.484   3.205   0.812  1.00  0.00    -0.221 OA
HETATM    8  C7  UNL     1       1.209   1.805   0.984  1.00  0.00     0.003 C 
HETATM    9  C8  UNL     1       2.043   0.615   0.514  1.00  0.00     0.000 C 
HETATM   10  C9  UNL     1       1.020  -0.434   0.086  1.00  0.00     0.005 C 
HETATM   11  C14 UNL     1      -0.440   1.518   2.873  1.00  0.00     0.003 C 
HETATM   12  C15 UNL     1      -1.006  -2.531   0.660  1.00  0.00     0.033 C 
HETATM   13  O3  UNL     1      -1.891  -1.213   2.396  1.00  0.00    -0.226 OA
HETATM   14  O4  UNL     1      -3.535   1.580  -0.363  1.00  0.00    -0.221 OA
ENDROOT
BRANCH  10  15
HETATM   15  C10 UNL     1       0.500  -0.141  -1.318  1.00  0.00     0.031 C 
BRANCH  15  16
HETATM   16  C11 UNL     1       1.426  -0.789  -2.350  1.00  0.00     0.127 C 
HETATM   17  O2  UNL     1       1.025  -0.363  -3.631  1.00  0.00    -0.226 OA
HETATM   18  C12 UNL     1       2.855  -0.248  -2.281  1.00  0.00     0.033 C 
HETATM   19  C13 UNL     1       1.371  -2.317  -2.313  1.00  0.00     0.033 C 
ENDBRANCH  15  16
ENDBRANCH  10  15
TORSDOF 2
