REMARK  3 active torsions:
REMARK  status: ('A' for Active; 'I' for Inactive)
REMARK    1  A    between atoms: C7_9  and  C10_13 
REMARK    2  A    between atoms: C10_13  and  C11_14 
REMARK    3  A    between atoms: C11_14  and  C12_15 
ROOT
HETATM    1  C1  UNL     1      -1.010  -2.578   0.051  1.00  0.00     0.087 A 
HETATM    2  C2  UNL     1      -1.160  -1.264  -0.467  1.00  0.00     0.105 A 
HETATM    3  C3  UNL     1      -2.455  -0.734  -0.672  1.00  0.00     0.025 A 
HETATM    4  C4  UNL     1      -3.596  -1.512  -0.361  1.00  0.00     0.004 A 
HETATM    5  C5  UNL     1      -3.444  -2.820   0.156  1.00  0.00     0.028 A 
HETATM    6  C6  UNL     1      -2.153  -3.357   0.365  1.00  0.00     0.136 A 
HETATM    7  O1  UNL     1      -2.026  -4.600   0.855  1.00  0.00    -0.190 OA
HETATM    8  O2  UNL     1      -0.072  -0.518  -0.766  1.00  0.00    -0.311 OA
HETATM    9  C7  UNL     1       1.193  -0.951  -0.598  1.00  0.00     0.081 A 
HETATM   10  C8  UNL     1       1.459  -2.184  -0.113  1.00  0.00     0.062 A 
HETATM   11  C9  UNL     1       0.367  -3.109   0.254  1.00  0.00     0.201 A 
HETATM   12  O3  UNL     1       0.683  -4.197   0.682  1.00  0.00    -0.286 OA
ENDROOT
BRANCH   9  13
HETATM   13  C10 UNL     1       2.353  -0.057  -0.951  1.00  0.00     0.056 C 
BRANCH  13  14
HETATM   14  C11 UNL     1       2.656   0.967   0.142  1.00  0.00     0.035 C 
BRANCH  14  15
HETATM   15  C12 UNL     1       1.535   1.932   0.316  1.00  0.00     0.004 A 
HETATM   16  C13 UNL     1       1.369   2.998  -0.590  1.00  0.00     0.127 A 
HETATM   17  O4  UNL     1       2.201   3.154  -1.602  1.00  0.00    -0.191 OA
HETATM   18  C14 UNL     1       0.306   3.900  -0.414  1.00  0.00     0.027 A 
HETATM   19  C15 UNL     1      -0.586   3.744   0.658  1.00  0.00     0.002 A 
HETATM   20  C16 UNL     1      -0.418   2.680   1.560  1.00  0.00    -0.000 A 
HETATM   21  C17 UNL     1       0.642   1.775   1.391  1.00  0.00    -0.002 A 
ENDBRANCH  14  15
ENDBRANCH  13  14
ENDBRANCH   9  13
TORSDOF 3
