REMARK  0 active torsions:
REMARK  status: ('A' for Active; 'I' for Inactive)
ROOT
HETATM    1  C1  UNL     1      -2.984   0.109  -0.549  1.00  0.00     0.030 C 
HETATM    2  C2  UNL     1      -2.629   1.623  -0.516  1.00  0.00     0.026 C 
HETATM    3  C3  UNL     1      -1.297   1.889   0.164  1.00  0.00    -0.048 C 
HETATM    4  C4  UNL     1      -0.168   1.371  -0.361  1.00  0.00    -0.030 C 
HETATM    5  C5  UNL     1       1.131   1.242   0.402  1.00  0.00     0.052 C 
HETATM    6  C6  UNL     1       1.637  -0.178   0.231  1.00  0.00     0.015 A 
HETATM    7  C7  UNL     1       1.322  -1.367   1.133  1.00  0.00     0.246 A 
HETATM    8  C8  UNL     1      -0.164  -1.736   1.391  1.00  0.00     0.086 C 
HETATM    9  C9  UNL     1      -1.107  -1.367   0.264  1.00  0.00    -0.043 C 
HETATM   10  C10 UNL     1      -2.223  -0.650   0.524  1.00  0.00    -0.034 C 
HETATM   11  C11 UNL     1      -0.728  -1.777  -1.139  1.00  0.00     0.026 C 
HETATM   12  O1  UNL     1       1.971  -2.469   0.469  1.00  0.00    -0.271 OA
HETATM   13  C12 UNL     1       2.645  -2.021  -0.598  1.00  0.00     0.293 A 
HETATM   14  C13 UNL     1       2.432  -0.596  -0.758  1.00  0.00     0.038 A 
HETATM   15  C14 UNL     1       3.002   0.256  -1.859  1.00  0.00     0.036 C 
HETATM   16  O2  UNL     1       3.332  -2.687  -1.338  1.00  0.00    -0.259 OA
HETATM   17  O3  UNL     1       1.967  -1.180   2.379  1.00  0.00    -0.190 OA
HETATM   18  C15 UNL     1      -1.293   2.674   1.453  1.00  0.00     0.026 C 
ENDROOT
TORSDOF 0
