REMARK  0 active torsions:
REMARK  status: ('A' for Active; 'I' for Inactive)
ROOT
HETATM    1  C1  UNL     1      -2.353  -1.918   0.226  1.00  0.00     0.000 C 
HETATM    2  C2  UNL     1      -1.734  -0.535   0.400  1.00  0.00     0.000 C 
HETATM    3  C3  UNL     1      -2.779   0.564   0.273  1.00  0.00     0.000 C 
HETATM    4  C4  UNL     1      -1.873   1.783   0.189  1.00  0.00     0.002 C 
HETATM    5  C5  UNL     1      -0.826   1.353  -0.850  1.00  0.00     0.027 C 
HETATM    6  C6  UNL     1      -0.736  -0.184  -0.715  1.00  0.00     0.002 C 
HETATM    7  C7  UNL     1       0.697  -0.768  -0.697  1.00  0.00     0.000 A 
HETATM    8  C8  UNL     1       1.785  -0.234   0.230  1.00  0.00     0.003 A 
HETATM    9  C9  UNL     1       1.287  -1.668   0.381  1.00  0.00     0.000 A 
HETATM   10  C10 UNL     1       0.527  -2.041   1.646  1.00  0.00     0.000 C 
HETATM   11  C11 UNL     1       2.209  -2.781  -0.104  1.00  0.00     0.000 C 
HETATM   12  C12 UNL     1       1.471   0.789   1.353  1.00  0.00     0.032 C 
HETATM   13  C13 UNL     1       1.664   1.740   0.148  1.00  0.00     0.140 A 
HETATM   14  C14 UNL     1       0.524   2.102  -0.881  1.00  0.00     0.118 A 
HETATM   15  O1  UNL     1       0.787   2.812   0.287  1.00  0.00    -0.357 OA
HETATM   16  C15 UNL     1       0.859   2.998  -2.065  1.00  0.00     0.032 C 
ENDROOT
TORSDOF 0
