REMARK  0 active torsions:
REMARK  status: ('A' for Active; 'I' for Inactive)
ROOT
HETATM    1  C1  UNL     1      -6.490   0.639   0.123  1.00  0.00     0.152 C 
HETATM    2  C2  UNL     1      -5.711   1.445   1.172  1.00  0.00     0.033 C 
HETATM    3  C3  UNL     1      -4.299   0.883   1.373  1.00  0.00     0.003 C 
HETATM    4  C4  UNL     1      -3.506   0.783   0.045  1.00  0.00     0.003 C 
HETATM    5  C5  UNL     1      -4.297  -0.037  -1.012  1.00  0.00     0.033 C 
HETATM    6  C6  UNL     1      -5.715   0.549  -1.203  1.00  0.00     0.035 C 
HETATM    7  C7  UNL     1      -4.311  -1.551  -0.666  1.00  0.00     0.152 C 
HETATM    8  C8  UNL     1      -2.891  -2.129  -0.504  1.00  0.00     0.035 C 
HETATM    9  C9  UNL     1      -2.168  -1.344   0.596  1.00  0.00     0.033 C 
HETATM   10  C10 UNL     1      -2.115   0.125   0.197  1.00  0.00     0.005 C 
HETATM   11  C11 UNL     1      -1.193   0.666   1.291  1.00  0.00     0.033 C 
HETATM   12  C12 UNL     1      -0.096  -0.404   1.521  1.00  0.00     0.154 C 
HETATM   13  C13 UNL     1      -0.703  -1.721   0.914  1.00  0.00     0.155 C 
HETATM   14  C14 UNL     1       0.139  -2.256  -0.268  1.00  0.00     0.066 C 
HETATM   15  C15 UNL     1       0.785  -1.250  -1.246  1.00  0.00     0.157 C 
HETATM   16  C16 UNL     1       1.172   0.139  -0.641  1.00  0.00     0.065 C 
HETATM   17  C17 UNL     1       1.244   0.074   0.893  1.00  0.00     0.069 C 
HETATM   18  C18 UNL     1       2.506  -0.693   1.357  1.00  0.00     0.253 C 
HETATM   19  N1  UNL     1       3.725  -0.420   0.555  1.00  0.00     0.136 N 
HETATM   20  C19 UNL     1       3.699   0.834  -0.250  1.00  0.00     0.217 C 
HETATM   21  C20 UNL     1       2.453   0.840  -1.223  1.00  0.00     0.157 C 
HETATM   22  C21 UNL     1       2.123   2.281  -1.641  1.00  0.00     0.035 C 
HETATM   23  O1  UNL     1       2.783   0.234  -2.461  1.00  0.00    -0.224 OA
HETATM   24  C22 UNL     1       5.043   0.994  -1.022  1.00  0.00     0.034 C 
HETATM   25  C23 UNL     1       6.276   0.875  -0.119  1.00  0.00     0.004 C 
HETATM   26  C24 UNL     1       6.248  -0.459   0.629  1.00  0.00     0.033 C 
HETATM   27  C25 UNL     1       4.928  -0.590   1.402  1.00  0.00     0.250 C 
HETATM   28  C26 UNL     1       6.471  -1.647  -0.316  1.00  0.00     0.002 C 
HETATM   29  C27 UNL     1       3.608   2.019   0.736  1.00  0.00     0.036 C 
HETATM   30  O2  UNL     1      -0.061  -1.063  -2.367  1.00  0.00    -0.223 OA
HETATM   31  O3  UNL     1      -0.766  -2.793   1.850  1.00  0.00    -0.223 OA
HETATM   32  O4  UNL     1       0.105  -0.479   2.930  1.00  0.00    -0.223 OA
HETATM   33  O5  UNL     1      -4.959  -2.276  -1.695  1.00  0.00    -0.224 OA
HETATM   34  C28 UNL     1      -3.197   2.193  -0.482  1.00  0.00     0.000 C 
HETATM   35  O6  UNL     1      -7.736   1.264  -0.107  1.00  0.00    -0.224 OA
ENDROOT
TORSDOF 0
