REMARK  0 active torsions:
REMARK  status: ('A' for Active; 'I' for Inactive)
ROOT
HETATM    1  C1  UNL     1      -3.088  -1.184  -1.191  1.00  0.00     0.005 C 
HETATM    2  C2  UNL     1      -3.727  -0.467  -0.008  1.00  0.00     0.004 C 
HETATM    3  C3  UNL     1      -3.027   0.879   0.262  1.00  0.00     0.019 C 
HETATM    4  C4  UNL     1      -1.533   0.754   0.287  1.00  0.00    -0.027 A 
HETATM    5  C5  UNL     1      -0.850  -0.389  -0.250  1.00  0.00    -0.023 A 
HETATM    6  C6  UNL     1      -1.615  -1.492  -0.902  1.00  0.00     0.026 C 
HETATM    7  C7  UNL     1       0.578  -0.471  -0.152  1.00  0.00     0.040 A 
HETATM    8  C8  UNL     1       1.316   0.623   0.436  1.00  0.00     0.042 A 
HETATM    9  C9  UNL     1       0.627   1.752   0.924  1.00  0.00     0.003 A 
HETATM   10  C10 UNL     1      -0.777   1.812   0.852  1.00  0.00    -0.004 A 
HETATM   11  C11 UNL     1       2.826   0.596   0.543  1.00  0.00     0.197 A 
HETATM   12  C12 UNL     1       3.508  -0.611   0.016  1.00  0.00     0.063 A 
HETATM   13  C13 UNL     1       2.781  -1.629  -0.520  1.00  0.00     0.142 A 
HETATM   14  C14 UNL     1       1.316  -1.695  -0.656  1.00  0.00     0.218 A 
HETATM   15  O1  UNL     1       0.857  -2.701  -1.145  1.00  0.00    -0.284 OA
HETATM   16  O2  UNL     1       3.594  -2.664  -0.953  1.00  0.00    -0.302 OA
HETATM   17  C15 UNL     1       4.899  -2.229  -0.654  1.00  0.00     0.119 A 
HETATM   18  C16 UNL     1       4.822  -0.963  -0.057  1.00  0.00     0.008 A 
HETATM   19  C17 UNL     1       6.002  -0.139   0.418  1.00  0.00     0.033 C 
HETATM   20  O3  UNL     1       3.523   1.463   1.016  1.00  0.00    -0.286 OA
HETATM   21  C18 UNL     1      -3.557   1.404   1.607  1.00  0.00     0.004 C 
HETATM   22  C19 UNL     1      -3.414   1.879  -0.834  1.00  0.00     0.004 C 
ENDROOT
TORSDOF 0
