REMARK  1 active torsions:
REMARK  status: ('A' for Active; 'I' for Inactive)
REMARK    1  A    between atoms: C3_3  and  O5_20 
ROOT
HETATM    1  C1  UNL     1       1.377  -2.104   0.006  1.00  0.00     0.094 A 
HETATM    2  C2  UNL     1       1.613  -0.840  -0.586  1.00  0.00     0.023 A 
HETATM    3  C3  UNL     1       0.563   0.109  -0.682  1.00  0.00     0.096 A 
HETATM    4  C4  UNL     1      -0.732  -0.242  -0.223  1.00  0.00     0.068 A 
HETATM    5  C5  UNL     1      -0.988  -1.541   0.326  1.00  0.00     0.109 A 
HETATM    6  C6  UNL     1       0.078  -2.463   0.434  1.00  0.00     0.049 A 
HETATM    7  O1  UNL     1      -2.231  -1.908   0.750  1.00  0.00    -0.273 OA
HETATM    8  C7  UNL     1      -3.320  -1.100   0.709  1.00  0.00     0.302 A 
HETATM    9  C8  UNL     1      -3.119   0.264   0.166  1.00  0.00     0.088 A 
HETATM   10  C9  UNL     1      -1.885   0.703  -0.291  1.00  0.00     0.109 A 
HETATM   11  O2  UNL     1      -1.844   2.025  -0.777  1.00  0.00    -0.307 OA
HETATM   12  C10 UNL     1      -3.180   2.383  -0.584  1.00  0.00     0.102 A 
HETATM   13  C11 UNL     1      -3.912   1.346  -0.035  1.00  0.00     0.030 A 
HETATM   14  C12 UNL     1      -5.291   1.498   0.244  1.00  0.00     0.004 A 
HETATM   15  C13 UNL     1      -5.900   2.746  -0.058  1.00  0.00     0.028 A 
HETATM   16  C14 UNL     1      -5.137   3.809  -0.623  1.00  0.00     0.133 A 
HETATM   17  C15 UNL     1      -3.754   3.635  -0.894  1.00  0.00     0.052 A 
HETATM   18  O3  UNL     1      -5.727   4.981  -0.900  1.00  0.00    -0.190 OA
HETATM   19  O4  UNL     1      -4.414  -1.449   1.088  1.00  0.00    -0.259 OA
HETATM   20  C17 UNL     1       2.965  -0.559  -1.115  1.00  0.00     0.033 C 
HETATM   21  C18 UNL     1       4.094  -1.211  -0.299  1.00  0.00     0.033 C 
HETATM   22  C19 UNL     1       3.713  -2.502   0.485  1.00  0.00     0.099 C 
HETATM   23  O6  UNL     1       2.395  -2.973   0.160  1.00  0.00    -0.336 OA
HETATM   24  C20 UNL     1       3.732  -2.236   1.996  1.00  0.00     0.030 C 
HETATM   25  C21 UNL     1       4.686  -3.643   0.172  1.00  0.00     0.030 C 
ENDROOT
BRANCH   3  26
HETATM   26  O5  UNL     1       0.797   1.318  -1.215  1.00  0.00    -0.328 OA
HETATM   27  C16 UNL     1       1.205   2.361  -0.344  1.00  0.00     0.181 C 
ENDBRANCH   3  26
TORSDOF 1
