REMARK  1 active torsions:
REMARK  status: ('A' for Active; 'I' for Inactive)
REMARK    1  A    between atoms: C12_12  and  C15_17 
ROOT
HETATM    1  C1  UNL     1       0.536  -1.370  -0.777  1.00  0.00     0.033 C 
HETATM    2  C2  UNL     1       1.203   0.098  -0.833  1.00  0.00     0.152 C 
HETATM    3  C3  UNL     1       0.353   1.293  -0.143  1.00  0.00     0.028 C 
HETATM    4  C4  UNL     1      -1.099   0.834  -0.473  1.00  0.00     0.005 C 
HETATM    5  C5  UNL     1      -1.454  -0.564   0.407  1.00  0.00     0.025 C 
HETATM    6  C6  UNL     1      -0.194  -1.550   0.444  1.00  0.00     0.005 C 
HETATM    7  C7  UNL     1      -2.796  -1.102  -0.191  1.00  0.00     0.120 A 
HETATM    8  C8  UNL     1      -3.937  -0.045  -0.016  1.00  0.00     0.030 C 
HETATM    9  C9  UNL     1      -3.570   1.266  -0.759  1.00  0.00     0.003 C 
HETATM   10  C10 UNL     1      -2.227   1.856  -0.219  1.00  0.00     0.000 C 
HETATM   11  C11 UNL     1      -5.279  -0.588  -0.583  1.00  0.00     0.032 C 
HETATM   12  C12 UNL     1      -5.701  -1.960   0.034  1.00  0.00     0.120 A 
HETATM   13  C13 UNL     1      -4.535  -3.019   0.001  1.00  0.00     0.169 A 
HETATM   14  C14 UNL     1      -3.085  -2.496   0.142  1.00  0.00     0.169 A 
HETATM   15  O1  UNL     1      -2.829  -1.754  -1.290  1.00  0.00    -0.354 OA
HETATM   16  O2  UNL     1      -5.188  -2.960  -1.083  1.00  0.00    -0.354 OA
HETATM   17  C18 UNL     1      -1.768  -0.411   1.953  1.00  0.00     0.002 C 
HETATM   18  C19 UNL     1       0.816   2.593  -0.819  1.00  0.00     0.003 C 
HETATM   19  C20 UNL     1       0.619   1.536   1.383  1.00  0.00     0.003 C 
HETATM   20  O3  UNL     1       2.540   0.179  -0.331  1.00  0.00    -0.224 OA
ENDROOT
BRANCH  12  21
HETATM   21  C15 UNL     1      -5.747  -1.949   1.687  1.00  0.00     0.027 C 
HETATM   22  C16 UNL     1      -6.652  -0.792   2.172  1.00  0.00     0.003 C 
HETATM   23  C17 UNL     1      -6.341  -3.240   2.325  1.00  0.00     0.003 C 
ENDBRANCH  12  21
TORSDOF 1
