REMARK  2 active torsions:
REMARK  status: ('A' for Active; 'I' for Inactive)
REMARK    1  A    between atoms: C7_7  and  C9_10 
REMARK    2  A    between atoms: C9_10  and  C10_11 
ROOT
HETATM    1  C10 UNL     1      -0.754  -0.283  -2.539  1.00  0.00     0.115 C 
HETATM    2  N2  UNL     1       0.408   0.316  -1.912  1.00  0.00    -0.239 NA
HETATM    3  C11 UNL     1       0.113   0.691  -0.600  1.00  0.00     0.258 C 
HETATM    4  C12 UNL     1      -1.330   0.309  -0.271  1.00  0.00     0.135 C 
HETATM    5  C13 UNL     1      -1.949   0.231  -1.709  1.00  0.00     0.056 C 
HETATM    6  C14 UNL     1      -2.467   1.580  -2.203  1.00  0.00    -0.047 C 
HETATM    7  C15 UNL     1      -3.129   2.393  -1.355  1.00  0.00    -0.021 C 
HETATM    8  C16 UNL     1      -3.373   1.940   0.061  1.00  0.00     0.175 C 
HETATM    9  C17 UNL     1      -2.123   1.277   0.690  1.00  0.00     0.071 C 
HETATM   10  C18 UNL     1      -1.240   2.326   1.344  1.00  0.00    -0.027 C 
HETATM   11  C19 UNL     1      -0.982   2.295   2.666  1.00  0.00    -0.030 C 
HETATM   12  C20 UNL     1       0.021   3.223   3.317  1.00  0.00     0.030 C 
HETATM   13  C21 UNL     1       0.922   2.469   4.317  1.00  0.00     0.026 C 
HETATM   14  C22 UNL     1       1.529   1.231   3.678  1.00  0.00    -0.028 C 
HETATM   15  C23 UNL     1       1.500  -0.002   4.236  1.00  0.00     0.011 C 
HETATM   16  C24 UNL     1       1.998  -1.232   3.563  1.00  0.00     0.199 C 
HETATM   17  C25 UNL     1       2.205  -1.297   2.055  1.00  0.00     0.213 C 
HETATM   18  C26 UNL     1       1.002  -1.891   1.287  1.00  0.00     0.049 C 
HETATM   19  C27 UNL     1      -0.336  -1.191   1.604  1.00  0.00     0.068 C 
HETATM   20  C28 UNL     1      -1.266  -1.055   0.416  1.00  0.00     0.159 C 
HETATM   21  O1  UNL     1      -1.934  -1.994   0.049  1.00  0.00    -0.296 OA
HETATM   22  O2  UNL     1       3.352  -2.066   1.754  1.00  0.00    -0.215 OA
HETATM   23  O3  UNL     1       2.231  -2.207   4.242  1.00  0.00    -0.289 OA
HETATM   24  C29 UNL     1       0.928  -0.170   5.625  1.00  0.00     0.034 C 
HETATM   25  C30 UNL     1       2.027   3.375   4.863  1.00  0.00     0.005 C 
HETATM   26  O4  UNL     1      -4.453   1.024   0.059  1.00  0.00    -0.219 OA
HETATM   27  C31 UNL     1      -3.637   3.748  -1.779  1.00  0.00     0.028 C 
HETATM   28  C32 UNL     1      -2.240   2.008  -3.633  1.00  0.00     0.026 C 
HETATM   29  O5  UNL     1       0.922   1.223   0.125  1.00  0.00    -0.270 OA
ENDROOT
BRANCH   1  30
HETATM   30  C9  UNL     1      -0.660  -1.807  -2.535  1.00  0.00     0.053 C 
BRANCH  30  31
HETATM   31  C7  UNL     1       0.234  -2.305  -3.652  1.00  0.00     0.000 A 
HETATM   32  C5  UNL     1       1.299  -3.135  -3.555  1.00  0.00     0.015 A 
HETATM   33  C4  UNL     1       1.883  -3.379  -4.771  1.00  0.00     0.081 A 
HETATM   34  C6  UNL     1       1.805  -3.719  -2.365  1.00  0.00     0.001 A 
HETATM   35  C3  UNL     1       3.014  -4.223  -4.895  1.00  0.00     0.019 A 
HETATM   36  N1  UNL     1       1.158  -2.670  -5.713  1.00  0.00    -0.244 NA
HETATM   37  C2  UNL     1       3.539  -4.820  -3.721  1.00  0.00     0.002 A 
HETATM   38  C1  UNL     1       2.938  -4.568  -2.459  1.00  0.00     0.000 A 
HETATM   39  C8  UNL     1       0.123  -1.992  -5.020  1.00  0.00     0.095 A 
ENDBRANCH  30  31
ENDBRANCH   1  30
TORSDOF 2
