REMARK  7 active torsions:
REMARK  status: ('A' for Active; 'I' for Inactive)
REMARK    1  A    between atoms: C5_5  and  C9_9 
REMARK    2  A    between atoms: C9_9  and  C10_10 
REMARK    3  A    between atoms: C10_10  and  C11_11 
REMARK    4  A    between atoms: C11_11  and  O1_12 
REMARK    5  A    between atoms: C11_11  and  C18_24 
REMARK    6  A    between atoms: O1_12  and  C12_13 
REMARK    7  A    between atoms: C16_20  and  C17_22 
ROOT
HETATM    1  C11 UNL     1       0.199  -0.828   1.662  1.00  0.00     0.151 C 
ENDROOT
BRANCH   1   2
HETATM    2  C10 UNL     1       0.701   0.424   0.945  1.00  0.00     0.032 C 
BRANCH   2   3
HETATM    3  C9  UNL     1      -0.162   0.803  -0.258  1.00  0.00     0.003 C 
BRANCH   3   4
HETATM    4  C5  UNL     1      -1.369   1.668   0.127  1.00  0.00     0.000 C 
HETATM    5  C4  UNL     1      -1.071   3.168  -0.098  1.00  0.00     0.003 C 
HETATM    6  C3  UNL     1      -2.280   4.045   0.270  1.00  0.00     0.033 C 
HETATM    7  C19 UNL     1       0.172   3.619   0.680  1.00  0.00     0.000 C 
HETATM    8  C2  UNL     1      -3.549   3.592  -0.469  1.00  0.00     0.152 C 
HETATM    9  C1  UNL     1      -3.844   2.106  -0.209  1.00  0.00     0.033 C 
HETATM   10  O8  UNL     1      -4.645   4.369  -0.033  1.00  0.00    -0.224 OA
HETATM   11  C6  UNL     1      -2.656   1.203  -0.602  1.00  0.00     0.003 C 
HETATM   12  C7  UNL     1      -2.457   1.250  -2.123  1.00  0.00     0.000 C 
HETATM   13  C8  UNL     1      -2.983  -0.244  -0.207  1.00  0.00     0.000 C 
ENDBRANCH   3   4
ENDBRANCH   2   3
ENDBRANCH   1   2
BRANCH   1  14
HETATM   14  O1  UNL     1       1.053  -1.900   1.332  1.00  0.00    -0.329 OA
BRANCH  14  15
HETATM   15  C12 UNL     1       0.873  -2.369   0.004  1.00  0.00     0.270 C 
HETATM   16  C13 UNL     1       1.209  -3.879  -0.129  1.00  0.00     0.241 C 
HETATM   17  O2  UNL     1       0.461  -4.637   0.811  1.00  0.00    -0.215 OA
HETATM   18  C14 UNL     1       2.721  -4.147   0.027  1.00  0.00     0.220 C 
HETATM   19  O3  UNL     1       3.006  -5.502  -0.285  1.00  0.00    -0.218 OA
HETATM   20  C15 UNL     1       3.502  -3.219  -0.930  1.00  0.00     0.215 C 
HETATM   21  O4  UNL     1       4.892  -3.320  -0.670  1.00  0.00    -0.218 OA
HETATM   22  C16 UNL     1       3.076  -1.740  -0.771  1.00  0.00     0.184 C 
HETATM   23  O5  UNL     1       1.662  -1.623  -0.920  1.00  0.00    -0.326 OA
BRANCH  22  24
HETATM   24  C17 UNL     1       3.705  -0.824  -1.826  1.00  0.00     0.214 C 
HETATM   25  O6  UNL     1       3.392   0.510  -1.496  1.00  0.00    -0.218 OA
ENDBRANCH  22  24
ENDBRANCH  14  15
ENDBRANCH   1  14
BRANCH   1  26
HETATM   26  C18 UNL     1       0.191  -0.676   3.184  1.00  0.00     0.212 C 
HETATM   27  O7  UNL     1      -0.442  -1.807   3.738  1.00  0.00    -0.218 OA
ENDBRANCH   1  26
TORSDOF 7
