REMARK  3 active torsions:
REMARK  status: ('A' for Active; 'I' for Inactive)
REMARK    1  A    between atoms: C1_1  and  O5_21 
REMARK    2  A    between atoms: C6_6  and  O1_7 
REMARK    3  A    between atoms: C8_10  and  C11_14 
ROOT
HETATM    1  C1  UNL     1      -2.904  -0.572   0.352  1.00  0.00     0.120 A 
HETATM    2  C2  UNL     1      -2.746  -1.881   0.869  1.00  0.00     0.054 A 
HETATM    3  C3  UNL     1      -1.453  -2.414   1.076  1.00  0.00     0.138 A 
HETATM    4  C4  UNL     1      -0.312  -1.631   0.762  1.00  0.00     0.089 A 
HETATM    5  C5  UNL     1      -0.469  -0.316   0.242  1.00  0.00     0.129 A 
HETATM    6  C6  UNL     1      -1.766   0.209   0.039  1.00  0.00     0.139 A 
HETATM    7  O2  UNL     1       0.617   0.432  -0.055  1.00  0.00    -0.305 OA
HETATM    8  C8  UNL     1       1.887   0.006   0.109  1.00  0.00     0.103 A 
HETATM    9  C9  UNL     1       2.156  -1.228   0.594  1.00  0.00     0.067 A 
HETATM   10  C10 UNL     1       1.066  -2.156   0.963  1.00  0.00     0.202 A 
HETATM   11  O3  UNL     1       1.385  -3.242   1.389  1.00  0.00    -0.286 OA
HETATM   12  O4  UNL     1      -1.324  -3.656   1.566  1.00  0.00    -0.190 OA
ENDROOT
BRANCH   8  13
HETATM   13  C11 UNL     1       3.024   0.904  -0.246  1.00  0.00     0.023 A 
HETATM   14  C12 UNL     1       2.850   1.912  -1.213  1.00  0.00     0.002 A 
HETATM   15  C13 UNL     1       3.922   2.758  -1.547  1.00  0.00     0.000 A 
HETATM   16  C14 UNL     1       5.168   2.598  -0.918  1.00  0.00     0.000 A 
HETATM   17  C15 UNL     1       5.342   1.592   0.047  1.00  0.00     0.000 A 
HETATM   18  C16 UNL     1       4.272   0.746   0.383  1.00  0.00     0.002 A 
ENDBRANCH   8  13
BRANCH   6  19
HETATM   19  O1  UNL     1      -1.918   1.447  -0.451  1.00  0.00    -0.324 OA
HETATM   20  C7  UNL     1      -2.959   1.670  -1.391  1.00  0.00     0.182 C 
ENDBRANCH   6  19
BRANCH   1  21
HETATM   21  O5  UNL     1      -4.135  -0.076   0.160  1.00  0.00    -0.326 OA
HETATM   22  C17 UNL     1      -5.244  -0.916   0.443  1.00  0.00     0.181 C 
ENDBRANCH   1  21
TORSDOF 3
