REMARK  7 active torsions:
REMARK  status: ('A' for Active; 'I' for Inactive)
REMARK    1  A    between atoms: C3_3  and  C8_8 
REMARK    2  A    between atoms: C8_8  and  C9_9 
REMARK    3  A    between atoms: C9_9  and  C10_10 
REMARK    4  A    between atoms: C10_10  and  C11_11 
REMARK    5  A    between atoms: C12_12  and  C13_13 
REMARK    6  A    between atoms: C13_13  and  C14_14 
REMARK    7  A    between atoms: C14_14  and  C15_15 
ROOT
HETATM    1  C9  UNL     1      -0.092   0.242  -1.252  1.00  0.00     0.035 C 
ENDROOT
BRANCH   1   2
HETATM    2  C8  UNL     1      -0.406   0.221  -2.748  1.00  0.00     0.127 C 
HETATM    3  C20 UNL     1      -0.490   1.623  -3.352  1.00  0.00     0.033 C 
HETATM    4  O1  UNL     1       0.707  -0.311  -3.428  1.00  0.00    -0.226 OA
BRANCH   2   5
HETATM    5  C3  UNL     1      -1.629  -0.641  -3.082  1.00  0.00     0.033 C 
HETATM    6  C2  UNL     1      -1.480  -2.064  -2.522  1.00  0.00     0.028 C 
HETATM    7  C1  UNL     1      -2.750  -2.887  -2.586  1.00  0.00    -0.035 C 
HETATM    8  C6  UNL     1      -3.965  -2.328  -2.779  1.00  0.00    -0.048 C 
HETATM    9  C5  UNL     1      -4.145  -0.840  -2.986  1.00  0.00     0.022 C 
HETATM   10  C7  UNL     1      -5.197  -3.193  -2.799  1.00  0.00     0.026 C 
HETATM   11  C4  UNL     1      -2.926  -0.006  -2.565  1.00  0.00     0.007 C 
ENDBRANCH   2   5
ENDBRANCH   1   2
BRANCH   1  12
HETATM   12  C10 UNL     1       0.781   1.432  -0.850  1.00  0.00     0.028 C 
BRANCH  12  13
HETATM   13  C11 UNL     1       1.203   1.369   0.594  1.00  0.00    -0.035 C 
HETATM   14  C12 UNL     1       2.236   2.131   0.992  1.00  0.00    -0.048 C 
HETATM   15  C19 UNL     1       2.918   3.006  -0.025  1.00  0.00     0.026 C 
BRANCH  14  16
HETATM   16  C13 UNL     1       2.660   2.068   2.435  1.00  0.00     0.026 C 
BRANCH  16  17
HETATM   17  C14 UNL     1       2.346   0.719   3.078  1.00  0.00     0.030 C 
BRANCH  17  18
HETATM   18  C15 UNL     1       3.018   0.547   4.414  1.00  0.00    -0.034 C 
HETATM   19  C16 UNL     1       2.541  -0.381   5.258  1.00  0.00    -0.048 C 
HETATM   20  C17 UNL     1       3.166  -0.502   6.621  1.00  0.00     0.026 C 
HETATM   21  C18 UNL     1       1.404  -1.254   4.797  1.00  0.00     0.026 C 
ENDBRANCH  17  18
ENDBRANCH  16  17
ENDBRANCH  14  16
ENDBRANCH  12  13
ENDBRANCH   1  12
TORSDOF 7
