REMARK  4 active torsions:
REMARK  status: ('A' for Active; 'I' for Inactive)
REMARK    1  A    between atoms: C15_17  and  C18_20 
REMARK    2  A    between atoms: C19_21  and  C20_22 
REMARK    3  A    between atoms: C20_22  and  C21_23 
REMARK    4  A    between atoms: C21_23  and  C22_24 
ROOT
HETATM    1  C1  UNL     1       6.283   0.348   0.588  1.00  0.00     0.182 C 
HETATM    2  C2  UNL     1       6.955   1.049  -0.615  1.00  0.00     0.183 C 
HETATM    3  C3  UNL     1       5.904   1.719  -1.522  1.00  0.00     0.043 C 
HETATM    4  C4  UNL     1       4.922   2.621  -0.738  1.00  0.00     0.065 C 
HETATM    5  C5  UNL     1       4.217   1.871   0.422  1.00  0.00     0.015 C 
HETATM    6  C6  UNL     1       5.320   1.289   1.340  1.00  0.00     0.036 C 
HETATM    7  C7  UNL     1       3.234   0.787  -0.154  1.00  0.00     0.052 C 
HETATM    8  C8  UNL     1       2.320   1.381  -1.236  1.00  0.00    -0.012 C 
HETATM    9  C9  UNL     1       2.649   2.508  -1.902  1.00  0.00     0.031 C 
HETATM   10  C10 UNL     1       3.906   3.231  -1.676  1.00  0.00     0.172 C 
HETATM   11  O1  UNL     1       4.117   4.287  -2.223  1.00  0.00    -0.291 OA
HETATM   12  C11 UNL     1       1.035   0.641  -1.555  1.00  0.00     0.142 C 
HETATM   13  C12 UNL     1       0.289   0.229  -0.274  1.00  0.00     0.034 C 
HETATM   14  C13 UNL     1       1.174  -0.730   0.529  1.00  0.00     0.036 C 
HETATM   15  C14 UNL     1       2.459   0.008   0.969  1.00  0.00     0.156 C 
HETATM   16  O2  UNL     1       3.299  -0.973   1.549  1.00  0.00    -0.223 OA
HETATM   17  C15 UNL     1      -1.014  -0.375  -0.822  1.00  0.00     0.030 C 
HETATM   18  C16 UNL     1      -1.369   0.570  -1.981  1.00  0.00     0.005 C 
HETATM   19  C17 UNL     1      -0.096   1.367  -2.305  1.00  0.00     0.035 C 
HETATM   20  C29 UNL     1      -0.070   1.465   0.568  1.00  0.00     0.003 C 
HETATM   21  O5  UNL     1       1.404  -0.486  -2.340  1.00  0.00    -0.222 OA
HETATM   22  C30 UNL     1       3.416   2.893   1.250  1.00  0.00     0.001 C 
HETATM   23  O6  UNL     1       7.863   2.049  -0.180  1.00  0.00    -0.221 OA
HETATM   24  O7  UNL     1       7.250  -0.160   1.490  1.00  0.00    -0.221 OA
ENDROOT
BRANCH  17  25
HETATM   25  C18 UNL     1      -2.139  -0.506   0.201  1.00  0.00     0.120 C 
HETATM   26  C19 UNL     1      -3.455  -1.041  -0.397  1.00  0.00     0.142 C 
HETATM   27  O3  UNL     1      -4.367   0.014  -0.164  1.00  0.00    -0.335 OA
HETATM   28  C25 UNL     1      -3.887   0.861   0.853  1.00  0.00     0.187 C 
HETATM   29  O4  UNL     1      -2.496   0.791   0.635  1.00  0.00    -0.337 OA
HETATM   30  C26 UNL     1      -4.387   2.283   0.641  1.00  0.00     0.061 C 
HETATM   31  C27 UNL     1      -4.236   0.287   2.225  1.00  0.00     0.061 C 
HETATM   32  C28 UNL     1      -1.607  -1.279   1.406  1.00  0.00     0.032 C 
BRANCH  26  33
HETATM   33  C20 UNL     1      -4.002  -2.301   0.269  1.00  0.00     0.032 C 
BRANCH  33  34
HETATM   34  C21 UNL     1      -5.190  -2.824  -0.541  1.00  0.00     0.003 C 
BRANCH  34  35
HETATM   35  C22 UNL     1      -5.734  -4.147  -0.002  1.00  0.00     0.000 C 
HETATM   36  C23 UNL     1      -6.447  -3.988   1.342  1.00  0.00     0.000 C 
HETATM   37  C24 UNL     1      -6.576  -4.900  -1.033  1.00  0.00     0.000 C 
ENDBRANCH  34  35
ENDBRANCH  33  34
ENDBRANCH  26  33
ENDBRANCH  17  25
TORSDOF 4
