REMARK  4 active torsions:
REMARK  status: ('A' for Active; 'I' for Inactive)
REMARK    1  A    between atoms: O1_1  and  C1_2 
REMARK    2  A    between atoms: O1_1  and  C8_10 
REMARK    3  A    between atoms: C1_2  and  C2_3 
REMARK    4  A    between atoms: C8_10  and  C9_11 
ROOT
HETATM    1  O1  UNL     1       0.166   0.428  -0.602  1.00  0.00    -0.345 OA
ENDROOT
BRANCH   1   2
HETATM    2  C1  UNL     1      -0.055   0.012  -1.930  1.00  0.00     0.169 C 
BRANCH   2   3
HETATM    3  C2  UNL     1      -0.750  -1.301  -1.930  1.00  0.00     0.007 A 
HETATM    4  C3  UNL     1      -2.154  -1.354  -1.930  1.00  0.00     0.000 A 
HETATM    5  C4  UNL     1      -2.813  -2.596  -1.930  1.00  0.00     0.027 A 
HETATM    6  C5  UNL     1      -2.068  -3.789  -1.930  1.00  0.00     0.131 A 
HETATM    7  C6  UNL     1      -0.664  -3.735  -1.930  1.00  0.00     0.027 A 
HETATM    8  O2  UNL     1      -2.686  -4.955  -1.930  1.00  0.00    -0.190 OA
HETATM    9  C7  UNL     1      -0.004  -2.494  -1.930  1.00  0.00     0.000 A 
ENDBRANCH   2   3
ENDBRANCH   1   2
BRANCH   1  10
HETATM   10  C8  UNL     1       0.824   1.670  -0.510  1.00  0.00     0.169 C 
BRANCH  10  11
HETATM   11  C9  UNL     1       1.012   2.027   0.922  1.00  0.00     0.007 A 
HETATM   12  C10 UNL     1       0.025   2.766   1.598  1.00  0.00     0.000 A 
HETATM   13  C11 UNL     1       0.205   3.103   2.951  1.00  0.00     0.027 A 
HETATM   14  C12 UNL     1       1.367   2.703   3.631  1.00  0.00     0.131 A 
HETATM   15  C13 UNL     1       2.352   1.963   2.953  1.00  0.00     0.027 A 
HETATM   16  O3  UNL     1       1.535   3.019   4.900  1.00  0.00    -0.190 OA
HETATM   17  C14 UNL     1       2.176   1.625   1.600  1.00  0.00     0.000 A 
ENDBRANCH  10  11
ENDBRANCH   1  10
TORSDOF 4
