REMARK  4 active torsions:
REMARK  status: ('A' for Active; 'I' for Inactive)
REMARK    1  A    between atoms: C1_1  and  O3_18 
REMARK    2  A    between atoms: C3_3  and  O2_16 
REMARK    3  A    between atoms: C5_5  and  C7_7 
REMARK    4  A    between atoms: C8_8  and  C9_9 
ROOT
HETATM    1  C1  UNL     1       0.219  -3.148  -0.008  1.00  0.00     0.096 A 
HETATM    2  C2  UNL     1      -1.186  -3.195  -0.008  1.00  0.00     0.048 A 
HETATM    3  C3  UNL     1      -1.937  -2.006  -0.008  1.00  0.00     0.096 A 
HETATM    4  C4  UNL     1      -1.275  -0.766  -0.008  1.00  0.00     0.024 A 
HETATM    5  C5  UNL     1       0.129  -0.713  -0.008  1.00  0.00     0.004 A 
HETATM    6  C6  UNL     1       0.875  -1.904  -0.008  1.00  0.00     0.024 A 
ENDROOT
BRANCH   5   7
HETATM    7  C7  UNL     1       0.828   0.607  -0.008  1.00  0.00     0.000 C 
HETATM    8  C8  UNL     1       0.090   1.729  -0.008  1.00  0.00     0.000 C 
BRANCH   8   9
HETATM    9  C9  UNL     1       0.789   3.047  -0.008  1.00  0.00     0.000 A 
HETATM   10  C10 UNL     1       0.043   4.240  -0.008  1.00  0.00     0.002 A 
HETATM   11  C11 UNL     1       0.703   5.481  -0.008  1.00  0.00     0.027 A 
HETATM   12  C12 UNL     1       2.108   5.537  -0.008  1.00  0.00     0.131 A 
HETATM   13  C13 UNL     1       2.852   4.342  -0.008  1.00  0.00     0.027 A 
HETATM   14  O1  UNL     1       2.725   6.701  -0.008  1.00  0.00    -0.190 OA
HETATM   15  C14 UNL     1       2.193   3.100  -0.008  1.00  0.00     0.002 A 
ENDBRANCH   8   9
ENDBRANCH   5   7
BRANCH   3  16
HETATM   16  O2  UNL     1      -3.254  -2.055  -0.008  1.00  0.00    -0.328 OA
HETATM   17  C15 UNL     1      -3.873  -3.332  -0.008  1.00  0.00     0.181 C 
ENDBRANCH   3  16
BRANCH   1  18
HETATM   18  O3  UNL     1       0.918  -4.266  -0.008  1.00  0.00    -0.328 OA
HETATM   19  C16 UNL     1       0.211  -5.494   0.070  1.00  0.00     0.181 C 
ENDBRANCH   1  18
TORSDOF 4
