REMARK  5 active torsions:
REMARK  status: ('A' for Active; 'I' for Inactive)
REMARK    1  A    between atoms: C2_2  and  O3_23 
REMARK    2  A    between atoms: C12_12  and  C15_15 
REMARK    3  A    between atoms: C15_15  and  C16_16 
REMARK    4  A    between atoms: O3_23  and  C21_24 
REMARK    5  A    between atoms: C25_31  and  C26_33 
ROOT
HETATM    1  C1  UNL     1      -1.111   1.014  -0.129  1.00  0.00     0.177 C 
HETATM    2  C2  UNL     1      -1.941  -0.213  -0.439  1.00  0.00     0.175 C 
HETATM    3  C3  UNL     1      -1.119  -1.352  -1.098  1.00  0.00     0.032 C 
HETATM    4  C4  UNL     1       0.109  -1.672  -0.201  1.00  0.00     0.004 C 
HETATM    5  C5  UNL     1       0.982  -0.420   0.195  1.00  0.00     0.011 C 
HETATM    6  C6  UNL     1       0.377   0.902  -0.344  1.00  0.00     0.067 C 
HETATM    7  C7  UNL     1       2.451  -0.557  -0.313  1.00  0.00     0.018 C 
HETATM    8  C8  UNL     1       3.076  -1.869   0.139  1.00  0.00    -0.049 C 
HETATM    9  C9  UNL     1       2.201  -3.100   0.086  1.00  0.00     0.022 C 
HETATM   10  C10 UNL     1       0.947  -2.848  -0.756  1.00  0.00     0.004 C 
HETATM   11  C11 UNL     1       4.355  -1.973   0.566  1.00  0.00    -0.033 C 
HETATM   12  C12 UNL     1       5.301  -0.791   0.654  1.00  0.00     0.049 C 
HETATM   13  C13 UNL     1       4.813   0.375  -0.225  1.00  0.00     0.007 C 
HETATM   14  C14 UNL     1       3.332   0.668   0.025  1.00  0.00     0.004 C 
HETATM   15  C17 UNL     1       6.693  -1.236   0.195  1.00  0.00     0.007 C 
HETATM   16  C18 UNL     1       1.010  -0.318   1.732  1.00  0.00     0.001 C 
HETATM   17  C19 UNL     1      -0.664  -0.967  -2.514  1.00  0.00     0.003 C 
HETATM   18  C20 UNL     1      -2.004  -2.603  -1.219  1.00  0.00     0.003 C 
HETATM   19  O9  UNL     1      -1.611   2.035   0.281  1.00  0.00    -0.293 OA
ENDROOT
BRANCH   2  20
HETATM   20  O3  UNL     1      -3.031   0.149  -1.268  1.00  0.00    -0.324 OA
BRANCH  20  21
HETATM   21  C21 UNL     1      -4.016   0.906  -0.592  1.00  0.00     0.270 C 
HETATM   22  C22 UNL     1      -5.422   0.291  -0.813  1.00  0.00     0.241 C 
HETATM   23  O4  UNL     1      -5.477  -0.986  -0.197  1.00  0.00    -0.215 OA
HETATM   24  C23 UNL     1      -6.524   1.195  -0.215  1.00  0.00     0.220 C 
HETATM   25  O5  UNL     1      -7.801   0.717  -0.604  1.00  0.00    -0.218 OA
HETATM   26  C24 UNL     1      -6.336   2.649  -0.705  1.00  0.00     0.215 C 
HETATM   27  O6  UNL     1      -7.223   3.508  -0.010  1.00  0.00    -0.218 OA
HETATM   28  C25 UNL     1      -4.889   3.137  -0.475  1.00  0.00     0.184 C 
HETATM   29  O7  UNL     1      -3.984   2.234  -1.096  1.00  0.00    -0.326 OA
BRANCH  28  30
HETATM   30  C26 UNL     1      -4.623   4.518  -1.082  1.00  0.00     0.214 C 
HETATM   31  O8  UNL     1      -3.342   4.940  -0.672  1.00  0.00    -0.218 OA
ENDBRANCH  28  30
ENDBRANCH  20  21
ENDBRANCH   2  20
BRANCH  12  32
HETATM   32  C15 UNL     1       5.377  -0.357   2.121  1.00  0.00     0.189 C 
HETATM   33  O2  UNL     1       6.209   0.777   2.201  1.00  0.00    -0.220 OA
BRANCH  32  34
HETATM   34  C16 UNL     1       5.961  -1.441   3.027  1.00  0.00     0.215 C 
HETATM   35  O1  UNL     1       5.746  -1.060   4.367  1.00  0.00    -0.218 OA
ENDBRANCH  32  34
ENDBRANCH  12  32
TORSDOF 5
