REMARK  6 active torsions:
REMARK  status: ('A' for Active; 'I' for Inactive)
REMARK    1  A    between atoms: C2_2  and  C3_3 
REMARK    2  A    between atoms: C3_3  and  C4_4 
REMARK    3  A    between atoms: C6_6  and  O1_10 
REMARK    4  A    between atoms: O1_10  and  C10_11 
REMARK    5  A    between atoms: C14_15  and  C16_17 
REMARK    6  A    between atoms: C16_17  and  C17_18 
ROOT
HETATM    1  C10 UNL     1       0.640   0.796  -0.594  1.00  0.00     0.125 A 
HETATM    2  C11 UNL     1       0.109   0.622  -1.886  1.00  0.00     0.154 A 
HETATM    3  C12 UNL     1       0.041   1.715  -2.767  1.00  0.00     0.029 A 
HETATM    4  C13 UNL     1       0.501   2.980  -2.363  1.00  0.00    -0.002 A 
HETATM    5  C14 UNL     1       1.031   3.154  -1.073  1.00  0.00    -0.016 A 
HETATM    6  C15 UNL     1       1.099   2.062  -0.191  1.00  0.00     0.023 A 
HETATM    7  O2  UNL     1      -0.324  -0.562  -2.272  1.00  0.00    -0.188 OA
ENDROOT
BRANCH   1   8
HETATM    8  O1  UNL     1       0.707  -0.223   0.239  1.00  0.00    -0.305 OA
BRANCH   8   9
HETATM    9  C6  UNL     1      -0.375  -0.955   0.411  1.00  0.00     0.100 A 
HETATM   10  C5  UNL     1      -0.264  -2.320   0.729  1.00  0.00     0.021 A 
HETATM   11  C4  UNL     1      -1.419  -3.100   0.913  1.00  0.00    -0.016 A 
HETATM   12  C9  UNL     1      -2.690  -2.514   0.778  1.00  0.00    -0.004 A 
HETATM   13  C8  UNL     1      -2.804  -1.150   0.461  1.00  0.00     0.002 A 
HETATM   14  C7  UNL     1      -1.648  -0.372   0.278  1.00  0.00     0.025 A 
BRANCH  11  15
HETATM   15  C3  UNL     1      -1.297  -4.543   1.249  1.00  0.00     0.052 C 
BRANCH  15  16
HETATM   16  C2  UNL     1      -0.910  -4.759   2.687  1.00  0.00    -0.021 C 
HETATM   17  C1  UNL     1      -1.119  -5.969   3.232  1.00  0.00    -0.005 C 
ENDBRANCH  15  16
ENDBRANCH  11  15
ENDBRANCH   8   9
ENDBRANCH   1   8
BRANCH   5  18
HETATM   18  C16 UNL     1       1.518   4.491  -0.642  1.00  0.00     0.052 C 
BRANCH  18  19
HETATM   19  C17 UNL     1       3.021   4.573  -0.642  1.00  0.00    -0.021 C 
HETATM   20  C18 UNL     1       3.596   5.787  -0.642  1.00  0.00    -0.005 C 
ENDBRANCH  18  19
ENDBRANCH   5  18
TORSDOF 6
