REMARK  1 active torsions:
REMARK  status: ('A' for Active; 'I' for Inactive)
REMARK    1  A    between atoms: C19_19  and  C22_22 
ROOT
HETATM    1  C1  UNL     1       4.832   0.369  -2.537  1.00  0.00     0.000 C 
HETATM    2  C2  UNL     1       5.777  -0.486  -1.695  1.00  0.00     0.000 C 
HETATM    3  C3  UNL     1       5.361  -0.521  -0.207  1.00  0.00     0.000 C 
HETATM    4  C4  UNL     1       3.813  -0.361  -0.037  1.00  0.00     0.003 C 
HETATM    5  C5  UNL     1       2.992  -0.939  -1.225  1.00  0.00     0.015 C 
HETATM    6  C6  UNL     1       3.406  -0.207  -2.539  1.00  0.00     0.004 C 
HETATM    7  C7  UNL     1       1.486  -0.764  -1.016  1.00  0.00    -0.049 C 
HETATM    8  C8  UNL     1       0.996  -0.303   0.355  1.00  0.00     0.018 C 
HETATM    9  C9  UNL     1       1.797  -1.039   1.447  1.00  0.00     0.004 C 
HETATM   10  C10 UNL     1       3.313  -0.824   1.355  1.00  0.00     0.001 C 
HETATM   11  C11 UNL     1      -0.545  -0.436   0.549  1.00  0.00     0.004 C 
HETATM   12  C12 UNL     1      -1.246   0.100  -0.734  1.00  0.00     0.004 C 
HETATM   13  C13 UNL     1      -0.867  -0.805  -1.922  1.00  0.00     0.025 C 
HETATM   14  C14 UNL     1       0.627  -1.006  -2.035  1.00  0.00    -0.034 C 
HETATM   15  C15 UNL     1      -2.774   0.053  -0.502  1.00  0.00     0.000 C 
HETATM   16  C16 UNL     1      -3.240   0.881   0.709  1.00  0.00     0.000 C 
HETATM   17  C17 UNL     1      -2.565   0.324   1.967  1.00  0.00     0.000 C 
HETATM   18  C18 UNL     1      -1.031   0.355   1.791  1.00  0.00     0.000 C 
HETATM   19  C19 UNL     1      -4.748   0.615   0.609  1.00  0.00     0.000 C 
HETATM   20  C20 UNL     1      -5.033   0.793  -0.889  1.00  0.00     0.000 C 
HETATM   21  C21 UNL     1      -3.703   0.545  -1.611  1.00  0.00     0.000 C 
HETATM   22  C25 UNL     1      -2.998   2.391   0.572  1.00  0.00     0.000 C 
HETATM   23  C26 UNL     1      -0.830   1.545  -1.059  1.00  0.00     0.000 C 
HETATM   24  C27 UNL     1      -0.899  -1.920   0.766  1.00  0.00     0.000 C 
HETATM   25  C28 UNL     1       3.266  -2.445  -1.344  1.00  0.00     0.004 C 
HETATM   26  C29 UNL     1       6.057   0.623   0.543  1.00  0.00     0.000 C 
HETATM   27  C30 UNL     1       5.881  -1.840   0.383  1.00  0.00     0.000 C 
ENDROOT
BRANCH  19  28
HETATM   28  C22 UNL     1      -5.610   1.520   1.488  1.00  0.00     0.000 C 
HETATM   29  C23 UNL     1      -5.217   1.332   2.953  1.00  0.00     0.000 C 
HETATM   30  C24 UNL     1      -7.088   1.223   1.230  1.00  0.00     0.000 C 
ENDBRANCH  19  28
TORSDOF 1
