REMARK  0 active torsions:
REMARK  status: ('A' for Active; 'I' for Inactive)
ROOT
HETATM    1  C1  UNL     1      -2.772  -0.641   1.035  1.00  0.00    -0.026 C 
HETATM    2  C2  UNL     1      -3.117   0.711   0.455  1.00  0.00     0.048 C 
HETATM    3  C3  UNL     1      -1.902   1.435  -0.088  1.00  0.00    -0.040 C 
HETATM    4  C4  UNL     1      -0.654   0.646  -0.449  1.00  0.00     0.027 C 
HETATM    5  C5  UNL     1      -0.932  -0.887  -0.637  1.00  0.00     0.027 C 
HETATM    6  C6  UNL     1      -1.772  -1.385   0.527  1.00  0.00    -0.030 C 
HETATM    7  C7  UNL     1       0.367  -1.758  -0.762  1.00  0.00     0.068 C 
HETATM    8  C8  UNL     1       1.658  -0.938  -0.840  1.00  0.00     0.242 C 
HETATM    9  C9  UNL     1       1.666   0.058   0.281  1.00  0.00     0.011 C 
HETATM   10  C10 UNL     1       0.484   0.951   0.553  1.00  0.00     0.031 C 
HETATM   11  C11 UNL     1       2.813  -0.041   0.951  1.00  0.00     0.038 C 
HETATM   12  C12 UNL     1       3.553  -1.154   0.379  1.00  0.00     0.293 C 
HETATM   13  O1  UNL     1       2.838  -1.729  -0.604  1.00  0.00    -0.271 OA
HETATM   14  O2  UNL     1       4.649  -1.496   0.756  1.00  0.00    -0.259 OA
HETATM   15  C13 UNL     1       3.250   0.822   2.106  1.00  0.00     0.036 C 
HETATM   16  O3  UNL     1       1.772  -0.301  -2.100  1.00  0.00    -0.191 OA
HETATM   17  C14 UNL     1      -1.773  -1.078  -1.908  1.00  0.00     0.005 C 
HETATM   18  C15 UNL     1      -1.936   2.771  -0.250  1.00  0.00    -0.009 C 
ENDROOT
TORSDOF 0
