REMARK  0 active torsions:
REMARK  status: ('A' for Active; 'I' for Inactive)
ROOT
HETATM    1  C1  UNL     1       2.906   1.928  -0.326  1.00  0.00    -0.000 A 
HETATM    2  C2  UNL     1       3.897   0.930  -0.268  1.00  0.00    -0.004 A 
HETATM    3  C3  UNL     1       3.533  -0.424  -0.104  1.00  0.00    -0.022 A 
HETATM    4  C4  UNL     1       2.156  -0.781   0.000  1.00  0.00    -0.004 A 
HETATM    5  C5  UNL     1       1.129   0.224  -0.065  1.00  0.00     0.002 A 
HETATM    6  C6  UNL     1       1.541   1.582  -0.225  1.00  0.00     0.000 A 
HETATM    7  C7  UNL     1      -0.258  -0.170   0.037  1.00  0.00     0.026 A 
HETATM    8  C8  UNL     1      -0.576  -1.563   0.205  1.00  0.00     0.044 A 
HETATM    9  C9  UNL     1       0.455  -2.526   0.269  1.00  0.00     0.003 A 
HETATM   10  C10 UNL     1       1.805  -2.145   0.166  1.00  0.00    -0.000 A 
HETATM   11  C11 UNL     1      -2.000  -2.045   0.320  1.00  0.00     0.234 A 
HETATM   12  C12 UNL     1      -3.096  -1.053   0.254  1.00  0.00     0.236 A 
HETATM   13  C13 UNL     1      -2.719   0.361   0.078  1.00  0.00     0.063 A 
HETATM   14  C14 UNL     1      -1.418   0.791  -0.025  1.00  0.00     0.103 A 
HETATM   15  O1  UNL     1      -1.336   2.162  -0.188  1.00  0.00    -0.305 OA
HETATM   16  C15 UNL     1      -2.672   2.592  -0.182  1.00  0.00     0.118 A 
HETATM   17  C16 UNL     1      -3.502   1.476  -0.020  1.00  0.00     0.008 A 
HETATM   18  C17 UNL     1      -5.016   1.514   0.039  1.00  0.00     0.033 C 
HETATM   19  O2  UNL     1      -4.258  -1.383   0.342  1.00  0.00    -0.283 OA
HETATM   20  O3  UNL     1      -2.350  -3.195   0.467  1.00  0.00    -0.283 OA
HETATM   21  C18 UNL     1       4.611  -1.430  -0.047  1.00  0.00     0.031 C 
ENDROOT
TORSDOF 0
