REMARK  7 active torsions:
REMARK  status: ('A' for Active; 'I' for Inactive)
REMARK    1  A    between atoms: C23_24  and  O2_28 
REMARK    2  A    between atoms: O2_28  and  C27_29 
REMARK    3  A    between atoms: C28_31  and  C43_57 
REMARK    4  A    between atoms: C31_34  and  O4_35 
REMARK    5  A    between atoms: O4_35  and  C32_36 
REMARK    6  A    between atoms: C36_41  and  O6_42 
REMARK    7  A    between atoms: O6_42  and  C37_43 
ROOT
HETATM    1  O2  UNL     1       3.043   0.393   1.307  1.00  0.00    -0.332 OA
ENDROOT
BRANCH   1   2
HETATM    2  C23 UNL     1       1.676   0.760   1.285  1.00  0.00     0.118 C 
HETATM    3  C22 UNL     1       1.135   0.576  -0.143  1.00  0.00     0.030 C 
HETATM    4  C21 UNL     1      -0.353   0.943  -0.219  1.00  0.00     0.003 C 
HETATM    5  C20 UNL     1      -1.221   0.143   0.779  1.00  0.00     0.001 C 
HETATM    6  C15 UNL     1      -2.693   0.660   0.758  1.00  0.00     0.005 C 
HETATM    7  C19 UNL     1      -0.637   0.320   2.211  1.00  0.00     0.002 C 
HETATM    8  C44 UNL     1      -1.184  -1.338   0.359  1.00  0.00     0.000 C 
HETATM    9  C14 UNL     1      -3.314   0.613  -0.658  1.00  0.00     0.025 C 
HETATM   10  C16 UNL     1      -3.629   0.008   1.824  1.00  0.00     0.004 C 
HETATM   11  C13 UNL     1      -4.824   0.650  -0.715  1.00  0.00    -0.035 C 
HETATM   12  C12 UNL     1      -5.606   0.656   0.385  1.00  0.00    -0.049 C 
HETATM   13  C2  UNL     1      -7.111   0.539   0.244  1.00  0.00     0.020 C 
HETATM   14  C11 UNL     1      -5.018   0.734   1.791  1.00  0.00     0.015 C 
HETATM   15  C1  UNL     1      -7.834   1.826   0.721  1.00  0.00     0.004 C 
HETATM   16  C3  UNL     1      -7.576  -0.785   0.916  1.00  0.00     0.032 C 
HETATM   17  C6  UNL     1      -9.367   1.701   0.770  1.00  0.00     0.003 C 
HETATM   18  C5  UNL     1      -9.750   0.441   1.566  1.00  0.00     0.033 C 
HETATM   19  C7  UNL     1      -9.934   1.627  -0.652  1.00  0.00     0.000 C 
HETATM   20  C8  UNL     1      -9.959   2.939   1.453  1.00  0.00     0.000 C 
HETATM   21  C4  UNL     1      -9.131  -0.822   0.945  1.00  0.00     0.152 C 
HETATM   22  O1  UNL     1      -9.606  -1.965   1.635  1.00  0.00    -0.224 OA
HETATM   23  C9  UNL     1      -6.930  -0.982   2.326  1.00  0.00     0.003 C 
HETATM   24  C47 UNL     1      -7.106  -1.947   0.020  1.00  0.00     0.003 C 
HETATM   25  C10 UNL     1      -6.039   0.170   2.824  1.00  0.00     0.004 C 
HETATM   26  C46 UNL     1      -4.830   2.231   2.100  1.00  0.00     0.004 C 
HETATM   27  C17 UNL     1      -2.961   0.119   3.219  1.00  0.00     0.000 C 
HETATM   28  C45 UNL     1      -3.836  -1.484   1.510  1.00  0.00     0.000 C 
HETATM   29  C18 UNL     1      -1.520  -0.396   3.248  1.00  0.00     0.000 C 
HETATM   30  C24 UNL     1       0.871  -0.049   2.336  1.00  0.00     0.025 C 
HETATM   31  C25 UNL     1       1.080  -1.561   2.152  1.00  0.00     0.002 C 
HETATM   32  C26 UNL     1       1.373   0.322   3.740  1.00  0.00     0.002 C 
ENDBRANCH   1   2
BRANCH   1  33
HETATM   33  C27 UNL     1       3.895   1.383   0.766  1.00  0.00     0.267 C 
HETATM   34  O3  UNL     1       3.971   2.461   1.690  1.00  0.00    -0.318 OA
HETATM   35  C28 UNL     1       4.752   3.568   1.260  1.00  0.00     0.237 C 
HETATM   36  C29 UNL     1       6.215   3.107   1.045  1.00  0.00     0.223 C 
HETATM   37  C30 UNL     1       6.289   1.912   0.070  1.00  0.00     0.217 C 
HETATM   38  O14 UNL     1       6.965   4.193   0.527  1.00  0.00    -0.217 OA
HETATM   39  C31 UNL     1       5.311   0.803   0.516  1.00  0.00     0.207 C 
HETATM   40  O13 UNL     1       7.613   1.400   0.037  1.00  0.00    -0.218 OA
BRANCH  35  41
HETATM   41  C43 UNL     1       4.617   4.654   2.299  1.00  0.00     0.217 C 
HETATM   42  O15 UNL     1       5.365   4.705   3.246  1.00  0.00    -0.646 OA
HETATM   43  O16 UNL     1       3.633   5.524   2.084  1.00  0.00    -0.646 OA
ENDBRANCH  35  41
BRANCH  39  44
HETATM   44  O4  UNL     1       5.238  -0.193  -0.492  1.00  0.00    -0.324 OA
BRANCH  44  45
HETATM   45  C32 UNL     1       6.031  -1.330  -0.209  1.00  0.00     0.267 C 
HETATM   46  O5  UNL     1       5.371  -2.104   0.785  1.00  0.00    -0.326 OA
HETATM   47  C33 UNL     1       6.080  -3.262   1.205  1.00  0.00     0.181 C 
HETATM   48  C34 UNL     1       6.268  -4.215   0.010  1.00  0.00     0.214 C 
HETATM   49  C35 UNL     1       6.969  -3.504  -1.168  1.00  0.00     0.217 C 
HETATM   50  O12 UNL     1       7.035  -5.324   0.441  1.00  0.00    -0.218 OA
HETATM   51  C36 UNL     1       6.236  -2.182  -1.490  1.00  0.00     0.207 C 
HETATM   52  O11 UNL     1       6.967  -4.346  -2.309  1.00  0.00    -0.218 OA
BRANCH  51  53
HETATM   53  O6  UNL     1       6.994  -1.439  -2.432  1.00  0.00    -0.324 OA
BRANCH  53  54
HETATM   54  C37 UNL     1       6.543  -1.602  -3.762  1.00  0.00     0.270 C 
HETATM   55  O7  UNL     1       5.315  -0.900  -3.906  1.00  0.00    -0.329 OA
HETATM   56  C38 UNL     1       4.707  -1.010  -5.186  1.00  0.00     0.151 C 
HETATM   57  C39 UNL     1       5.649  -0.410  -6.254  1.00  0.00     0.212 C 
HETATM   58  C42 UNL     1       3.361  -0.283  -5.100  1.00  0.00     0.035 C 
HETATM   59  C40 UNL     1       7.045  -1.070  -6.207  1.00  0.00     0.220 C 
HETATM   60  O10 UNL     1       5.068  -0.605  -7.531  1.00  0.00    -0.218 OA
HETATM   61  C41 UNL     1       7.590  -1.047  -4.762  1.00  0.00     0.241 C 
HETATM   62  O9  UNL     1       7.934  -0.377  -7.068  1.00  0.00    -0.218 OA
HETATM   63  O8  UNL     1       8.770  -1.832  -4.691  1.00  0.00    -0.215 OA
ENDBRANCH  53  54
ENDBRANCH  51  53
ENDBRANCH  44  45
ENDBRANCH  39  44
ENDBRANCH   1  33
TORSDOF 7
