REMARK  0 active torsions:
REMARK  status: ('A' for Active; 'I' for Inactive)
ROOT
HETATM    1  C1  UNL     1       3.225  -0.863  -0.064  1.00  0.00    -0.005 A 
HETATM    2  C2  UNL     1       1.939  -1.400   0.172  1.00  0.00    -0.026 A 
HETATM    3  C3  UNL     1       0.783  -0.578   0.066  1.00  0.00    -0.026 A 
HETATM    4  C4  UNL     1       0.936   0.809  -0.281  1.00  0.00    -0.025 A 
HETATM    5  C5  UNL     1       2.238   1.332  -0.512  1.00  0.00    -0.026 A 
HETATM    6  C6  UNL     1       3.373   0.496  -0.406  1.00  0.00    -0.005 A 
HETATM    7  C7  UNL     1       2.438   2.748  -0.863  1.00  0.00     0.031 C 
HETATM    8  C8  UNL     1      -0.258   1.709  -0.396  1.00  0.00     0.090 C 
HETATM    9  C9  UNL     1      -1.539   0.965  -0.789  1.00  0.00     0.246 C 
HETATM   10  C10 UNL     1      -1.697  -0.224   0.107  1.00  0.00     0.015 C 
HETATM   11  C11 UNL     1      -0.559  -1.189   0.318  1.00  0.00     0.052 C 
HETATM   12  C12 UNL     1      -2.912  -0.211   0.652  1.00  0.00     0.038 C 
HETATM   13  C13 UNL     1      -3.566   1.016   0.219  1.00  0.00     0.293 C 
HETATM   14  O1  UNL     1      -2.731   1.738  -0.549  1.00  0.00    -0.271 OA
HETATM   15  O2  UNL     1      -4.693   1.320   0.527  1.00  0.00    -0.259 OA
HETATM   16  C14 UNL     1      -3.496  -1.258   1.563  1.00  0.00     0.036 C 
HETATM   17  O3  UNL     1      -1.494   0.565  -2.146  1.00  0.00    -0.190 OA
HETATM   18  C15 UNL     1       1.820  -2.826   0.531  1.00  0.00     0.031 C 
ENDROOT
TORSDOF 0
