REMARK  7 active torsions:
REMARK  status: ('A' for Active; 'I' for Inactive)
REMARK    1  A    between atoms: C1_1  and  O8_29 
REMARK    2  A    between atoms: C3_3  and  O6_26 
REMARK    3  A    between atoms: C8_8  and  C20_24 
REMARK    4  A    between atoms: C9_9  and  C19_22 
REMARK    5  A    between atoms: C10_10  and  C11_11 
REMARK    6  A    between atoms: C13_13  and  O3_20 
REMARK    7  A    between atoms: C15_15  and  O1_17 
ROOT
HETATM    1  C1  UNL     1      -2.703  -2.131   1.701  1.00  0.00     0.121 A 
HETATM    2  C2  UNL     1      -3.008  -0.750   1.688  1.00  0.00     0.175 A 
HETATM    3  C3  UNL     1      -2.004   0.195   1.365  1.00  0.00     0.117 A 
HETATM    4  C4  UNL     1      -0.685  -0.242   1.061  1.00  0.00     0.002 A 
HETATM    5  C5  UNL     1      -0.387  -1.631   1.074  1.00  0.00    -0.022 A 
HETATM    6  C6  UNL     1      -1.396  -2.572   1.393  1.00  0.00     0.022 A 
HETATM    7  C7  UNL     1       0.994  -2.061   0.748  1.00  0.00     0.029 C 
HETATM    8  C8  UNL     1       2.053  -1.186   1.455  1.00  0.00     0.041 C 
HETATM    9  C9  UNL     1       1.736   0.342   1.436  1.00  0.00     0.044 C 
HETATM   10  C10 UNL     1       0.404   0.715   0.725  1.00  0.00     0.049 C 
HETATM   11  O7  UNL     1      -4.248  -0.334   1.981  1.00  0.00    -0.186 OA
ENDROOT
BRANCH  10  12
HETATM   12  C11 UNL     1       0.553   0.783  -0.760  1.00  0.00    -0.014 A 
HETATM   13  C12 UNL     1      -0.275   0.006  -1.588  1.00  0.00     0.022 A 
HETATM   14  C13 UNL     1      -0.137   0.068  -2.984  1.00  0.00     0.121 A 
HETATM   15  C14 UNL     1       0.836   0.912  -3.555  1.00  0.00     0.175 A 
HETATM   16  C15 UNL     1       1.668   1.690  -2.727  1.00  0.00     0.121 A 
HETATM   17  O2  UNL     1       0.969   0.973  -4.865  1.00  0.00    -0.186 OA
HETATM   18  C16 UNL     1       1.524   1.623  -1.330  1.00  0.00     0.022 A 
BRANCH  14  19
HETATM   19  O3  UNL     1      -0.916  -0.662  -3.756  1.00  0.00    -0.326 OA
HETATM   20  C18 UNL     1      -1.420  -0.070  -4.943  1.00  0.00     0.181 C 
ENDBRANCH  14  19
BRANCH  16  21
HETATM   21  O1  UNL     1       2.580   2.481  -3.258  1.00  0.00    -0.326 OA
HETATM   22  C17 UNL     1       3.305   3.338  -2.389  1.00  0.00     0.181 C 
ENDBRANCH  16  21
ENDBRANCH  10  12
BRANCH   9  23
HETATM   23  C19 UNL     1       1.752   0.908   2.863  1.00  0.00     0.183 C 
HETATM   24  O4  UNL     1       1.844   2.313   2.779  1.00  0.00    -0.221 OA
ENDBRANCH   9  23
BRANCH   3  25
HETATM   25  O6  UNL     1      -2.305   1.502   1.352  1.00  0.00    -0.326 OA
HETATM   26  C21 UNL     1      -3.174   1.996   2.361  1.00  0.00     0.181 C 
ENDBRANCH   3  25
BRANCH   8  27
HETATM   27  C20 UNL     1       3.455  -1.486   0.912  1.00  0.00     0.183 C 
HETATM   28  O5  UNL     1       4.397  -0.861   1.754  1.00  0.00    -0.221 OA
ENDBRANCH   8  27
BRANCH   1  29
HETATM   29  O8  UNL     1      -3.654  -3.027   2.004  1.00  0.00    -0.326 OA
HETATM   30  C22 UNL     1      -4.572  -3.397   0.986  1.00  0.00     0.181 C 
ENDBRANCH   1  29
TORSDOF 7
