REMARK  8 active torsions:
REMARK  status: ('A' for Active; 'I' for Inactive)
REMARK    1  A    between atoms: C1_1  and  C7_7 
REMARK    2  A    between atoms: C7_7  and  C8_8 
REMARK    3  A    between atoms: C8_8  and  C9_9 
REMARK    4  A    between atoms: C9_9  and  C10_10 
REMARK    5  A    between atoms: C11_11  and  C12_12 
REMARK    6  A    between atoms: C12_12  and  C13_13 
REMARK    7  A    between atoms: C13_13  and  C14_14 
REMARK    8  A    between atoms: C16_16  and  O2_21 
ROOT
HETATM    1  C10 UNL     1       0.783  -0.182  -0.910  1.00  0.00     0.035 C 
HETATM    2  C11 UNL     1       1.375   1.023  -0.865  1.00  0.00     0.009 C 
ENDROOT
BRANCH   2   3
HETATM    3  C12 UNL     1       0.740   2.105  -0.035  1.00  0.00     0.179 C 
HETATM    4  O3  UNL     1       0.412   3.199  -0.860  1.00  0.00    -0.218 OA
BRANCH   3   5
HETATM    5  C13 UNL     1       1.664   2.603   1.076  1.00  0.00     0.064 C 
BRANCH   5   6
HETATM    6  C14 UNL     1       0.980   3.588   1.957  1.00  0.00    -0.017 A 
HETATM    7  C15 UNL     1       0.004   3.154   2.871  1.00  0.00     0.022 A 
HETATM    8  C16 UNL     1      -0.646   4.082   3.705  1.00  0.00     0.119 A 
HETATM    9  C17 UNL     1      -0.316   5.447   3.625  1.00  0.00     0.153 A 
HETATM   10  C18 UNL     1       0.660   5.879   2.709  1.00  0.00     0.029 A 
HETATM   11  O1  UNL     1      -0.922   6.324   4.402  1.00  0.00    -0.188 OA
HETATM   12  C19 UNL     1       1.309   4.951   1.877  1.00  0.00    -0.002 A 
BRANCH   8  13
HETATM   13  O2  UNL     1      -1.561   3.668   4.558  1.00  0.00    -0.326 OA
HETATM   14  C20 UNL     1      -1.959   2.307   4.502  1.00  0.00     0.181 C 
ENDBRANCH   8  13
ENDBRANCH   5   6
ENDBRANCH   3   5
ENDBRANCH   2   3
BRANCH   1  15
HETATM   15  C9  UNL     1       1.357  -1.274  -1.705  1.00  0.00     0.173 C 
HETATM   16  O4  UNL     1       2.381  -1.104  -2.326  1.00  0.00    -0.291 OA
BRANCH  15  17
HETATM   17  C8  UNL     1       0.648  -2.602  -1.727  1.00  0.00     0.074 C 
BRANCH  17  18
HETATM   18  C7  UNL     1       0.465  -3.141  -3.145  1.00  0.00     0.035 C 
BRANCH  18  19
HETATM   19  C1  UNL     1      -0.232  -4.453  -3.145  1.00  0.00    -0.022 A 
HETATM   20  C2  UNL     1      -1.637  -4.506  -3.145  1.00  0.00    -0.004 A 
HETATM   21  C3  UNL     1      -2.295  -5.748  -3.145  1.00  0.00    -0.000 A 
HETATM   22  C4  UNL     1      -1.549  -6.940  -3.145  1.00  0.00    -0.000 A 
HETATM   23  C5  UNL     1      -0.145  -6.887  -3.145  1.00  0.00    -0.000 A 
HETATM   24  C6  UNL     1       0.514  -5.647  -3.145  1.00  0.00    -0.004 A 
ENDBRANCH  18  19
ENDBRANCH  17  18
ENDBRANCH  15  17
ENDBRANCH   1  15
TORSDOF 8
