REMARK  4 active torsions:
REMARK  status: ('A' for Active; 'I' for Inactive)
REMARK    1  A    between atoms: C1_1  and  C2_2 
REMARK    2  A    between atoms: C1_1  and  C11_14 
REMARK    3  A    between atoms: C2_2  and  C3_3 
REMARK    4  A    between atoms: C3_3  and  C4_4 
ROOT
HETATM    1  C3  UNL     1      -0.588  -0.033   1.551  1.00  0.00     0.035 C 
ENDROOT
BRANCH   1   2
HETATM    2  C2  UNL     1      -0.826  -0.256   0.057  1.00  0.00     0.074 C 
BRANCH   2   3
HETATM    3  C1  UNL     1      -2.065  -1.068  -0.213  1.00  0.00     0.173 C 
HETATM    4  O3  UNL     1      -2.774  -1.439   0.693  1.00  0.00    -0.291 OA
BRANCH   3   5
HETATM    5  C11 UNL     1      -2.399  -1.410  -1.627  1.00  0.00     0.035 A 
HETATM    6  C12 UNL     1      -1.567  -0.975  -2.674  1.00  0.00     0.003 A 
HETATM    7  C13 UNL     1      -1.881  -1.297  -4.006  1.00  0.00     0.000 A 
HETATM    8  C14 UNL     1      -3.031  -2.053  -4.293  1.00  0.00     0.000 A 
HETATM    9  C15 UNL     1      -3.864  -2.488  -3.248  1.00  0.00     0.000 A 
HETATM   10  C16 UNL     1      -3.549  -2.168  -1.916  1.00  0.00     0.003 A 
ENDBRANCH   3   5
ENDBRANCH   2   3
ENDBRANCH   1   2
BRANCH   1  11
HETATM   11  C4  UNL     1       0.631   0.756   1.793  1.00  0.00    -0.020 A 
HETATM   12  C5  UNL     1       1.900   0.143   1.738  1.00  0.00     0.022 A 
HETATM   13  C6  UNL     1       3.088   0.885   1.967  1.00  0.00     0.119 A 
HETATM   14  C7  UNL     1       2.998   2.250   2.252  1.00  0.00     0.119 A 
HETATM   15  O2  UNL     1       4.371   0.523   1.965  1.00  0.00    -0.300 OA
HETATM   16  C8  UNL     1       1.723   2.869   2.309  1.00  0.00     0.026 A 
HETATM   17  O1  UNL     1       4.226   2.740   2.430  1.00  0.00    -0.300 OA
HETATM   18  C9  UNL     1       0.541   2.133   2.082  1.00  0.00    -0.002 A 
HETATM   19  C10 UNL     1       5.189   1.678   2.254  1.00  0.00     0.304 A 
ENDBRANCH   1  11
TORSDOF 4
