REMARK  5 active torsions:
REMARK  status: ('A' for Active; 'I' for Inactive)
REMARK    1  A    between atoms: C15_17  and  C18_21 
REMARK    2  A    between atoms: C18_21  and  C20_23 
REMARK    3  A    between atoms: C20_23  and  C21_24 
REMARK    4  A    between atoms: C21_24  and  C22_25 
REMARK    5  A    between atoms: C22_25  and  O5_27 
ROOT
HETATM    1  C1  UNL     1      -5.451   0.672  -1.330  1.00  0.00     0.065 C 
HETATM    2  C2  UNL     1      -5.799  -0.793  -1.377  1.00  0.00     0.150 C 
HETATM    3  C3  UNL     1      -5.053  -1.686  -0.410  1.00  0.00     0.052 C 
HETATM    4  C4  UNL     1      -3.529  -1.389  -0.512  1.00  0.00     0.013 C 
HETATM    5  C5  UNL     1      -3.127   0.111  -0.361  1.00  0.00     0.022 C 
HETATM    6  C6  UNL     1      -3.938   0.904  -1.424  1.00  0.00     0.012 C 
HETATM    7  C7  UNL     1      -1.611   0.287  -0.553  1.00  0.00     0.006 C 
HETATM    8  C8  UNL     1      -0.768  -0.781  -0.457  1.00  0.00    -0.014 C 
HETATM    9  C9  UNL     1      -1.203  -2.121   0.127  1.00  0.00     0.170 C 
HETATM   10  C10 UNL     1      -2.699  -2.242   0.451  1.00  0.00     0.038 C 
HETATM   11  O1  UNL     1      -0.500  -2.398   1.322  1.00  0.00    -0.219 OA
HETATM   12  C11 UNL     1       0.656  -0.648  -0.990  1.00  0.00     0.046 C 
HETATM   13  C12 UNL     1       1.262   0.730  -0.664  1.00  0.00     0.013 C 
HETATM   14  C13 UNL     1       0.375   1.789  -1.320  1.00  0.00     0.069 C 
HETATM   15  C14 UNL     1      -1.059   1.647  -0.848  1.00  0.00     0.169 C 
HETATM   16  O2  UNL     1      -1.723   2.643  -0.693  1.00  0.00    -0.292 OA
HETATM   17  C15 UNL     1       2.687   0.605  -1.227  1.00  0.00     0.003 C 
HETATM   18  C16 UNL     1       3.088  -0.842  -0.900  1.00  0.00     0.033 C 
HETATM   19  C17 UNL     1       1.797  -1.529  -0.432  1.00  0.00     0.155 C 
HETATM   20  O3  UNL     1       1.748  -2.871  -0.891  1.00  0.00    -0.223 OA
HETATM   21  C24 UNL     1       1.332   0.969   0.854  1.00  0.00     0.001 C 
HETATM   22  C25 UNL     1       0.566  -0.875  -2.512  1.00  0.00     0.007 C 
HETATM   23  C26 UNL     1      -3.457   0.648   1.041  1.00  0.00     0.004 C 
HETATM   24  C27 UNL     1      -5.324  -3.154  -0.768  1.00  0.00     0.007 C 
HETATM   25  C28 UNL     1      -5.594  -1.430   1.002  1.00  0.00     0.007 C 
HETATM   26  O6  UNL     1      -6.625  -1.217  -2.154  1.00  0.00    -0.296 OA
ENDROOT
BRANCH  17  27
HETATM   27  C18 UNL     1       3.678   1.633  -0.682  1.00  0.00     0.001 C 
HETATM   28  C19 UNL     1       4.730   1.943  -1.748  1.00  0.00     0.000 C 
BRANCH  27  29
HETATM   29  C20 UNL     1       4.291   1.109   0.617  1.00  0.00     0.010 C 
BRANCH  29  30
HETATM   30  C21 UNL     1       4.777   2.231   1.535  1.00  0.00     0.096 C 
BRANCH  30  31
HETATM   31  C22 UNL     1       5.357   1.709   2.822  1.00  0.00     0.272 C 
HETATM   32  O4  UNL     1       5.410   0.521   3.045  1.00  0.00    -0.264 OA
BRANCH  31  33
HETATM   33  O5  UNL     1       5.793   2.641   3.666  1.00  0.00    -0.299 OA
HETATM   34  C23 UNL     1       6.316   2.086   4.863  1.00  0.00     0.184 C 
ENDBRANCH  31  33
ENDBRANCH  30  31
ENDBRANCH  29  30
ENDBRANCH  27  29
ENDBRANCH  17  27
TORSDOF 5
