REMARK  6 active torsions:
REMARK  status: ('A' for Active; 'I' for Inactive)
REMARK    1  A    between atoms: C4_4  and  C5_5 
REMARK    2  A    between atoms: C5_5  and  O2_7 
REMARK    3  A    between atoms: O2_7  and  C6_8 
REMARK    4  A    between atoms: C8_10  and  C13_17 
REMARK    5  A    between atoms: C9_12  and  C10_13 
REMARK    6  A    between atoms: C16_20  and  O4_23 
ROOT
HETATM    1  C6  UNL     1      -0.777  -1.043   0.082  1.00  0.00     0.189 C 
HETATM    2  C7  UNL     1      -0.394   0.113  -0.838  1.00  0.00     0.215 C 
HETATM    3  C8  UNL     1       1.123  -0.047  -1.072  1.00  0.00     0.243 C 
HETATM    4  N1  UNL     1       1.600  -1.023   0.039  1.00  0.00     0.005 N 
HETATM    5  C9  UNL     1       0.420  -1.064   1.026  1.00  0.00     0.251 C 
HETATM    6  C11 UNL     1       2.869  -0.633   0.801  1.00  0.00     0.250 C 
HETATM    7  C12 UNL     1       1.789  -2.406  -0.596  1.00  0.00     0.250 C 
HETATM    8  O5  UNL     1      -1.117   0.039  -2.051  1.00  0.00    -0.218 OA
ENDROOT
BRANCH   3   9
HETATM    9  C13 UNL     1       1.824   1.273  -1.072  1.00  0.00     0.009 A 
HETATM   10  C14 UNL     1       1.078   2.465  -1.072  1.00  0.00    -0.000 A 
HETATM   11  C15 UNL     1       1.736   3.707  -1.072  1.00  0.00     0.024 A 
HETATM   12  C16 UNL     1       3.143   3.762  -1.072  1.00  0.00     0.094 A 
HETATM   13  C17 UNL     1       3.885   2.568  -1.072  1.00  0.00     0.024 A 
HETATM   14  C18 UNL     1       3.229   1.324  -1.072  1.00  0.00    -0.000 A 
BRANCH  12  15
HETATM   15  O4  UNL     1       3.760   4.926  -1.072  1.00  0.00    -0.328 OA
HETATM   16  C19 UNL     1       5.178   4.928  -1.012  1.00  0.00     0.181 C 
ENDBRANCH  12  15
ENDBRANCH   3   9
BRANCH   1  17
HETATM   17  O2  UNL     1      -1.977  -0.756   0.789  1.00  0.00    -0.296 OA
BRANCH  17  18
HETATM   18  C5  UNL     1      -3.062  -1.004   0.067  1.00  0.00     0.295 C 
HETATM   19  O1  UNL     1      -3.051  -1.604  -0.984  1.00  0.00    -0.259 OA
BRANCH  18  20
HETATM   20  C4  UNL     1      -4.326  -0.498   0.617  1.00  0.00     0.060 C 
HETATM   21  C2  UNL     1      -5.375  -1.318   0.793  1.00  0.00    -0.038 C 
HETATM   22  C1  UNL     1      -6.721  -0.908   1.324  1.00  0.00     0.026 C 
HETATM   23  C3  UNL     1      -5.215  -2.773   0.438  1.00  0.00     0.026 C 
ENDBRANCH  18  20
ENDBRANCH  17  18
ENDBRANCH   1  17
BRANCH   5  24
HETATM   24  C10 UNL     1       0.399  -2.281   1.945  1.00  0.00     0.216 C 
HETATM   25  O3  UNL     1      -0.590  -2.072   2.930  1.00  0.00    -0.218 OA
ENDBRANCH   5  24
TORSDOF 6
