REMARK  4 active torsions:
REMARK  status: ('A' for Active; 'I' for Inactive)
REMARK    1  A    between atoms: C2_2  and  O3_18 
REMARK    2  A    between atoms: C4_4  and  O2_16 
REMARK    3  A    between atoms: O3_18  and  C16_19 
REMARK    4  A    between atoms: C20_26  and  C21_28 
ROOT
HETATM    1  C1  UNL     1      -0.203  -2.338   0.369  1.00  0.00     0.024 A 
HETATM    2  C2  UNL     1       0.644  -1.227   0.543  1.00  0.00     0.099 A 
HETATM    3  C3  UNL     1       0.092   0.041   0.803  1.00  0.00     0.049 A 
HETATM    4  C4  UNL     1      -1.309   0.219   0.889  1.00  0.00     0.096 A 
HETATM    5  C5  UNL     1      -2.203  -0.895   0.713  1.00  0.00     0.022 A 
HETATM    6  C6  UNL     1      -3.645  -0.805   0.783  1.00  0.00     0.002 A 
HETATM    7  C7  UNL     1      -4.356   0.412   1.031  1.00  0.00     0.002 A 
HETATM    8  C8  UNL     1      -5.768   0.441   1.092  1.00  0.00     0.027 A 
HETATM    9  C9  UNL     1      -6.514  -0.738   0.904  1.00  0.00     0.131 A 
HETATM   10  C10 UNL     1      -5.848  -1.957   0.654  1.00  0.00     0.027 A 
HETATM   11  C11 UNL     1      -4.430  -1.994   0.594  1.00  0.00     0.002 A 
HETATM   12  C12 UNL     1      -3.811  -3.240   0.340  1.00  0.00     0.000 A 
HETATM   13  C13 UNL     1      -2.410  -3.332   0.268  1.00  0.00     0.000 A 
HETATM   14  C14 UNL     1      -1.609  -2.180   0.451  1.00  0.00     0.004 A 
HETATM   15  O1  UNL     1      -7.852  -0.703   0.963  1.00  0.00    -0.190 OA
ENDROOT
BRANCH   2  16
HETATM   16  O3  UNL     1       1.975  -1.377   0.465  1.00  0.00    -0.304 OA
BRANCH  16  17
HETATM   17  C16 UNL     1       2.760  -0.229   0.176  1.00  0.00     0.274 C 
HETATM   18  C17 UNL     1       4.236  -0.633  -0.025  1.00  0.00     0.241 C 
HETATM   19  O4  UNL     1       4.732  -1.152   1.195  1.00  0.00    -0.215 OA
HETATM   20  C18 UNL     1       5.090   0.572  -0.473  1.00  0.00     0.220 C 
HETATM   21  O5  UNL     1       6.391   0.133  -0.832  1.00  0.00    -0.218 OA
HETATM   22  C19 UNL     1       4.418   1.268  -1.678  1.00  0.00     0.215 C 
HETATM   23  O6  UNL     1       5.086   2.482  -1.967  1.00  0.00    -0.218 OA
HETATM   24  C20 UNL     1       2.930   1.576  -1.393  1.00  0.00     0.184 C 
HETATM   25  O7  UNL     1       2.264   0.379  -1.008  1.00  0.00    -0.326 OA
BRANCH  24  26
HETATM   26  C21 UNL     1       2.187   2.121  -2.615  1.00  0.00     0.214 C 
HETATM   27  O8  UNL     1       0.875   2.457  -2.223  1.00  0.00    -0.218 OA
ENDBRANCH  24  26
ENDBRANCH  16  17
ENDBRANCH   2  16
BRANCH   4  28
HETATM   28  O2  UNL     1      -1.719   1.469   1.141  1.00  0.00    -0.328 OA
HETATM   29  C15 UNL     1      -0.871   2.305   1.912  1.00  0.00     0.181 C 
ENDBRANCH   4  28
TORSDOF 4
