REMARK  5 active torsions:
REMARK  status: ('A' for Active; 'I' for Inactive)
REMARK    1  A    between atoms: C1_1  and  C22_35 
REMARK    2  A    between atoms: C2_2  and  O9_24 
REMARK    3  A    between atoms: C5_6  and  O4_13 
REMARK    4  A    between atoms: O4_13  and  C10_14 
REMARK    5  A    between atoms: O9_24  and  C16_25 
ROOT
HETATM    1  C1  UNL     1      -1.658   1.787  -0.814  1.00  0.00     0.125 A 
HETATM    2  C2  UNL     1      -0.709   0.819  -0.849  1.00  0.00     0.158 A 
HETATM    3  C3  UNL     1       0.018   0.447   0.389  1.00  0.00     0.224 A 
HETATM    4  O1  UNL     1       0.852  -0.424   0.297  1.00  0.00    -0.284 OA
HETATM    5  C4  UNL     1      -0.366   1.197   1.616  1.00  0.00     0.086 A 
HETATM    6  C5  UNL     1       0.259   0.936   2.863  1.00  0.00     0.104 A 
HETATM    7  C6  UNL     1      -0.133   1.669   4.008  1.00  0.00     0.052 A 
HETATM    8  C7  UNL     1      -1.143   2.655   3.910  1.00  0.00     0.135 A 
HETATM    9  O2  UNL     1      -1.511   3.346   4.998  1.00  0.00    -0.190 OA
HETATM   10  C8  UNL     1      -1.764   2.914   2.666  1.00  0.00     0.052 A 
HETATM   11  C9  UNL     1      -1.377   2.186   1.516  1.00  0.00     0.107 A 
HETATM   12  O3  UNL     1      -1.970   2.434   0.328  1.00  0.00    -0.305 OA
ENDROOT
BRANCH   2  13
HETATM   13  O9  UNL     1      -0.410   0.185  -1.985  1.00  0.00    -0.298 OA
BRANCH  13  14
HETATM   14  C16 UNL     1       0.469   0.939  -2.810  1.00  0.00     0.274 C 
HETATM   15  C17 UNL     1       0.325   0.479  -4.279  1.00  0.00     0.241 C 
HETATM   16  O10 UNL     1       1.011   1.402  -5.112  1.00  0.00    -0.215 OA
HETATM   17  C18 UNL     1       0.877  -0.954  -4.460  1.00  0.00     0.220 C 
HETATM   18  O11 UNL     1       0.863  -1.334  -5.827  1.00  0.00    -0.218 OA
HETATM   19  C19 UNL     1       2.297  -1.065  -3.863  1.00  0.00     0.212 C 
HETATM   20  O12 UNL     1       2.715  -2.419  -3.863  1.00  0.00    -0.218 OA
HETATM   21  C20 UNL     1       2.330  -0.538  -2.408  1.00  0.00     0.151 C 
HETATM   22  O13 UNL     1       1.814   0.788  -2.361  1.00  0.00    -0.329 OA
HETATM   23  C21 UNL     1       3.746  -0.484  -1.827  1.00  0.00     0.035 C 
ENDBRANCH  13  14
ENDBRANCH   2  13
BRANCH   1  24
HETATM   24  C22 UNL     1      -2.381   2.150  -2.069  1.00  0.00     0.025 A 
HETATM   25  C23 UNL     1      -2.652   3.499  -2.361  1.00  0.00     0.004 A 
HETATM   26  C24 UNL     1      -3.332   3.840  -3.542  1.00  0.00     0.028 A 
HETATM   27  C25 UNL     1      -3.744   2.836  -4.437  1.00  0.00     0.131 A 
HETATM   28  O14 UNL     1      -4.382   3.157  -5.544  1.00  0.00    -0.190 OA
HETATM   29  C26 UNL     1      -3.472   1.488  -4.143  1.00  0.00     0.028 A 
HETATM   30  C27 UNL     1      -2.792   1.145  -2.962  1.00  0.00     0.004 A 
ENDBRANCH   1  24
BRANCH   6  31
HETATM   31  O4  UNL     1       1.218   0.005   2.973  1.00  0.00    -0.303 OA
BRANCH  31  32
HETATM   32  C10 UNL     1       1.395  -0.625   4.236  1.00  0.00     0.274 C 
HETATM   33  C11 UNL     1       2.448  -1.749   4.113  1.00  0.00     0.241 C 
HETATM   34  O5  UNL     1       2.794  -2.191   5.417  1.00  0.00    -0.215 OA
HETATM   35  C12 UNL     1       1.907  -2.915   3.254  1.00  0.00     0.220 C 
HETATM   36  O6  UNL     1       2.819  -4.002   3.241  1.00  0.00    -0.218 OA
HETATM   37  C13 UNL     1       0.516  -3.357   3.760  1.00  0.00     0.212 C 
HETATM   38  O7  UNL     1      -0.051  -4.290   2.856  1.00  0.00    -0.218 OA
HETATM   39  C14 UNL     1      -0.440  -2.147   3.884  1.00  0.00     0.151 C 
HETATM   40  O8  UNL     1       0.152  -1.144   4.703  1.00  0.00    -0.329 OA
HETATM   41  C15 UNL     1      -1.781  -2.512   4.528  1.00  0.00     0.035 C 
ENDBRANCH  31  32
ENDBRANCH   6  31
TORSDOF 5
