REMARK  5 active torsions:
REMARK  status: ('A' for Active; 'I' for Inactive)
REMARK    1  A    between atoms: C5_5  and  C9_10 
REMARK    2  A    between atoms: C10_11  and  C11_12 
REMARK    3  A    between atoms: C11_12  and  O2_14 
REMARK    4  A    between atoms: O2_14  and  C13_15 
REMARK    5  A    between atoms: C17_19  and  C18_21 
ROOT
HETATM    1  C11 UNL     1       1.469  -0.785  -1.836  1.00  0.00     0.140 C 
HETATM    2  C12 UNL     1       2.623  -1.404  -2.625  1.00  0.00     0.037 C 
ENDROOT
BRANCH   1   3
HETATM    3  C10 UNL     1       1.857  -0.445  -0.422  1.00  0.00     0.001 C 
HETATM    4  C9  UNL     1       1.272  -1.117   0.584  1.00  0.00     0.005 C 
BRANCH   4   5
HETATM    5  C5  UNL     1       1.662  -0.777   2.002  1.00  0.00     0.160 C 
HETATM    6  C4  UNL     1       1.330   0.690   2.240  1.00  0.00    -0.010 C 
HETATM    7  C3  UNL     1       0.166   1.053   2.818  1.00  0.00     0.032 C 
HETATM    8  C19 UNL     1       2.311   1.760   1.820  1.00  0.00     0.029 C 
HETATM    9  C2  UNL     1      -0.844   0.070   3.258  1.00  0.00     0.173 C 
HETATM   10  C1  UNL     1      -0.557  -1.400   3.061  1.00  0.00     0.072 C 
HETATM   11  O8  UNL     1      -1.875   0.441   3.768  1.00  0.00    -0.291 OA
HETATM   12  C6  UNL     1       0.957  -1.703   3.043  1.00  0.00     0.040 C 
HETATM   13  C7  UNL     1       1.516  -1.469   4.457  1.00  0.00     0.004 C 
HETATM   14  C8  UNL     1       1.166  -3.187   2.699  1.00  0.00     0.004 C 
HETATM   15  O1  UNL     1       3.063  -0.978   2.098  1.00  0.00    -0.217 OA
ENDBRANCH   4   5
ENDBRANCH   1   3
BRANCH   1  16
HETATM   16  O2  UNL     1       1.057   0.387  -2.502  1.00  0.00    -0.327 OA
BRANCH  16  17
HETATM   17  C13 UNL     1      -0.191   0.875  -2.051  1.00  0.00     0.270 C 
HETATM   18  C14 UNL     1      -0.443   2.305  -2.594  1.00  0.00     0.241 C 
HETATM   19  C15 UNL     1      -1.867   2.789  -2.236  1.00  0.00     0.220 C 
HETATM   20  O7  UNL     1       0.510   3.193  -2.033  1.00  0.00    -0.215 OA
HETATM   21  C16 UNL     1      -2.906   1.721  -2.643  1.00  0.00     0.215 C 
HETATM   22  O6  UNL     1      -2.143   4.008  -2.908  1.00  0.00    -0.218 OA
HETATM   23  C17 UNL     1      -2.525   0.328  -2.092  1.00  0.00     0.184 C 
HETATM   24  O5  UNL     1      -4.182   2.076  -2.137  1.00  0.00    -0.218 OA
HETATM   25  O3  UNL     1      -1.209  -0.004  -2.514  1.00  0.00    -0.326 OA
BRANCH  23  26
HETATM   26  C18 UNL     1      -3.443  -0.787  -2.603  1.00  0.00     0.214 C 
HETATM   27  O4  UNL     1      -3.115  -1.977  -1.922  1.00  0.00    -0.218 OA
ENDBRANCH  23  26
ENDBRANCH  16  17
ENDBRANCH   1  16
TORSDOF 5
