REMARK  1 active torsions:
REMARK  status: ('A' for Active; 'I' for Inactive)
REMARK    1  A    between atoms: C16_20  and  C19_26 
ROOT
HETATM    1  O1  UNL     1      -3.754   0.123  -1.166  1.00  0.00    -0.361 OA
HETATM    2  C1  UNL     1      -3.580   1.523  -1.309  1.00  0.00     0.093 C 
HETATM    3  C2  UNL     1      -2.166   1.652  -0.734  1.00  0.00     0.037 C 
HETATM    4  C3  UNL     1      -1.977   0.543   0.332  1.00  0.00     0.057 C 
HETATM    5  C4  UNL     1      -3.303  -0.225   0.115  1.00  0.00     0.127 C 
HETATM    6  C5  UNL     1      -3.215  -1.666   0.541  1.00  0.00     0.125 C 
HETATM    7  C6  UNL     1      -2.660  -1.656   1.959  1.00  0.00     0.274 C 
HETATM    8  O2  UNL     1      -2.149  -0.535   2.537  1.00  0.00    -0.302 OA
HETATM    9  C7  UNL     1      -2.197   0.740   1.855  1.00  0.00     0.154 C 
HETATM   10  O3  UNL     1      -2.686  -2.701   2.566  1.00  0.00    -0.264 OA
HETATM   11  C8  UNL     1      -0.483   0.082   0.139  1.00  0.00     0.014 C 
HETATM   12  C9  UNL     1       0.502   1.265  -0.182  1.00  0.00     0.077 C 
HETATM   13  C10 UNL     1      -0.080   2.592   0.299  1.00  0.00     0.152 C 
HETATM   14  C11 UNL     1      -1.496   2.912  -0.174  1.00  0.00     0.067 C 
HETATM   15  O4  UNL     1       0.525   3.351   1.016  1.00  0.00    -0.296 OA
HETATM   16  C12 UNL     1       1.875   0.758   0.375  1.00  0.00     0.136 A 
HETATM   17  C13 UNL     1       2.240  -0.754   0.271  1.00  0.00     0.056 C 
HETATM   18  C14 UNL     1       1.398  -1.356  -0.887  1.00  0.00     0.005 C 
HETATM   19  C15 UNL     1      -0.135  -1.151  -0.723  1.00  0.00     0.001 C 
HETATM   20  C16 UNL     1       3.773  -0.934   0.098  1.00  0.00     0.151 C 
HETATM   21  O5  UNL     1       4.490  -0.401   1.225  1.00  0.00    -0.298 OA
HETATM   22  C17 UNL     1       4.160   0.812   1.721  1.00  0.00     0.302 C 
HETATM   23  C18 UNL     1       2.885   1.531   1.299  1.00  0.00     0.226 A 
HETATM   24  O6  UNL     1       2.879   1.635  -0.078  1.00  0.00    -0.346 OA
HETATM   25  O7  UNL     1       4.877   1.359   2.527  1.00  0.00    -0.261 OA
HETATM   26  C23 UNL     1       1.844  -1.412   1.605  1.00  0.00     0.005 C 
HETATM   27  C24 UNL     1       0.728   1.439  -1.705  1.00  0.00     0.010 C 
HETATM   28  C25 UNL     1      -3.694   1.885  -2.787  1.00  0.00     0.030 C 
HETATM   29  C26 UNL     1      -4.610   2.285  -0.473  1.00  0.00     0.030 C 
ENDROOT
BRANCH  20  30
HETATM   30  C19 UNL     1       4.156  -2.393  -0.057  1.00  0.00     0.032 A 
HETATM   31  C20 UNL     1       4.098  -3.162  -1.223  1.00  0.00     0.121 A 
HETATM   32  O8  UNL     1       4.516  -4.446  -1.016  1.00  0.00    -0.303 OA
HETATM   33  C21 UNL     1       4.844  -4.481   0.309  1.00  0.00     0.122 A 
HETATM   34  C22 UNL     1       4.639  -3.246   0.934  1.00  0.00     0.027 A 
ENDBRANCH  20  30
TORSDOF 1
