REMARK  1 active torsions:
REMARK  status: ('A' for Active; 'I' for Inactive)
REMARK    1  A    between atoms: C13_14  and  O3_20 
ROOT
HETATM    1  C1  UNL     1       2.171  -0.628   0.167  1.00  0.00     0.242 C 
HETATM    2  C2  UNL     1       1.842   0.801   0.340  1.00  0.00    -0.014 C 
HETATM    3  C3  UNL     1       0.872   1.304   1.351  1.00  0.00     0.024 C 
HETATM    4  C4  UNL     1      -0.476   1.462   0.626  1.00  0.00     0.006 C 
HETATM    5  C5  UNL     1      -1.124   0.112   0.184  1.00  0.00     0.036 C 
HETATM    6  C6  UNL     1      -0.238  -1.193   0.202  1.00  0.00     0.251 C 
HETATM    7  N1  UNL     1       1.036  -1.223  -0.615  1.00  0.00     0.140 N 
HETATM    8  C7  UNL     1       1.460  -2.662  -0.662  1.00  0.00     0.251 C 
HETATM    9  C8  UNL     1       2.167  -2.937   0.719  1.00  0.00     0.038 C 
HETATM   10  C9  UNL     1       2.138  -1.558   1.391  1.00  0.00     0.041 C 
HETATM   11  C10 UNL     1       2.392   1.512  -0.658  1.00  0.00     0.010 C 
HETATM   12  C11 UNL     1       3.244   0.642  -1.471  1.00  0.00     0.201 C 
HETATM   13  C12 UNL     1       3.552  -0.560  -0.659  1.00  0.00     0.225 A 
HETATM   14  C13 UNL     1       4.758  -0.146   0.239  1.00  0.00     0.107 A 
HETATM   15  C14 UNL     1       5.753  -1.043   0.045  1.00  0.00     0.062 A 
HETATM   16  C15 UNL     1       5.306  -1.996  -0.909  1.00  0.00     0.294 A 
HETATM   17  O1  UNL     1       4.062  -1.719  -1.321  1.00  0.00    -0.288 OA
HETATM   18  O2  UNL     1       5.968  -2.963  -1.297  1.00  0.00    -0.259 OA
HETATM   19  C16 UNL     1       7.146  -1.149   0.656  1.00  0.00     0.038 C 
HETATM   20  O4  UNL     1       3.911   1.025  -2.437  1.00  0.00    -0.289 OA
HETATM   21  C18 UNL     1       2.209   2.991  -0.916  1.00  0.00     0.034 C 
ENDROOT
BRANCH  14  22
HETATM   22  O3  UNL     1       4.676   1.045   1.099  1.00  0.00    -0.330 OA
HETATM   23  C17 UNL     1       5.790   1.443   1.922  1.00  0.00     0.181 C 
ENDBRANCH  14  22
TORSDOF 1
