REMARK  4 active torsions:
REMARK  status: ('A' for Active; 'I' for Inactive)
REMARK    1  A    between atoms: C10_13  and  C12_15 
REMARK    2  A    between atoms: C12_15  and  O4_17 
REMARK    3  A    between atoms: O4_17  and  C14_18 
REMARK    4  A    between atoms: C14_18  and  C15_20 
ROOT
HETATM    1  C1  UNL     1      -0.682  -1.695   1.135  1.00  0.00     0.003 A 
HETATM    2  C2  UNL     1      -0.572  -0.516   1.887  1.00  0.00     0.092 A 
HETATM    3  C3  UNL     1      -1.764   0.123   2.324  1.00  0.00     0.049 A 
HETATM    4  C4  UNL     1      -3.041  -0.400   2.025  1.00  0.00     0.105 A 
HETATM    5  C5  UNL     1      -3.131  -1.592   1.269  1.00  0.00     0.023 A 
HETATM    6  C6  UNL     1      -1.957  -2.234   0.822  1.00  0.00    -0.000 A 
HETATM    7  C7  UNL     1      -4.475  -2.141   0.959  1.00  0.00     0.007 A 
HETATM    8  C8  UNL     1      -5.561  -1.486   1.414  1.00  0.00     0.069 A 
HETATM    9  C9  UNL     1      -5.402  -0.242   2.205  1.00  0.00     0.300 A 
HETATM   10  O1  UNL     1      -4.160   0.223   2.459  1.00  0.00    -0.273 OA
HETATM   11  O2  UNL     1      -6.397   0.320   2.600  1.00  0.00    -0.259 OA
HETATM   12  O3  UNL     1       0.697  -0.158   2.086  1.00  0.00    -0.331 OA
HETATM   13  C10 UNL     1       1.596  -1.102   1.476  1.00  0.00     0.151 A 
HETATM   14  C11 UNL     1       0.701  -2.178   0.785  1.00  0.00     0.061 A 
ENDROOT
BRANCH  13  15
HETATM   15  C12 UNL     1       2.494  -0.377   0.478  1.00  0.00     0.127 C 
HETATM   16  C13 UNL     1       3.232   0.760   1.187  1.00  0.00     0.033 C 
HETATM   17  C19 UNL     1       3.443  -1.381  -0.176  1.00  0.00     0.033 C 
BRANCH  15  18
HETATM   18  O4  UNL     1       1.627   0.164  -0.508  1.00  0.00    -0.301 OA
BRANCH  18  19
HETATM   19  C14 UNL     1       2.277   0.896  -1.408  1.00  0.00     0.291 C 
HETATM   20  O5  UNL     1       3.475   0.855  -1.570  1.00  0.00    -0.260 OA
BRANCH  19  21
HETATM   21  C15 UNL     1       1.447   1.787  -2.227  1.00  0.00     0.037 C 
HETATM   22  C16 UNL     1       2.094   2.988  -2.861  1.00  0.00     0.036 C 
HETATM   23  C17 UNL     1       0.137   1.578  -2.436  1.00  0.00    -0.025 C 
HETATM   24  C18 UNL     1      -0.617   2.559  -3.295  1.00  0.00     0.030 C 
ENDBRANCH  19  21
ENDBRANCH  18  19
ENDBRANCH  15  18
ENDBRANCH  13  15
TORSDOF 4
