REMARK  0 active torsions:
REMARK  status: ('A' for Active; 'I' for Inactive)
ROOT
HETATM    1  C1  UNL     1       0.957   1.483   0.000  1.00  0.00     0.004 A 
HETATM    2  C2  UNL     1      -0.448   1.507   0.000  1.00  0.00     0.030 A 
HETATM    3  C3  UNL     1      -1.174   0.304   0.000  1.00  0.00     0.158 A 
HETATM    4  C4  UNL     1      -0.492  -0.928   0.000  1.00  0.00     0.181 A 
HETATM    5  C5  UNL     1       0.916  -0.952   0.000  1.00  0.00     0.158 A 
HETATM    6  C6  UNL     1       1.637   0.255   0.000  1.00  0.00     0.030 A 
HETATM    7  O1  UNL     1       1.561  -2.101   0.000  1.00  0.00    -0.188 OA
HETATM    8  O2  UNL     1      -1.171  -2.058   0.000  1.00  0.00    -0.186 OA
HETATM    9  O3  UNL     1      -2.492   0.334   0.000  1.00  0.00    -0.188 OA
ENDROOT
TORSDOF 0
