REMARK  11 active torsions:
REMARK  status: ('A' for Active; 'I' for Inactive)
REMARK    1  A    between atoms: C1_1  and  O7_30 
REMARK    2  A    between atoms: C2_2  and  O6_28 
REMARK    3  A    between atoms: C5_5  and  C7_7 
REMARK    4  A    between atoms: C7_7  and  C8_8 
REMARK    5  A    between atoms: C7_7  and  O4_24 
REMARK    6  A    between atoms: C8_8  and  C9_9 
REMARK    7  A    between atoms: C9_9  and  C17_20 
REMARK    8  A    between atoms: C11_11  and  O3_18 
REMARK    9  A    between atoms: C12_12  and  O2_16 
REMARK   10  A    between atoms: C17_20  and  C18_21 
REMARK   11  A    between atoms: O4_24  and  C21_25 
ROOT
HETATM    1  C8  UNL     1      -0.987   0.890  -0.176  1.00  0.00     0.043 C 
HETATM    2  C20 UNL     1      -0.975   2.144   0.698  1.00  0.00     0.004 C 
ENDROOT
BRANCH   1   3
HETATM    3  C7  UNL     1      -0.006  -0.178   0.309  1.00  0.00     0.147 C 
BRANCH   3   4
HETATM    4  C5  UNL     1      -0.445  -0.780   1.595  1.00  0.00     0.007 A 
HETATM    5  C4  UNL     1      -0.034  -0.216   2.815  1.00  0.00     0.000 A 
HETATM    6  C3  UNL     1      -0.451  -0.787   4.029  1.00  0.00     0.026 A 
HETATM    7  C2  UNL     1      -1.279  -1.924   4.029  1.00  0.00     0.116 A 
HETATM    8  C1  UNL     1      -1.692  -2.489   2.807  1.00  0.00     0.116 A 
HETATM    9  C6  UNL     1      -1.274  -1.916   1.593  1.00  0.00     0.024 A 
BRANCH   7  10
HETATM   10  O6  UNL     1      -1.666  -2.454   5.171  1.00  0.00    -0.326 OA
HETATM   11  C23 UNL     1      -1.222  -1.844   6.374  1.00  0.00     0.181 C 
ENDBRANCH   7  10
BRANCH   8  12
HETATM   12  O7  UNL     1      -2.468  -3.554   2.798  1.00  0.00    -0.326 OA
HETATM   13  C24 UNL     1      -2.199  -4.584   3.738  1.00  0.00     0.181 C 
ENDBRANCH   8  12
ENDBRANCH   3   4
BRANCH   3  14
HETATM   14  O4  UNL     1       1.280   0.401   0.473  1.00  0.00    -0.300 OA
BRANCH  14  15
HETATM   15  C21 UNL     1       2.233  -0.515   0.617  1.00  0.00     0.273 C 
HETATM   16  O5  UNL     1       2.030  -1.707   0.600  1.00  0.00    -0.264 OA
HETATM   17  C22 UNL     1       3.623   0.031   0.807  1.00  0.00     0.106 C 
ENDBRANCH  14  15
ENDBRANCH   3  14
ENDBRANCH   1   3
BRANCH   1  18
HETATM   18  C9  UNL     1      -0.827   1.206  -1.666  1.00  0.00     0.083 A 
HETATM   19  C10 UNL     1       0.557   1.794  -1.883  1.00  0.00     0.007 A 
HETATM   20  C11 UNL     1       1.488   1.235  -2.684  1.00  0.00     0.113 A 
HETATM   21  C12 UNL     1       1.213  -0.014  -3.417  1.00  0.00     0.119 A 
HETATM   22  C13 UNL     1       0.015  -0.616  -3.308  1.00  0.00     0.064 A 
HETATM   23  C14 UNL     1      -1.060  -0.065  -2.464  1.00  0.00     0.178 A 
HETATM   24  O1  UNL     1      -2.125  -0.636  -2.416  1.00  0.00    -0.291 OA
BRANCH  20  25
HETATM   25  O3  UNL     1       2.675   1.822  -2.814  1.00  0.00    -0.326 OA
HETATM   26  C16 UNL     1       2.571   3.149  -3.308  1.00  0.00     0.181 C 
ENDBRANCH  20  25
BRANCH  21  27
HETATM   27  O2  UNL     1       2.154  -0.550  -4.191  1.00  0.00    -0.326 OA
HETATM   28  C15 UNL     1       3.212  -1.124  -3.438  1.00  0.00     0.181 C 
ENDBRANCH  21  27
BRANCH  18  29
HETATM   29  C17 UNL     1      -1.863   2.252  -2.084  1.00  0.00     0.037 C 
BRANCH  29  30
HETATM   30  C18 UNL     1      -1.917   2.443  -3.576  1.00  0.00    -0.025 C 
HETATM   31  C19 UNL     1      -3.104   2.331  -4.194  1.00  0.00    -0.005 C 
ENDBRANCH  29  30
ENDBRANCH  18  29
ENDBRANCH   1  18
TORSDOF 11
