REMARK  0 active torsions:
REMARK  status: ('A' for Active; 'I' for Inactive)
ROOT
HETATM    1  C1  UNL     1       3.217   1.541   0.731  1.00  0.00     0.005 C 
HETATM    2  C2  UNL     1       3.889   0.172   0.734  1.00  0.00     0.004 C 
HETATM    3  C3  UNL     1       3.299  -0.733  -0.365  1.00  0.00     0.019 C 
HETATM    4  C4  UNL     1       1.799  -0.736  -0.357  1.00  0.00    -0.027 A 
HETATM    5  C5  UNL     1       1.033   0.275   0.315  1.00  0.00    -0.023 A 
HETATM    6  C6  UNL     1       1.717   1.406   1.014  1.00  0.00     0.026 C 
HETATM    7  C7  UNL     1      -0.398   0.191   0.320  1.00  0.00     0.040 A 
HETATM    8  C8  UNL     1      -1.049  -0.865  -0.387  1.00  0.00     0.042 A 
HETATM    9  C9  UNL     1      -0.285  -1.836  -1.070  1.00  0.00     0.003 A 
HETATM   10  C10 UNL     1       1.121  -1.770  -1.053  1.00  0.00    -0.004 A 
HETATM   11  C11 UNL     1      -2.541  -0.965  -0.418  1.00  0.00     0.194 A 
HETATM   12  C12 UNL     1      -3.285   0.078   0.307  1.00  0.00     0.044 A 
HETATM   13  C13 UNL     1      -2.697   1.064   0.988  1.00  0.00     0.132 A 
HETATM   14  C14 UNL     1      -1.230   1.201   1.067  1.00  0.00     0.217 A 
HETATM   15  O1  UNL     1      -0.844   2.129   1.740  1.00  0.00    -0.284 OA
HETATM   16  O2  UNL     1      -3.568   1.887   1.572  1.00  0.00    -0.328 OA
HETATM   17  C15 UNL     1      -4.891   1.381   1.363  1.00  0.00     0.153 C 
HETATM   18  C16 UNL     1      -4.777   0.195   0.393  1.00  0.00     0.058 C 
HETATM   19  C17 UNL     1      -5.416   0.504  -0.957  1.00  0.00     0.007 C 
HETATM   20  O3  UNL     1      -3.199  -1.813  -0.976  1.00  0.00    -0.287 OA
HETATM   21  C18 UNL     1       3.854  -2.147  -0.135  1.00  0.00     0.004 C 
HETATM   22  C19 UNL     1       3.777  -0.244  -1.738  1.00  0.00     0.004 C 
ENDROOT
TORSDOF 0
