REMARK  9 active torsions:
REMARK  status: ('A' for Active; 'I' for Inactive)
REMARK    1  A    between atoms: C3_3  and  O6_26 
REMARK    2  A    between atoms: C4_4  and  O5_24 
REMARK    3  A    between atoms: C6_6  and  C7_7 
REMARK    4  A    between atoms: C7_7  and  C8_8 
REMARK    5  A    between atoms: C9_9  and  C19_22 
REMARK    6  A    between atoms: C10_10  and  C12_13 
REMARK    7  A    between atoms: C14_15  and  O3_20 
REMARK    8  A    between atoms: O6_26  and  C21_27 
REMARK    9  A    between atoms: C25_34  and  C26_36 
ROOT
HETATM    1  C1  UNL     1       0.293   0.807  -1.383  1.00  0.00    -0.002 A 
HETATM    2  C2  UNL     1      -0.129   2.145  -1.299  1.00  0.00     0.026 A 
HETATM    3  C3  UNL     1      -1.055   2.533  -0.314  1.00  0.00     0.119 A 
HETATM    4  C4  UNL     1      -1.559   1.580   0.590  1.00  0.00     0.116 A 
HETATM    5  C5  UNL     1      -1.135   0.242   0.504  1.00  0.00     0.022 A 
HETATM    6  C6  UNL     1      -0.209  -0.146  -0.480  1.00  0.00    -0.020 A 
ENDROOT
BRANCH   6   7
HETATM    7  C7  UNL     1       0.236  -1.561  -0.566  1.00  0.00     0.029 C 
BRANCH   7   8
HETATM    8  C8  UNL     1       1.709  -1.711  -0.191  1.00  0.00     0.039 C 
HETATM    9  C9  UNL     1       2.197  -3.170  -0.277  1.00  0.00     0.067 C 
HETATM   10  C10 UNL     1       1.916  -3.648   1.148  1.00  0.00     0.140 C 
HETATM   11  O1  UNL     1       2.316  -2.539   1.912  1.00  0.00    -0.352 OA
HETATM   12  C11 UNL     1       1.897  -1.346   1.291  1.00  0.00     0.143 C 
BRANCH   9  13
HETATM   13  C19 UNL     1       1.506  -4.020  -1.340  1.00  0.00     0.185 C 
HETATM   14  O4  UNL     1       2.189  -5.250  -1.436  1.00  0.00    -0.221 OA
ENDBRANCH   9  13
BRANCH  10  15
HETATM   15  C12 UNL     1       2.684  -4.859   1.549  1.00  0.00     0.007 A 
HETATM   16  C13 UNL     1       4.088  -4.832   1.555  1.00  0.00     0.024 A 
HETATM   17  C14 UNL     1       4.818  -5.973   1.934  1.00  0.00     0.119 A 
HETATM   18  C15 UNL     1       4.137  -7.147   2.307  1.00  0.00     0.153 A 
HETATM   19  C16 UNL     1       2.732  -7.174   2.301  1.00  0.00     0.029 A 
HETATM   20  O2  UNL     1       4.813  -8.221   2.662  1.00  0.00    -0.188 OA
HETATM   21  C17 UNL     1       2.004  -6.031   1.922  1.00  0.00     0.000 A 
BRANCH  17  22
HETATM   22  O3  UNL     1       6.135  -5.940   1.938  1.00  0.00    -0.326 OA
HETATM   23  C18 UNL     1       6.772  -4.713   1.611  1.00  0.00     0.181 C 
ENDBRANCH  17  22
ENDBRANCH  10  15
ENDBRANCH   7   8
ENDBRANCH   6   7
BRANCH   4  24
HETATM   24  O5  UNL     1      -2.428   1.936   1.516  1.00  0.00    -0.326 OA
HETATM   25  C20 UNL     1      -2.225   3.176   2.178  1.00  0.00     0.181 C 
ENDBRANCH   4  24
BRANCH   3  26
HETATM   26  O6  UNL     1      -1.447   3.789  -0.240  1.00  0.00    -0.302 OA
BRANCH  26  27
HETATM   27  C21 UNL     1      -1.928   4.410  -1.428  1.00  0.00     0.274 C 
HETATM   28  C22 UNL     1      -1.910   5.967  -1.314  1.00  0.00     0.241 C 
HETATM   29  O7  UNL     1      -2.010   6.369   0.039  1.00  0.00    -0.215 OA
HETATM   30  C23 UNL     1      -3.064   6.637  -2.092  1.00  0.00     0.220 C 
HETATM   31  O8  UNL     1      -2.811   6.463  -3.475  1.00  0.00    -0.218 OA
HETATM   32  C24 UNL     1      -4.434   5.986  -1.746  1.00  0.00     0.215 C 
HETATM   33  O9  UNL     1      -5.109   6.803  -0.809  1.00  0.00    -0.218 OA
HETATM   34  C25 UNL     1      -4.311   4.561  -1.143  1.00  0.00     0.184 C 
HETATM   35  O10 UNL     1      -3.219   3.895  -1.756  1.00  0.00    -0.326 OA
BRANCH  34  36
HETATM   36  C26 UNL     1      -5.561   3.713  -1.389  1.00  0.00     0.214 C 
HETATM   37  O11 UNL     1      -5.459   2.541  -0.609  1.00  0.00    -0.218 OA
ENDBRANCH  34  36
ENDBRANCH  26  27
ENDBRANCH   3  26
TORSDOF 9
