REMARK  6 active torsions:
REMARK  status: ('A' for Active; 'I' for Inactive)
REMARK    1  A    between atoms: C1_2  and  O2_4 
REMARK    2  A    between atoms: O2_4  and  C3_5 
REMARK    3  A    between atoms: C3_5  and  C4_6 
REMARK    4  A    between atoms: C5_7  and  C6_8 
REMARK    5  A    between atoms: C6_8  and  C7_9 
REMARK    6  A    between atoms: C7_9  and  C8_10 
ROOT
HETATM    1  C4  UNL     1      -1.287  -1.576  -1.180  1.00  0.00    -0.002 C 
HETATM    2  C5  UNL     1      -0.816  -0.344  -1.422  1.00  0.00    -0.045 C 
HETATM    3  C12 UNL     1      -0.684   0.107  -2.851  1.00  0.00     0.026 C 
ENDROOT
BRANCH   2   4
HETATM    4  C6  UNL     1      -0.443   0.527  -0.250  1.00  0.00     0.026 C 
BRANCH   4   5
HETATM    5  C7  UNL     1       0.658   1.527  -0.596  1.00  0.00     0.030 C 
BRANCH   5   6
HETATM    6  C8  UNL     1       1.139   2.291   0.611  1.00  0.00    -0.034 C 
HETATM    7  C9  UNL     1       2.342   2.885   0.555  1.00  0.00    -0.048 C 
HETATM    8  C10 UNL     1       2.854   3.586   1.785  1.00  0.00     0.026 C 
HETATM    9  C11 UNL     1       3.119   2.816  -0.732  1.00  0.00     0.026 C 
ENDBRANCH   5   6
ENDBRANCH   4   5
ENDBRANCH   2   4
BRANCH   1  10
HETATM   10  C3  UNL     1      -1.420  -2.027   0.250  1.00  0.00     0.177 C 
BRANCH  10  11
HETATM   11  O2  UNL     1      -2.156  -3.240   0.299  1.00  0.00    -0.297 OA
BRANCH  11  12
HETATM   12  C1  UNL     1      -2.303  -3.695   1.541  1.00  0.00     0.273 C 
HETATM   13  O1  UNL     1      -1.861  -3.137   2.518  1.00  0.00    -0.264 OA
HETATM   14  C2  UNL     1      -3.076  -4.981   1.664  1.00  0.00     0.106 C 
ENDBRANCH  11  12
ENDBRANCH  10  11
ENDBRANCH   1  10
TORSDOF 6
