REMARK  3 active torsions:
REMARK  status: ('A' for Active; 'I' for Inactive)
REMARK    1  A    between atoms: C1_1  and  C2_2 
REMARK    2  A    between atoms: C3_3  and  C4_4 
REMARK    3  A    between atoms: C4_4  and  C5_5 
ROOT
HETATM    1  C2  UNL     1       1.705   0.946  -0.555  1.00  0.00     0.041 C 
HETATM    2  C3  UNL     1       1.021  -0.211  -0.555  1.00  0.00    -0.023 C 
ENDROOT
BRANCH   2   3
HETATM    3  C4  UNL     1      -0.482  -0.154  -0.555  1.00  0.00     0.026 C 
BRANCH   3   4
HETATM    4  C5  UNL     1      -1.084  -0.623   0.769  1.00  0.00     0.005 C 
HETATM    5  C6  UNL     1      -2.611  -0.551   0.783  1.00  0.00     0.000 C 
ENDBRANCH   3   4
ENDBRANCH   2   3
BRANCH   1   6
HETATM    6  C1  UNL     1       3.174   0.946  -0.555  1.00  0.00     0.234 C 
HETATM    7  O1  UNL     1       3.785   1.987  -0.555  1.00  0.00    -0.283 OA
ENDBRANCH   1   6
TORSDOF 3
