REMARK  6 active torsions:
REMARK  status: ('A' for Active; 'I' for Inactive)
REMARK    1  A    between atoms: C7_8  and  C22_34 
REMARK    2  A    between atoms: C8_9  and  O3_12 
REMARK    3  A    between atoms: O3_12  and  C10_13 
REMARK    4  A    between atoms: C13_16  and  O4_17 
REMARK    5  A    between atoms: O4_17  and  C14_18 
REMARK    6  A    between atoms: C14_18  and  C15_19 
ROOT
HETATM    1  C10 UNL     1      -0.586   0.191  -0.881  1.00  0.00     0.182 C 
HETATM    2  C11 UNL     1      -1.080  -0.318   0.486  1.00  0.00     0.217 C 
HETATM    3  C12 UNL     1      -0.603  -1.772   0.697  1.00  0.00     0.241 C 
HETATM    4  C13 UNL     1       0.926  -1.908   0.473  1.00  0.00     0.270 C 
HETATM    5  O10 UNL     1       1.270  -1.389  -0.813  1.00  0.00    -0.329 OA
HETATM    6  C20 UNL     1       0.934  -0.022  -1.041  1.00  0.00     0.148 C 
HETATM    7  C21 UNL     1       1.436   0.344  -2.442  1.00  0.00     0.035 C 
HETATM    8  O11 UNL     1      -0.957  -2.236   1.992  1.00  0.00    -0.215 OA
HETATM    9  O12 UNL     1      -2.492  -0.234   0.543  1.00  0.00    -0.218 OA
ENDROOT
BRANCH   1  10
HETATM   10  O3  UNL     1      -1.266  -0.494  -1.928  1.00  0.00    -0.323 OA
BRANCH  10  11
HETATM   11  C8  UNL     1      -2.525  -0.078  -2.074  1.00  0.00     0.156 A 
HETATM   12  C7  UNL     1      -2.805   1.152  -2.570  1.00  0.00     0.125 A 
HETATM   13  O1  UNL     1      -4.074   1.586  -2.723  1.00  0.00    -0.305 OA
HETATM   14  C5  UNL     1      -5.160   0.850  -2.402  1.00  0.00     0.107 A 
HETATM   15  C4  UNL     1      -5.006  -0.457  -1.873  1.00  0.00     0.089 A 
HETATM   16  C6  UNL     1      -6.457   1.381  -2.594  1.00  0.00     0.052 A 
HETATM   17  C3  UNL     1      -6.146  -1.231  -1.533  1.00  0.00     0.138 A 
HETATM   18  C9  UNL     1      -3.629  -0.988  -1.684  1.00  0.00     0.224 A 
HETATM   19  C2  UNL     1      -7.439  -0.691  -1.727  1.00  0.00     0.055 A 
HETATM   20  O14 UNL     1      -6.018  -2.467  -1.029  1.00  0.00    -0.190 OA
HETATM   21  C1  UNL     1      -7.596   0.613  -2.258  1.00  0.00     0.135 A 
HETATM   22  O15 UNL     1      -8.822   1.119  -2.440  1.00  0.00    -0.190 OA
HETATM   23  O2  UNL     1      -3.318  -2.074  -1.250  1.00  0.00    -0.284 OA
BRANCH  12  24
HETATM   24  C22 UNL     1      -1.684   2.059  -2.957  1.00  0.00     0.025 A 
HETATM   25  C23 UNL     1      -0.857   1.730  -4.047  1.00  0.00     0.004 A 
HETATM   26  C24 UNL     1       0.199   2.584  -4.410  1.00  0.00     0.028 A 
HETATM   27  C25 UNL     1       0.434   3.768  -3.688  1.00  0.00     0.131 A 
HETATM   28  C26 UNL     1      -0.394   4.094  -2.600  1.00  0.00     0.028 A 
HETATM   29  O13 UNL     1       1.424   4.566  -4.031  1.00  0.00    -0.190 OA
HETATM   30  C27 UNL     1      -1.451   3.242  -2.233  1.00  0.00     0.004 A 
ENDBRANCH  12  24
ENDBRANCH  10  11
ENDBRANCH   1  10
BRANCH   4  31
HETATM   31  O4  UNL     1       1.670  -1.266   1.496  1.00  0.00    -0.326 OA
BRANCH  31  32
HETATM   32  C14 UNL     1       3.055  -1.518   1.416  1.00  0.00     0.177 C 
BRANCH  32  33
HETATM   33  C15 UNL     1       3.733  -0.856   2.619  1.00  0.00     0.180 C 
HETATM   34  C16 UNL     1       5.274  -1.012   2.603  1.00  0.00     0.215 C 
HETATM   35  C17 UNL     1       5.903  -0.488   3.916  1.00  0.00     0.220 C 
HETATM   36  O9  UNL     1       5.791  -0.291   1.498  1.00  0.00    -0.218 OA
HETATM   37  C18 UNL     1       5.203  -1.129   5.139  1.00  0.00     0.244 C 
HETATM   38  O8  UNL     1       7.301  -0.729   3.945  1.00  0.00    -0.218 OA
HETATM   39  C19 UNL     1       3.668  -0.936   5.018  1.00  0.00     0.303 C 
HETATM   40  O7  UNL     1       5.524  -2.512   5.227  1.00  0.00    -0.215 OA
HETATM   41  O5  UNL     1       3.193  -1.467   3.785  1.00  0.00    -0.324 OA
HETATM   42  O6  UNL     1       2.992  -1.539   6.104  1.00  0.00    -0.187 OA
ENDBRANCH  32  33
ENDBRANCH  31  32
ENDBRANCH   4  31
TORSDOF 6
