REMARK  2 active torsions:
REMARK  status: ('A' for Active; 'I' for Inactive)
REMARK    1  A    between atoms: C7_8  and  C10_12 
REMARK    2  A    between atoms: C10_12  and  C11_13 
ROOT
HETATM    1  C1  UNL     1      -3.689  -0.459  -0.197  1.00  0.00     0.135 A 
HETATM    2  C2  UNL     1      -3.535  -1.767   0.320  1.00  0.00     0.055 A 
HETATM    3  C3  UNL     1      -2.242  -2.305   0.529  1.00  0.00     0.138 A 
HETATM    4  C4  UNL     1      -1.102  -1.523   0.215  1.00  0.00     0.087 A 
HETATM    5  C5  UNL     1      -1.252  -0.209  -0.303  1.00  0.00     0.107 A 
HETATM    6  C6  UNL     1      -2.549   0.319  -0.508  1.00  0.00     0.052 A 
HETATM    7  O1  UNL     1      -0.168   0.539  -0.602  1.00  0.00    -0.311 OA
HETATM    8  C7  UNL     1       1.100   0.106  -0.434  1.00  0.00     0.081 A 
HETATM    9  C8  UNL     1       1.367  -1.127   0.051  1.00  0.00     0.062 A 
HETATM   10  C9  UNL     1       0.277  -2.053   0.418  1.00  0.00     0.201 A 
HETATM   11  O2  UNL     1       0.594  -3.140   0.844  1.00  0.00    -0.286 OA
HETATM   12  O3  UNL     1      -2.117  -3.547   1.019  1.00  0.00    -0.190 OA
HETATM   13  O4  UNL     1      -4.916   0.043  -0.393  1.00  0.00    -0.190 OA
ENDROOT
BRANCH   8  14
HETATM   14  C10 UNL     1       2.258   1.002  -0.789  1.00  0.00     0.052 C 
BRANCH  14  15
HETATM   15  C11 UNL     1       2.504   2.082   0.266  1.00  0.00     0.007 C 
HETATM   16  C12 UNL     1       3.684   2.989  -0.084  1.00  0.00     0.000 C 
ENDBRANCH  14  15
ENDBRANCH   8  14
TORSDOF 2
