REMARK  9 active torsions:
REMARK  status: ('A' for Active; 'I' for Inactive)
REMARK    1  A    between atoms: C3_3  and  O3_19 
REMARK    2  A    between atoms: C5_5  and  C7_7 
REMARK    3  A    between atoms: C8_8  and  C9_9 
REMARK    4  A    between atoms: C9_9  and  C10_10 
REMARK    5  A    between atoms: C10_10  and  C11_11 
REMARK    6  A    between atoms: C11_11  and  C12_12 
REMARK    7  A    between atoms: C12_12  and  C13_13 
REMARK    8  A    between atoms: C13_13  and  C14_14 
REMARK    9  A    between atoms: C14_14  and  C15_15 
ROOT
HETATM    1  C7  UNL     1      -0.975  -1.645   0.537  1.00  0.00     0.003 C 
HETATM    2  C8  UNL     1       0.223  -1.549   1.137  1.00  0.00     0.037 C 
ENDROOT
BRANCH   2   3
HETATM    3  C9  UNL     1       0.947  -0.274   1.162  1.00  0.00     0.176 C 
HETATM    4  O2  UNL     1       2.156  -0.256   1.172  1.00  0.00    -0.291 OA
BRANCH   3   5
HETATM    5  C10 UNL     1       0.154   1.006   1.176  1.00  0.00     0.102 C 
BRANCH   5   6
HETATM    6  C11 UNL     1       0.318   1.808  -0.115  1.00  0.00     0.160 C 
HETATM    7  O1  UNL     1      -0.055   0.984  -1.197  1.00  0.00    -0.223 OA
BRANCH   6   8
HETATM    8  C12 UNL     1       1.756   2.273  -0.342  1.00  0.00     0.033 C 
BRANCH   8   9
HETATM    9  C13 UNL     1       1.859   3.379  -1.392  1.00  0.00     0.003 C 
BRANCH   9  10
HETATM   10  C14 UNL     1       3.303   3.820  -1.646  1.00  0.00     0.000 C 
BRANCH  10  11
HETATM   11  C15 UNL     1       3.879   4.641  -0.492  1.00  0.00     0.000 C 
HETATM   12  C16 UNL     1       5.299   5.137  -0.771  1.00  0.00     0.000 C 
ENDBRANCH  10  11
ENDBRANCH   9  10
ENDBRANCH   8   9
ENDBRANCH   6   8
ENDBRANCH   5   6
ENDBRANCH   3   5
ENDBRANCH   2   3
BRANCH   1  13
HETATM   13  C5  UNL     1      -1.674  -2.965   0.537  1.00  0.00     0.002 A 
HETATM   14  C4  UNL     1      -3.078  -3.018   0.537  1.00  0.00     0.026 A 
HETATM   15  C3  UNL     1      -3.740  -4.260   0.537  1.00  0.00     0.119 A 
HETATM   16  C2  UNL     1      -2.992  -5.451   0.537  1.00  0.00     0.153 A 
HETATM   17  C1  UNL     1      -1.588  -5.397   0.537  1.00  0.00     0.029 A 
HETATM   18  O4  UNL     1      -3.606  -6.619   0.537  1.00  0.00    -0.188 OA
HETATM   19  C6  UNL     1      -0.928  -4.156   0.537  1.00  0.00     0.002 A 
BRANCH  15  20
HETATM   20  O3  UNL     1      -5.059  -4.301   0.537  1.00  0.00    -0.326 OA
HETATM   21  C17 UNL     1      -5.764  -3.072   0.463  1.00  0.00     0.181 C 
ENDBRANCH  15  20
ENDBRANCH   1  13
TORSDOF 9
