REMARK  3 active torsions:
REMARK  status: ('A' for Active; 'I' for Inactive)
REMARK    1  A    between atoms: C1_1  and  C10_13 
REMARK    2  A    between atoms: C10_13  and  C11_14 
REMARK    3  A    between atoms: C11_14  and  C12_15 
ROOT
HETATM    1  C1  UNL     1       1.244  -0.869  -0.737  1.00  0.00     0.084 A 
HETATM    2  C2  UNL     1       1.510  -2.103  -0.252  1.00  0.00     0.062 A 
HETATM    3  C3  UNL     1       0.416  -3.029   0.115  1.00  0.00     0.199 A 
HETATM    4  O1  UNL     1       0.727  -4.117   0.543  1.00  0.00    -0.286 OA
HETATM    5  C4  UNL     1      -0.957  -2.496  -0.088  1.00  0.00     0.064 A 
HETATM    6  C5  UNL     1      -2.096  -3.279   0.224  1.00  0.00     0.033 A 
HETATM    7  C6  UNL     1      -3.389  -2.744   0.019  1.00  0.00     0.131 A 
HETATM    8  C7  UNL     1      -3.543  -1.436  -0.498  1.00  0.00     0.029 A 
HETATM    9  C8  UNL     1      -2.406  -0.656  -0.811  1.00  0.00     0.027 A 
HETATM   10  C9  UNL     1      -1.109  -1.182  -0.608  1.00  0.00     0.103 A 
HETATM   11  O2  UNL     1      -0.022  -0.435  -0.904  1.00  0.00    -0.311 OA
HETATM   12  O3  UNL     1      -4.471  -3.479   0.314  1.00  0.00    -0.190 OA
ENDROOT
BRANCH   1  13
HETATM   13  C10 UNL     1       2.402   0.025  -1.092  1.00  0.00     0.089 C 
BRANCH  13  14
HETATM   14  C11 UNL     1       2.729   1.025   0.019  1.00  0.00     0.181 C 
HETATM   15  O4  UNL     1       3.832   1.799  -0.395  1.00  0.00    -0.218 OA
BRANCH  14  16
HETATM   16  C12 UNL     1       1.576   1.918   0.306  1.00  0.00     0.008 A 
HETATM   17  C13 UNL     1       1.033   2.717  -0.717  1.00  0.00    -0.002 A 
HETATM   18  C14 UNL     1      -0.057   3.563  -0.445  1.00  0.00    -0.000 A 
HETATM   19  C15 UNL     1      -0.606   3.609   0.848  1.00  0.00    -0.000 A 
HETATM   20  C16 UNL     1      -0.063   2.813   1.871  1.00  0.00    -0.000 A 
HETATM   21  C17 UNL     1       1.027   1.967   1.599  1.00  0.00    -0.002 A 
ENDBRANCH  14  16
ENDBRANCH  13  14
ENDBRANCH   1  13
TORSDOF 3
