REMARK  5 active torsions:
REMARK  status: ('A' for Active; 'I' for Inactive)
REMARK    1  A    between atoms: C1_1  and  O4_26 
REMARK    2  A    between atoms: C2_2  and  O3_24 
REMARK    3  A    between atoms: C14_15  and  O2_21 
REMARK    4  A    between atoms: C15_16  and  O1_19 
REMARK    5  A    between atoms: O2_21  and  C19_22 
ROOT
HETATM    1  C1  UNL     1       3.684   0.439   0.920  1.00  0.00     0.116 A 
HETATM    2  C2  UNL     1       3.108   1.537   0.244  1.00  0.00     0.116 A 
HETATM    3  C3  UNL     1       2.201   1.318  -0.818  1.00  0.00     0.024 A 
HETATM    4  C4  UNL     1       1.852  -0.002  -1.213  1.00  0.00     0.007 A 
HETATM    5  C5  UNL     1       2.436  -1.107  -0.520  1.00  0.00    -0.020 A 
HETATM    6  C6  UNL     1       3.348  -0.877   0.539  1.00  0.00     0.022 A 
HETATM    7  C7  UNL     1       2.090  -2.510  -0.883  1.00  0.00     0.061 C 
HETATM    8  C8  UNL     1       1.197  -2.652  -2.137  1.00  0.00     0.256 C 
HETATM    9  N1  UNL     1       0.217  -1.563  -2.231  1.00  0.00     0.144 N 
HETATM   10  C9  UNL     1       0.904  -0.260  -2.348  1.00  0.00     0.246 C 
HETATM   11  C10 UNL     1      -0.170   0.826  -2.627  1.00  0.00     0.064 C 
HETATM   12  C11 UNL     1      -1.289   0.818  -1.656  1.00  0.00    -0.020 A 
HETATM   13  C12 UNL     1      -1.621  -0.383  -0.973  1.00  0.00     0.031 A 
HETATM   14  C13 UNL     1      -0.834  -1.629  -1.188  1.00  0.00     0.279 C 
HETATM   15  C14 UNL     1      -2.713  -0.391  -0.064  1.00  0.00     0.114 A 
HETATM   16  C15 UNL     1      -3.457   0.791   0.166  1.00  0.00     0.116 A 
HETATM   17  C16 UNL     1      -3.115   1.984  -0.506  1.00  0.00     0.026 A 
HETATM   18  C17 UNL     1      -2.035   2.000  -1.414  1.00  0.00    -0.002 A 
ENDROOT
BRANCH  15  19
HETATM   19  O2  UNL     1      -3.041  -1.518   0.584  1.00  0.00    -0.329 OA
BRANCH  19  20
HETATM   20  C19 UNL     1      -3.400  -1.420   1.953  1.00  0.00     0.149 C 
HETATM   21  C20 UNL     1      -3.043  -2.723   2.670  1.00  0.00     0.035 C 
ENDBRANCH  19  20
ENDBRANCH  15  19
BRANCH  16  22
HETATM   22  O1  UNL     1      -4.486   0.779   1.025  1.00  0.00    -0.326 OA
HETATM   23  C18 UNL     1      -5.199   1.992   1.225  1.00  0.00     0.181 C 
ENDBRANCH  16  22
BRANCH   2  24
HETATM   24  O3  UNL     1       3.418   2.791   0.604  1.00  0.00    -0.326 OA
HETATM   25  C21 UNL     1       2.699   3.857   0.002  1.00  0.00     0.181 C 
ENDBRANCH   2  24
BRANCH   1  26
HETATM   26  O4  UNL     1       4.547   0.645   1.926  1.00  0.00    -0.326 OA
HETATM   27  C22 UNL     1       5.152  -0.490   2.525  1.00  0.00     0.181 C 
ENDBRANCH   1  26
TORSDOF 5
