REMARK  2 active torsions:
REMARK  status: ('A' for Active; 'I' for Inactive)
REMARK    1  A    between atoms: C4_4  and  C7_8 
REMARK    2  A    between atoms: C7_8  and  C8_9 
ROOT
HETATM    1  C1  UNL     1       1.355  -2.141  -0.367  1.00  0.00     0.029 A 
HETATM    2  C2  UNL     1       2.014  -0.900  -0.367  1.00  0.00     0.029 A 
HETATM    3  C3  UNL     1       1.272   0.295  -0.367  1.00  0.00     0.128 A 
HETATM    4  C4  UNL     1      -0.135   0.240  -0.367  1.00  0.00     0.016 A 
HETATM    5  C5  UNL     1      -0.793  -1.002  -0.367  1.00  0.00     0.026 A 
HETATM    6  C6  UNL     1      -0.049  -2.195  -0.367  1.00  0.00     0.131 A 
HETATM    7  O1  UNL     1      -0.666  -3.361  -0.367  1.00  0.00    -0.190 OA
HETATM    8  O4  UNL     1       1.898   1.453  -0.367  1.00  0.00    -0.191 OA
ENDROOT
BRANCH   4   9
HETATM    9  C7  UNL     1      -0.936   1.494  -0.367  1.00  0.00     0.126 C 
BRANCH   9  10
HETATM   10  C8  UNL     1      -0.932   2.170   0.979  1.00  0.00     0.190 C 
HETATM   11  O2  UNL     1      -1.467   1.461   1.969  1.00  0.00    -0.647 OA
HETATM   12  O3  UNL     1      -0.467   3.277   1.117  1.00  0.00    -0.647 OA
ENDBRANCH   9  10
ENDBRANCH   4   9
TORSDOF 2
