REMARK  0 active torsions:
REMARK  status: ('A' for Active; 'I' for Inactive)
ROOT
HETATM    1  C1  UNL     1      -5.078  -2.676   0.018  1.00  0.00     0.213 C 
HETATM    2  C2  UNL     1      -5.881  -1.438  -0.309  1.00  0.00     0.199 C 
HETATM    3  C3  UNL     1      -5.289  -0.125   0.025  1.00  0.00     0.010 C 
HETATM    4  C4  UNL     1      -3.996   0.010   0.412  1.00  0.00    -0.016 C 
HETATM    5  C5  UNL     1      -3.033  -1.180   0.437  1.00  0.00     0.023 C 
HETATM    6  C6  UNL     1      -3.598  -2.430  -0.287  1.00  0.00     0.045 C 
HETATM    7  C7  UNL     1      -1.604  -0.824  -0.082  1.00  0.00     0.004 C 
HETATM    8  C8  UNL     1      -1.063   0.443   0.648  1.00  0.00     0.003 C 
HETATM    9  C9  UNL     1      -2.010   1.635   0.400  1.00  0.00     0.037 C 
HETATM   10  C10 UNL     1      -3.447   1.355   0.861  1.00  0.00     0.170 C 
HETATM   11  O1  UNL     1      -3.496   1.414   2.273  1.00  0.00    -0.219 OA
HETATM   12  C11 UNL     1       0.430   0.785   0.320  1.00  0.00     0.000 C 
HETATM   13  C12 UNL     1       1.348  -0.436   0.625  1.00  0.00     0.000 C 
HETATM   14  C13 UNL     1       0.830  -1.672  -0.147  1.00  0.00     0.000 C 
HETATM   15  C14 UNL     1      -0.637  -2.004   0.172  1.00  0.00     0.000 C 
HETATM   16  C15 UNL     1       2.865  -0.131   0.332  1.00  0.00     0.003 C 
HETATM   17  C16 UNL     1       3.271   1.373   0.381  1.00  0.00     0.035 C 
HETATM   18  C17 UNL     1       2.424   2.057   1.471  1.00  0.00     0.003 C 
HETATM   19  C18 UNL     1       0.906   2.008   1.164  1.00  0.00     0.000 C 
HETATM   20  C19 UNL     1       4.797   1.416   0.656  1.00  0.00     0.209 C 
HETATM   21  C20 UNL     1       5.563   0.687  -0.441  1.00  0.00     0.180 C 
HETATM   22  C21 UNL     1       5.057  -0.690  -0.842  1.00  0.00     0.060 C 
HETATM   23  C22 UNL     1       3.516  -0.795  -0.898  1.00  0.00     0.007 C 
HETATM   24  C23 UNL     1       5.678  -1.168  -2.160  1.00  0.00     0.008 C 
HETATM   25  O2  UNL     1       6.529   1.176  -0.981  1.00  0.00    -0.293 OA
HETATM   26  O3  UNL     1       5.240   2.756   0.785  1.00  0.00    -0.215 OA
HETATM   27  C24 UNL     1       3.037   2.107  -0.953  1.00  0.00     0.003 C 
HETATM   28  C25 UNL     1       1.225  -0.768   2.129  1.00  0.00     0.000 C 
HETATM   29  C26 UNL     1       0.508   1.141  -1.174  1.00  0.00     0.000 C 
HETATM   30  C27 UNL     1      -1.682  -0.574  -1.600  1.00  0.00     0.000 C 
HETATM   31  C28 UNL     1      -6.194   1.080  -0.070  1.00  0.00     0.034 C 
HETATM   32  O4  UNL     1      -6.977  -1.502  -0.820  1.00  0.00    -0.289 OA
HETATM   33  O5  UNL     1      -5.520  -3.791  -0.736  1.00  0.00    -0.215 OA
ENDROOT
TORSDOF 0
