REMARK  3 active torsions:
REMARK  status: ('A' for Active; 'I' for Inactive)
REMARK    1  A    between atoms: C4_5  and  O2_6 
REMARK    2  A    between atoms: C15_19  and  C19_23 
REMARK    3  A    between atoms: C19_23  and  C20_25 
ROOT
HETATM    1  C1  UNL     1      -5.623   0.514  -1.977  1.00  0.00     0.066 A 
HETATM    2  C2  UNL     1      -5.133   1.867  -1.727  1.00  0.00     0.298 A 
HETATM    3  O1  UNL     1      -3.922   1.834  -1.139  1.00  0.00    -0.270 OA
HETATM    4  C3  UNL     1      -3.619   0.527  -1.000  1.00  0.00     0.144 A 
HETATM    5  C4  UNL     1      -4.690  -0.322  -1.531  1.00  0.00     0.120 A 
HETATM    6  C6  UNL     1      -2.479   0.072  -0.445  1.00  0.00     0.102 C 
HETATM    7  O3  UNL     1      -2.197  -1.229  -0.332  1.00  0.00    -0.314 OA
HETATM    8  C7  UNL     1      -1.012  -1.289   0.273  1.00  0.00     0.075 C 
HETATM    9  C8  UNL     1      -0.471   0.035   0.766  1.00  0.00     0.071 C 
HETATM   10  C9  UNL     1      -1.428   1.016   0.084  1.00  0.00     0.055 C 
HETATM   11  C10 UNL     1      -1.963   2.049   1.074  1.00  0.00     0.007 C 
HETATM   12  C11 UNL     1       1.016   0.330   0.478  1.00  0.00     0.083 C 
HETATM   13  N1  UNL     1       1.900  -0.340   1.459  1.00  0.00    -0.369 N 
HETATM   14  C12 UNL     1       1.471  -1.621   2.049  1.00  0.00     0.102 C 
HETATM   15  C13 UNL     1       1.008  -2.662   1.017  1.00  0.00     0.051 C 
HETATM   16  C14 UNL     1      -0.367  -2.469   0.408  1.00  0.00    -0.004 C 
HETATM   17  C15 UNL     1       3.350  -0.147   1.250  1.00  0.00     0.107 C 
HETATM   18  C16 UNL     1       3.758  -0.514  -0.188  1.00  0.00     0.025 C 
HETATM   19  C17 UNL     1       2.920   0.242  -1.223  1.00  0.00     0.004 C 
HETATM   20  C18 UNL     1       1.426   0.008  -0.981  1.00  0.00     0.022 C 
HETATM   21  O5  UNL     1      -5.752   2.863  -2.018  1.00  0.00    -0.259 OA
HETATM   22  C22 UNL     1      -6.934   0.137  -2.617  1.00  0.00     0.039 C 
ENDROOT
BRANCH   5  23
HETATM   23  O2  UNL     1      -4.725  -1.652  -1.563  1.00  0.00    -0.326 OA
HETATM   24  C5  UNL     1      -4.645  -2.164  -2.885  1.00  0.00     0.181 C 
ENDBRANCH   5  23
BRANCH  17  25
HETATM   25  C19 UNL     1       3.721   1.301   1.590  1.00  0.00     0.172 C 
HETATM   26  O4  UNL     1       3.404   1.529   2.945  1.00  0.00    -0.222 OA
BRANCH  25  27
HETATM   27  C20 UNL     1       5.209   1.592   1.391  1.00  0.00     0.035 C 
HETATM   28  C21 UNL     1       6.108   0.600   2.129  1.00  0.00     0.003 C 
ENDBRANCH  25  27
ENDBRANCH  17  25
TORSDOF 3
