REMARK  7 active torsions:
REMARK  status: ('A' for Active; 'I' for Inactive)
REMARK    1  A    between atoms: C1_1  and  C2_2 
REMARK    2  A    between atoms: C3_3  and  C4_4 
REMARK    3  A    between atoms: C5_7  and  C13_15 
REMARK    4  A    between atoms: C6_8  and  C9_11 
REMARK    5  A    between atoms: C9_11  and  C10_12 
REMARK    6  A    between atoms: C10_12  and  C11_13 
REMARK    7  A    between atoms: C13_15  and  C14_16 
ROOT
HETATM    1  C2  UNL     1      -0.588  -3.002  -0.492  1.00  0.00     0.070 A 
HETATM    2  C3  UNL     1      -1.340  -1.809  -0.492  1.00  0.00     0.066 A 
HETATM    3  C5  UNL     1      -0.678  -0.560  -0.492  1.00  0.00    -0.020 A 
HETATM    4  C6  UNL     1       0.732  -0.514  -0.492  1.00  0.00    -0.026 A 
HETATM    5  C7  UNL     1       1.475  -1.705  -0.492  1.00  0.00    -0.004 A 
HETATM    6  C8  UNL     1       0.818  -2.945  -0.492  1.00  0.00     0.006 A 
ENDROOT
BRANCH   3   7
HETATM    7  C13 UNL     1      -1.461   0.705  -0.492  1.00  0.00     0.026 C 
BRANCH   7   8
HETATM    8  C14 UNL     1      -1.479   1.358   0.891  1.00  0.00     0.004 C 
HETATM    9  C15 UNL     1      -1.565   2.883   0.822  1.00  0.00     0.000 C 
HETATM   10  C16 UNL     1      -2.527   0.748   1.819  1.00  0.00     0.000 C 
ENDBRANCH   7   8
ENDBRANCH   3   7
BRANCH   2  11
HETATM   11  C4  UNL     1      -2.836  -1.863  -0.492  1.00  0.00     0.211 C 
HETATM   12  O1  UNL     1      -3.481  -1.228   0.309  1.00  0.00    -0.644 OA
HETATM   13  O2  UNL     1      -3.373  -2.646  -1.422  1.00  0.00    -0.644 OA
ENDBRANCH   2  11
BRANCH   4  14
HETATM   14  C9  UNL     1       1.447   0.791  -0.492  1.00  0.00     0.026 C 
BRANCH  14  15
HETATM   15  C10 UNL     1       2.732   0.729   0.334  1.00  0.00     0.005 C 
BRANCH  15  16
HETATM   16  C11 UNL     1       3.268   2.115   0.699  1.00  0.00     0.000 C 
HETATM   17  C12 UNL     1       3.766   2.893  -0.519  1.00  0.00     0.000 C 
ENDBRANCH  15  16
ENDBRANCH  14  15
ENDBRANCH   4  14
BRANCH   1  18
HETATM   18  C1  UNL     1      -1.266  -4.336  -0.492  1.00  0.00     0.211 C 
HETATM   19  O3  UNL     1      -2.281  -4.516   0.137  1.00  0.00    -0.644 OA
HETATM   20  O4  UNL     1      -0.670  -5.273  -1.223  1.00  0.00    -0.644 OA
ENDBRANCH   1  18
TORSDOF 7
