REMARK  8 active torsions:
REMARK  status: ('A' for Active; 'I' for Inactive)
REMARK    1  A    between atoms: C6_6  and  N1_7 
REMARK       I    between atoms: N1_7  and  C7_8 
REMARK       I    between atoms: C7_8  and  N2_10 
REMARK    2  A    between atoms: N2_10  and  S1_11 
REMARK    3  A    between atoms: S1_11  and  C8_14 
REMARK    4  A    between atoms: C11_17  and  C14_20 
REMARK    5  A    between atoms: C14_20  and  C15_21 
REMARK    6  A    between atoms: C15_21  and  N3_22 
REMARK       I    between atoms: N3_22  and  C16_23 
REMARK    7  A    between atoms: C16_23  and  C17_24 
REMARK    8  A    between atoms: C18_25  and  O4_31 
ROOT
HETATM    1  C8  UNL     1       2.350   2.564  -1.762  1.00  0.00     0.105 A 
HETATM    2  C9  UNL     1       2.016   3.617  -0.893  1.00  0.00     0.013 A 
HETATM    3  C10 UNL     1       2.418   3.568   0.453  1.00  0.00    -0.004 A 
HETATM    4  C11 UNL     1       3.154   2.469   0.930  1.00  0.00    -0.020 A 
HETATM    5  C12 UNL     1       3.488   1.416   0.057  1.00  0.00    -0.004 A 
HETATM    6  C13 UNL     1       3.086   1.465  -1.289  1.00  0.00     0.013 A 
ENDROOT
BRANCH   4   7
HETATM    7  C14 UNL     1       3.582   2.416   2.352  1.00  0.00     0.053 C 
BRANCH   7   8
HETATM    8  C15 UNL     1       2.381   2.348   3.297  1.00  0.00     0.134 C 
BRANCH   8   9
HETATM    9  N3  UNL     1       1.637   1.094   3.113  1.00  0.00    -0.234 NA
HETATM   10  C16 UNL     1       0.531   0.852   3.879  1.00  0.00     0.277 C 
HETATM   11  O5  UNL     1       0.168   1.660   4.699  1.00  0.00    -0.266 OA
BRANCH  10  12
HETATM   12  C17 UNL     1      -0.213  -0.430   3.680  1.00  0.00     0.081 A 
HETATM   13  C18 UNL     1       0.484  -1.635   3.469  1.00  0.00     0.099 A 
HETATM   14  C19 UNL     1      -0.232  -2.830   3.285  1.00  0.00     0.025 A 
HETATM   15  C20 UNL     1      -1.637  -2.826   3.311  1.00  0.00     0.013 A 
HETATM   16  C21 UNL     1      -2.334  -1.623   3.518  1.00  0.00     0.058 A 
HETATM   17  C22 UNL     1      -1.619  -0.424   3.703  1.00  0.00     0.018 A 
HETATM   18 CL1  UNL     1      -4.047  -1.615   3.545  1.00  0.00    -0.082 Cl
BRANCH  13  19
HETATM   19  O4  UNL     1       1.803  -1.654   3.443  1.00  0.00    -0.328 OA
HETATM   20  C23 UNL     1       2.449  -2.914   3.344  1.00  0.00     0.181 C 
ENDBRANCH  13  19
ENDBRANCH  10  12
ENDBRANCH   8   9
ENDBRANCH   7   8
ENDBRANCH   4   7
BRANCH   1  21
HETATM   21  S1  UNL     1       1.856   2.625  -3.412  1.00  0.00     0.289 S 
HETATM   22  O2  UNL     1       3.039   2.787  -4.238  1.00  0.00    -0.198 OA
HETATM   23  O3  UNL     1       0.898   3.707  -3.564  1.00  0.00    -0.198 OA
BRANCH  21  24
HETATM   24  N2  UNL     1       1.121   1.258  -3.877  1.00  0.00    -0.101 NA
HETATM   25  C7  UNL     1       0.020   0.836  -3.188  1.00  0.00     0.374 C 
HETATM   26  N1  UNL     1      -0.609  -0.316  -3.568  1.00  0.00    -0.219 NA
HETATM   27  O1  UNL     1      -0.395   1.477  -2.250  1.00  0.00    -0.242 OA
BRANCH  26  28
HETATM   28  C6  UNL     1      -1.799  -0.772  -2.824  1.00  0.00     0.108 C 
HETATM   29  C1  UNL     1      -2.033  -2.279  -3.035  1.00  0.00     0.025 C 
HETATM   30  C2  UNL     1      -3.295  -2.764  -2.307  1.00  0.00     0.002 C 
HETATM   31  C3  UNL     1      -4.529  -1.945  -2.711  1.00  0.00     0.000 C 
HETATM   32  C4  UNL     1      -4.301  -0.443  -2.494  1.00  0.00     0.002 C 
HETATM   33  C5  UNL     1      -3.041   0.049  -3.221  1.00  0.00     0.025 C 
ENDBRANCH  26  28
ENDBRANCH  21  24
ENDBRANCH   1  21
TORSDOF 8
