REMARK  3 active torsions:
REMARK  status: ('A' for Active; 'I' for Inactive)
REMARK    1  A    between atoms: C1_1  and  O7_24 
REMARK    2  A    between atoms: C6_6  and  O1_7 
REMARK    3  A    between atoms: C15_18  and  O4_19 
ROOT
HETATM    1  C1  UNL     1       3.330  -0.916   0.617  1.00  0.00     0.118 A 
HETATM    2  C2  UNL     1       2.080  -1.566   0.545  1.00  0.00     0.030 A 
HETATM    3  C3  UNL     1       0.885  -0.824   0.342  1.00  0.00     0.046 A 
HETATM    4  C4  UNL     1       0.951   0.594   0.213  1.00  0.00     0.070 A 
HETATM    5  C5  UNL     1       2.221   1.240   0.289  1.00  0.00     0.158 A 
HETATM    6  C6  UNL     1       3.400   0.488   0.488  1.00  0.00     0.142 A 
HETATM    7  O2  UNL     1       2.324   2.572   0.172  1.00  0.00    -0.188 OA
HETATM    8  C8  UNL     1      -0.283   1.420   0.000  1.00  0.00     0.200 A 
HETATM    9  C9  UNL     1      -1.584   0.676  -0.086  1.00  0.00     0.066 A 
HETATM   10  C10 UNL     1      -1.641  -0.744   0.043  1.00  0.00     0.044 A 
HETATM   11  C11 UNL     1      -0.412  -1.566   0.269  1.00  0.00     0.196 A 
HETATM   12  O3  UNL     1      -0.463  -2.771   0.389  1.00  0.00    -0.287 OA
HETATM   13  C12 UNL     1      -2.893  -1.406  -0.045  1.00  0.00     0.001 A 
HETATM   14  C13 UNL     1      -4.084  -0.680  -0.260  1.00  0.00     0.006 A 
HETATM   15  C14 UNL     1      -4.033   0.727  -0.387  1.00  0.00     0.149 A 
HETATM   16  C15 UNL     1      -2.793   1.400  -0.301  1.00  0.00     0.122 A 
HETATM   17  O5  UNL     1      -5.158   1.426  -0.592  1.00  0.00    -0.188 OA
HETATM   18  C17 UNL     1      -5.369  -1.391  -0.350  1.00  0.00     0.033 C 
HETATM   19  O6  UNL     1      -0.232   2.625  -0.100  1.00  0.00    -0.286 OA
ENDROOT
BRANCH   1  20
HETATM   20  O7  UNL     1       4.445  -1.635   0.807  1.00  0.00    -0.326 OA
HETATM   21  C18 UNL     1       4.313  -3.033   1.008  1.00  0.00     0.181 C 
ENDBRANCH   1  20
BRANCH   6  22
HETATM   22  O1  UNL     1       4.588   1.107   0.557  1.00  0.00    -0.324 OA
HETATM   23  C7  UNL     1       5.748   0.307   0.740  1.00  0.00     0.182 C 
ENDBRANCH   6  22
BRANCH  16  24
HETATM   24  O4  UNL     1      -2.783   2.736  -0.426  1.00  0.00    -0.326 OA
HETATM   25  C16 UNL     1      -3.016   3.287  -1.713  1.00  0.00     0.181 C 
ENDBRANCH  16  24
TORSDOF 3
