REMARK  2 active torsions:
REMARK  status: ('A' for Active; 'I' for Inactive)
REMARK    1  A    between atoms: C1_1  and  C8_11 
REMARK    2  A    between atoms: C8_11  and  C9_12 
ROOT
HETATM    1  C1  UNL     1      -0.515   0.279  -0.277  1.00  0.00     0.062 A 
HETATM    2  C2  UNL     1       0.754  -0.336  -0.330  1.00  0.00     0.031 A 
HETATM    3  C3  UNL     1       1.940   0.410  -0.101  1.00  0.00     0.119 A 
HETATM    4  C4  UNL     1       1.848   1.775   0.186  1.00  0.00     0.121 A 
HETATM    5  C5  UNL     1       0.572   2.395   0.240  1.00  0.00     0.054 A 
HETATM    6  C6  UNL     1      -0.611   1.658   0.012  1.00  0.00     0.136 A 
HETATM    7  O1  UNL     1      -1.803   2.270   0.070  1.00  0.00    -0.190 OA
HETATM    8  O2  UNL     1       3.076   2.266   0.361  1.00  0.00    -0.299 OA
HETATM    9  C7  UNL     1       4.041   1.205   0.186  1.00  0.00     0.304 A 
HETATM   10  O3  UNL     1       3.225   0.051  -0.103  1.00  0.00    -0.300 OA
ENDROOT
BRANCH   1  11
HETATM   11  C8  UNL     1      -1.734  -0.521  -0.523  1.00  0.00     0.175 C 
HETATM   12  O4  UNL     1      -2.766  -0.186  -1.056  1.00  0.00    -0.291 OA
BRANCH  11  13
HETATM   13  C9  UNL     1      -1.553  -1.920   0.004  1.00  0.00     0.069 C 
HETATM   14  C10 UNL     1      -2.881  -2.666   0.149  1.00  0.00     0.009 C 
ENDBRANCH  11  13
ENDBRANCH   1  11
TORSDOF 2
