REMARK  4 active torsions:
REMARK  status: ('A' for Active; 'I' for Inactive)
REMARK    1  A    between atoms: C11_13  and  C19_24 
REMARK    2  A    between atoms: C12_14  and  C13_16 
REMARK    3  A    between atoms: C19_24  and  C20_25 
REMARK    4  A    between atoms: C20_25  and  C21_26 
ROOT
HETATM    1  C1  UNL     1      -5.695   1.643  -0.314  1.00  0.00     0.117 C 
HETATM    2  O1  UNL     1      -4.719   2.570  -0.822  1.00  0.00    -0.331 OA
HETATM    3  C2  UNL     1      -3.391   2.342  -0.719  1.00  0.00     0.098 A 
HETATM    4  C3  UNL     1      -2.900   1.041  -0.441  1.00  0.00     0.045 A 
HETATM    5  C4  UNL     1      -3.875  -0.062  -0.277  1.00  0.00     0.002 C 
HETATM    6  C5  UNL     1      -5.193   0.209  -0.256  1.00  0.00     0.001 C 
HETATM    7  C6  UNL     1      -1.506   0.801  -0.346  1.00  0.00     0.101 A 
HETATM    8  C7  UNL     1      -0.600   1.887  -0.492  1.00  0.00     0.083 A 
HETATM    9  C8  UNL     1      -1.090   3.186  -0.795  1.00  0.00     0.138 A 
HETATM   10  C9  UNL     1      -2.482   3.406  -0.908  1.00  0.00     0.052 A 
HETATM   11  O2  UNL     1      -0.250   4.217  -0.969  1.00  0.00    -0.190 OA
HETATM   12  C10 UNL     1       0.865   1.652  -0.314  1.00  0.00     0.179 C 
HETATM   13  C11 UNL     1       1.277   0.256   0.119  1.00  0.00     0.094 C 
HETATM   14  C12 UNL     1       0.293  -0.807  -0.424  1.00  0.00     0.153 C 
HETATM   15  O3  UNL     1      -1.059  -0.451  -0.115  1.00  0.00    -0.328 OA
HETATM   16  O7  UNL     1       1.742   2.471  -0.476  1.00  0.00    -0.291 OA
HETATM   17  C24 UNL     1      -6.065   2.086   1.104  1.00  0.00     0.035 C 
HETATM   18  C25 UNL     1      -6.924   1.729  -1.221  1.00  0.00     0.035 C 
ENDROOT
BRANCH  14  19
HETATM   19  C13 UNL     1       0.557  -2.168   0.119  1.00  0.00     0.031 A 
HETATM   20  C14 UNL     1       0.297  -2.457   1.473  1.00  0.00     0.131 A 
HETATM   21  O4  UNL     1      -0.184  -1.529   2.276  1.00  0.00    -0.190 OA
HETATM   22  C15 UNL     1       0.551  -3.748   1.971  1.00  0.00     0.054 A 
HETATM   23  C16 UNL     1       1.064  -4.748   1.127  1.00  0.00     0.133 A 
HETATM   24  C17 UNL     1       1.322  -4.455  -0.223  1.00  0.00     0.027 A 
HETATM   25  O5  UNL     1       1.301  -5.955   1.600  1.00  0.00    -0.190 OA
HETATM   26  C18 UNL     1       1.070  -3.168  -0.726  1.00  0.00     0.002 A 
ENDBRANCH  14  19
BRANCH  13  27
HETATM   27  C19 UNL     1       2.723  -0.059  -0.295  1.00  0.00     0.013 C 
BRANCH  27  28
HETATM   28  C20 UNL     1       3.754   0.570   0.643  1.00  0.00     0.031 C 
BRANCH  28  29
HETATM   29  C21 UNL     1       5.193   0.219   0.258  1.00  0.00     0.127 C 
HETATM   30  C22 UNL     1       5.504  -1.268   0.430  1.00  0.00     0.033 C 
HETATM   31  C23 UNL     1       5.578   0.748  -1.123  1.00  0.00     0.033 C 
HETATM   32  O6  UNL     1       6.057   0.797   1.209  1.00  0.00    -0.226 OA
ENDBRANCH  28  29
ENDBRANCH  27  28
ENDBRANCH  13  27
TORSDOF 4
