REMARK  0 active torsions:
REMARK  status: ('A' for Active; 'I' for Inactive)
ROOT
HETATM    1  C1  UNL     1       1.485  -0.914   0.375  1.00  0.00     0.103 A 
HETATM    2  C2  UNL     1       0.772   0.275   0.020  1.00  0.00     0.023 A 
HETATM    3  C3  UNL     1      -0.705   0.201  -0.121  1.00  0.00     0.007 A 
HETATM    4  C4  UNL     1      -1.338  -1.049   0.113  1.00  0.00     0.064 A 
HETATM    5  C5  UNL     1      -0.488  -2.211   0.484  1.00  0.00     0.300 A 
HETATM    6  O1  UNL     1       0.846  -2.086   0.592  1.00  0.00    -0.273 OA
HETATM    7  O2  UNL     1      -0.937  -3.313   0.705  1.00  0.00    -0.259 OA
HETATM    8  C6  UNL     1      -2.744  -1.186  -0.006  1.00  0.00     0.005 A 
HETATM    9  C7  UNL     1      -3.527  -0.065  -0.361  1.00  0.00     0.000 A 
HETATM   10  C8  UNL     1      -2.910   1.185  -0.596  1.00  0.00     0.000 A 
HETATM   11  C9  UNL     1      -1.508   1.322  -0.477  1.00  0.00     0.000 A 
HETATM   12  C10 UNL     1       1.500   1.480  -0.188  1.00  0.00     0.002 A 
HETATM   13  C11 UNL     1       2.906   1.498  -0.049  1.00  0.00     0.000 A 
HETATM   14  C12 UNL     1       3.602   0.320   0.297  1.00  0.00     0.002 A 
HETATM   15  C13 UNL     1       2.893  -0.883   0.510  1.00  0.00     0.025 A 
ENDROOT
TORSDOF 0
