REMARK  4 active torsions:
REMARK  status: ('A' for Active; 'I' for Inactive)
REMARK    1  A    between atoms: C3_3  and  C19_22 
REMARK    2  A    between atoms: C7_7  and  C12_12 
REMARK    3  A    between atoms: C12_12  and  C13_13 
REMARK    4  A    between atoms: C13_13  and  C14_14 
ROOT
HETATM    1  C1  UNL     1      -2.533  -0.404  -0.697  1.00  0.00     0.033 C 
HETATM    2  C2  UNL     1      -2.199  -1.879  -1.043  1.00  0.00     0.154 C 
HETATM    3  C3  UNL     1      -1.033  -2.453  -0.201  1.00  0.00     0.059 C 
HETATM    4  C4  UNL     1       0.250  -1.551  -0.256  1.00  0.00     0.005 C 
HETATM    5  C5  UNL     1       0.008  -0.064  -0.648  1.00  0.00     0.004 C 
HETATM    6  C6  UNL     1      -1.353   0.389  -0.096  1.00  0.00     0.003 C 
HETATM    7  C7  UNL     1       1.176   0.762  -0.053  1.00  0.00     0.021 C 
HETATM    8  C8  UNL     1       2.526   0.117  -0.334  1.00  0.00    -0.044 C 
HETATM    9  C9  UNL     1       2.592  -1.096  -1.246  1.00  0.00     0.022 C 
HETATM   10  C10 UNL     1       1.447  -2.117  -1.051  1.00  0.00     0.004 C 
HETATM   11  C11 UNL     1       3.645   0.609   0.227  1.00  0.00    -0.009 C 
HETATM   12  C18 UNL     1      -0.002   0.135  -2.178  1.00  0.00     0.000 C 
HETATM   13  C20 UNL     1      -1.529  -2.531   1.252  1.00  0.00     0.005 C 
HETATM   14  O5  UNL     1      -1.908  -1.998  -2.424  1.00  0.00    -0.223 OA
ENDROOT
BRANCH   7  15
HETATM   15  C12 UNL     1       1.156   2.227  -0.516  1.00  0.00     0.042 C 
BRANCH  15  16
HETATM   16  C13 UNL     1       1.408   3.209   0.627  1.00  0.00     0.180 C 
HETATM   17  O3  UNL     1       1.654   4.481   0.070  1.00  0.00    -0.218 OA
BRANCH  16  18
HETATM   18  C14 UNL     1       0.244   3.295   1.578  1.00  0.00     0.069 A 
HETATM   19  C15 UNL     1      -1.074   3.820   1.264  1.00  0.00     0.294 A 
HETATM   20  O1  UNL     1      -1.865   3.748   2.342  1.00  0.00    -0.294 OA
HETATM   21  O2  UNL     1      -1.385   4.254   0.180  1.00  0.00    -0.259 OA
HETATM   22  C16 UNL     1      -1.117   3.170   3.424  1.00  0.00     0.178 A 
HETATM   23  C17 UNL     1       0.252   2.901   2.852  1.00  0.00     0.010 A 
ENDBRANCH  16  18
ENDBRANCH  15  16
ENDBRANCH   7  15
BRANCH   3  24
HETATM   24  C19 UNL     1      -0.728  -3.902  -0.617  1.00  0.00     0.185 C 
HETATM   25  O4  UNL     1      -1.918  -4.650  -0.514  1.00  0.00    -0.221 OA
ENDBRANCH   3  24
TORSDOF 4
