REMARK  0 active torsions:
REMARK  status: ('A' for Active; 'I' for Inactive)
ROOT
HETATM    1  C1  UNL     1       1.924  -1.061   0.334  1.00  0.00     0.042 A 
HETATM    2  C2  UNL     1       1.982   0.357   0.203  1.00  0.00     0.042 A 
HETATM    3  C3  UNL     1       3.240   1.013   0.277  1.00  0.00     0.003 A 
HETATM    4  C4  UNL     1       4.428   0.275   0.477  1.00  0.00     0.000 A 
HETATM    5  C5  UNL     1       4.371  -1.127   0.606  1.00  0.00     0.000 A 
HETATM    6  C6  UNL     1       3.127  -1.791   0.535  1.00  0.00     0.003 A 
HETATM    7  C7  UNL     1       0.750   1.179  -0.010  1.00  0.00     0.198 A 
HETATM    8  C8  UNL     1      -0.549   0.433  -0.094  1.00  0.00     0.067 A 
HETATM    9  C9  UNL     1      -0.602  -0.987   0.035  1.00  0.00     0.044 A 
HETATM   10  C10 UNL     1       0.631  -1.807   0.264  1.00  0.00     0.196 A 
HETATM   11  O1  UNL     1       0.582  -3.012   0.383  1.00  0.00    -0.287 OA
HETATM   12  C11 UNL     1      -1.854  -1.653  -0.053  1.00  0.00     0.003 A 
HETATM   13  C12 UNL     1      -3.043  -0.926  -0.266  1.00  0.00    -0.002 A 
HETATM   14  C13 UNL     1      -2.998   0.478  -0.394  1.00  0.00     0.004 A 
HETATM   15  C14 UNL     1      -1.760   1.158  -0.309  1.00  0.00     0.130 A 
HETATM   16  O2  UNL     1      -1.746   2.494  -0.434  1.00  0.00    -0.190 OA
HETATM   17  C15 UNL     1      -4.246   1.228  -0.619  1.00  0.00     0.033 C 
HETATM   18  O3  UNL     1       0.808   2.385  -0.107  1.00  0.00    -0.286 OA
ENDROOT
TORSDOF 0
