REMARK  10 active torsions:
REMARK  status: ('A' for Active; 'I' for Inactive)
REMARK    1  A    between atoms: C2_2  and  O3_23 
REMARK    2  A    between atoms: C12_12  and  C15_15 
REMARK    3  A    between atoms: O3_23  and  C21_24 
REMARK    4  A    between atoms: C23_27  and  O5_28 
REMARK    5  A    between atoms: O5_28  and  C24_29 
REMARK    6  A    between atoms: C26_31  and  O11_47 
REMARK    7  A    between atoms: C27_32  and  O6_33 
REMARK    8  A    between atoms: O6_33  and  C28_34 
REMARK    9  A    between atoms: C30_36  and  O9_42 
REMARK   10  A    between atoms: C38_49  and  O12_51 
ROOT
HETATM    1  C21 UNL     1      -0.014  -2.151   0.498  1.00  0.00     0.238 C 
HETATM    2  O4  UNL     1       1.223  -1.713  -0.074  1.00  0.00    -0.331 OA
HETATM    3  C22 UNL     1       1.356  -0.315  -0.342  1.00  0.00     0.147 C 
HETATM    4  C23 UNL     1       1.113   0.496   0.953  1.00  0.00     0.172 C 
HETATM    5  C38 UNL     1      -0.238   0.141   1.604  1.00  0.00     0.150 C 
HETATM    6  C39 UNL     1      -0.318  -1.381   1.801  1.00  0.00     0.094 C 
HETATM    7  C41 UNL     1       0.449   0.080  -1.520  1.00  0.00     0.035 C 
ENDROOT
BRANCH   1   8
HETATM    8  O3  UNL     1      -1.105  -2.053  -0.391  1.00  0.00    -0.331 OA
BRANCH   8   9
HETATM    9  C2  UNL     1      -1.252  -3.192  -1.223  1.00  0.00     0.152 C 
HETATM   10  C1  UNL     1      -2.150  -2.877  -2.441  1.00  0.00     0.180 C 
HETATM   11  C6  UNL     1      -3.633  -2.584  -2.082  1.00  0.00     0.039 C 
HETATM   12  O13 UNL     1      -1.613  -1.820  -3.217  1.00  0.00    -0.221 OA
HETATM   13  C5  UNL     1      -4.139  -3.238  -0.762  1.00  0.00     0.018 C 
HETATM   14  C4  UNL     1      -3.336  -4.516  -0.545  1.00  0.00    -0.046 C 
HETATM   15  C7  UNL     1      -5.680  -3.475  -0.775  1.00  0.00     0.011 C 
HETATM   16  C20 UNL     1      -3.850  -2.305   0.424  1.00  0.00     0.004 C 
HETATM   17  C3  UNL     1      -1.826  -4.377  -0.414  1.00  0.00     0.054 C 
HETATM   18  C10 UNL     1      -3.902  -5.740  -0.508  1.00  0.00    -0.034 C 
HETATM   19  C9  UNL     1      -5.383  -5.957  -0.701  1.00  0.00     0.033 C 
HETATM   20  C8  UNL     1      -6.066  -4.803  -1.455  1.00  0.00     0.063 C 
HETATM   21  C11 UNL     1      -7.574  -4.992  -1.523  1.00  0.00     0.154 C 
HETATM   22  C12 UNL     1      -8.391  -3.805  -1.992  1.00  0.00     0.082 C 
HETATM   23  O2  UNL     1      -8.094  -6.043  -1.217  1.00  0.00    -0.296 OA
HETATM   24  C13 UNL     1      -7.986  -2.522  -1.250  1.00  0.00     0.012 C 
HETATM   25  C14 UNL     1      -6.477  -2.277  -1.336  1.00  0.00     0.002 C 
BRANCH  22  26
HETATM   26  C15 UNL     1      -9.873  -4.076  -1.814  1.00  0.00     0.005 A 
HETATM   27  C16 UNL     1     -10.693  -3.615  -0.787  1.00  0.00     0.025 A 
HETATM   28  C17 UNL     1     -11.967  -4.125  -1.057  1.00  0.00     0.122 A 
HETATM   29  O1  UNL     1     -11.986  -4.877  -2.195  1.00  0.00    -0.310 OA
HETATM   30  C18 UNL     1     -10.699  -4.838  -2.647  1.00  0.00     0.074 A 
HETATM   31  C19 UNL     1     -10.283  -5.559  -3.912  1.00  0.00     0.058 C 
ENDBRANCH  22  26
ENDBRANCH   8   9
ENDBRANCH   1   8
BRANCH   5  32
HETATM   32  O12 UNL     1      -0.367   0.771   2.865  1.00  0.00    -0.351 OA
HETATM   33  C40 UNL     1      -0.652   2.148   2.772  1.00  0.00     0.174 C 
ENDBRANCH   5  32
BRANCH   4  34
HETATM   34  O5  UNL     1       1.174   1.881   0.656  1.00  0.00    -0.328 OA
BRANCH  34  35
HETATM   35  C24 UNL     1       2.484   2.336   0.395  1.00  0.00     0.238 C 
HETATM   36  C25 UNL     1       2.426   3.805  -0.074  1.00  0.00     0.094 C 
HETATM   37  C26 UNL     1       3.840   4.379  -0.256  1.00  0.00     0.150 C 
HETATM   38  C27 UNL     1       4.662   4.137   1.029  1.00  0.00     0.172 C 
HETATM   39  C35 UNL     1       4.629   2.648   1.449  1.00  0.00     0.147 C 
HETATM   40  O10 UNL     1       3.274   2.226   1.574  1.00  0.00    -0.331 OA
HETATM   41  C36 UNL     1       5.358   1.703   0.479  1.00  0.00     0.035 C 
BRANCH  37  42
HETATM   42  O11 UNL     1       3.742   5.764  -0.533  1.00  0.00    -0.351 OA
HETATM   43  C37 UNL     1       4.926   6.307  -1.072  1.00  0.00     0.174 C 
ENDBRANCH  37  42
BRANCH  38  44
HETATM   44  O6  UNL     1       6.008   4.539   0.840  1.00  0.00    -0.328 OA
BRANCH  44  45
HETATM   45  C28 UNL     1       6.535   5.250   1.939  1.00  0.00     0.238 C 
HETATM   46  C29 UNL     1       7.885   5.910   1.568  1.00  0.00     0.094 C 
HETATM   47  C30 UNL     1       9.063   4.916   1.502  1.00  0.00     0.153 C 
HETATM   48  C31 UNL     1       9.061   3.978   2.729  1.00  0.00     0.206 C 
HETATM   49  C32 UNL     1       7.653   3.389   3.008  1.00  0.00     0.151 C 
HETATM   50  O8  UNL     1       9.512   4.713   3.854  1.00  0.00    -0.218 OA
HETATM   51  O7  UNL     1       6.678   4.428   3.096  1.00  0.00    -0.331 OA
HETATM   52  C33 UNL     1       7.580   2.574   4.305  1.00  0.00     0.035 C 
BRANCH  47  53
HETATM   53  O9  UNL     1       8.959   4.139   0.324  1.00  0.00    -0.351 OA
HETATM   54  C34 UNL     1       9.223   4.875  -0.850  1.00  0.00     0.174 C 
ENDBRANCH  47  53
ENDBRANCH  44  45
ENDBRANCH  38  44
ENDBRANCH  34  35
ENDBRANCH   4  34
TORSDOF 10
