REMARK  6 active torsions:
REMARK  status: ('A' for Active; 'I' for Inactive)
REMARK    1  A    between atoms: C1_1  and  C2_2 
REMARK    2  A    between atoms: C2_2  and  C3_4 
REMARK    3  A    between atoms: C3_4  and  S1_5 
REMARK    4  A    between atoms: S1_5  and  S2_6 
REMARK    5  A    between atoms: S2_6  and  C4_7 
REMARK    6  A    between atoms: C4_7  and  C5_8 
ROOT
HETATM    1  C3  UNL     1      -0.336   0.240  -1.486  1.00  0.00     0.119 C 
ENDROOT
BRANCH   1   2
HETATM    2  C2  UNL     1      -0.885   1.668  -1.486  1.00  0.00     0.399 C 
HETATM    3  N1  UNL     1      -0.373   2.408  -0.346  1.00  0.00     0.629 N 
BRANCH   2   4
HETATM    4  C1  UNL     1      -2.389   1.705  -1.496  1.00  0.00     0.225 C 
HETATM    5  O1  UNL     1      -3.035   0.703  -1.697  1.00  0.00    -0.646 OA
HETATM    6  O2  UNL     1      -2.926   2.900  -1.272  1.00  0.00    -0.646 OA
ENDBRANCH   2   4
ENDBRANCH   1   2
BRANCH   1   7
HETATM    7  S1  UNL     1       1.478   0.240  -1.486  1.00  0.00    -0.079 SA
BRANCH   7   8
HETATM    8  S2  UNL     1       1.937  -1.611  -0.764  1.00  0.00    -0.077 SA
BRANCH   8   9
HETATM    9  C4  UNL     1       1.553  -1.469   1.004  1.00  0.00     0.095 C 
BRANCH   9  10
HETATM   10  C5  UNL     1       1.830  -2.781   1.685  1.00  0.00    -0.014 C 
HETATM   11  C6  UNL     1       1.900  -2.805   3.025  1.00  0.00    -0.004 C 
ENDBRANCH   9  10
ENDBRANCH   8   9
ENDBRANCH   7   8
ENDBRANCH   1   7
TORSDOF 6
