REMARK  4 active torsions:
REMARK  status: ('A' for Active; 'I' for Inactive)
REMARK    1  A    between atoms: C5_7  and  C8_10 
REMARK    2  A    between atoms: C9_11  and  C10_12 
REMARK    3  A    between atoms: C11_13  and  C12_14 
REMARK    4  A    between atoms: C12_14  and  O4_16 
ROOT
HETATM    1  C1  UNL     1       4.127  -1.106  -0.543  1.00  0.00     0.119 A 
HETATM    2  C2  UNL     1       4.033   0.260  -0.256  1.00  0.00     0.119 A 
HETATM    3  O1  UNL     1       5.260   0.752  -0.080  1.00  0.00    -0.300 OA
HETATM    4  C3  UNL     1       6.227  -0.307  -0.254  1.00  0.00     0.304 A 
HETATM    5  O2  UNL     1       5.412  -1.463  -0.543  1.00  0.00    -0.300 OA
HETATM    6  C4  UNL     1       2.756   0.875  -0.201  1.00  0.00     0.026 A 
HETATM    7  C5  UNL     1       1.580   0.129  -0.432  1.00  0.00     0.002 A 
HETATM    8  C6  UNL     1       1.670  -1.246  -0.719  1.00  0.00     0.002 A 
HETATM    9  C7  UNL     1       2.941  -1.854  -0.772  1.00  0.00     0.026 A 
ENDROOT
BRANCH   7  10
HETATM   10  C8  UNL     1       0.258   0.789  -0.369  1.00  0.00     0.000 C 
HETATM   11  C9  UNL     1      -0.807   0.068   0.017  1.00  0.00     0.000 C 
BRANCH  11  12
HETATM   12  C10 UNL     1      -2.139   0.680   0.094  1.00  0.00     0.005 C 
HETATM   13  C11 UNL     1      -3.201  -0.041   0.480  1.00  0.00     0.068 C 
BRANCH  13  14
HETATM   14  C12 UNL     1      -4.533   0.570   0.556  1.00  0.00     0.296 C 
HETATM   15  O3  UNL     1      -4.690   1.734   0.271  1.00  0.00    -0.259 OA
BRANCH  14  16
HETATM   16  O4  UNL     1      -5.518  -0.234   0.949  1.00  0.00    -0.296 OA
HETATM   17  C13 UNL     1      -6.772   0.432   1.004  1.00  0.00     0.185 C 
ENDBRANCH  14  16
ENDBRANCH  13  14
ENDBRANCH  11  12
ENDBRANCH   7  10
TORSDOF 4
