REMARK  1 active torsions:
REMARK  status: ('A' for Active; 'I' for Inactive)
REMARK    1  A    between atoms: C4_4  and  C7_7 
ROOT
HETATM    1  C1  UNL     1       0.047   1.215  -1.033  1.00  0.00     0.004 C 
HETATM    2  C2  UNL     1      -0.432   1.057   0.447  1.00  0.00     0.005 C 
HETATM    3  C3  UNL     1      -0.084  -0.451   0.232  1.00  0.00     0.004 C 
HETATM    4  C4  UNL     1       1.412  -0.803   0.307  1.00  0.00     0.000 C 
HETATM    5  C5  UNL     1       2.287   0.387  -0.127  1.00  0.00     0.000 C 
HETATM    6  C6  UNL     1       1.576   1.199  -1.219  1.00  0.00     0.000 C 
HETATM    7  C10 UNL     1      -0.602  -0.195  -1.215  1.00  0.00     0.018 C 
HETATM    8  C11 UNL     1      -2.135  -0.164  -1.281  1.00  0.00    -0.048 C 
HETATM    9  C12 UNL     1      -2.783   0.570  -0.357  1.00  0.00    -0.034 C 
HETATM   10  C13 UNL     1      -1.941   1.301   0.666  1.00  0.00     0.025 C 
HETATM   11  C14 UNL     1      -2.881  -0.926  -2.344  1.00  0.00     0.026 C 
HETATM   12  C15 UNL     1      -0.609   2.346  -1.826  1.00  0.00     0.000 C 
ENDROOT
BRANCH   4  13
HETATM   13  C7  UNL     1       1.840  -1.322   1.682  1.00  0.00     0.000 C 
HETATM   14  C8  UNL     1       1.363  -0.428   2.826  1.00  0.00     0.000 C 
HETATM   15  C9  UNL     1       1.480  -2.793   1.895  1.00  0.00     0.000 C 
ENDBRANCH   4  13
TORSDOF 1
