REMARK  1 active torsions:
REMARK  status: ('A' for Active; 'I' for Inactive)
REMARK    1  A    between atoms: C12_13  and  C13_14 
ROOT
HETATM    1  C1  UNL     1       2.875  -0.932  -0.963  1.00  0.00     0.006 C 
HETATM    2  C2  UNL     1       4.408  -0.762  -1.010  1.00  0.00     0.034 C 
HETATM    3  C3  UNL     1       4.856   0.709  -0.875  1.00  0.00     0.156 C 
HETATM    4  O1  UNL     1       4.529   1.400  -2.066  1.00  0.00    -0.223 OA
HETATM    5  C4  UNL     1       4.186   1.414   0.322  1.00  0.00     0.055 C 
HETATM    6  C5  UNL     1       2.690   1.184   0.295  1.00  0.00    -0.046 C 
HETATM    7  C6  UNL     1       1.832   2.229   0.242  1.00  0.00    -0.035 C 
HETATM    8  C7  UNL     1       0.338   2.045   0.086  1.00  0.00     0.025 C 
HETATM    9  C8  UNL     1       0.024   0.688  -0.557  1.00  0.00     0.005 C 
HETATM   10  C9  UNL     1      -1.467   0.363  -0.805  1.00  0.00     0.001 C 
HETATM   11  C10 UNL     1      -2.463   1.518  -0.906  1.00  0.00     0.001 C 
HETATM   12  C11 UNL     1      -3.828   0.857  -0.684  1.00  0.00     0.007 C 
HETATM   13  C12 UNL     1      -3.543  -0.596  -0.281  1.00  0.00     0.058 C 
HETATM   14  C15 UNL     1      -2.103  -0.549   0.252  1.00  0.00     0.006 C 
HETATM   15  C16 UNL     1      -2.084   0.109   1.639  1.00  0.00     0.000 C 
HETATM   16  C17 UNL     1      -1.385  -1.916   0.248  1.00  0.00     0.000 C 
HETATM   17  C18 UNL     1       0.135  -1.803  -0.020  1.00  0.00     0.000 C 
HETATM   18  C19 UNL     1       0.692  -0.402   0.309  1.00  0.00     0.004 C 
HETATM   19  C20 UNL     1       2.240  -0.277   0.287  1.00  0.00     0.015 C 
HETATM   20  C21 UNL     1       2.791  -0.965   1.547  1.00  0.00     0.004 C 
ENDROOT
BRANCH  13  21
HETATM   21  C13 UNL     1      -4.557  -1.178   0.676  1.00  0.00     0.151 C 
HETATM   22  C14 UNL     1      -6.004  -1.176   0.260  1.00  0.00     0.072 C 
HETATM   23  O2  UNL     1      -4.217  -1.629   1.742  1.00  0.00    -0.296 OA
ENDBRANCH  13  21
TORSDOF 1
