REMARK  7 active torsions:
REMARK  status: ('A' for Active; 'I' for Inactive)
REMARK    1  A    between atoms: C3_3  and  C13_15 
REMARK    2  A    between atoms: C4_4  and  O1_8 
REMARK    3  A    between atoms: O1_8  and  C8_9 
REMARK    4  A    between atoms: C8_9  and  C9_10 
REMARK    5  A    between atoms: C13_15  and  C14_16 
REMARK    6  A    between atoms: C14_16  and  O3_17 
REMARK    7  A    between atoms: O3_17  and  C15_18 
ROOT
HETATM    1  C1  UNL     1       1.148   3.367   0.953  1.00  0.00     0.127 A 
HETATM    2  C2  UNL     1       1.889   2.174   0.953  1.00  0.00     0.027 A 
HETATM    3  C3  UNL     1       1.232   0.930   0.953  1.00  0.00     0.032 A 
HETATM    4  C4  UNL     1      -0.174   0.877   0.953  1.00  0.00     0.101 A 
HETATM    5  C5  UNL     1      -0.916   2.070   0.953  1.00  0.00     0.022 A 
HETATM    6  C6  UNL     1      -0.260   3.315   0.953  1.00  0.00     0.005 A 
HETATM    7  C7  UNL     1      -1.059   4.570   0.953  1.00  0.00     0.033 C 
HETATM    8  O6  UNL     1       1.773   4.527   0.953  1.00  0.00    -0.191 OA
ENDROOT
BRANCH   3   9
HETATM    9  C13 UNL     1       2.039  -0.338   0.953  1.00  0.00     0.169 A 
HETATM   10  C17 UNL     1       2.055  -1.264   2.219  1.00  0.00     0.177 A 
HETATM   11  O5  UNL     1       2.996  -0.275   1.959  1.00  0.00    -0.347 OA
BRANCH   9  12
HETATM   12  C14 UNL     1       2.723  -0.797  -0.328  1.00  0.00     0.186 C 
BRANCH  12  13
HETATM   13  O3  UNL     1       1.738  -1.154  -1.287  1.00  0.00    -0.299 OA
BRANCH  13  14
HETATM   14  C15 UNL     1       2.273  -1.615  -2.414  1.00  0.00     0.273 C 
HETATM   15  O4  UNL     1       3.463  -1.719  -2.602  1.00  0.00    -0.264 OA
HETATM   16  C16 UNL     1       1.285  -2.014  -3.477  1.00  0.00     0.106 C 
ENDBRANCH  13  14
ENDBRANCH  12  13
ENDBRANCH   9  12
ENDBRANCH   3   9
BRANCH   4  17
HETATM   17  O1  UNL     1      -0.801  -0.283   0.953  1.00  0.00    -0.274 OA
BRANCH  17  18
HETATM   18  C8  UNL     1      -1.830  -0.461   0.129  1.00  0.00     0.296 C 
HETATM   19  O2  UNL     1      -2.133   0.316  -0.746  1.00  0.00    -0.259 OA
BRANCH  18  20
HETATM   20  C9  UNL     1      -2.607  -1.687   0.338  1.00  0.00     0.037 C 
HETATM   21  C10 UNL     1      -3.064  -2.020   1.734  1.00  0.00     0.036 C 
HETATM   22  C11 UNL     1      -2.932  -2.527  -0.658  1.00  0.00    -0.025 C 
HETATM   23  C12 UNL     1      -2.475  -2.195  -2.055  1.00  0.00     0.030 C 
ENDBRANCH  18  20
ENDBRANCH  17  18
ENDBRANCH   4  17
TORSDOF 7
