REMARK  5 active torsions:
REMARK  status: ('A' for Active; 'I' for Inactive)
REMARK    1  A    between atoms: C15_15  and  C18_18 
REMARK    2  A    between atoms: C18_18  and  C20_20 
REMARK    3  A    between atoms: C21_21  and  C22_22 
REMARK    4  A    between atoms: C22_22  and  C23_23 
REMARK    5  A    between atoms: C22_22  and  C25_25 
ROOT
HETATM    1  C1  UNL     1       6.264   0.547   1.684  1.00  0.00     0.065 C 
HETATM    2  C2  UNL     1       6.496  -0.889   2.068  1.00  0.00     0.151 C 
HETATM    3  C3  UNL     1       5.617  -1.893   1.371  1.00  0.00     0.065 C 
HETATM    4  C4  UNL     1       4.117  -1.533   1.447  1.00  0.00     0.007 C 
HETATM    5  C5  UNL     1       3.818  -0.045   1.088  1.00  0.00     0.001 C 
HETATM    6  C6  UNL     1       4.781   0.908   1.840  1.00  0.00     0.008 C 
HETATM    7  C7  UNL     1       2.348   0.344   1.475  1.00  0.00     0.000 C 
HETATM    8  C8  UNL     1       1.424  -0.889   1.629  1.00  0.00     0.000 C 
HETATM    9  C9  UNL     1       1.943  -1.854   2.721  1.00  0.00     0.000 C 
HETATM   10  C10 UNL     1       3.479  -1.922   2.789  1.00  0.00     0.000 C 
HETATM   11  C11 UNL     1       0.010  -0.410   2.000  1.00  0.00     0.000 C 
HETATM   12  C12 UNL     1      -0.568   0.551   0.957  1.00  0.00     0.000 C 
HETATM   13  C13 UNL     1       0.297   1.816   0.951  1.00  0.00     0.000 C 
HETATM   14  C14 UNL     1       1.736   1.436   0.561  1.00  0.00     0.000 C 
HETATM   15  C15 UNL     1      -1.973   0.738   1.543  1.00  0.00     0.004 C 
HETATM   16  C16 UNL     1      -2.383  -0.684   1.951  1.00  0.00     0.000 C 
HETATM   17  C17 UNL     1      -1.078  -1.477   2.104  1.00  0.00     0.000 C 
HETATM   18  C28 UNL     1      -0.662  -0.088  -0.438  1.00  0.00     0.000 C 
HETATM   19  C29 UNL     1       4.057   0.111  -0.424  1.00  0.00     0.000 C 
HETATM   20  O1  UNL     1       7.328  -1.215   2.885  1.00  0.00    -0.296 OA
ENDROOT
BRANCH  15  21
HETATM   21  C18 UNL     1      -2.969   1.387   0.586  1.00  0.00     0.022 C 
HETATM   22  C19 UNL     1      -4.170   1.564   1.514  1.00  0.00     0.005 C 
BRANCH  21  23
HETATM   23  C20 UNL     1      -3.283   0.510  -0.598  1.00  0.00    -0.031 C 
HETATM   24  C21 UNL     1      -3.258   1.057  -1.824  1.00  0.00    -0.031 C 
BRANCH  24  25
HETATM   25  C22 UNL     1      -3.570   0.180  -3.008  1.00  0.00     0.022 C 
BRANCH  25  26
HETATM   26  C23 UNL     1      -5.055   0.201  -3.371  1.00  0.00     0.004 C 
HETATM   27  C24 UNL     1      -5.961  -0.111  -2.180  1.00  0.00     0.000 C 
ENDBRANCH  25  26
BRANCH  25  28
HETATM   28  C25 UNL     1      -2.666   0.469  -4.205  1.00  0.00     0.004 C 
HETATM   29  C26 UNL     1      -1.195   0.619  -3.811  1.00  0.00     0.000 C 
HETATM   30  C27 UNL     1      -2.871  -0.520  -5.354  1.00  0.00     0.000 C 
ENDBRANCH  25  28
ENDBRANCH  24  25
ENDBRANCH  21  23
ENDBRANCH  15  21
TORSDOF 5
