REMARK  7 active torsions:
REMARK  status: ('A' for Active; 'I' for Inactive)
REMARK    1  A    between atoms: C4_4  and  O1_7 
REMARK    2  A    between atoms: O1_7  and  C7_8 
REMARK    3  A    between atoms: C7_8  and  C8_9 
REMARK    4  A    between atoms: C12_13  and  O2_15 
REMARK    5  A    between atoms: O2_15  and  C14_16 
REMARK    6  A    between atoms: C14_16  and  C15_17 
REMARK    7  A    between atoms: C15_17  and  C16_18 
ROOT
HETATM    1  C8  UNL     1      -2.354  -0.033   0.031  1.00  0.00     0.065 C 
HETATM    2  C9  UNL     1      -3.738  -0.568   0.455  1.00  0.00     0.187 C 
HETATM    3  C10 UNL     1      -4.033  -1.969  -0.141  1.00  0.00     0.215 C 
HETATM    4  C11 UNL     1      -2.900  -2.979   0.172  1.00  0.00     0.212 C 
HETATM    5  C12 UNL     1      -1.520  -2.422  -0.248  1.00  0.00     0.148 C 
HETATM    6  C13 UNL     1      -1.248  -1.043   0.377  1.00  0.00     0.037 C 
HETATM    7  O3  UNL     1      -3.147  -4.194  -0.518  1.00  0.00    -0.218 OA
HETATM    8  O4  UNL     1      -5.256  -2.457   0.387  1.00  0.00    -0.218 OA
HETATM    9  O5  UNL     1      -4.731   0.351   0.027  1.00  0.00    -0.221 OA
ENDROOT
BRANCH   1  10
HETATM   10  C7  UNL     1      -2.045   1.332   0.658  1.00  0.00     0.145 C 
BRANCH  10  11
HETATM   11  O1  UNL     1      -0.859   1.826   0.078  1.00  0.00    -0.354 OA
BRANCH  11  12
HETATM   12  C4  UNL     1      -0.352   2.975   0.736  1.00  0.00     0.148 C 
HETATM   13  C3  UNL     1       1.088   3.281   0.248  1.00  0.00     0.212 C 
HETATM   14  C2  UNL     1       1.602   4.615   0.851  1.00  0.00     0.215 C 
HETATM   15  O6  UNL     1       1.949   2.223   0.637  1.00  0.00    -0.218 OA
HETATM   16  C1  UNL     1       0.635   5.797   0.594  1.00  0.00     0.185 C 
HETATM   17  O7  UNL     1       2.896   4.928   0.359  1.00  0.00    -0.218 OA
HETATM   18  C6  UNL     1      -0.789   5.461   1.074  1.00  0.00     0.038 C 
HETATM   19  O8  UNL     1       0.578   6.117  -0.787  1.00  0.00    -0.221 OA
HETATM   20  C5  UNL     1      -1.315   4.146   0.475  1.00  0.00     0.035 C 
ENDBRANCH  11  12
ENDBRANCH  10  11
ENDBRANCH   1  10
BRANCH   5  21
HETATM   21  O2  UNL     1      -0.488  -3.303   0.164  1.00  0.00    -0.354 OA
BRANCH  21  22
HETATM   22  C14 UNL     1       0.760  -3.008  -0.420  1.00  0.00     0.147 C 
BRANCH  22  23
HETATM   23  C15 UNL     1       1.717  -4.160  -0.113  1.00  0.00     0.058 C 
BRANCH  23  24
HETATM   24  C16 UNL     1       3.063  -3.924  -0.697  1.00  0.00    -0.020 A 
HETATM   25  C17 UNL     1       4.084  -4.877  -0.522  1.00  0.00    -0.004 A 
HETATM   26  C18 UNL     1       5.357  -4.654  -1.072  1.00  0.00    -0.000 A 
HETATM   27  C19 UNL     1       5.611  -3.479  -1.799  1.00  0.00    -0.000 A 
HETATM   28  C20 UNL     1       4.594  -2.526  -1.975  1.00  0.00    -0.000 A 
HETATM   29  C21 UNL     1       3.320  -2.748  -1.424  1.00  0.00    -0.004 A 
ENDBRANCH  23  24
ENDBRANCH  22  23
ENDBRANCH  21  22
ENDBRANCH   5  21
TORSDOF 7
