REMARK  5 active torsions:
REMARK  status: ('A' for Active; 'I' for Inactive)
REMARK    1  A    between atoms: C2_2  and  C7_8 
REMARK    2  A    between atoms: C7_8  and  C8_9 
REMARK    3  A    between atoms: C13_15  and  C14_16 
REMARK    4  A    between atoms: C14_16  and  C15_17 
REMARK    5  A    between atoms: C15_17  and  C16_18 
ROOT
HETATM    1  C8  UNL     1      -1.162   1.043  -0.016  1.00  0.00     0.004 A 
HETATM    2  C9  UNL     1      -2.055   2.119   0.150  1.00  0.00     0.129 A 
HETATM    3  O2  UNL     1      -2.018   3.153  -0.668  1.00  0.00    -0.190 OA
HETATM    4  C10 UNL     1      -2.992   2.094   1.197  1.00  0.00     0.054 A 
HETATM    5  C11 UNL     1      -3.045   1.002   2.080  1.00  0.00     0.133 A 
HETATM    6  C12 UNL     1      -2.154  -0.072   1.912  1.00  0.00     0.023 A 
HETATM    7  C13 UNL     1      -1.213  -0.057   0.867  1.00  0.00    -0.021 A 
HETATM    8  O3  UNL     1      -3.926   0.983   3.060  1.00  0.00    -0.190 OA
ENDROOT
BRANCH   1   9
HETATM    9  C7  UNL     1      -0.170   1.069  -1.125  1.00  0.00     0.054 C 
BRANCH   9  10
HETATM   10  C2  UNL     1       0.828   2.141  -0.871  1.00  0.00    -0.018 A 
HETATM   11  C1  UNL     1       0.986   3.188  -1.795  1.00  0.00    -0.002 A 
HETATM   12  C6  UNL     1       1.930   4.201  -1.553  1.00  0.00     0.027 A 
HETATM   13  C5  UNL     1       2.719   4.172  -0.391  1.00  0.00     0.131 A 
HETATM   14  C4  UNL     1       2.559   3.121   0.531  1.00  0.00     0.027 A 
HETATM   15  O1  UNL     1       3.604   5.121  -0.166  1.00  0.00    -0.190 OA
HETATM   16  C3  UNL     1       1.615   2.108   0.293  1.00  0.00    -0.002 A 
ENDBRANCH   9  10
ENDBRANCH   1   9
BRANCH   7  17
HETATM   17  C14 UNL     1      -0.279  -1.203   0.707  1.00  0.00     0.031 C 
BRANCH  17  18
HETATM   18  C15 UNL     1      -0.744  -2.160  -0.391  1.00  0.00     0.031 C 
BRANCH  18  19
HETATM   19  C16 UNL     1       0.045  -3.420  -0.391  1.00  0.00    -0.022 A 
HETATM   20  C17 UNL     1      -0.613  -4.662  -0.391  1.00  0.00    -0.004 A 
HETATM   21  C18 UNL     1       0.133  -5.853  -0.391  1.00  0.00    -0.000 A 
HETATM   22  C19 UNL     1       1.539  -5.803  -0.391  1.00  0.00    -0.000 A 
HETATM   23  C20 UNL     1       2.195  -4.560  -0.391  1.00  0.00    -0.000 A 
HETATM   24  C21 UNL     1       1.449  -3.369  -0.391  1.00  0.00    -0.004 A 
ENDBRANCH  18  19
ENDBRANCH  17  18
ENDBRANCH   7  17
TORSDOF 5
