REMARK  6 active torsions:
REMARK  status: ('A' for Active; 'I' for Inactive)
REMARK    1  A    between atoms: C1_1  and  O3_20 
REMARK    2  A    between atoms: C3_3  and  O2_17 
REMARK    3  A    between atoms: C5_5  and  C7_7 
REMARK    4  A    between atoms: C7_7  and  C8_8 
REMARK    5  A    between atoms: C8_8  and  C9_9 
REMARK    6  A    between atoms: C12_12  and  O1_15 
ROOT
HETATM    1  C1  UNL     1      -0.383  -3.617   0.598  1.00  0.00     0.092 A 
HETATM    2  C2  UNL     1      -1.789  -3.662   0.600  1.00  0.00     0.023 A 
HETATM    3  C3  UNL     1      -2.537  -2.469   0.602  1.00  0.00     0.092 A 
HETATM    4  C4  UNL     1      -1.871  -1.230   0.602  1.00  0.00     0.020 A 
HETATM    5  C5  UNL     1      -0.467  -1.182   0.600  1.00  0.00    -0.018 A 
HETATM    6  C6  UNL     1       0.275  -2.375   0.598  1.00  0.00     0.020 A 
HETATM    7  C17 UNL     1      -2.490  -4.977   0.600  1.00  0.00     0.035 C 
ENDROOT
BRANCH   5   8
HETATM    8  C7  UNL     1       0.232   0.131   0.600  1.00  0.00     0.031 C 
BRANCH   8   9
HETATM    9  C8  UNL     1       0.496   0.629  -0.822  1.00  0.00     0.031 C 
BRANCH   9  10
HETATM   10  C9  UNL     1       1.191   1.941  -0.822  1.00  0.00    -0.022 A 
HETATM   11  C10 UNL     1       0.445   3.133  -0.822  1.00  0.00    -0.002 A 
HETATM   12  C11 UNL     1       1.106   4.375  -0.822  1.00  0.00     0.024 A 
HETATM   13  C12 UNL     1       2.510   4.430  -0.822  1.00  0.00     0.094 A 
HETATM   14  C13 UNL     1       3.254   3.236  -0.822  1.00  0.00     0.024 A 
HETATM   15  C14 UNL     1       2.596   1.992  -0.822  1.00  0.00    -0.002 A 
BRANCH  13  16
HETATM   16  O1  UNL     1       3.127   5.594  -0.822  1.00  0.00    -0.328 OA
HETATM   17  C15 UNL     1       2.334   6.770  -0.888  1.00  0.00     0.181 C 
ENDBRANCH  13  16
ENDBRANCH   9  10
ENDBRANCH   8   9
ENDBRANCH   5   8
BRANCH   3  18
HETATM   18  O2  UNL     1      -3.854  -2.502   0.604  1.00  0.00    -0.328 OA
HETATM   19  C16 UNL     1      -4.553  -1.266   0.606  1.00  0.00     0.181 C 
ENDBRANCH   3  18
BRANCH   1  20
HETATM   20  O3  UNL     1       0.324  -4.731   0.596  1.00  0.00    -0.328 OA
HETATM   21  C18 UNL     1       1.740  -4.623   0.594  1.00  0.00     0.181 C 
ENDBRANCH   1  20
TORSDOF 6
