REMARK  1 active torsions:
REMARK  status: ('A' for Active; 'I' for Inactive)
REMARK    1  A    between atoms: C1_1  and  C8_8 
ROOT
HETATM    1  C1  UNL     1       0.371  -0.258   0.049  1.00  0.00    -0.008 A 
HETATM    2  C2  UNL     1      -1.037  -0.309   0.049  1.00  0.00    -0.022 A 
HETATM    3  C3  UNL     1      -1.693  -1.555   0.049  1.00  0.00    -0.004 A 
HETATM    4  C4  UNL     1      -0.947  -2.744   0.049  1.00  0.00    -0.000 A 
HETATM    5  C5  UNL     1       0.457  -2.693   0.049  1.00  0.00    -0.000 A 
HETATM    6  C6  UNL     1       1.115  -1.453   0.049  1.00  0.00    -0.001 A 
HETATM    7  C7  UNL     1      -1.848   0.939   0.049  1.00  0.00     0.031 C 
ENDROOT
BRANCH   1   8
HETATM    8  C8  UNL     1       1.090   1.055   0.049  1.00  0.00    -0.022 C 
HETATM    9  C9  UNL     1       2.145   1.213   0.865  1.00  0.00    -0.004 C 
HETATM   10  C10 UNL     1       0.680   2.207  -0.828  1.00  0.00     0.031 C 
ENDBRANCH   1   8
TORSDOF 1
