REMARK  5 active torsions:
REMARK  status: ('A' for Active; 'I' for Inactive)
REMARK    1  A    between atoms: C3_3  and  C20_22 
REMARK    2  A    between atoms: C7_7  and  C11_12 
REMARK    3  A    between atoms: C11_12  and  C12_13 
REMARK    4  A    between atoms: C12_13  and  C13_14 
REMARK    5  A    between atoms: C13_14  and  C17_18 
ROOT
HETATM    1  C1  UNL     1       3.047  -1.334  -0.069  1.00  0.00     0.001 C 
HETATM    2  C2  UNL     1       2.592  -2.775   0.232  1.00  0.00     0.010 C 
HETATM    3  C3  UNL     1       1.660  -2.877   1.457  1.00  0.00     0.078 C 
HETATM    4  C4  UNL     1       0.404  -1.947   1.299  1.00  0.00     0.011 C 
HETATM    5  C5  UNL     1       0.545  -0.838   0.217  1.00  0.00     0.007 C 
HETATM    6  C6  UNL     1       1.979  -0.273   0.258  1.00  0.00     0.000 C 
HETATM    7  C7  UNL     1      -0.494   0.268   0.533  1.00  0.00     0.058 C 
HETATM    8  C8  UNL     1      -1.863  -0.291   0.877  1.00  0.00     0.150 C 
HETATM    9  C9  UNL     1      -2.103  -1.771   0.668  1.00  0.00     0.065 C 
HETATM   10  C10 UNL     1      -0.945  -2.684   1.131  1.00  0.00     0.008 C 
HETATM   11  O1  UNL     1      -2.734   0.424   1.312  1.00  0.00    -0.296 OA
HETATM   12  C18 UNL     1       0.279  -1.400  -1.194  1.00  0.00     0.000 C 
HETATM   13  C19 UNL     1       1.275  -4.346   1.678  1.00  0.00     0.011 C 
ENDROOT
BRANCH   7  14
HETATM   14  C11 UNL     1      -0.609   1.309  -0.588  1.00  0.00     0.012 C 
BRANCH  14  15
HETATM   15  C12 UNL     1      -1.057   2.680  -0.076  1.00  0.00     0.029 C 
BRANCH  15  16
HETATM   16  C13 UNL     1      -0.996   3.738  -1.145  1.00  0.00     0.012 C 
HETATM   17  C14 UNL     1      -2.072   3.922  -1.926  1.00  0.00    -0.044 C 
HETATM   18  C15 UNL     1      -1.977   4.910  -3.059  1.00  0.00     0.026 C 
HETATM   19  C16 UNL     1      -3.318   3.133  -1.631  1.00  0.00     0.026 C 
BRANCH  16  20
HETATM   20  C17 UNL     1       0.238   4.522  -1.285  1.00  0.00     0.229 C 
HETATM   21  O2  UNL     1       1.231   4.215  -0.666  1.00  0.00    -0.283 OA
ENDBRANCH  16  20
ENDBRANCH  15  16
ENDBRANCH  14  15
ENDBRANCH   7  14
BRANCH   3  22
HETATM   22  C20 UNL     1       2.459  -2.479   2.678  1.00  0.00     0.184 C 
HETATM   23  O3  UNL     1       3.145  -3.283   3.262  1.00  0.00    -0.647 OA
HETATM   24  O4  UNL     1       2.340  -1.205   3.041  1.00  0.00    -0.647 OA
ENDBRANCH   3  22
TORSDOF 5
