REMARK  1 active torsions:
REMARK  status: ('A' for Active; 'I' for Inactive)
REMARK    1  A    between atoms: C5_5  and  C7_7 
ROOT
HETATM    1  C1  UNL     1       0.957  -1.760  -0.477  1.00  0.00     0.026 A 
HETATM    2  C2  UNL     1       2.143  -1.012  -0.246  1.00  0.00     0.119 A 
HETATM    3  C3  UNL     1       2.049   0.355   0.039  1.00  0.00     0.119 A 
HETATM    4  C4  UNL     1       0.771   0.971   0.096  1.00  0.00     0.026 A 
HETATM    5  C5  UNL     1      -0.406   0.225  -0.135  1.00  0.00     0.002 A 
HETATM    6  C6  UNL     1      -0.316  -1.152  -0.424  1.00  0.00     0.002 A 
HETATM    7  O1  UNL     1       3.275   0.848   0.217  1.00  0.00    -0.300 OA
HETATM    8  C10 UNL     1       4.242  -0.211   0.043  1.00  0.00     0.304 A 
HETATM    9  O2  UNL     1       3.428  -1.367  -0.246  1.00  0.00    -0.300 OA
ENDROOT
BRANCH   5  10
HETATM   10  C7  UNL     1      -1.727   0.885  -0.072  1.00  0.00    -0.004 C 
HETATM   11  C8  UNL     1      -2.791   0.162   0.314  1.00  0.00    -0.026 C 
HETATM   12  C9  UNL     1      -4.133   0.840   0.375  1.00  0.00     0.031 C 
ENDBRANCH   5  10
TORSDOF 1
