REMARK  4 active torsions:
REMARK  status: ('A' for Active; 'I' for Inactive)
REMARK    1  A    between atoms: C4_4  and  C7_7 
REMARK    2  A    between atoms: C8_8  and  O5_20 
REMARK    3  A    between atoms: O5_20  and  C16_21 
REMARK    4  A    between atoms: C20_25  and  C21_27 
ROOT
HETATM    1  C7  UNL     1       0.941  -1.707  -0.399  1.00  0.00     0.178 C 
HETATM    2  C8  UNL     1       0.611  -0.201  -0.551  1.00  0.00     0.211 C 
HETATM    3  C9  UNL     1       1.742   0.564  -1.227  1.00  0.00     0.207 C 
HETATM    4  C10 UNL     1       3.117   0.029  -1.004  1.00  0.00     0.085 A 
HETATM    5  C11 UNL     1       3.293  -1.174  -0.266  1.00  0.00     0.101 A 
HETATM    6  O1  UNL     1       2.236  -1.879   0.185  1.00  0.00    -0.326 OA
HETATM    7  C12 UNL     1       4.598  -1.647   0.008  1.00  0.00     0.052 A 
HETATM    8  C13 UNL     1       5.725  -0.949  -0.485  1.00  0.00     0.135 A 
HETATM    9  C14 UNL     1       5.551   0.225  -1.250  1.00  0.00     0.055 A 
HETATM   10  C15 UNL     1       4.252   0.717  -1.514  1.00  0.00     0.138 A 
HETATM   11  O2  UNL     1       4.113   1.838  -2.238  1.00  0.00    -0.190 OA
HETATM   12  O3  UNL     1       6.959  -1.404  -0.225  1.00  0.00    -0.190 OA
HETATM   13  O4  UNL     1       1.455   1.545  -1.877  1.00  0.00    -0.288 OA
ENDROOT
BRANCH   2  14
HETATM   14  O5  UNL     1      -0.594  -0.063  -1.285  1.00  0.00    -0.321 OA
BRANCH  14  15
HETATM   15  C16 UNL     1      -1.512   0.840  -0.690  1.00  0.00     0.270 C 
HETATM   16  C17 UNL     1      -2.881   0.900  -1.445  1.00  0.00     0.241 C 
HETATM   17  C18 UNL     1      -3.621   2.244  -1.195  1.00  0.00     0.220 C 
HETATM   18  O10 UNL     1      -2.729   0.740  -2.848  1.00  0.00    -0.215 OA
HETATM   19  C19 UNL     1      -3.205   2.863   0.158  1.00  0.00     0.215 C 
HETATM   20  O9  UNL     1      -5.025   2.070  -1.281  1.00  0.00    -0.218 OA
HETATM   21  C20 UNL     1      -1.658   3.064   0.223  1.00  0.00     0.184 C 
HETATM   22  O8  UNL     1      -3.645   2.031   1.223  1.00  0.00    -0.218 OA
HETATM   23  O6  UNL     1      -0.949   2.143  -0.610  1.00  0.00    -0.326 OA
BRANCH  21  24
HETATM   24  C21 UNL     1      -1.049   3.004   1.631  1.00  0.00     0.214 C 
HETATM   25  O7  UNL     1       0.279   3.477   1.557  1.00  0.00    -0.218 OA
ENDBRANCH  21  24
ENDBRANCH  14  15
ENDBRANCH   2  14
BRANCH   1  26
HETATM   26  C4  UNL     1      -0.047  -2.445   0.437  1.00  0.00     0.008 A 
HETATM   27  C3  UNL     1      -0.912  -3.381  -0.156  1.00  0.00     0.000 A 
HETATM   28  C2  UNL     1      -1.844  -4.078   0.633  1.00  0.00     0.027 A 
HETATM   29  C1  UNL     1      -1.916  -3.842   2.017  1.00  0.00     0.131 A 
HETATM   30  C6  UNL     1      -1.049  -2.906   2.609  1.00  0.00     0.027 A 
HETATM   31  O11 UNL     1      -2.789  -4.494   2.756  1.00  0.00    -0.190 OA
HETATM   32  C5  UNL     1      -0.115  -2.209   1.822  1.00  0.00     0.000 A 
ENDBRANCH   1  26
TORSDOF 4
