REMARK  3 active torsions:
REMARK  status: ('A' for Active; 'I' for Inactive)
REMARK    1  A    between atoms: C1_1  and  C11_14 
REMARK    2  A    between atoms: C2_2  and  O3_12 
REMARK    3  A    between atoms: C11_14  and  C12_15 
ROOT
HETATM    1  C1  UNL     1      -0.043   0.146  -0.519  1.00  0.00     0.005 A 
HETATM    2  C2  UNL     1       0.029   1.473  -0.021  1.00  0.00     0.092 A 
HETATM    3  C3  UNL     1      -1.156   2.224   0.170  1.00  0.00     0.049 A 
HETATM    4  C4  UNL     1      -2.414   1.656  -0.131  1.00  0.00     0.105 A 
HETATM    5  C5  UNL     1      -2.481   0.326  -0.627  1.00  0.00     0.023 A 
HETATM    6  C6  UNL     1      -1.301  -0.430  -0.822  1.00  0.00    -0.000 A 
HETATM    7  C7  UNL     1      -3.813  -0.252  -0.936  1.00  0.00     0.007 A 
HETATM    8  C8  UNL     1      -4.910   0.504  -0.734  1.00  0.00     0.069 A 
HETATM    9  C9  UNL     1      -4.776   1.885  -0.217  1.00  0.00     0.300 A 
HETATM   10  O1  UNL     1      -3.547   2.373   0.051  1.00  0.00    -0.273 OA
HETATM   11  O2  UNL     1      -5.779   2.537  -0.049  1.00  0.00    -0.259 OA
ENDROOT
BRANCH   1  12
HETATM   12  C11 UNL     1       1.186  -0.639  -0.721  1.00  0.00     0.054 C 
BRANCH  12  13
HETATM   13  C12 UNL     1       1.680  -1.258   0.561  1.00  0.00    -0.030 C 
HETATM   14  C13 UNL     1       2.637  -2.199   0.490  1.00  0.00    -0.048 C 
HETATM   15  C14 UNL     1       3.283  -2.688  -0.777  1.00  0.00     0.026 C 
HETATM   16  C15 UNL     1       3.117  -2.830   1.770  1.00  0.00     0.026 C 
ENDBRANCH  12  13
ENDBRANCH   1  12
BRANCH   2  17
HETATM   17  O3  UNL     1       1.215   2.023   0.268  1.00  0.00    -0.328 OA
HETATM   18  C10 UNL     1       1.234   3.373   0.709  1.00  0.00     0.181 C 
ENDBRANCH   2  17
TORSDOF 3
