REMARK  0 active torsions:
REMARK  status: ('A' for Active; 'I' for Inactive)
ROOT
HETATM    1  C1  UNL     1      -1.295  -1.502  -0.115  1.00  0.00    -0.045 C 
HETATM    2  C2  UNL     1      -2.006  -0.789   0.783  1.00  0.00    -0.034 C 
HETATM    3  C3  UNL     1      -3.166   0.096   0.373  1.00  0.00     0.030 C 
HETATM    4  C4  UNL     1      -2.695   1.305  -0.477  1.00  0.00     0.026 C 
HETATM    5  C5  UNL     1      -1.272   1.697  -0.131  1.00  0.00    -0.048 C 
HETATM    6  C6  UNL     1      -0.246   1.129  -0.803  1.00  0.00    -0.030 C 
HETATM    7  C7  UNL     1       1.193   1.193  -0.356  1.00  0.00     0.050 C 
HETATM    8  C8  UNL     1       1.814  -0.186  -0.178  1.00  0.00    -0.011 A 
HETATM    9  C9  UNL     1       1.232  -1.549  -0.557  1.00  0.00     0.147 A 
HETATM   10  C10 UNL     1       0.041  -2.102   0.256  1.00  0.00     0.056 C 
HETATM   11  O1  UNL     1       2.332  -2.453  -0.332  1.00  0.00    -0.297 OA
HETATM   12  C11 UNL     1       3.342  -1.797   0.250  1.00  0.00     0.291 A 
HETATM   13  C12 UNL     1       3.029  -0.385   0.334  1.00  0.00     0.036 A 
HETATM   14  C13 UNL     1       3.941   0.678   0.891  1.00  0.00     0.036 C 
HETATM   15  O2  UNL     1       4.371  -2.287   0.650  1.00  0.00    -0.260 OA
HETATM   16  C14 UNL     1      -1.059   2.676   0.996  1.00  0.00     0.026 C 
HETATM   17  C15 UNL     1      -1.787  -1.697  -1.529  1.00  0.00     0.026 C 
ENDROOT
TORSDOF 0
