REMARK  4 active torsions:
REMARK  status: ('A' for Active; 'I' for Inactive)
REMARK    1  A    between atoms: C4_4  and  C8_8 
REMARK    2  A    between atoms: C8_8  and  C9_9 
REMARK    3  A    between atoms: C9_9  and  C10_10 
REMARK    4  A    between atoms: C11_11  and  C12_12 
ROOT
HETATM    1  C1  UNL     1       3.295  -1.106   0.467  1.00  0.00     0.002 C 
HETATM    2  C2  UNL     1       2.213  -0.988  -0.617  1.00  0.00     0.028 C 
HETATM    3  C3  UNL     1       0.779  -0.945  -0.055  1.00  0.00     0.152 C 
HETATM    4  C4  UNL     1       0.717   0.414   0.684  1.00  0.00     0.029 C 
HETATM    5  C5  UNL     1       2.117   0.975   0.367  1.00  0.00     0.003 C 
HETATM    6  C6  UNL     1       3.232   0.264   1.143  1.00  0.00     0.000 C 
HETATM    7  C7  UNL     1       2.389   0.465  -1.047  1.00  0.00     0.003 C 
HETATM    8  C14 UNL     1       0.463   0.381   2.193  1.00  0.00     0.003 C 
HETATM    9  O2  UNL     1       0.527  -2.051   0.795  1.00  0.00    -0.224 OA
HETATM   10  C15 UNL     1       2.393  -1.992  -1.752  1.00  0.00     0.003 C 
ENDROOT
BRANCH   4  11
HETATM   11  C8  UNL     1      -0.322   1.307   0.006  1.00  0.00     0.007 C 
BRANCH  11  12
HETATM   12  C9  UNL     1      -1.725   0.777   0.310  1.00  0.00     0.026 C 
BRANCH  12  13
HETATM   13  C10 UNL     1      -2.766   1.344  -0.617  1.00  0.00    -0.027 C 
HETATM   14  C11 UNL     1      -3.955   0.725  -0.701  1.00  0.00     0.016 C 
HETATM   15  C13 UNL     1      -4.186  -0.506   0.137  1.00  0.00     0.034 C 
BRANCH  14  16
HETATM   16  C12 UNL     1      -5.004   1.238  -1.590  1.00  0.00     0.230 C 
HETATM   17  O1  UNL     1      -6.069   0.670  -1.670  1.00  0.00    -0.283 OA
ENDBRANCH  14  16
ENDBRANCH  12  13
ENDBRANCH  11  12
ENDBRANCH   4  11
TORSDOF 4
