REMARK  5 active torsions:
REMARK  status: ('A' for Active; 'I' for Inactive)
REMARK    1  A    between atoms: C15_15  and  C18_18 
REMARK    2  A    between atoms: C18_18  and  C19_19 
REMARK    3  A    between atoms: C19_19  and  C20_20 
REMARK    4  A    between atoms: C20_20  and  C21_21 
REMARK    5  A    between atoms: C22_22  and  C24_24 
ROOT
HETATM    1  C1  UNL     1       5.898  -0.094   1.146  1.00  0.00     0.033 C 
HETATM    2  C2  UNL     1       6.123  -0.912  -0.147  1.00  0.00     0.152 C 
HETATM    3  C3  UNL     1       4.980  -0.742  -1.201  1.00  0.00     0.029 C 
HETATM    4  C4  UNL     1       4.344   0.670  -1.035  1.00  0.00     0.010 C 
HETATM    5  C5  UNL     1       3.652   0.869   0.357  1.00  0.00     0.019 C 
HETATM    6  C6  UNL     1       4.408   0.068   1.455  1.00  0.00     0.007 C 
HETATM    7  C7  UNL     1       2.178   0.459   0.342  1.00  0.00    -0.031 C 
HETATM    8  C8  UNL     1       1.498   0.154  -0.949  1.00  0.00    -0.031 C 
HETATM    9  C9  UNL     1       2.068   0.438  -2.137  1.00  0.00    -0.031 C 
HETATM   10  C10 UNL     1       3.416   1.106  -2.190  1.00  0.00     0.026 C 
HETATM   11  C11 UNL     1       0.127  -0.488  -0.875  1.00  0.00     0.019 C 
HETATM   12  C12 UNL     1      -0.693   0.182   0.242  1.00  0.00     0.007 C 
HETATM   13  C13 UNL     1       0.037  -0.060   1.568  1.00  0.00     0.026 C 
HETATM   14  C14 UNL     1       1.492   0.371   1.510  1.00  0.00    -0.031 C 
HETATM   15  C15 UNL     1      -2.057  -0.504   0.078  1.00  0.00     0.001 C 
HETATM   16  C16 UNL     1      -2.229  -0.570  -1.447  1.00  0.00     0.000 C 
HETATM   17  C17 UNL     1      -0.842  -0.330  -2.057  1.00  0.00     0.004 C 
HETATM   18  C26 UNL     1      -0.854   1.692  -0.006  1.00  0.00     0.001 C 
HETATM   19  C27 UNL     1       0.318  -1.996  -0.668  1.00  0.00     0.004 C 
HETATM   20  C28 UNL     1       3.691   2.365   0.705  1.00  0.00     0.004 C 
HETATM   21  C29 UNL     1       3.924  -1.832  -0.969  1.00  0.00     0.003 C 
HETATM   22  C30 UNL     1       5.500  -0.955  -2.635  1.00  0.00     0.003 C 
HETATM   23  O2  UNL     1       7.381  -0.523  -0.672  1.00  0.00    -0.224 OA
ENDROOT
BRANCH  15  24
HETATM   24  C18 UNL     1      -3.213   0.207   0.777  1.00  0.00     0.000 C 
HETATM   25  C25 UNL     1      -2.934   0.279   2.279  1.00  0.00     0.000 C 
BRANCH  24  26
HETATM   26  C19 UNL     1      -4.524  -0.512   0.455  1.00  0.00     0.005 C 
BRANCH  26  27
HETATM   27  C20 UNL     1      -5.756   0.330   0.785  1.00  0.00     0.026 C 
BRANCH  27  28
HETATM   28  C21 UNL     1      -7.041  -0.359   0.408  1.00  0.00    -0.027 C 
HETATM   29  C22 UNL     1      -8.190   0.094   0.937  1.00  0.00     0.016 C 
HETATM   30  C23 UNL     1      -8.133   1.268   1.877  1.00  0.00     0.034 C 
BRANCH  29  31
HETATM   31  C24 UNL     1      -9.496  -0.504   0.639  1.00  0.00     0.230 C 
HETATM   32  O1  UNL     1     -10.496  -0.086   1.172  1.00  0.00    -0.283 OA
ENDBRANCH  29  31
ENDBRANCH  27  28
ENDBRANCH  26  27
ENDBRANCH  24  26
ENDBRANCH  15  24
TORSDOF 5
