REMARK  1 active torsions:
REMARK  status: ('A' for Active; 'I' for Inactive)
REMARK    1  A    between atoms: C21_21  and  C24_24 
ROOT
HETATM    1  C1  UNL     1      -5.111  -0.809  -1.914  1.00  0.00     0.065 C 
HETATM    2  C2  UNL     1      -5.797  -0.893  -0.574  1.00  0.00     0.150 C 
HETATM    3  C3  UNL     1      -5.332   0.098   0.475  1.00  0.00     0.051 C 
HETATM    4  C4  UNL     1      -3.783   0.047   0.584  1.00  0.00     0.006 C 
HETATM    5  C5  UNL     1      -3.033   0.176  -0.769  1.00  0.00     0.001 C 
HETATM    6  C6  UNL     1      -3.588  -0.877  -1.760  1.00  0.00     0.008 C 
HETATM    7  C7  UNL     1      -1.512  -0.053  -0.535  1.00  0.00     0.005 C 
HETATM    8  C8  UNL     1      -0.873   0.820   0.584  1.00  0.00     0.004 C 
HETATM    9  C9  UNL     1      -1.744   0.811   1.869  1.00  0.00     0.000 C 
HETATM   10  C10 UNL     1      -3.231   1.057   1.607  1.00  0.00     0.000 C 
HETATM   11  C11 UNL     1       0.570   0.277   0.891  1.00  0.00     0.015 C 
HETATM   12  C12 UNL     1       1.350  -0.150  -0.353  1.00  0.00    -0.049 C 
HETATM   13  C13 UNL     1       0.789  -0.180  -1.584  1.00  0.00    -0.035 C 
HETATM   14  C14 UNL     1      -0.670   0.107  -1.818  1.00  0.00     0.025 C 
HETATM   15  C15 UNL     1       2.795  -0.582  -0.115  1.00  0.00     0.021 C 
HETATM   16  C16 UNL     1       3.617   0.482   0.654  1.00  0.00     0.032 C 
HETATM   17  C17 UNL     1       2.855   0.879   1.941  1.00  0.00     0.003 C 
HETATM   18  C18 UNL     1       1.416   1.330   1.654  1.00  0.00     0.004 C 
HETATM   19  C19 UNL     1       5.000  -0.129   1.008  1.00  0.00     0.153 C 
HETATM   20  C20 UNL     1       5.752  -0.662  -0.234  1.00  0.00     0.043 C 
HETATM   21  C21 UNL     1       4.928  -1.701  -1.018  1.00  0.00     0.081 C 
HETATM   22  C22 UNL     1       3.549  -1.107  -1.359  1.00  0.00     0.014 C 
HETATM   23  C23 UNL     1       5.656  -2.104  -2.305  1.00  0.00     0.011 C 
HETATM   24  O3  UNL     1       5.820   0.820   1.658  1.00  0.00    -0.223 OA
HETATM   25  C25 UNL     1       3.797   1.727  -0.232  1.00  0.00     0.003 C 
HETATM   26  C26 UNL     1       0.482  -1.002   1.740  1.00  0.00     0.004 C 
HETATM   27  C27 UNL     1      -0.807   2.281   0.096  1.00  0.00     0.000 C 
HETATM   28  C28 UNL     1      -3.258   1.572  -1.379  1.00  0.00     0.000 C 
HETATM   29  C29 UNL     1      -5.822   1.496   0.076  1.00  0.00     0.007 C 
HETATM   30  C30 UNL     1      -5.965  -0.262   1.828  1.00  0.00     0.007 C 
HETATM   31  O4  UNL     1      -6.660  -1.711  -0.359  1.00  0.00    -0.296 OA
ENDROOT
BRANCH  21  32
HETATM   32  C24 UNL     1       4.764  -2.953  -0.189  1.00  0.00     0.184 C 
HETATM   33  O1  UNL     1       5.525  -3.207   0.713  1.00  0.00    -0.647 OA
HETATM   34  O2  UNL     1       3.738  -3.729  -0.533  1.00  0.00    -0.647 OA
ENDBRANCH  21  32
TORSDOF 1
