REMARK  6 active torsions:
REMARK  status: ('A' for Active; 'I' for Inactive)
REMARK    1  A    between atoms: C1_1  and  C26_28 
REMARK    2  A    between atoms: C13_13  and  C19_21 
REMARK    3  A    between atoms: C14_14  and  C16_16 
REMARK    4  A    between atoms: C16_16  and  C17_17 
REMARK    5  A    between atoms: C17_17  and  C18_18 
REMARK    6  A    between atoms: C26_28  and  C27_29 
ROOT
HETATM    1  C1  UNL     1      -2.953   0.258   0.359  1.00  0.00     0.018 C 
HETATM    2  C2  UNL     1      -3.678  -0.719  -0.592  1.00  0.00     0.003 C 
HETATM    3  C3  UNL     1      -2.994  -2.094  -0.529  1.00  0.00     0.001 C 
HETATM    4  C4  UNL     1      -1.518  -2.002  -0.938  1.00  0.00     0.004 C 
HETATM    5  C5  UNL     1      -0.689  -1.004  -0.084  1.00  0.00     0.015 C 
HETATM    6  C6  UNL     1      -1.447   0.305   0.141  1.00  0.00    -0.049 C 
HETATM    7  C7  UNL     1      -0.818   1.498   0.176  1.00  0.00    -0.035 C 
HETATM    8  C8  UNL     1       0.666   1.658  -0.031  1.00  0.00     0.025 C 
HETATM    9  C9  UNL     1       1.482   0.344   0.012  1.00  0.00     0.005 C 
HETATM   10  C10 UNL     1       0.727  -0.793  -0.733  1.00  0.00     0.004 C 
HETATM   11  C11 UNL     1       1.529  -2.131  -0.693  1.00  0.00     0.001 C 
HETATM   12  C12 UNL     1       2.992  -1.986  -0.250  1.00  0.00     0.004 C 
HETATM   13  C13 UNL     1       3.658  -0.766  -0.893  1.00  0.00     0.018 C 
HETATM   14  C14 UNL     1       2.977   0.555  -0.422  1.00  0.00     0.004 C 
HETATM   15  C15 UNL     1       3.125   1.629  -1.514  1.00  0.00     0.000 C 
HETATM   16  C22 UNL     1       0.578  -0.348  -2.201  1.00  0.00     0.000 C 
HETATM   17  C23 UNL     1      -0.545  -1.584   1.334  1.00  0.00     0.004 C 
HETATM   18  C24 UNL     1      -5.154  -0.859  -0.195  1.00  0.00     0.000 C 
HETATM   19  C25 UNL     1      -3.635  -0.178  -2.027  1.00  0.00     0.000 C 
ENDROOT
BRANCH  14  20
HETATM   20  C16 UNL     1       3.738   1.090   0.801  1.00  0.00     0.012 C 
BRANCH  20  21
HETATM   21  C17 UNL     1       3.156   2.400   1.330  1.00  0.00     0.098 C 
BRANCH  21  22
HETATM   22  C18 UNL     1       4.158   3.193   2.125  1.00  0.00     0.185 C 
HETATM   23  O1  UNL     1       5.279   2.777   2.307  1.00  0.00    -0.647 OA
HETATM   24  O2  UNL     1       3.715   4.357   2.594  1.00  0.00    -0.647 OA
ENDBRANCH  21  22
ENDBRANCH  20  21
ENDBRANCH  14  20
BRANCH  13  25
HETATM   25  C19 UNL     1       3.697  -0.949  -2.395  1.00  0.00    -0.044 C 
HETATM   26  C20 UNL     1       3.090  -2.024  -2.926  1.00  0.00    -0.009 C 
HETATM   27  C21 UNL     1       4.387   0.016  -3.320  1.00  0.00     0.026 C 
ENDBRANCH  13  25
BRANCH   1  28
HETATM   28  C26 UNL     1      -3.229  -0.059   1.834  1.00  0.00     0.004 C 
HETATM   29  C29 UNL     1      -2.147   0.486   2.766  1.00  0.00     0.000 C 
BRANCH  28  30
HETATM   30  C27 UNL     1      -4.639   0.344   2.271  1.00  0.00     0.000 C 
HETATM   31  C28 UNL     1      -4.701   0.785   3.732  1.00  0.00     0.000 C 
ENDBRANCH  28  30
ENDBRANCH   1  28
TORSDOF 6
