REMARK  1 active torsions:
REMARK  status: ('A' for Active; 'I' for Inactive)
REMARK    1  A    between atoms: C12_12  and  C15_15 
ROOT
HETATM    1  C1  UNL     1      -0.004  -2.020   1.209  1.00  0.00    -0.048 C 
HETATM    2  C2  UNL     1      -0.852  -2.520   0.053  1.00  0.00     0.024 C 
HETATM    3  C3  UNL     1      -2.389  -2.600   0.275  1.00  0.00     0.040 C 
HETATM    4  C4  UNL     1      -3.264  -1.397  -0.184  1.00  0.00     0.180 C 
HETATM    5  C5  UNL     1      -3.326  -0.131   0.756  1.00  0.00     0.155 C 
HETATM    6  C6  UNL     1      -3.379   1.266   0.053  1.00  0.00     0.036 C 
HETATM    7  C7  UNL     1      -2.023   2.002  -0.082  1.00  0.00     0.038 C 
HETATM    8  C8  UNL     1      -0.951   1.248  -0.893  1.00  0.00     0.177 C 
HETATM    9  C9  UNL     1       0.480   1.797  -0.713  1.00  0.00     0.121 C 
HETATM   10  C10 UNL     1       0.961   1.770   0.748  1.00  0.00     0.032 C 
HETATM   11  C11 UNL     1       2.416   1.322   0.625  1.00  0.00     0.030 C 
HETATM   12  C12 UNL     1       2.336   0.350  -0.553  1.00  0.00     0.097 C 
HETATM   13  C13 UNL     1       1.910  -1.111  -0.238  1.00  0.00     0.053 C 
HETATM   14  C14 UNL     1       1.178  -1.375   1.066  1.00  0.00    -0.032 C 
HETATM   15  O1  UNL     1       1.387   0.957  -1.408  1.00  0.00    -0.361 OA
HETATM   16  C18 UNL     1       0.668   3.213  -1.260  1.00  0.00     0.032 C 
HETATM   17  O2  UNL     1      -1.320   1.291  -2.262  1.00  0.00    -0.221 OA
HETATM   18  C19 UNL     1      -2.264  -0.131   1.855  1.00  0.00     0.036 C 
HETATM   19  O3  UNL     1      -4.531  -0.252   1.490  1.00  0.00    -0.223 OA
HETATM   20  O4  UNL     1      -2.941  -1.084  -1.523  1.00  0.00    -0.221 OA
HETATM   21  C20 UNL     1      -0.500  -2.279   2.609  1.00  0.00     0.026 C 
ENDROOT
BRANCH  12  22
HETATM   22  C15 UNL     1       3.662   0.375  -1.311  1.00  0.00     0.025 C 
HETATM   23  C16 UNL     1       3.582  -0.568  -2.512  1.00  0.00     0.002 C 
HETATM   24  C17 UNL     1       4.801   0.019  -0.354  1.00  0.00     0.002 C 
ENDBRANCH  12  22
TORSDOF 1
