REMARK  3 active torsions:
REMARK  status: ('A' for Active; 'I' for Inactive)
REMARK    1  A    between atoms: C2_2  and  O5_21 
REMARK    2  A    between atoms: O5_21  and  C17_22 
REMARK    3  A    between atoms: C18_24  and  C22_31 
ROOT
HETATM    1  C1  UNL     1       0.830  -1.414  -1.170  1.00  0.00     0.048 A 
HETATM    2  C2  UNL     1       1.555  -0.887  -0.076  1.00  0.00     0.099 A 
HETATM    3  C3  UNL     1       0.936   0.029   0.805  1.00  0.00     0.024 A 
HETATM    4  C4  UNL     1      -0.398   0.436   0.582  1.00  0.00     0.002 A 
HETATM    5  C5  UNL     1      -1.125  -0.076  -0.524  1.00  0.00     0.028 A 
HETATM    6  C6  UNL     1      -0.516  -1.029  -1.385  1.00  0.00     0.094 A 
HETATM    7  O1  UNL     1      -1.197  -1.578  -2.410  1.00  0.00    -0.331 OA
HETATM    8  C7  UNL     1      -2.623  -1.652  -2.358  1.00  0.00     0.156 C 
HETATM    9  C8  UNL     1      -3.238  -0.289  -2.000  1.00  0.00     0.086 C 
HETATM   10  C9  UNL     1      -2.504   0.399  -0.791  1.00  0.00     0.152 C 
HETATM   11  O2  UNL     1      -3.369   0.248   0.353  1.00  0.00    -0.329 OA
HETATM   12  C10 UNL     1      -4.576  -0.144  -0.043  1.00  0.00     0.093 A 
HETATM   13  C11 UNL     1      -4.617  -0.461  -1.410  1.00  0.00     0.007 A 
HETATM   14  C12 UNL     1      -5.871  -0.869  -1.928  1.00  0.00     0.024 A 
HETATM   15  C13 UNL     1      -7.104  -1.016  -1.246  1.00  0.00     0.119 A 
HETATM   16  C14 UNL     1      -7.072  -0.719   0.121  1.00  0.00     0.121 A 
HETATM   17  C15 UNL     1      -5.815  -0.307   0.631  1.00  0.00     0.050 A 
HETATM   18  O3  UNL     1      -8.285  -0.902   0.639  1.00  0.00    -0.299 OA
HETATM   19  C16 UNL     1      -9.180  -1.338  -0.416  1.00  0.00     0.304 A 
HETATM   20  O4  UNL     1      -8.336  -1.385  -1.592  1.00  0.00    -0.300 OA
ENDROOT
BRANCH   2  21
HETATM   21  O5  UNL     1       2.824  -1.260   0.127  1.00  0.00    -0.304 OA
BRANCH  21  22
HETATM   22  C17 UNL     1       3.647  -0.418   0.924  1.00  0.00     0.274 C 
HETATM   23  O6  UNL     1       3.654   0.887   0.361  1.00  0.00    -0.326 OA
HETATM   24  C18 UNL     1       4.408   1.852   1.086  1.00  0.00     0.184 C 
HETATM   25  C19 UNL     1       5.889   1.410   1.139  1.00  0.00     0.215 C 
HETATM   26  C20 UNL     1       6.033  -0.014   1.721  1.00  0.00     0.220 C 
HETATM   27  O9  UNL     1       6.610   2.330   1.939  1.00  0.00    -0.218 OA
HETATM   28  C21 UNL     1       5.086  -0.977   0.971  1.00  0.00     0.241 C 
HETATM   29  O8  UNL     1       7.373  -0.457   1.586  1.00  0.00    -0.218 OA
HETATM   30  O7  UNL     1       5.063  -2.236   1.617  1.00  0.00    -0.215 OA
BRANCH  24  31
HETATM   31  C22 UNL     1       4.215   3.195   0.377  1.00  0.00     0.214 C 
HETATM   32  O10 UNL     1       2.859   3.567   0.498  1.00  0.00    -0.218 OA
ENDBRANCH  24  31
ENDBRANCH  21  22
ENDBRANCH   2  21
TORSDOF 3
