REMARK  9 active torsions:
REMARK  status: ('A' for Active; 'I' for Inactive)
REMARK    1  A    between atoms: C1_1  and  O7_43 
REMARK    2  A    between atoms: C9_10  and  C10_11 
REMARK    3  A    between atoms: C10_11  and  C11_12 
REMARK    4  A    between atoms: C13_14  and  O2_20 
REMARK    5  A    between atoms: C14_15  and  O1_18 
REMARK    6  A    between atoms: O2_20  and  C18_21 
REMARK    7  A    between atoms: C21_24  and  C22_25 
REMARK    8  A    between atoms: C22_25  and  C23_26 
REMARK    9  A    between atoms: C30_34  and  O3_36 
ROOT
HETATM    1  C11 UNL     1       3.748   0.000  -1.260  1.00  0.00    -0.018 A 
HETATM    2  C12 UNL     1       3.594   1.258  -0.651  1.00  0.00     0.022 A 
HETATM    3  C13 UNL     1       2.533   2.102  -1.026  1.00  0.00     0.122 A 
HETATM    4  C14 UNL     1       1.621   1.684  -2.014  1.00  0.00     0.117 A 
HETATM    5  C15 UNL     1       1.777   0.424  -2.621  1.00  0.00     0.026 A 
HETATM    6  C16 UNL     1       2.838  -0.416  -2.246  1.00  0.00    -0.002 A 
ENDROOT
BRANCH   3   7
HETATM    7  O2  UNL     1       2.395   3.279  -0.451  1.00  0.00    -0.305 OA
BRANCH   7   8
HETATM    8  C18 UNL     1       1.209   3.596   0.031  1.00  0.00     0.100 A 
HETATM    9  C19 UNL     1       0.807   4.943   0.088  1.00  0.00     0.025 A 
HETATM   10  C20 UNL     1      -0.455   5.283   0.603  1.00  0.00     0.005 A 
HETATM   11  C21 UNL     1      -1.322   4.275   1.064  1.00  0.00     0.041 A 
HETATM   12  C33 UNL     1      -0.922   2.928   1.008  1.00  0.00     0.005 A 
HETATM   13  C34 UNL     1       0.342   2.590   0.492  1.00  0.00     0.025 A 
BRANCH  11  14
HETATM   14  C22 UNL     1      -2.664   4.635   1.611  1.00  0.00     0.213 C 
HETATM   15  O5  UNL     1      -2.984   5.789   1.764  1.00  0.00    -0.285 OA
BRANCH  14  16
HETATM   16  C23 UNL     1      -3.596   3.551   1.965  1.00  0.00     0.115 C 
HETATM   17  N2  UNL     1      -3.932   3.418   3.203  1.00  0.00    -0.267 NA
HETATM   18  C24 UNL     1      -4.898   2.381   3.652  1.00  0.00     0.130 C 
HETATM   19  C25 UNL     1      -4.916   1.125   2.748  1.00  0.00     0.053 C 
HETATM   20  C26 UNL     1      -4.818   1.445   1.303  1.00  0.00    -0.017 A 
HETATM   21  C27 UNL     1      -4.139   2.631   0.910  1.00  0.00     0.019 A 
HETATM   22  C31 UNL     1      -5.371   0.588   0.320  1.00  0.00     0.022 A 
HETATM   23  C28 UNL     1      -3.981   2.928  -0.469  1.00  0.00     0.031 A 
HETATM   24  C29 UNL     1      -4.523   2.061  -1.447  1.00  0.00     0.153 A 
HETATM   25  C30 UNL     1      -5.225   0.895  -1.053  1.00  0.00     0.119 A 
HETATM   26  O4  UNL     1      -4.371   2.348  -2.748  1.00  0.00    -0.188 OA
BRANCH  25  27
HETATM   27  O3  UNL     1      -5.748   0.078  -1.979  1.00  0.00    -0.326 OA
HETATM   28  C32 UNL     1      -6.447  -1.074  -1.531  1.00  0.00     0.181 C 
ENDBRANCH  25  27
ENDBRANCH  14  16
ENDBRANCH  11  14
ENDBRANCH   7   8
ENDBRANCH   3   7
BRANCH   4  29
HETATM   29  O1  UNL     1       0.623   2.467  -2.373  1.00  0.00    -0.326 OA
HETATM   30  C17 UNL     1      -0.213   2.035  -3.438  1.00  0.00     0.181 C 
ENDBRANCH   4  29
BRANCH   1  31
HETATM   31  C10 UNL     1       4.871  -0.887  -0.860  1.00  0.00     0.067 C 
BRANCH  31  32
HETATM   32  C9  UNL     1       4.676  -1.443   0.557  1.00  0.00     0.283 C 
HETATM   33  C4  UNL     1       3.576  -2.451   0.568  1.00  0.00     0.010 A 
HETATM   34  C3  UNL     1       2.232  -2.025   0.416  1.00  0.00     0.027 A 
HETATM   35  C5  UNL     1       3.856  -3.842   0.723  1.00  0.00    -0.020 A 
HETATM   36  C2  UNL     1       1.178  -2.965   0.402  1.00  0.00     0.153 A 
HETATM   37  C1  UNL     1       1.457  -4.344   0.547  1.00  0.00     0.119 A 
HETATM   38  O6  UNL     1      -0.088  -2.547   0.252  1.00  0.00    -0.188 OA
HETATM   39  C6  UNL     1       2.793  -4.779   0.709  1.00  0.00     0.022 A 
HETATM   40  C7  UNL     1       5.252  -4.311   0.904  1.00  0.00     0.064 C 
HETATM   41  C8  UNL     1       6.309  -3.260   0.514  1.00  0.00     0.295 C 
HETATM   42  N1  UNL     1       5.953  -1.957   1.078  1.00  0.00     0.342 N 
BRANCH  37  43
HETATM   43  O7  UNL     1       0.461  -5.240   0.533  1.00  0.00    -0.326 OA
HETATM   44  C35 UNL     1       0.795  -6.611   0.685  1.00  0.00     0.181 C 
ENDBRANCH  37  43
ENDBRANCH  31  32
ENDBRANCH   1  31
TORSDOF 9
