REMARK  8 active torsions:
REMARK  status: ('A' for Active; 'I' for Inactive)
REMARK    1  A    between atoms: C2_2  and  O5_14 
REMARK    2  A    between atoms: C4_4  and  C7_9 
REMARK    3  A    between atoms: C7_9  and  O3_10 
REMARK    4  A    between atoms: O3_10  and  C8_11 
REMARK    5  A    between atoms: O5_14  and  C10_15 
REMARK    6  A    between atoms: C10_15  and  C11_16 
REMARK    7  A    between atoms: C12_17  and  C13_18 
REMARK    8  A    between atoms: C15_20  and  O7_25 
ROOT
HETATM    1  C1  UNL     1       0.918   0.264   1.828  1.00  0.00     0.210 C 
HETATM    2  C2  UNL     1       1.711  -0.869   1.135  1.00  0.00     0.160 C 
HETATM    3  C3  UNL     1       3.221  -0.793   1.420  1.00  0.00     0.073 C 
HETATM    4  C4  UNL     1       3.815   0.582   1.045  1.00  0.00     0.208 C 
HETATM    5  C5  UNL     1       3.035   1.725   1.742  1.00  0.00     0.076 C 
HETATM    6  C6  UNL     1       1.506   1.660   1.522  1.00  0.00     0.188 C 
HETATM    7  O1  UNL     1       1.201   2.004   0.182  1.00  0.00    -0.221 OA
HETATM    8  O2  UNL     1       5.149   0.623   1.510  1.00  0.00    -0.216 OA
HETATM    9  O9  UNL     1       0.945   0.067   3.231  1.00  0.00    -0.218 OA
ENDROOT
BRANCH   2  10
HETATM   10  O5  UNL     1       1.215  -2.137   1.547  1.00  0.00    -0.298 OA
BRANCH  10  11
HETATM   11  C10 UNL     1       0.553  -2.760   0.578  1.00  0.00     0.296 C 
HETATM   12  O8  UNL     1       0.891  -3.818   0.104  1.00  0.00    -0.259 OA
BRANCH  11  13
HETATM   13  C11 UNL     1      -0.654  -2.080   0.092  1.00  0.00     0.068 C 
HETATM   14  C12 UNL     1      -1.793  -2.766  -0.107  1.00  0.00     0.005 C 
BRANCH  14  15
HETATM   15  C13 UNL     1      -2.994  -2.029  -0.603  1.00  0.00     0.002 A 
HETATM   16  C14 UNL     1      -4.283  -2.455  -0.232  1.00  0.00     0.026 A 
HETATM   17  C15 UNL     1      -5.418  -1.766  -0.697  1.00  0.00     0.119 A 
HETATM   18  C16 UNL     1      -5.262  -0.646  -1.537  1.00  0.00     0.153 A 
HETATM   19  C17 UNL     1      -3.973  -0.223  -1.906  1.00  0.00     0.029 A 
HETATM   20  O6  UNL     1      -6.320   0.006  -1.977  1.00  0.00    -0.188 OA
HETATM   21  C18 UNL     1      -2.840  -0.912  -1.441  1.00  0.00     0.002 A 
BRANCH  17  22
HETATM   22  O7  UNL     1      -6.621  -2.170  -0.346  1.00  0.00    -0.326 OA
HETATM   23  C19 UNL     1      -7.332  -1.398   0.611  1.00  0.00     0.181 C 
ENDBRANCH  17  22
ENDBRANCH  14  15
ENDBRANCH  11  13
ENDBRANCH  10  11
ENDBRANCH   2  10
BRANCH   4  24
HETATM   24  C7  UNL     1       3.871   0.766  -0.453  1.00  0.00     0.300 C 
HETATM   25  O4  UNL     1       3.715  -0.170  -1.201  1.00  0.00    -0.262 OA
BRANCH  24  26
HETATM   26  O3  UNL     1       4.111   2.008  -0.859  1.00  0.00    -0.300 OA
BRANCH  26  27
HETATM   27  C8  UNL     1       4.197   2.108  -2.271  1.00  0.00     0.152 C 
HETATM   28  C9  UNL     1       4.516   3.551  -2.664  1.00  0.00     0.035 C 
ENDBRANCH  26  27
ENDBRANCH  24  26
ENDBRANCH   4  24
TORSDOF 8
