REMARK  7 active torsions:
REMARK  status: ('A' for Active; 'I' for Inactive)
REMARK    1  A    between atoms: C1_1  and  C2_2 
REMARK    2  A    between atoms: C1_1  and  C14_17 
REMARK    3  A    between atoms: C2_2  and  C3_3 
REMARK    4  A    between atoms: C3_3  and  C4_4 
REMARK    5  A    between atoms: C4_4  and  C5_5 
REMARK    6  A    between atoms: C5_5  and  C6_6 
REMARK    7  A    between atoms: C7_7  and  C8_8 
ROOT
HETATM    1  C3  UNL     1      -0.818  -0.100   1.027  1.00  0.00     0.168 C 
HETATM    2  O3  UNL     1      -1.086   0.475  -0.233  1.00  0.00    -0.223 OA
ENDROOT
BRANCH   1   3
HETATM    3  C2  UNL     1      -1.391  -1.518   1.039  1.00  0.00     0.102 C 
BRANCH   3   4
HETATM    4  C1  UNL     1      -2.896  -1.522   1.078  1.00  0.00     0.176 C 
HETATM    5  O5  UNL     1      -3.521  -0.486   1.107  1.00  0.00    -0.291 OA
BRANCH   4   6
HETATM    6  C14 UNL     1      -3.596  -2.840   1.078  1.00  0.00     0.035 A 
HETATM    7  C15 UNL     1      -5.000  -2.893   1.078  1.00  0.00     0.005 A 
HETATM    8  C16 UNL     1      -5.658  -4.135   1.078  1.00  0.00     0.028 A 
HETATM    9  C17 UNL     1      -4.914  -5.330   1.078  1.00  0.00     0.131 A 
HETATM   10  C18 UNL     1      -3.510  -5.274   1.078  1.00  0.00     0.028 A 
HETATM   11  O4  UNL     1      -5.531  -6.494   1.078  1.00  0.00    -0.190 OA
HETATM   12  C19 UNL     1      -2.850  -4.033   1.078  1.00  0.00     0.005 A 
ENDBRANCH   4   6
ENDBRANCH   3   4
ENDBRANCH   1   3
BRANCH   1  13
HETATM   13  C4  UNL     1       0.693  -0.072   1.254  1.00  0.00     0.102 C 
BRANCH  13  14
HETATM   14  C5  UNL     1       1.238   1.328   1.324  1.00  0.00     0.176 C 
HETATM   15  O2  UNL     1       1.010   2.039   2.275  1.00  0.00    -0.291 OA
BRANCH  14  16
HETATM   16  C6  UNL     1       2.059   1.820   0.209  1.00  0.00     0.037 C 
HETATM   17  C7  UNL     1       2.570   3.063   0.232  1.00  0.00     0.003 C 
BRANCH  17  18
HETATM   18  C8  UNL     1       3.397   3.518  -0.924  1.00  0.00     0.000 A 
HETATM   19  C9  UNL     1       3.434   4.879  -1.272  1.00  0.00     0.002 A 
HETATM   20  C10 UNL     1       4.213   5.307  -2.362  1.00  0.00     0.027 A 
HETATM   21  C11 UNL     1       4.959   4.377  -3.106  1.00  0.00     0.131 A 
HETATM   22  C12 UNL     1       4.922   3.016  -2.756  1.00  0.00     0.027 A 
HETATM   23  O1  UNL     1       5.690   4.777  -4.125  1.00  0.00    -0.190 OA
HETATM   24  C13 UNL     1       4.143   2.584  -1.668  1.00  0.00     0.002 A 
ENDBRANCH  17  18
ENDBRANCH  14  16
ENDBRANCH  13  14
ENDBRANCH   1  13
TORSDOF 7
