REMARK  0 active torsions:
REMARK  status: ('A' for Active; 'I' for Inactive)
ROOT
HETATM    1  C1  UNL     1      -2.621   0.371   0.795  1.00  0.00     0.022 C 
HETATM    2  C2  UNL     1      -2.228  -1.080   0.918  1.00  0.00    -0.048 C 
HETATM    3  C3  UNL     1      -0.957  -1.445   0.674  1.00  0.00    -0.035 C 
HETATM    4  C4  UNL     1       0.096  -0.389   0.369  1.00  0.00     0.022 C 
HETATM    5  C5  UNL     1      -0.426   0.807  -0.484  1.00  0.00     0.008 C 
HETATM    6  C6  UNL     1      -1.969   0.971  -0.459  1.00  0.00     0.005 C 
HETATM    7  C7  UNL     1       0.272   2.160  -0.139  1.00  0.00     0.022 C 
HETATM    8  C8  UNL     1       1.631   2.123   0.541  1.00  0.00    -0.031 C 
HETATM    9  C9  UNL     1       2.586   1.201   0.312  1.00  0.00    -0.030 C 
HETATM   10  C10 UNL     1       2.399   0.074  -0.672  1.00  0.00     0.026 C 
HETATM   11  C11 UNL     1       1.408  -1.010  -0.190  1.00  0.00     0.008 C 
HETATM   12  C12 UNL     1       1.110  -1.932  -1.379  1.00  0.00     0.001 C 
HETATM   13  C13 UNL     1       2.076  -1.848   0.908  1.00  0.00     0.001 C 
HETATM   14  C14 UNL     1       0.356   3.053  -1.383  1.00  0.00     0.004 C 
HETATM   15  C15 UNL     1      -3.269  -2.096   1.309  1.00  0.00     0.026 C 
ENDROOT
TORSDOF 0
