REMARK  2 active torsions:
REMARK  status: ('A' for Active; 'I' for Inactive)
REMARK    1  A    between atoms: C3_3  and  C20_22 
REMARK    2  A    between atoms: C12_13  and  C15_16 
ROOT
HETATM    1  C1  UNL     1       3.543   1.207  -0.262  1.00  0.00     0.001 C 
HETATM    2  C2  UNL     1       3.959  -0.270  -0.219  1.00  0.00     0.010 C 
HETATM    3  C3  UNL     1       3.145  -1.106   0.785  1.00  0.00     0.079 C 
HETATM    4  C4  UNL     1       1.594  -0.930   0.584  1.00  0.00     0.021 C 
HETATM    5  C5  UNL     1       1.172   0.170  -0.441  1.00  0.00     0.020 C 
HETATM    6  C6  UNL     1       2.024   1.436  -0.149  1.00  0.00     0.004 C 
HETATM    7  C7  UNL     1      -0.312   0.402  -0.350  1.00  0.00    -0.020 A 
HETATM    8  C8  UNL     1      -1.193  -0.686  -0.049  1.00  0.00     0.030 A 
HETATM    9  C9  UNL     1      -0.660  -2.057   0.211  1.00  0.00     0.173 C 
HETATM   10  C10 UNL     1       0.842  -2.240   0.279  1.00  0.00     0.070 C 
HETATM   11  O1  UNL     1      -1.324  -3.055   0.383  1.00  0.00    -0.291 OA
HETATM   12  C11 UNL     1      -2.594  -0.475   0.010  1.00  0.00     0.001 A 
HETATM   13  C12 UNL     1      -3.135   0.809  -0.213  1.00  0.00     0.005 A 
HETATM   14  C13 UNL     1      -2.277   1.891  -0.502  1.00  0.00    -0.002 A 
HETATM   15  C14 UNL     1      -0.881   1.689  -0.572  1.00  0.00    -0.004 A 
HETATM   16  C18 UNL     1       1.447  -0.285  -1.885  1.00  0.00     0.004 C 
HETATM   17  C19 UNL     1       3.596  -2.566   0.668  1.00  0.00     0.011 C 
ENDROOT
BRANCH   3  18
HETATM   18  C20 UNL     1       3.541  -0.670   2.180  1.00  0.00     0.184 C 
HETATM   19  O3  UNL     1       4.416   0.148   2.352  1.00  0.00    -0.647 OA
HETATM   20  O4  UNL     1       2.865  -1.250   3.166  1.00  0.00    -0.647 OA
ENDBRANCH   3  18
BRANCH  13  21
HETATM   21  C15 UNL     1      -4.590   1.020  -0.143  1.00  0.00     0.146 C 
HETATM   22  O2  UNL     1      -5.096   0.420   1.027  1.00  0.00    -0.222 OA
HETATM   23  C16 UNL     1      -5.305   0.400  -1.344  1.00  0.00     0.038 C 
HETATM   24  C17 UNL     1      -4.941   2.506  -0.109  1.00  0.00     0.038 C 
ENDBRANCH  13  21
TORSDOF 2
