REMARK  3 active torsions:
REMARK  status: ('A' for Active; 'I' for Inactive)
REMARK    1  A    between atoms: C4_4  and  C9_11 
REMARK    2  A    between atoms: C6_6  and  O1_7 
REMARK    3  A    between atoms: O1_7  and  C7_8 
ROOT
HETATM    1  C1  UNL     1      -0.234  -2.023  -0.049  1.00  0.00     0.001 A 
HETATM    2  C2  UNL     1       1.172  -1.971  -0.049  1.00  0.00    -0.003 A 
HETATM    3  C3  UNL     1       1.830  -0.730  -0.049  1.00  0.00    -0.004 A 
HETATM    4  C4  UNL     1       1.084   0.461  -0.049  1.00  0.00    -0.021 A 
HETATM    5  C5  UNL     1      -0.320   0.408  -0.049  1.00  0.00     0.020 A 
HETATM    6  C6  UNL     1      -0.984  -0.830  -0.049  1.00  0.00     0.099 A 
HETATM    7  C12 UNL     1      -0.922  -3.342  -0.049  1.00  0.00     0.033 C 
ENDROOT
BRANCH   6   8
HETATM    8  O1  UNL     1      -2.303  -0.869  -0.049  1.00  0.00    -0.277 OA
BRANCH   8   9
HETATM    9  C7  UNL     1      -2.973   0.023   0.674  1.00  0.00     0.277 C 
HETATM   10  O2  UNL     1      -2.496   0.635   1.602  1.00  0.00    -0.264 OA
HETATM   11  C8  UNL     1      -4.404   0.238   0.260  1.00  0.00     0.107 C 
ENDBRANCH   8   9
ENDBRANCH   6   8
BRANCH   4  12
HETATM   12  C9  UNL     1       1.779   1.775  -0.049  1.00  0.00     0.022 C 
HETATM   13  C10 UNL     1       2.971   1.781   0.908  1.00  0.00     0.005 C 
HETATM   14  C11 UNL     1       2.158   2.211  -1.465  1.00  0.00     0.005 C 
ENDBRANCH   4  12
TORSDOF 3
