REMARK  5 active torsions:
REMARK  status: ('A' for Active; 'I' for Inactive)
REMARK    1  A    between atoms: C1_1  and  C2_2 
REMARK    2  A    between atoms: C2_2  and  C3_3 
REMARK    3  A    between atoms: C3_3  and  C4_4 
REMARK    4  A    between atoms: C4_4  and  C5_5 
REMARK    5  A    between atoms: C5_5  and  C6_6 
ROOT
HETATM    1  C4  UNL     1      -0.025   0.000   0.404  1.00  0.00     0.000 C 
HETATM    2  C8  UNL     1       0.516   0.742   1.629  1.00  0.00     0.000 C 
ENDROOT
BRANCH   1   3
HETATM    3  C3  UNL     1       0.293   0.717  -0.908  1.00  0.00     0.003 C 
BRANCH   3   4
HETATM    4  C2  UNL     1      -0.515   2.002  -1.090  1.00  0.00     0.036 C 
BRANCH   4   5
HETATM    5  C1  UNL     1      -0.256   2.678  -2.436  1.00  0.00     0.182 C 
HETATM    6  O1  UNL     1      -1.043   3.846  -2.504  1.00  0.00    -0.221 OA
ENDBRANCH   4   5
ENDBRANCH   3   4
ENDBRANCH   1   3
BRANCH   1   7
HETATM    7  C5  UNL     1       0.377  -1.475   0.383  1.00  0.00     0.000 C 
BRANCH   7   8
HETATM    8  C6  UNL     1      -0.187  -2.258   1.570  1.00  0.00     0.000 C 
HETATM    9  C7  UNL     1       0.071  -3.760   1.461  1.00  0.00     0.000 C 
ENDBRANCH   7   8
ENDBRANCH   1   7
TORSDOF 5
