REMARK  8 active torsions:
REMARK  status: ('A' for Active; 'I' for Inactive)
REMARK    1  A    between atoms: C1_1  and  S2_9 
REMARK    2  A    between atoms: C2_2  and  C3_3 
REMARK    3  A    between atoms: C3_3  and  S1_4 
REMARK    4  A    between atoms: S1_4  and  C4_6 
REMARK    5  A    between atoms: C4_6  and  C5_7 
REMARK    6  A    between atoms: S2_9  and  S3_10 
REMARK    7  A    between atoms: S3_10  and  C7_11 
REMARK    8  A    between atoms: C7_11  and  C8_12 
ROOT
HETATM    1  C1  UNL     1      -1.248  -0.154   0.601  1.00  0.00     0.038 C 
HETATM    2  C2  UNL     1      -0.608   1.025   0.601  1.00  0.00    -0.004 C 
ENDROOT
BRANCH   2   3
HETATM    3  C3  UNL     1       0.898   1.025   0.601  1.00  0.00     0.119 C 
BRANCH   3   4
HETATM    4  S1  UNL     1       1.791   0.672   2.109  1.00  0.00     0.051 S 
HETATM    5  O1  UNL     1       1.576   1.760   3.047  1.00  0.00    -0.256 OA
BRANCH   4   6
HETATM    6  C4  UNL     1       3.467   0.770   1.488  1.00  0.00     0.118 C 
BRANCH   6   7
HETATM    7  C5  UNL     1       3.980   2.061   0.908  1.00  0.00    -0.012 C 
HETATM    8  C6  UNL     1       5.299   2.178   0.678  1.00  0.00    -0.004 C 
ENDBRANCH   6   7
ENDBRANCH   4   6
ENDBRANCH   3   4
ENDBRANCH   2   3
BRANCH   1   9
HETATM    9  S2  UNL     1      -2.932  -0.281   0.601  1.00  0.00    -0.055 SA
BRANCH   9  10
HETATM   10  S3  UNL     1      -3.283  -2.291   0.607  1.00  0.00    -0.073 SA
BRANCH  10  11
HETATM   11  C7  UNL     1      -3.369  -2.695  -1.160  1.00  0.00     0.095 C 
BRANCH  11  12
HETATM   12  C8  UNL     1      -4.506  -1.938  -1.793  1.00  0.00    -0.014 C 
HETATM   13  C9  UNL     1      -4.524  -1.809  -3.129  1.00  0.00    -0.004 C 
ENDBRANCH  11  12
ENDBRANCH  10  11
ENDBRANCH   9  10
ENDBRANCH   1   9
TORSDOF 8
