REMARK  4 active torsions:
REMARK  status: ('A' for Active; 'I' for Inactive)
REMARK    1  A    between atoms: C7_8  and  C10_12 
REMARK    2  A    between atoms: C14_16  and  O3_18 
REMARK    3  A    between atoms: C17_21  and  C25_31 
REMARK    4  A    between atoms: C18_22  and  C19_24 
ROOT
HETATM    1  C10 UNL     1      -1.531   0.728  -0.006  1.00  0.00     0.027 A 
HETATM    2  C11 UNL     1      -0.424  -0.154   0.025  1.00  0.00     0.028 A 
HETATM    3  C12 UNL     1       0.873   0.336  -0.254  1.00  0.00     0.119 A 
HETATM    4  C13 UNL     1       1.065   1.717  -0.537  1.00  0.00     0.138 A 
HETATM    5  C14 UNL     1      -0.047   2.590  -0.582  1.00  0.00     0.118 A 
HETATM    6  C15 UNL     1      -1.346   2.098  -0.314  1.00  0.00     0.028 A 
HETATM    7  O4  UNL     1       2.309   2.189  -0.762  1.00  0.00    -0.324 OA
HETATM    8  C17 UNL     1       3.449   1.391  -0.422  1.00  0.00     0.186 C 
HETATM    9  C18 UNL     1       3.178  -0.080  -0.813  1.00  0.00     0.174 C 
HETATM   10  O5  UNL     1       1.928  -0.504  -0.250  1.00  0.00    -0.324 OA
ENDROOT
BRANCH   1  11
HETATM   11  C7  UNL     1      -2.887   0.217   0.287  1.00  0.00     0.103 A 
HETATM   12  O1  UNL     1      -3.326  -1.025  -0.018  1.00  0.00    -0.307 OA
HETATM   13  C5  UNL     1      -4.566  -1.488   0.250  1.00  0.00     0.107 A 
HETATM   14  C4  UNL     1      -5.518  -0.656   0.893  1.00  0.00     0.087 A 
HETATM   15  C6  UNL     1      -4.920  -2.809  -0.113  1.00  0.00     0.052 A 
HETATM   16  C3  UNL     1      -6.822  -1.141   1.172  1.00  0.00     0.138 A 
HETATM   17  C9  UNL     1      -5.109   0.727   1.260  1.00  0.00     0.202 A 
HETATM   18  C2  UNL     1      -7.168  -2.463   0.805  1.00  0.00     0.055 A 
HETATM   19  O8  UNL     1      -7.733  -0.365   1.777  1.00  0.00    -0.190 OA
HETATM   20  C1  UNL     1      -6.219  -3.295   0.164  1.00  0.00     0.135 A 
HETATM   21  O9  UNL     1      -6.551  -4.547  -0.182  1.00  0.00    -0.190 OA
HETATM   22  C8  UNL     1      -3.721   1.090   0.904  1.00  0.00     0.067 A 
HETATM   23  O2  UNL     1      -5.779   1.570   1.811  1.00  0.00    -0.286 OA
ENDBRANCH   1  11
BRANCH   5  24
HETATM   24  O3  UNL     1       0.129   3.887  -0.871  1.00  0.00    -0.326 OA
HETATM   25  C16 UNL     1      -1.023   4.709  -0.975  1.00  0.00     0.181 C 
ENDBRANCH   5  24
BRANCH   9  26
HETATM   26  C19 UNL     1       4.248  -1.006  -0.361  1.00  0.00     0.008 A 
HETATM   27  C20 UNL     1       5.084  -1.629  -1.307  1.00  0.00     0.000 A 
HETATM   28  C21 UNL     1       6.098  -2.504  -0.879  1.00  0.00     0.027 A 
HETATM   29  C22 UNL     1       6.277  -2.762   0.492  1.00  0.00     0.131 A 
HETATM   30  C23 UNL     1       5.440  -2.139   1.434  1.00  0.00     0.027 A 
HETATM   31  O6  UNL     1       7.227  -3.584   0.893  1.00  0.00    -0.190 OA
HETATM   32  C24 UNL     1       4.426  -1.262   1.010  1.00  0.00     0.000 A 
ENDBRANCH   9  26
BRANCH   8  33
HETATM   33  C25 UNL     1       4.680   1.984  -1.113  1.00  0.00     0.215 C 
HETATM   34  O7  UNL     1       4.865   3.297  -0.637  1.00  0.00    -0.218 OA
ENDBRANCH   8  33
TORSDOF 4
