REMARK  7 active torsions:
REMARK  status: ('A' for Active; 'I' for Inactive)
REMARK    1  A    between atoms: C2_2  and  O1_11 
REMARK    2  A    between atoms: C3_4  and  C6_8 
REMARK    3  A    between atoms: O1_11  and  P1_12 
REMARK    4  A    between atoms: P1_12  and  O2_14 
REMARK    5  A    between atoms: P1_12  and  O3_17 
REMARK    6  A    between atoms: O2_14  and  C9_15 
REMARK    7  A    between atoms: O3_17  and  C11_18 
ROOT
HETATM    1  C1  UNL     1       1.103   2.027   1.817  1.00  0.00     0.059 A 
HETATM    2  C2  UNL     1       0.619   1.362   0.671  1.00  0.00     0.188 A 
HETATM    3  N1  UNL     1      -0.182   0.263   0.802  1.00  0.00    -0.207 NA
HETATM    4  C3  UNL     1      -0.495  -0.166   2.062  1.00  0.00     0.141 A 
HETATM    5  N2  UNL     1      -0.056   0.437   3.207  1.00  0.00    -0.235 NA
HETATM    6  C4  UNL     1       0.746   1.536   3.091  1.00  0.00     0.064 A 
HETATM    7  C5  UNL     1       1.241   2.215   4.316  1.00  0.00     0.052 C 
ENDROOT
BRANCH   2   8
HETATM    8  O1  UNL     1       0.939   1.801  -0.530  1.00  0.00    -0.251 OA
BRANCH   8   9
HETATM    9  P1  UNL     1       0.396   1.022  -1.761  1.00  0.00     0.337 P 
HETATM   10  S1  UNL     1      -1.362   1.410  -1.727  1.00  0.00    -0.007 SA
BRANCH   9  11
HETATM   11  O2  UNL     1       0.872   1.717  -3.067  1.00  0.00    -0.295 OA
BRANCH  11  12
HETATM   12  C9  UNL     1       0.564   1.013  -4.262  1.00  0.00     0.152 C 
HETATM   13  C10 UNL     1       1.002   1.842  -5.469  1.00  0.00     0.035 C 
ENDBRANCH  11  12
ENDBRANCH   9  11
BRANCH   9  14
HETATM   14  O3  UNL     1       0.927  -0.439  -1.726  1.00  0.00    -0.295 OA
BRANCH  14  15
HETATM   15  C11 UNL     1      -0.036  -1.430  -2.055  1.00  0.00     0.152 C 
HETATM   16  C12 UNL     1       0.615  -2.812  -1.999  1.00  0.00     0.035 C 
ENDBRANCH  14  15
ENDBRANCH   9  14
ENDBRANCH   8   9
ENDBRANCH   2   8
BRANCH   4  17
HETATM   17  C6  UNL     1      -1.367  -1.361   2.195  1.00  0.00     0.059 C 
HETATM   18  C7  UNL     1      -0.798  -2.363   3.199  1.00  0.00     0.008 C 
HETATM   19  C8  UNL     1      -2.813  -0.972   2.505  1.00  0.00     0.008 C 
ENDBRANCH   4  17
TORSDOF 7
