REMARK  0 active torsions:
REMARK  status: ('A' for Active; 'I' for Inactive)
ROOT
HETATM    1  C1  UNL     1      -0.859  -0.977   0.527  1.00  0.00     0.001 C 
HETATM    2  C2  UNL     1      -1.457  -1.297  -0.869  1.00  0.00     0.004 C 
HETATM    3  C3  UNL     1      -1.906  -0.092  -1.721  1.00  0.00     0.022 C 
HETATM    4  C4  UNL     1      -1.252   1.211  -1.326  1.00  0.00    -0.044 C 
HETATM    5  C5  UNL     1      -1.147   2.223  -2.207  1.00  0.00    -0.009 C 
HETATM    6  C6  UNL     1      -0.734   1.340   0.092  1.00  0.00     0.018 C 
HETATM    7  C7  UNL     1      -1.449   0.350   1.018  1.00  0.00     0.004 C 
HETATM    8  C8  UNL     1       0.734   0.902   0.287  1.00  0.00     0.003 C 
HETATM    9  C9  UNL     1       0.654  -0.615   0.580  1.00  0.00     0.000 C 
HETATM   10  C10 UNL     1       1.578  -1.273  -0.461  1.00  0.00     0.000 C 
HETATM   11  C11 UNL     1       1.617  -0.299  -1.629  1.00  0.00     0.000 C 
HETATM   12  C12 UNL     1       1.697   1.039  -0.904  1.00  0.00     0.000 C 
HETATM   13  C13 UNL     1       1.248  -0.957   1.957  1.00  0.00     0.000 C 
HETATM   14  C14 UNL     1       1.301   1.758   1.428  1.00  0.00     0.000 C 
HETATM   15  C15 UNL     1      -1.229  -2.090   1.514  1.00  0.00     0.000 C 
ENDROOT
TORSDOF 0
