REMARK  8 active torsions:
REMARK  status: ('A' for Active; 'I' for Inactive)
REMARK    1  A    between atoms: C1_1  and  C39_56 
REMARK    2  A    between atoms: C3_4  and  C4_5 
REMARK    3  A    between atoms: C4_5  and  C5_6 
REMARK    4  A    between atoms: C14_18  and  C38_52 
REMARK    5  A    between atoms: C21_28  and  C31_44 
REMARK    6  A    between atoms: C23_31  and  C27_39 
REMARK    7  A    between atoms: C27_39  and  C28_40 
REMARK    8  A    between atoms: C31_44  and  C32_45 
ROOT
HETATM    1  C1  UNL     1       5.223   1.906   1.068  1.00  0.00     0.216 C 
HETATM    2  C2  UNL     1       4.092   2.242   0.109  1.00  0.00     0.277 C 
HETATM    3  N1  UNL     1       2.799   2.299   0.586  1.00  0.00    -0.229 NA
HETATM    4  C3  UNL     1       1.641   2.615  -0.287  1.00  0.00     0.184 C 
HETATM    5  C8  UNL     1       0.342   2.629   0.504  1.00  0.00     0.256 C 
HETATM    6  N2  UNL     1      -0.500   3.768   0.393  1.00  0.00    -0.312 N 
HETATM    7  C9  UNL     1      -1.771   3.881   1.102  1.00  0.00     0.165 C 
HETATM    8  C10 UNL     1      -2.033   5.393   1.092  1.00  0.00     0.034 C 
HETATM    9  C11 UNL     1      -1.430   5.842  -0.250  1.00  0.00     0.027 C 
HETATM   10  C12 UNL     1      -0.199   4.947  -0.404  1.00  0.00     0.105 C 
HETATM   11  C13 UNL     1      -2.910   3.139   0.416  1.00  0.00     0.272 C 
HETATM   12  O1  UNL     1      -2.934   3.024  -0.789  1.00  0.00    -0.269 OA
HETATM   13  N3  UNL     1      -3.924   2.609   1.186  1.00  0.00    -0.226 NA
HETATM   14  C14 UNL     1      -5.107   1.914   0.604  1.00  0.00     0.217 C 
HETATM   15  C15 UNL     1      -6.053   1.297   1.623  1.00  0.00     0.259 C 
HETATM   16  O2  UNL     1      -7.223   1.609   1.619  1.00  0.00    -0.270 OA
HETATM   17  N4  UNL     1      -5.576   0.356   2.586  1.00  0.00    -0.312 N 
HETATM   18  C16 UNL     1      -4.205  -0.135   2.764  1.00  0.00     0.165 C 
HETATM   19  C17 UNL     1      -4.320  -1.148   3.912  1.00  0.00     0.034 C 
HETATM   20  C18 UNL     1      -5.570  -0.715   4.688  1.00  0.00     0.027 C 
HETATM   21  C19 UNL     1      -6.482  -0.205   3.576  1.00  0.00     0.105 C 
HETATM   22  C20 UNL     1      -3.572  -0.785   1.547  1.00  0.00     0.272 C 
HETATM   23  N5  UNL     1      -2.365  -0.307   1.090  1.00  0.00    -0.228 NA
HETATM   24  C21 UNL     1      -1.637  -0.844  -0.088  1.00  0.00     0.191 C 
HETATM   25  C22 UNL     1      -0.770  -2.029   0.285  1.00  0.00     0.275 C 
HETATM   26  N6  UNL     1       0.592  -1.961   0.084  1.00  0.00    -0.229 NA
HETATM   27  C23 UNL     1       1.498  -3.088   0.420  1.00  0.00     0.186 C 
HETATM   28  C24 UNL     1       2.949  -2.684   0.252  1.00  0.00     0.274 C 
HETATM   29  N7  UNL     1       3.715  -2.396   1.359  1.00  0.00    -0.226 NA
HETATM   30  C25 UNL     1       5.129  -1.977   1.238  1.00  0.00     0.218 C 
HETATM   31  C26 UNL     1       5.254  -0.574   0.686  1.00  0.00     0.277 C 
HETATM   32  N8  UNL     1       5.149   0.500   1.539  1.00  0.00    -0.226 NA
HETATM   33  O3  UNL     1       5.442  -0.406  -0.498  1.00  0.00    -0.268 OA
HETATM   34  O4  UNL     1       3.434  -2.613  -0.855  1.00  0.00    -0.268 OA
HETATM   35  O5  UNL     1      -1.270  -3.027   0.754  1.00  0.00    -0.268 OA
HETATM   36  O6  UNL     1      -4.119  -1.713   0.994  1.00  0.00    -0.269 OA
HETATM   37  O8  UNL     1       0.029   1.701   1.215  1.00  0.00    -0.270 OA
HETATM   38  O9  UNL     1       4.318   2.461  -1.059  1.00  0.00    -0.268 OA
ENDROOT
BRANCH  24  39
HETATM   39  C31 UNL     1      -2.572  -1.189  -1.252  1.00  0.00     0.060 C 
BRANCH  39  40
HETATM   40  C32 UNL     1      -1.945  -2.158  -2.189  1.00  0.00    -0.020 A 
HETATM   41  C33 UNL     1      -2.035  -3.539  -1.939  1.00  0.00    -0.004 A 
HETATM   42  C34 UNL     1      -1.441  -4.453  -2.828  1.00  0.00    -0.000 A 
HETATM   43  C35 UNL     1      -0.758  -3.988  -3.965  1.00  0.00    -0.000 A 
HETATM   44  C36 UNL     1      -0.668  -2.607  -4.215  1.00  0.00    -0.000 A 
HETATM   45  C37 UNL     1      -1.262  -1.693  -3.328  1.00  0.00    -0.004 A 
ENDBRANCH  39  40
ENDBRANCH  24  39
BRANCH  27  46
HETATM   46  C27 UNL     1       1.178  -4.309  -0.451  1.00  0.00     0.034 C 
BRANCH  46  47
HETATM   47  C28 UNL     1       2.074  -5.508  -0.141  1.00  0.00     0.002 C 
HETATM   48  C29 UNL     1       1.854  -6.061   1.268  1.00  0.00     0.000 C 
HETATM   49  C30 UNL     1       2.004  -6.590  -1.217  1.00  0.00     0.000 C 
ENDBRANCH  46  47
ENDBRANCH  27  46
BRANCH  14  50
HETATM   50  C38 UNL     1      -4.754   0.930  -0.518  1.00  0.00     0.216 C 
HETATM   51  O7  UNL     1      -5.680  -0.131  -0.480  1.00  0.00    -0.218 OA
ENDBRANCH  14  50
BRANCH   1  52
HETATM   52  C39 UNL     1       6.608   2.199   0.475  1.00  0.00     0.184 C 
HETATM   53  C40 UNL     1       6.783   3.666   0.086  1.00  0.00     0.038 C 
HETATM   54  O10 UNL     1       7.578   1.881   1.447  1.00  0.00    -0.221 OA
ENDBRANCH   1  52
BRANCH   4  55
HETATM   55  C4  UNL     1       1.525   1.580  -1.414  1.00  0.00     0.034 C 
BRANCH  55  56
HETATM   56  C5  UNL     1       1.063   2.197  -2.734  1.00  0.00     0.002 C 
HETATM   57  C6  UNL     1       1.979   3.324  -3.211  1.00  0.00     0.000 C 
HETATM   58  C7  UNL     1       0.807   1.149  -3.816  1.00  0.00     0.000 C 
ENDBRANCH  55  56
ENDBRANCH   4  55
TORSDOF 8
