REMARK  5 active torsions:
REMARK  status: ('A' for Active; 'I' for Inactive)
REMARK    1  A    between atoms: C12_12  and  C15_15 
REMARK    2  A    between atoms: C15_15  and  C16_16 
REMARK    3  A    between atoms: C16_16  and  O1_17 
REMARK    4  A    between atoms: O1_17  and  C17_18 
REMARK    5  A    between atoms: C21_25  and  C22_27 
ROOT
HETATM    1  C1  UNL     1      -4.729   1.131   1.295  1.00  0.00     0.151 C 
HETATM    2  C2  UNL     1      -4.801  -0.158   0.520  1.00  0.00     0.065 C 
HETATM    3  C3  UNL     1      -4.137  -1.348   1.250  1.00  0.00     0.007 C 
HETATM    4  C4  UNL     1      -2.916  -0.912   2.131  1.00  0.00     0.001 C 
HETATM    5  C5  UNL     1      -2.276   0.445   1.705  1.00  0.00     0.010 C 
HETATM    6  C6  UNL     1      -3.363   1.551   1.785  1.00  0.00     0.065 C 
HETATM    7  C7  UNL     1      -1.100   0.805   2.670  1.00  0.00     0.018 C 
HETATM    8  C8  UNL     1      -0.121  -0.350   2.772  1.00  0.00    -0.049 C 
HETATM    9  C9  UNL     1      -0.723  -1.652   3.235  1.00  0.00     0.022 C 
HETATM   10  C10 UNL     1      -1.869  -2.041   2.297  1.00  0.00     0.004 C 
HETATM   11  C11 UNL     1       1.191  -0.254   2.461  1.00  0.00    -0.033 C 
HETATM   12  C12 UNL     1       1.842   1.029   1.990  1.00  0.00     0.049 C 
HETATM   13  C13 UNL     1       0.799   2.020   1.442  1.00  0.00     0.007 C 
HETATM   14  C14 UNL     1      -0.397   2.154   2.393  1.00  0.00     0.004 C 
HETATM   15  C23 UNL     1       2.584   1.643   3.182  1.00  0.00     0.007 C 
HETATM   16  C24 UNL     1      -1.750   0.330   0.266  1.00  0.00     0.001 C 
HETATM   17  C25 UNL     1      -5.178  -2.025   2.151  1.00  0.00     0.000 C 
HETATM   18  C26 UNL     1      -3.733  -2.373   0.180  1.00  0.00     0.000 C 
HETATM   19  O8  UNL     1      -5.713   1.795   1.520  1.00  0.00    -0.296 OA
ENDROOT
BRANCH  12  20
HETATM   20  C15 UNL     1       2.859   0.695   0.893  1.00  0.00     0.185 C 
HETATM   21  O7  UNL     1       3.918  -0.027   1.481  1.00  0.00    -0.220 OA
BRANCH  20  22
HETATM   22  C16 UNL     1       2.262  -0.154  -0.226  1.00  0.00     0.178 C 
BRANCH  22  23
HETATM   23  O1  UNL     1       3.232  -0.299  -1.238  1.00  0.00    -0.326 OA
BRANCH  23  24
HETATM   24  C17 UNL     1       2.809  -1.127  -2.309  1.00  0.00     0.270 C 
HETATM   25  C18 UNL     1       3.953  -1.406  -3.318  1.00  0.00     0.241 C 
HETATM   26  O2  UNL     1       5.084  -1.939  -2.648  1.00  0.00    -0.215 OA
HETATM   27  C19 UNL     1       4.334  -0.143  -4.119  1.00  0.00     0.220 C 
HETATM   28  O3  UNL     1       5.246  -0.480  -5.152  1.00  0.00    -0.218 OA
HETATM   29  C20 UNL     1       3.057   0.473  -4.734  1.00  0.00     0.215 C 
HETATM   30  O4  UNL     1       3.359   1.729  -5.316  1.00  0.00    -0.218 OA
HETATM   31  C21 UNL     1       1.947   0.672  -3.676  1.00  0.00     0.184 C 
HETATM   32  O5  UNL     1       1.697  -0.557  -2.996  1.00  0.00    -0.326 OA
BRANCH  31  33
HETATM   33  C22 UNL     1       0.613   1.115  -4.289  1.00  0.00     0.214 C 
HETATM   34  O6  UNL     1      -0.270   1.436  -3.240  1.00  0.00    -0.218 OA
ENDBRANCH  31  33
ENDBRANCH  23  24
ENDBRANCH  22  23
ENDBRANCH  20  22
ENDBRANCH  12  20
TORSDOF 5
