REMARK  7 active torsions:
REMARK  status: ('A' for Active; 'I' for Inactive)
REMARK    1  A    between atoms: C7_9  and  C11_14 
REMARK    2  A    between atoms: C8_10  and  O3_12 
REMARK    3  A    between atoms: C11_14  and  C12_16 
REMARK    4  A    between atoms: C12_16  and  O5_17 
REMARK    5  A    between atoms: C12_16  and  C18_24 
REMARK    6  A    between atoms: O5_17  and  C13_18 
REMARK    7  A    between atoms: C13_18  and  C14_20 
ROOT
HETATM    1  C11 UNL     1       1.133  -1.096   1.635  1.00  0.00     0.206 C 
HETATM    2  O4  UNL     1       1.060  -2.283   2.389  1.00  0.00    -0.216 OA
ENDROOT
BRANCH   1   3
HETATM    3  C7  UNL     1      -0.096  -0.309   1.836  1.00  0.00     0.033 A 
HETATM    4  C6  UNL     1      -1.352  -0.885   1.531  1.00  0.00     0.002 A 
HETATM    5  C2  UNL     1      -2.533  -0.129   1.727  1.00  0.00     0.023 A 
HETATM    6  C1  UNL     1      -2.467   1.201   2.223  1.00  0.00     0.105 A 
HETATM    7  C3  UNL     1      -3.865  -0.707   1.418  1.00  0.00     0.007 A 
HETATM    8  O1  UNL     1      -3.598   1.918   2.406  1.00  0.00    -0.273 OA
HETATM    9  C9  UNL     1      -1.207   1.769   2.523  1.00  0.00     0.049 A 
HETATM   10  C5  UNL     1      -4.828   1.430   2.139  1.00  0.00     0.300 A 
HETATM   11  C4  UNL     1      -4.963   0.049   1.619  1.00  0.00     0.069 A 
HETATM   12  O2  UNL     1      -5.832   2.080   2.305  1.00  0.00    -0.259 OA
HETATM   13  C8  UNL     1      -0.024   1.017   2.332  1.00  0.00     0.095 A 
BRANCH  13  14
HETATM   14  O3  UNL     1       1.164   1.568   2.623  1.00  0.00    -0.328 OA
HETATM   15  C10 UNL     1       1.195   2.951   2.945  1.00  0.00     0.181 C 
ENDBRANCH  13  14
ENDBRANCH   1   3
BRANCH   1  16
HETATM   16  C12 UNL     1       1.326  -1.473   0.164  1.00  0.00     0.187 C 
BRANCH  16  17
HETATM   17  O5  UNL     1       0.527  -0.625  -0.648  1.00  0.00    -0.296 OA
BRANCH  17  18
HETATM   18  C13 UNL     1       0.156  -1.217  -1.781  1.00  0.00     0.291 C 
HETATM   19  O6  UNL     1       0.199  -2.410  -1.963  1.00  0.00    -0.260 OA
BRANCH  18  20
HETATM   20  C14 UNL     1      -0.328  -0.320  -2.838  1.00  0.00     0.037 C 
HETATM   21  C15 UNL     1      -1.143  -0.852  -3.988  1.00  0.00     0.036 C 
HETATM   22  C16 UNL     1      -0.053   0.994  -2.801  1.00  0.00    -0.025 C 
HETATM   23  C17 UNL     1      -0.574   1.867  -3.910  1.00  0.00     0.030 C 
ENDBRANCH  18  20
ENDBRANCH  17  18
ENDBRANCH  16  17
BRANCH  16  24
HETATM   24  C18 UNL     1       2.785  -1.381  -0.281  1.00  0.00     0.155 C 
HETATM   25  C19 UNL     1       3.018  -1.983  -1.668  1.00  0.00     0.036 C 
HETATM   26  C20 UNL     1       3.355   0.031  -0.150  1.00  0.00     0.036 C 
HETATM   27  O7  UNL     1       3.422  -2.203   0.668  1.00  0.00    -0.223 OA
ENDBRANCH  16  24
ENDBRANCH   1  16
TORSDOF 7
