REMARK  2 active torsions:
REMARK  status: ('A' for Active; 'I' for Inactive)
REMARK    1  A    between atoms: C1_1  and  C5_7 
REMARK    2  A    between atoms: C6_9  and  C9_12 
ROOT
HETATM    1  C9  UNL     1      -2.800   0.461  -0.488  1.00  0.00    -0.058 C 
HETATM    2  C10 UNL     1      -3.977   0.476  -0.658  1.00  0.00    -0.085 C 
HETATM    3  C11 UNL     1      -5.426   0.497  -0.866  1.00  0.00     0.090 C 
ENDROOT
BRANCH   1   4
HETATM    4  C6  UNL     1      -1.381   0.452  -0.279  1.00  0.00     0.071 A 
HETATM    5  S2  UNL     1      -0.399  -0.901   0.066  1.00  0.00    -0.078 SA
HETATM    6  C5  UNL     1       0.959   0.104   0.124  1.00  0.00     0.036 A 
HETATM    7  C8  UNL     1       0.723   1.459  -0.112  1.00  0.00     0.008 A 
HETATM    8  C7  UNL     1      -0.654   1.662  -0.349  1.00  0.00     0.015 A 
BRANCH   6   9
HETATM    9  C1  UNL     1       2.330  -0.408   0.402  1.00  0.00     0.036 A 
HETATM   10  C2  UNL     1       2.583  -1.755   0.637  1.00  0.00     0.008 A 
HETATM   11  C3  UNL     1       3.965  -1.927   0.869  1.00  0.00     0.018 A 
HETATM   12  C4  UNL     1       4.731  -0.734   0.808  1.00  0.00     0.087 A 
HETATM   13  S1  UNL     1       3.695   0.583   0.460  1.00  0.00    -0.075 SA
HETATM   14 CL1  UNL     1       6.414  -0.889   1.084  1.00  0.00    -0.075 Cl
ENDBRANCH   6   9
ENDBRANCH   1   4
TORSDOF 2
