REMARK  6 active torsions:
REMARK  status: ('A' for Active; 'I' for Inactive)
REMARK    1  A    between atoms: C2_2  and  C3_3 
REMARK    2  A    between atoms: C3_3  and  C4_4 
REMARK    3  A    between atoms: C4_4  and  C5_5 
REMARK    4  A    between atoms: C5_5  and  C6_6 
REMARK    5  A    between atoms: C6_6  and  C7_7 
REMARK    6  A    between atoms: C7_7  and  C8_8 
ROOT
HETATM    1  C4  UNL     1      -0.586  -0.683  -0.676  1.00  0.00     0.008 C 
ENDROOT
BRANCH   1   2
HETATM    2  C3  UNL     1      -2.111  -0.781  -0.675  1.00  0.00     0.065 C 
BRANCH   2   3
HETATM    3  C2  UNL     1      -2.633  -1.632  -1.802  1.00  0.00     0.151 C 
HETATM    4  C1  UNL     1      -4.124  -1.786  -1.940  1.00  0.00     0.072 C 
HETATM    5  O1  UNL     1      -1.877  -2.175  -2.573  1.00  0.00    -0.296 OA
ENDBRANCH   2   3
ENDBRANCH   1   2
BRANCH   1   6
HETATM    6  C5  UNL     1      -0.049   0.189   0.459  1.00  0.00     0.001 C 
BRANCH   6   7
HETATM    7  C6  UNL     1       1.477   0.285   0.460  1.00  0.00     0.005 C 
BRANCH   7   8
HETATM    8  C7  UNL     1       2.013   1.159   1.594  1.00  0.00     0.026 C 
BRANCH   8   9
HETATM    9  C8  UNL     1       3.516   1.241   1.594  1.00  0.00    -0.026 C 
HETATM   10  C9  UNL     1       4.091   2.455   1.594  1.00  0.00    -0.005 C 
ENDBRANCH   8   9
ENDBRANCH   7   8
ENDBRANCH   6   7
ENDBRANCH   1   6
TORSDOF 6
