REMARK  3 active torsions:
REMARK  status: ('A' for Active; 'I' for Inactive)
REMARK    1  A    between atoms: C2_2  and  O5_17 
REMARK    2  A    between atoms: C4_4  and  O3_14 
REMARK    3  A    between atoms: C6_6  and  C7_7 
ROOT
HETATM    1  C1  UNL     1      -0.055   1.133   1.076  1.00  0.00     0.022 A 
HETATM    2  C2  UNL     1      -0.387   2.369   0.496  1.00  0.00     0.121 A 
HETATM    3  C3  UNL     1      -0.447   2.494  -0.904  1.00  0.00     0.175 A 
HETATM    4  C4  UNL     1      -0.176   1.381  -1.723  1.00  0.00     0.121 A 
HETATM    5  C5  UNL     1       0.156   0.146  -1.137  1.00  0.00     0.022 A 
HETATM    6  C6  UNL     1       0.217   0.021   0.262  1.00  0.00    -0.016 A 
HETATM    7  O4  UNL     1      -0.760   3.652  -1.451  1.00  0.00    -0.186 OA
ENDROOT
BRANCH   6   8
HETATM    8  C7  UNL     1       0.568  -1.289   0.879  1.00  0.00     0.060 C 
HETATM    9  C8  UNL     1      -0.361  -2.445   0.473  1.00  0.00     0.129 C 
HETATM   10  O1  UNL     1       0.389  -3.647   0.643  1.00  0.00    -0.304 OA
HETATM   11  C11 UNL     1      -1.633  -2.508   1.309  1.00  0.00     0.033 C 
HETATM   12  C9  UNL     1       1.672  -3.330   0.524  1.00  0.00     0.272 C 
HETATM   13  C10 UNL     1       1.910  -1.854   0.408  1.00  0.00     0.103 C 
HETATM   14  O2  UNL     1       2.580  -4.129   0.518  1.00  0.00    -0.264 OA
ENDBRANCH   6   8
BRANCH   2  15
HETATM   15  O5  UNL     1      -0.641   3.408   1.266  1.00  0.00    -0.326 OA
HETATM   16  C13 UNL     1      -0.566   3.230   2.672  1.00  0.00     0.181 C 
ENDBRANCH   2  15
BRANCH   4  17
HETATM   17  O3  UNL     1      -0.230   1.492  -3.035  1.00  0.00    -0.326 OA
HETATM   18  C12 UNL     1       0.164   0.375  -3.816  1.00  0.00     0.181 C 
ENDBRANCH   4  17
TORSDOF 3
