REMARK  1 active torsions:
REMARK  status: ('A' for Active; 'I' for Inactive)
REMARK    1  A    between atoms: N2_3  and  C9_12 
ROOT
HETATM    1  N1  UNL     1       0.842   2.065   0.496  1.00  0.00    -0.225 NA
HETATM    2  C1  UNL     1      -0.295   1.479   0.273  1.00  0.00     0.185 A 
HETATM    3  N2  UNL     1      -0.385   0.131  -0.076  1.00  0.00    -0.255 N 
HETATM    4  C2  UNL     1       0.768  -0.650  -0.201  1.00  0.00     0.267 A 
HETATM    5  C3  UNL     1       2.063   0.055   0.063  1.00  0.00     0.074 A 
HETATM    6  C4  UNL     1       3.297  -0.635  -0.035  1.00  0.00     0.006 A 
HETATM    7  C5  UNL     1       4.506   0.055   0.219  1.00  0.00     0.000 A 
HETATM    8  C6  UNL     1       4.485   1.426   0.568  1.00  0.00     0.002 A 
HETATM    9  C7  UNL     1       3.254   2.117   0.666  1.00  0.00     0.019 A 
HETATM   10  C8  UNL     1       2.039   1.434   0.412  1.00  0.00     0.088 A 
HETATM   11  O1  UNL     1       0.656  -1.818  -0.506  1.00  0.00    -0.267 OA
ENDROOT
BRANCH   3  12
HETATM   12  C9  UNL     1      -1.633  -0.404  -0.293  1.00  0.00     0.094 A 
HETATM   13  C10 UNL     1      -2.689  -0.160   0.611  1.00  0.00     0.147 A 
HETATM   14  C11 UNL     1      -3.957  -0.719   0.367  1.00  0.00     0.029 A 
HETATM   15  O2  UNL     1      -2.512   0.584   1.688  1.00  0.00    -0.189 OA
HETATM   16  C12 UNL     1      -4.176  -1.516  -0.770  1.00  0.00     0.002 A 
HETATM   17  C13 UNL     1      -3.125  -1.758  -1.668  1.00  0.00     0.002 A 
HETATM   18  C14 UNL     1      -1.855  -1.203  -1.432  1.00  0.00     0.020 A 
ENDBRANCH   3  12
TORSDOF 1
