REMARK  1 active torsions:
REMARK  status: ('A' for Active; 'I' for Inactive)
REMARK    1  A    between atoms: C7_8  and  C10_12 
ROOT
HETATM    1  C1  UNL     1      -3.807  -0.424   0.166  1.00  0.00     0.160 A 
HETATM    2  C2  UNL     1      -3.656  -1.732   0.684  1.00  0.00     0.182 A 
HETATM    3  C3  UNL     1      -2.363  -2.272   0.891  1.00  0.00     0.163 A 
HETATM    4  C4  UNL     1      -1.221  -1.490   0.578  1.00  0.00     0.089 A 
HETATM    5  C5  UNL     1      -1.371  -0.178   0.061  1.00  0.00     0.107 A 
HETATM    6  C6  UNL     1      -2.666   0.352  -0.146  1.00  0.00     0.054 A 
HETATM    7  O1  UNL     1      -0.283   0.568  -0.238  1.00  0.00    -0.307 OA
HETATM    8  C7  UNL     1       0.984   0.137  -0.070  1.00  0.00     0.103 A 
HETATM    9  C8  UNL     1       1.250  -1.098   0.414  1.00  0.00     0.067 A 
HETATM   10  C9  UNL     1       0.156  -2.022   0.781  1.00  0.00     0.202 A 
HETATM   11  O2  UNL     1       0.473  -3.109   1.207  1.00  0.00    -0.286 OA
HETATM   12  O3  UNL     1      -2.232  -3.514   1.383  1.00  0.00    -0.188 OA
HETATM   13  O4  UNL     1      -4.740  -2.465   0.979  1.00  0.00    -0.186 OA
HETATM   14  O5  UNL     1      -5.031   0.084  -0.031  1.00  0.00    -0.188 OA
ENDROOT
BRANCH   8  15
HETATM   15  C10 UNL     1       2.129   1.031  -0.426  1.00  0.00     0.023 A 
HETATM   16  C11 UNL     1       3.375   0.867   0.207  1.00  0.00     0.002 A 
HETATM   17  C12 UNL     1       4.449   1.709  -0.127  1.00  0.00     0.000 A 
HETATM   18  C13 UNL     1       4.281   2.715  -1.092  1.00  0.00     0.000 A 
HETATM   19  C14 UNL     1       3.037   2.881  -1.725  1.00  0.00     0.000 A 
HETATM   20  C15 UNL     1       1.961   2.041  -1.391  1.00  0.00     0.002 A 
ENDBRANCH   8  15
TORSDOF 1
