REMARK  9 active torsions:
REMARK  status: ('A' for Active; 'I' for Inactive)
REMARK    1  A    between atoms: C1_1  and  C2_2 
REMARK    2  A    between atoms: C2_2  and  C3_3 
REMARK    3  A    between atoms: C3_3  and  C4_4 
REMARK    4  A    between atoms: C4_4  and  C5_5 
REMARK    5  A    between atoms: C4_4  and  N1_8 
REMARK       I    between atoms: N1_8  and  C6_9 
REMARK    6  A    between atoms: C6_9  and  C7_11 
REMARK    7  A    between atoms: C10_14  and  N2_17 
REMARK    8  A    between atoms: N2_17  and  C13_18 
REMARK    9  A    between atoms: C13_18  and  C14_19 
ROOT
HETATM    1  C7  UNL     1       1.355   2.434  -0.270  1.00  0.00     0.058 A 
HETATM    2  C8  UNL     1       0.687   2.572  -1.498  1.00  0.00     0.006 A 
HETATM    3  C9  UNL     1       0.140   1.443  -2.135  1.00  0.00     0.019 A 
HETATM    4  C10 UNL     1       0.262   0.172  -1.541  1.00  0.00     0.076 A 
HETATM    5  C11 UNL     1       0.932   0.035  -0.311  1.00  0.00     0.019 A 
HETATM    6  C12 UNL     1       1.478   1.164   0.324  1.00  0.00     0.006 A 
ENDROOT
BRANCH   4   7
HETATM    7  N2  UNL     1      -0.272  -0.928  -2.160  1.00  0.00    -0.269 NA
BRANCH   7   8
HETATM    8  C13 UNL     1      -0.367  -2.205  -1.438  1.00  0.00     0.152 C 
BRANCH   8   9
HETATM    9  C14 UNL     1      -1.324  -3.166  -2.145  1.00  0.00     0.152 C 
HETATM   10  N3  UNL     1      -2.731  -2.709  -1.994  1.00  0.00    -0.261 NA
HETATM   11  C15 UNL     1      -3.766  -3.625  -2.029  1.00  0.00     0.171 A 
HETATM   12  C16 UNL     1      -5.180  -3.152  -2.022  1.00  0.00     0.316 A 
HETATM   13  C18 UNL     1      -3.531  -4.969  -2.098  1.00  0.00     0.199 A 
HETATM   14  O4  UNL     1      -5.467  -1.984  -1.889  1.00  0.00    -0.263 OA
HETATM   15  N4  UNL     1      -6.170  -4.098  -2.182  1.00  0.00    -0.016 NA
HETATM   16  C17 UNL     1      -5.830  -5.438  -2.313  1.00  0.00     0.773 A 
HETATM   17  N5  UNL     1      -6.813  -6.375  -2.484  1.00  0.00     0.062 N 
HETATM   18  N6  UNL     1      -4.600  -5.836  -2.264  1.00  0.00    -0.037 NA
HETATM   19  N7  UNL     1      -2.266  -5.508  -1.996  1.00  0.00    -0.249 NA
HETATM   20  C19 UNL     1      -1.119  -4.625  -1.676  1.00  0.00     0.154 C 
ENDBRANCH   8   9
ENDBRANCH   7   8
ENDBRANCH   4   7
BRANCH   1  21
HETATM   21  C6  UNL     1       1.937   3.631   0.404  1.00  0.00     0.275 C 
HETATM   22  N1  UNL     1       2.906   3.447   1.352  1.00  0.00    -0.225 NA
HETATM   23  O3  UNL     1       1.562   4.746   0.123  1.00  0.00    -0.266 OA
BRANCH  22  24
HETATM   24  C4  UNL     1       3.488   4.617   2.023  1.00  0.00     0.194 C 
BRANCH  24  25
HETATM   25  C3  UNL     1       4.113   4.225   3.361  1.00  0.00     0.047 C 
BRANCH  25  26
HETATM   26  C2  UNL     1       3.078   3.746   4.381  1.00  0.00     0.100 C 
BRANCH  26  27
HETATM   27  C1  UNL     1       3.682   3.494   5.736  1.00  0.00     0.185 C 
HETATM   28  O5  UNL     1       4.879   3.510   5.899  1.00  0.00    -0.647 OA
HETATM   29  O6  UNL     1       2.805   3.262   6.711  1.00  0.00    -0.647 OA
ENDBRANCH  26  27
ENDBRANCH  25  26
ENDBRANCH  24  25
BRANCH  24  30
HETATM   30  C5  UNL     1       4.453   5.348   1.131  1.00  0.00     0.209 C 
HETATM   31  O1  UNL     1       5.414   4.783   0.658  1.00  0.00    -0.646 OA
HETATM   32  O2  UNL     1       4.166   6.629   0.912  1.00  0.00    -0.646 OA
ENDBRANCH  24  30
ENDBRANCH  22  24
ENDBRANCH   1  21
TORSDOF 9
