REMARK  1 active torsions:
REMARK  status: ('A' for Active; 'I' for Inactive)
REMARK    1  A    between atoms: C6_6  and  O1_7 
ROOT
HETATM    1  C1  UNL     1      -1.373  -0.186  -0.162  1.00  0.00     0.047 A 
HETATM    2  C2  UNL     1      -1.238  -1.029  -1.229  1.00  0.00     0.104 A 
HETATM    3  C3  UNL     1       0.008  -1.488  -1.693  1.00  0.00     0.050 A 
HETATM    4  C4  UNL     1       1.162  -1.037  -1.002  1.00  0.00     0.107 A 
HETATM    5  C5  UNL     1       1.025  -0.152   0.117  1.00  0.00     0.045 A 
HETATM    6  C6  UNL     1      -0.256   0.299   0.566  1.00  0.00     0.098 A 
HETATM    7  C8  UNL     1       2.269   0.287   0.807  1.00  0.00     0.009 A 
HETATM    8  C9  UNL     1       3.461  -0.156   0.361  1.00  0.00     0.069 A 
HETATM    9  C10 UNL     1       3.527  -1.068  -0.801  1.00  0.00     0.300 A 
HETATM   10  O2  UNL     1       2.385  -1.449  -1.406  1.00  0.00    -0.273 OA
HETATM   11  O3  UNL     1       4.611  -1.447  -1.176  1.00  0.00    -0.259 OA
HETATM   12  O4  UNL     1      -2.479  -1.344  -1.754  1.00  0.00    -0.305 OA
HETATM   13  C11 UNL     1      -3.387  -0.625  -0.922  1.00  0.00     0.123 A 
HETATM   14  C12 UNL     1      -2.678   0.094   0.066  1.00  0.00     0.031 A 
ENDROOT
BRANCH   6  15
HETATM   15  O1  UNL     1      -0.264   1.125   1.623  1.00  0.00    -0.328 OA
HETATM   16  C7  UNL     1      -1.275   2.119   1.684  1.00  0.00     0.181 C 
ENDBRANCH   6  15
TORSDOF 1
