REMARK  3 active torsions:
REMARK  status: ('A' for Active; 'I' for Inactive)
REMARK    1  A    between atoms: C1_1  and  C4_4 
REMARK    2  A    between atoms: C6_6  and  C7_7 
REMARK    3  A    between atoms: C10_10  and  C12_12 
ROOT
HETATM    1  C4  UNL     1       1.602   0.711  -0.666  1.00  0.00     0.019 C 
HETATM    2  C5  UNL     1       0.269   1.164  -0.039  1.00  0.00     0.008 C 
HETATM    3  C6  UNL     1      -0.934   0.371  -0.588  1.00  0.00     0.022 C 
HETATM    4  C10 UNL     1      -0.748  -1.160  -0.430  1.00  0.00     0.022 C 
HETATM    5  C11 UNL     1      -1.897  -1.908  -1.119  1.00  0.00     0.004 C 
HETATM    6  C14 UNL     1       0.590  -1.590  -1.066  1.00  0.00     0.004 C 
HETATM    7  C15 UNL     1       1.793  -0.807  -0.516  1.00  0.00     0.004 C 
ENDROOT
BRANCH   1   8
HETATM    8  C1  UNL     1       2.766   1.467  -0.078  1.00  0.00    -0.044 C 
HETATM    9  C2  UNL     1       3.451   2.309  -0.871  1.00  0.00    -0.009 C 
HETATM   10  C3  UNL     1       3.197   1.322   1.357  1.00  0.00     0.026 C 
ENDBRANCH   1   8
BRANCH   3  11
HETATM   11  C7  UNL     1      -2.221   0.867   0.029  1.00  0.00    -0.044 C 
HETATM   12  C8  UNL     1      -3.197   1.301  -0.785  1.00  0.00    -0.009 C 
HETATM   13  C9  UNL     1      -2.461   0.897   1.516  1.00  0.00     0.026 C 
ENDBRANCH   3  11
BRANCH   4  14
HETATM   14  C12 UNL     1      -0.768  -1.561   1.027  1.00  0.00    -0.026 C 
HETATM   15  C13 UNL     1      -1.176  -2.799   1.348  1.00  0.00    -0.005 C 
ENDBRANCH   4  14
TORSDOF 3
