REMARK  0 active torsions:
REMARK  status: ('A' for Active; 'I' for Inactive)
ROOT
HETATM    1  C1  UNL     1      -2.578   1.106  -0.029  1.00  0.00     0.027 C 
HETATM    2  C2  UNL     1      -1.457   1.613  -0.922  1.00  0.00    -0.041 C 
HETATM    3  C3  UNL     1      -0.137   1.475  -0.660  1.00  0.00     0.029 C 
HETATM    4  C4  UNL     1       0.475   0.840   0.531  1.00  0.00     0.178 C 
HETATM    5  C5  UNL     1       1.815   0.141   0.354  1.00  0.00     0.110 C 
HETATM    6  C6  UNL     1       1.817  -1.361  -0.035  1.00  0.00     0.136 C 
HETATM    7  C7  UNL     1       0.559  -2.199   0.264  1.00  0.00     0.053 C 
HETATM    8  C8  UNL     1      -0.689  -1.642  -0.383  1.00  0.00    -0.046 C 
HETATM    9  C9  UNL     1      -1.711  -1.211   0.383  1.00  0.00    -0.034 C 
HETATM   10  C10 UNL     1      -2.863  -0.404  -0.162  1.00  0.00     0.030 C 
HETATM   11  C11 UNL     1      -0.723  -1.553  -1.889  1.00  0.00     0.026 C 
HETATM   12  O1  UNL     1       2.893  -1.947   0.707  1.00  0.00    -0.331 OA
HETATM   13  C12 UNL     1       3.219  -1.131   1.711  1.00  0.00     0.108 C 
HETATM   14  C13 UNL     1       2.635   0.067   1.606  1.00  0.00    -0.010 C 
HETATM   15  C14 UNL     1       2.779   1.195   2.594  1.00  0.00     0.029 C 
HETATM   16  O2  UNL     1      -0.074   0.877   1.609  1.00  0.00    -0.291 OA
HETATM   17  C15 UNL     1      -1.873   2.317  -2.189  1.00  0.00     0.026 C 
ENDROOT
TORSDOF 0
