REMARK  4 active torsions:
REMARK  status: ('A' for Active; 'I' for Inactive)
REMARK    1  A    between atoms: C18_19  and  C21_22 
REMARK    2  A    between atoms: C21_22  and  C22_23 
REMARK    3  A    between atoms: C22_23  and  C23_24 
REMARK    4  A    between atoms: C23_24  and  C24_25 
ROOT
HETATM    1  C1  UNL     1      -6.424   0.799  -0.607  1.00  0.00     0.033 C 
HETATM    2  C2  UNL     1      -6.840  -0.584  -0.082  1.00  0.00     0.152 C 
HETATM    3  C3  UNL     1      -6.018  -0.988   1.150  1.00  0.00     0.033 C 
HETATM    4  C4  UNL     1      -4.508  -0.924   0.855  1.00  0.00     0.003 C 
HETATM    5  C5  UNL     1      -4.064   0.484   0.369  1.00  0.00     0.000 C 
HETATM    6  C6  UNL     1      -4.910   0.867  -0.869  1.00  0.00     0.003 C 
HETATM    7  C7  UNL     1      -2.547   0.447   0.027  1.00  0.00     0.000 C 
HETATM    8  C8  UNL     1      -1.711  -0.033   1.238  1.00  0.00     0.000 C 
HETATM    9  C9  UNL     1      -2.178  -1.412   1.732  1.00  0.00     0.000 C 
HETATM   10  C10 UNL     1      -3.676  -1.414   2.053  1.00  0.00     0.000 C 
HETATM   11  C11 UNL     1      -0.195  -0.055   0.959  1.00  0.00     0.003 C 
HETATM   12  C12 UNL     1       0.320   1.274   0.381  1.00  0.00     0.003 C 
HETATM   13  C13 UNL     1      -0.504   1.709  -0.844  1.00  0.00     0.000 C 
HETATM   14  C14 UNL     1      -1.998   1.787  -0.506  1.00  0.00     0.000 C 
HETATM   15  C15 UNL     1       1.746   0.904  -0.068  1.00  0.00     0.032 C 
HETATM   16  C16 UNL     1       1.668  -0.576  -0.475  1.00  0.00     0.118 C 
HETATM   17  C17 UNL     1       0.289  -1.094  -0.059  1.00  0.00     0.030 C 
HETATM   18  O1  UNL     1       2.688  -1.215   0.268  1.00  0.00    -0.335 OA
HETATM   19  C18 UNL     1       3.678  -0.285   0.631  1.00  0.00     0.219 C 
HETATM   20  C19 UNL     1       2.834   0.930   1.025  1.00  0.00     0.057 C 
HETATM   21  C20 UNL     1       3.609   2.246   1.051  1.00  0.00     0.005 C 
HETATM   22  O3  UNL     1       4.445  -0.750   1.721  1.00  0.00    -0.196 OA
HETATM   23  C26 UNL     1       0.324   2.363   1.453  1.00  0.00     0.000 C 
HETATM   24  C27 UNL     1      -4.316   1.524   1.475  1.00  0.00     0.000 C 
HETATM   25  O4  UNL     1      -8.213  -0.564   0.254  1.00  0.00    -0.224 OA
ENDROOT
BRANCH  19  26
HETATM   26  C21 UNL     1       4.608  -0.053  -0.561  1.00  0.00     0.059 C 
BRANCH  26  27
HETATM   27  C22 UNL     1       5.285  -1.367  -0.943  1.00  0.00     0.008 C 
BRANCH  27  28
HETATM   28  C23 UNL     1       5.967  -1.305  -2.311  1.00  0.00     0.033 C 
HETATM   29  C25 UNL     1       6.998  -0.180  -2.406  1.00  0.00     0.003 C 
BRANCH  28  30
HETATM   30  C24 UNL     1       6.526  -2.656  -2.756  1.00  0.00     0.182 C 
HETATM   31  O2  UNL     1       5.442  -3.521  -3.004  1.00  0.00    -0.221 OA
ENDBRANCH  28  30
ENDBRANCH  27  28
ENDBRANCH  26  27
ENDBRANCH  19  26
TORSDOF 4
