REMARK  1 active torsions:
REMARK  status: ('A' for Active; 'I' for Inactive)
REMARK    1  A    between atoms: C6_6  and  C7_7 
ROOT
HETATM    1  C1  UNL     1      -0.930   0.318  -0.002  1.00  0.00     0.005 A 
HETATM    2  C2  UNL     1      -1.588  -0.924  -0.002  1.00  0.00     0.028 A 
HETATM    3  C3  UNL     1      -0.844  -2.117  -0.002  1.00  0.00     0.131 A 
HETATM    4  C4  UNL     1       0.560  -2.063  -0.002  1.00  0.00     0.028 A 
HETATM    5  C5  UNL     1       1.221  -0.821  -0.002  1.00  0.00     0.005 A 
HETATM    6  C6  UNL     1       0.474   0.371  -0.002  1.00  0.00     0.035 A 
HETATM    7  O2  UNL     1      -1.461  -3.282  -0.002  1.00  0.00    -0.190 OA
ENDROOT
BRANCH   6   8
HETATM    8  C7  UNL     1       1.174   1.691  -0.002  1.00  0.00     0.173 C 
HETATM    9  O1  UNL     1       2.381   1.754  -0.002  1.00  0.00    -0.291 OA
HETATM   10  C8  UNL     1       0.332   2.937  -0.004  1.00  0.00     0.077 C 
ENDBRANCH   6   8
TORSDOF 1
