REMARK  6 active torsions:
REMARK  status: ('A' for Active; 'I' for Inactive)
REMARK    1  A    between atoms: C1_1  and  C40_55 
REMARK    2  A    between atoms: C3_4  and  C31_44 
REMARK    3  A    between atoms: C31_44  and  C32_45 
REMARK    4  A    between atoms: C35_48  and  O8_51 
REMARK    5  A    between atoms: C40_55  and  C41_56 
REMARK    6  A    between atoms: C41_56  and  C42_57 
ROOT
HETATM    1  C1  UNL     1      -3.555   2.578   2.008  1.00  0.00     0.185 C 
HETATM    2  C2  UNL     1      -3.947   1.406   1.117  1.00  0.00     0.256 C 
HETATM    3  N1  UNL     1      -3.414   1.188  -0.144  1.00  0.00    -0.310 N 
HETATM    4  C3  UNL     1      -3.736  -0.053  -0.930  1.00  0.00     0.169 C 
HETATM    5  C4  UNL     1      -3.725  -1.326  -0.090  1.00  0.00     0.273 C 
HETATM    6  O1  UNL     1      -4.797  -1.766   0.260  1.00  0.00    -0.269 OA
HETATM    7  N2  UNL     1      -2.592  -2.018   0.299  1.00  0.00    -0.229 NA
HETATM    8  C5  UNL     1      -1.174  -1.711  -0.037  1.00  0.00     0.185 C 
HETATM    9  C6  UNL     1      -0.227  -2.252   1.020  1.00  0.00     0.256 C 
HETATM   10  N3  UNL     1       0.797  -3.129   0.703  1.00  0.00    -0.310 N 
HETATM   11  C7  UNL     1       1.793  -3.520   1.754  1.00  0.00     0.167 C 
HETATM   12  C8  UNL     1       2.506  -2.314   2.408  1.00  0.00     0.255 C 
HETATM   13  N4  UNL     1       2.797  -1.107   1.770  1.00  0.00    -0.310 N 
HETATM   14  C9  UNL     1       3.383   0.061   2.529  1.00  0.00     0.169 C 
HETATM   15  C10 UNL     1       2.281   0.713   3.359  1.00  0.00     0.273 C 
HETATM   16  N5  UNL     1       1.135   1.174   2.744  1.00  0.00    -0.229 NA
HETATM   17  C11 UNL     1       0.004   1.795   3.488  1.00  0.00     0.186 C 
HETATM   18  C12 UNL     1      -1.094   2.281   2.537  1.00  0.00     0.274 C 
HETATM   19  N6  UNL     1      -2.424   2.195   2.893  1.00  0.00    -0.229 NA
HETATM   20  O2  UNL     1      -0.791   2.740   1.457  1.00  0.00    -0.268 OA
HETATM   21  C13 UNL     1      -0.482   0.816   4.572  1.00  0.00     0.037 C 
HETATM   22  O3  UNL     1       2.420   0.820   4.557  1.00  0.00    -0.269 OA
HETATM   23  C14 UNL     1       4.109   1.156   1.662  1.00  0.00     0.058 C 
HETATM   24  C15 UNL     1       5.508   0.820   1.201  1.00  0.00    -0.018 A 
HETATM   25  C16 UNL     1       6.613   1.660   1.453  1.00  0.00    -0.002 A 
HETATM   26  C17 UNL     1       7.899   1.295   1.012  1.00  0.00     0.029 A 
HETATM   27  C18 UNL     1       8.113   0.064   0.356  1.00  0.00     0.154 A 
HETATM   28  C19 UNL     1       7.031  -0.811   0.135  1.00  0.00     0.125 A 
HETATM   29  C20 UNL     1       5.734  -0.363   0.496  1.00  0.00     0.023 A 
HETATM   30  O4  UNL     1       7.219  -2.035  -0.385  1.00  0.00    -0.305 OA
HETATM   31  C21 UNL     1       6.328  -2.980  -0.086  1.00  0.00     0.100 C 
HETATM   32  C22 UNL     1       5.377  -3.410  -1.031  1.00  0.00     0.024 C 
HETATM   33  C23 UNL     1       4.213  -4.064  -0.586  1.00  0.00    -0.002 C 
HETATM   34  C24 UNL     1       4.029  -4.314   0.791  1.00  0.00    -0.020 C 
HETATM   35  C25 UNL     1       5.109  -4.125   1.674  1.00  0.00    -0.002 C 
HETATM   36  C26 UNL     1       6.268  -3.477   1.232  1.00  0.00     0.024 C 
HETATM   37  C27 UNL     1       2.701  -4.731   1.350  1.00  0.00     0.058 C 
HETATM   38  O5  UNL     1       9.326  -0.269  -0.035  1.00  0.00    -0.188 OA
HETATM   39  C28 UNL     1       2.488  -0.904   0.336  1.00  0.00     0.129 C 
HETATM   40  O6  UNL     1       2.809  -2.434   3.572  1.00  0.00    -0.270 OA
HETATM   41  C29 UNL     1       0.938  -3.643  -0.676  1.00  0.00     0.129 C 
HETATM   42  O7  UNL     1      -0.361  -1.881   2.166  1.00  0.00    -0.270 OA
HETATM   43  C30 UNL     1      -0.848  -0.221  -0.135  1.00  0.00     0.037 C 
HETATM   44  C39 UNL     1      -2.502   2.180  -0.752  1.00  0.00     0.129 C 
HETATM   45  O9  UNL     1      -4.764   0.633   1.561  1.00  0.00    -0.270 OA
ENDROOT
BRANCH   4  46
HETATM   46  C31 UNL     1      -2.887  -0.197  -2.203  1.00  0.00     0.058 C 
BRANCH  46  47
HETATM   47  C32 UNL     1      -3.680   0.088  -3.426  1.00  0.00    -0.020 A 
HETATM   48  C33 UNL     1      -3.334   1.172  -4.252  1.00  0.00    -0.002 A 
HETATM   49  C34 UNL     1      -4.084   1.441  -5.410  1.00  0.00     0.024 A 
HETATM   50  C35 UNL     1      -5.184   0.631  -5.744  1.00  0.00     0.094 A 
HETATM   51  C36 UNL     1      -5.527  -0.451  -4.916  1.00  0.00     0.024 A 
HETATM   52  C37 UNL     1      -4.777  -0.725  -3.760  1.00  0.00    -0.002 A 
BRANCH  50  53
HETATM   53  O8  UNL     1      -5.887   0.885  -6.830  1.00  0.00    -0.328 OA
HETATM   54  C38 UNL     1      -6.953   0.004  -7.154  1.00  0.00     0.181 C 
ENDBRANCH  50  53
ENDBRANCH  46  47
ENDBRANCH   4  46
BRANCH   1  55
HETATM   55  C40 UNL     1      -3.354   3.938   1.316  1.00  0.00     0.044 C 
BRANCH  55  56
HETATM   56  C41 UNL     1      -4.492   4.285   0.357  1.00  0.00     0.094 C 
BRANCH  56  57
HETATM   57  C42 UNL     1      -4.150   5.440  -0.547  1.00  0.00     0.274 C 
HETATM   58  N7  UNL     1      -5.074   5.848  -1.467  1.00  0.00    -0.107 N 
HETATM   59  O10 UNL     1      -3.082   5.998  -0.465  1.00  0.00    -0.269 OA
ENDBRANCH  56  57
ENDBRANCH  55  56
ENDBRANCH   1  55
TORSDOF 6
