REMARK  7 active torsions:
REMARK  status: ('A' for Active; 'I' for Inactive)
REMARK    1  A    between atoms: C2_2  and  O3_34 
REMARK    2  A    between atoms: O3_34  and  C32_35 
REMARK    3  A    between atoms: C34_38  and  O7_43 
REMARK    4  A    between atoms: O7_43  and  C37_44 
REMARK    5  A    between atoms: C38_46  and  C48_63 
REMARK    6  A    between atoms: C41_49  and  O9_50 
REMARK    7  A    between atoms: O9_50  and  C42_51 
ROOT
HETATM    1  C1  UNL     1       0.220   2.881   2.308  1.00  0.00     0.030 C 
HETATM    2  C2  UNL     1      -0.257   3.850   1.219  1.00  0.00     0.118 C 
HETATM    3  C3  UNL     1       0.908   4.304   0.284  1.00  0.00     0.025 C 
HETATM    4  C4  UNL     1       2.095   3.283   0.295  1.00  0.00     0.002 C 
HETATM    5  C5  UNL     1       1.647   1.797   0.405  1.00  0.00     0.000 C 
HETATM    6  C6  UNL     1       0.857   1.599   1.735  1.00  0.00     0.003 C 
HETATM    7  C7  UNL     1       2.889   0.847   0.399  1.00  0.00     0.000 C 
HETATM    8  C8  UNL     1       3.885   1.085  -0.775  1.00  0.00     0.002 C 
HETATM    9  C9  UNL     1       4.292   2.577  -0.786  1.00  0.00     0.000 C 
HETATM   10  C10 UNL     1       3.084   3.514  -0.863  1.00  0.00     0.000 C 
HETATM   11  C11 UNL     1       5.153   0.172  -0.621  1.00  0.00     0.026 C 
HETATM   12  C12 UNL     1       4.721  -1.326  -0.489  1.00  0.00     0.098 C 
HETATM   13  C13 UNL     1       3.707  -1.556   0.641  1.00  0.00     0.028 C 
HETATM   14  C14 UNL     1       2.491  -0.641   0.478  1.00  0.00     0.002 C 
HETATM   15  C15 UNL     1       5.891  -2.319  -0.298  1.00  0.00     0.034 C 
HETATM   16  C16 UNL     1       6.477  -2.212  -1.711  1.00  0.00     0.070 C 
HETATM   17  C17 UNL     1       7.120  -0.835  -2.038  1.00  0.00     0.158 C 
HETATM   18  C18 UNL     1       6.114   0.324  -1.840  1.00  0.00     0.036 C 
HETATM   19  O1  UNL     1       8.278  -0.558  -1.277  1.00  0.00    -0.223 OA
HETATM   20  C19 UNL     1       7.397  -3.436  -1.902  1.00  0.00     0.009 C 
HETATM   21  C20 UNL     1       8.453  -3.574  -0.781  1.00  0.00     0.001 C 
HETATM   22  C21 UNL     1       7.871  -3.526   0.654  1.00  0.00     0.000 C 
HETATM   23  C22 UNL     1       6.920  -2.315   0.842  1.00  0.00     0.003 C 
HETATM   24  C23 UNL     1       7.119  -4.831   0.939  1.00  0.00     0.000 C 
HETATM   25  C24 UNL     1       9.020  -3.424   1.661  1.00  0.00     0.000 C 
HETATM   26  C25 UNL     1       5.159  -2.262  -2.448  1.00  0.00     0.073 C 
HETATM   27  O2  UNL     1       4.153  -1.766  -1.730  1.00  0.00    -0.340 OA
HETATM   28  C26 UNL     1       5.022  -2.756  -3.690  1.00  0.00     0.021 C 
HETATM   29  C27 UNL     1       5.905   0.535   0.670  1.00  0.00     0.002 C 
HETATM   30  C28 UNL     1       3.177   0.782  -2.112  1.00  0.00     0.000 C 
HETATM   31  C29 UNL     1       0.723   1.458  -0.779  1.00  0.00     0.000 C 
HETATM   32  C30 UNL     1       0.411   4.572  -1.149  1.00  0.00     0.002 C 
HETATM   33  C31 UNL     1       1.443   5.645   0.804  1.00  0.00     0.002 C 
ENDROOT
BRANCH   2  34
HETATM   34  O3  UNL     1      -1.309   3.217   0.507  1.00  0.00    -0.332 OA
BRANCH  34  35
HETATM   35  C32 UNL     1      -2.477   3.034   1.283  1.00  0.00     0.270 C 
HETATM   36  O4  UNL     1      -2.508   1.690   1.744  1.00  0.00    -0.326 OA
HETATM   37  C33 UNL     1      -3.618   1.362   2.571  1.00  0.00     0.177 C 
HETATM   38  C34 UNL     1      -4.946   1.566   1.809  1.00  0.00     0.180 C 
HETATM   39  C35 UNL     1      -5.026   2.997   1.233  1.00  0.00     0.217 C 
HETATM   40  C36 UNL     1      -3.744   3.342   0.440  1.00  0.00     0.241 C 
HETATM   41  O6  UNL     1      -6.186   3.158   0.432  1.00  0.00    -0.218 OA
HETATM   42  O5  UNL     1      -3.757   4.718   0.098  1.00  0.00    -0.215 OA
BRANCH  38  43
HETATM   43  O7  UNL     1      -5.037   0.588   0.783  1.00  0.00    -0.326 OA
BRANCH  43  44
HETATM   44  C37 UNL     1      -5.072  -0.736   1.275  1.00  0.00     0.267 C 
HETATM   45  O8  UNL     1      -3.760  -1.275   1.195  1.00  0.00    -0.326 OA
HETATM   46  C38 UNL     1      -3.621  -2.594   1.707  1.00  0.00     0.184 C 
HETATM   47  C39 UNL     1      -4.509  -3.558   0.887  1.00  0.00     0.215 C 
HETATM   48  C40 UNL     1      -5.979  -3.085   0.865  1.00  0.00     0.217 C 
HETATM   49  O15 UNL     1      -4.430  -4.850   1.465  1.00  0.00    -0.218 OA
HETATM   50  C41 UNL     1      -6.050  -1.601   0.438  1.00  0.00     0.207 C 
HETATM   51  O14 UNL     1      -6.727  -3.881  -0.043  1.00  0.00    -0.218 OA
BRANCH  46  52
HETATM   52  C48 UNL     1      -2.130  -2.943   1.628  1.00  0.00     0.214 C 
HETATM   53  O16 UNL     1      -1.438  -2.128   2.547  1.00  0.00    -0.218 OA
ENDBRANCH  46  52
BRANCH  50  54
HETATM   54  O9  UNL     1      -7.372  -1.122   0.620  1.00  0.00    -0.324 OA
BRANCH  54  55
HETATM   55  C42 UNL     1      -8.178  -1.259  -0.536  1.00  0.00     0.270 C 
HETATM   56  C43 UNL     1      -8.049   0.008  -1.419  1.00  0.00     0.241 C 
HETATM   57  O10 UNL     1      -8.581  -0.290  -2.703  1.00  0.00    -0.215 OA
HETATM   58  C44 UNL     1      -8.788   1.211  -0.784  1.00  0.00     0.220 C 
HETATM   59  O11 UNL     1      -8.788   2.327  -1.662  1.00  0.00    -0.218 OA
HETATM   60  C45 UNL     1     -10.229   0.811  -0.392  1.00  0.00     0.212 C 
HETATM   61  O12 UNL     1     -10.835   1.858   0.348  1.00  0.00    -0.218 OA
HETATM   62  C46 UNL     1     -10.233  -0.471   0.474  1.00  0.00     0.151 C 
HETATM   63  O13 UNL     1      -9.541  -1.518  -0.202  1.00  0.00    -0.329 OA
HETATM   64  C47 UNL     1     -11.644  -0.989   0.762  1.00  0.00     0.035 C 
ENDBRANCH  54  55
ENDBRANCH  50  54
ENDBRANCH  43  44
ENDBRANCH  38  43
ENDBRANCH  34  35
ENDBRANCH   2  34
TORSDOF 7
