REMARK  5 active torsions:
REMARK  status: ('A' for Active; 'I' for Inactive)
REMARK    1  A    between atoms: C4_4  and  C8_8 
REMARK    2  A    between atoms: C8_8  and  C9_9 
REMARK    3  A    between atoms: C9_9  and  C10_10 
REMARK    4  A    between atoms: C11_11  and  C12_12 
REMARK    5  A    between atoms: C11_11  and  C13_14 
ROOT
HETATM    1  C1  UNL     1      -3.175   0.777  -1.069  1.00  0.00     0.002 C 
HETATM    2  C2  UNL     1      -2.383   0.811   0.244  1.00  0.00     0.028 C 
HETATM    3  C3  UNL     1      -2.110  -0.604   0.793  1.00  0.00     0.127 C 
HETATM    4  C4  UNL     1      -1.047  -1.151  -0.206  1.00  0.00     0.026 C 
HETATM    5  C5  UNL     1      -0.906   0.040  -1.178  1.00  0.00     0.002 C 
HETATM    6  C6  UNL     1      -2.141   0.255  -2.064  1.00  0.00     0.000 C 
HETATM    7  C7  UNL     1      -1.011   1.252  -0.258  1.00  0.00     0.003 C 
HETATM    8  C14 UNL     1      -1.506  -2.402  -0.954  1.00  0.00     0.003 C 
HETATM    9  O3  UNL     1      -1.590  -0.488   2.107  1.00  0.00    -0.226 OA
HETATM   10  C15 UNL     1      -3.391  -1.428   0.925  1.00  0.00     0.033 C 
ENDROOT
BRANCH   4  11
HETATM   11  C8  UNL     1       0.346  -1.407   0.384  1.00  0.00     0.007 C 
BRANCH  11  12
HETATM   12  C9  UNL     1       1.144  -0.103   0.392  1.00  0.00     0.026 C 
BRANCH  12  13
HETATM   13  C10 UNL     1       2.631  -0.340   0.403  1.00  0.00    -0.030 C 
HETATM   14  C11 UNL     1       3.449   0.722   0.334  1.00  0.00     0.017 C 
BRANCH  14  15
HETATM   15  C12 UNL     1       4.953   0.661   0.334  1.00  0.00     0.207 C 
HETATM   16  O1  UNL     1       5.369  -0.686   0.334  1.00  0.00    -0.216 OA
ENDBRANCH  14  15
BRANCH  14  17
HETATM   17  C13 UNL     1       2.838   2.095   0.250  1.00  0.00     0.207 C 
HETATM   18  O2  UNL     1       2.297   2.447   1.503  1.00  0.00    -0.216 OA
ENDBRANCH  14  17
ENDBRANCH  12  13
ENDBRANCH  11  12
ENDBRANCH   4  11
TORSDOF 5
