REMARK  10 active torsions:
REMARK  status: ('A' for Active; 'I' for Inactive)
REMARK    1  A    between atoms: C3_3  and  O4_12 
REMARK    2  A    between atoms: C5_5  and  O1_6 
REMARK    3  A    between atoms: O1_6  and  C6_7 
REMARK    4  A    between atoms: O4_12  and  C9_13 
REMARK    5  A    between atoms: C18_24  and  O9_37 
REMARK    6  A    between atoms: C20_26  and  O7_27 
REMARK    7  A    between atoms: O7_27  and  C21_28 
REMARK    8  A    between atoms: C21_28  and  C22_29 
REMARK    9  A    between atoms: O9_37  and  C29_38 
REMARK   10  A    between atoms: C29_38  and  C30_39 
ROOT
HETATM    1  C1  UNL     1      -1.182   1.373   0.148  1.00  0.00     0.100 C 
HETATM    2  C2  UNL     1      -0.557   2.633   0.840  1.00  0.00     0.210 C 
HETATM    3  C3  UNL     1      -1.715   3.246   1.664  1.00  0.00     0.189 C 
HETATM    4  C4  UNL     1      -2.512   2.033   2.148  1.00  0.00     0.180 C 
HETATM    5  C5  UNL     1      -2.572   1.260   0.834  1.00  0.00     0.160 C 
HETATM    6  C8  UNL     1      -1.861   1.252   3.289  1.00  0.00     0.038 C 
HETATM    7  O3  UNL     1      -3.807   2.406   2.580  1.00  0.00    -0.221 OA
HETATM    8  O6  UNL     1       0.402   2.219   1.793  1.00  0.00    -0.216 OA
HETATM    9  C11 UNL     1       0.127   3.645  -0.086  1.00  0.00     0.183 C 
HETATM   10  C12 UNL     1       1.457   3.287  -0.713  1.00  0.00     0.090 C 
HETATM   11  C13 UNL     1       2.672   4.094  -0.242  1.00  0.00     0.150 A 
HETATM   12  C14 UNL     1       3.961   3.377   0.318  1.00  0.00     0.149 A 
HETATM   13  C15 UNL     1       4.119   1.826   0.359  1.00  0.00     0.082 C 
HETATM   14  C16 UNL     1       3.250   1.033   1.336  1.00  0.00     0.185 C 
HETATM   15  C17 UNL     1       2.738  -0.375   1.053  1.00  0.00     0.240 C 
HETATM   16  C18 UNL     1       2.094  -0.779  -0.305  1.00  0.00     0.183 C 
HETATM   17  C19 UNL     1       0.840  -0.062  -0.774  1.00  0.00     0.013 C 
HETATM   18  C20 UNL     1      -0.383   0.029   0.125  1.00  0.00     0.150 C 
HETATM   19  C28 UNL     1       0.795   0.443  -2.022  1.00  0.00    -0.004 C 
HETATM   20  O11 UNL     1       3.820  -1.254   1.299  1.00  0.00    -0.212 OA
HETATM   21  O12 UNL     1       2.979   1.520   2.410  1.00  0.00    -0.293 OA
HETATM   22  C36 UNL     1       5.570   1.604   0.797  1.00  0.00     0.010 C 
HETATM   23  C37 UNL     1       3.996   1.430  -1.113  1.00  0.00     0.010 C 
HETATM   24  O13 UNL     1       2.922   3.869   1.107  1.00  0.00    -0.353 OA
HETATM   25  C38 UNL     1       1.418   3.469  -2.235  1.00  0.00     0.011 C 
HETATM   26  O14 UNL     1      -0.369   4.721  -0.326  1.00  0.00    -0.293 OA
ENDROOT
BRANCH  16  27
HETATM   27  O9  UNL     1       1.725  -2.152  -0.227  1.00  0.00    -0.294 OA
BRANCH  27  28
HETATM   28  C29 UNL     1       1.744  -2.750  -1.416  1.00  0.00     0.296 C 
HETATM   29  O10 UNL     1       1.840  -2.158  -2.465  1.00  0.00    -0.259 OA
BRANCH  28  30
HETATM   30  C30 UNL     1       1.637  -4.240  -1.381  1.00  0.00     0.063 A 
HETATM   31  C31 UNL     1       1.490  -4.906  -0.150  1.00  0.00     0.005 A 
HETATM   32  C32 UNL     1       1.389  -6.309  -0.119  1.00  0.00     0.000 A 
HETATM   33  C33 UNL     1       1.438  -7.045  -1.315  1.00  0.00     0.000 A 
HETATM   34  C34 UNL     1       1.584  -6.379  -2.543  1.00  0.00     0.000 A 
HETATM   35  C35 UNL     1       1.686  -4.979  -2.578  1.00  0.00     0.005 A 
ENDBRANCH  28  30
ENDBRANCH  27  28
ENDBRANCH  16  27
BRANCH  18  36
HETATM   36  O7  UNL     1      -1.225  -1.006  -0.369  1.00  0.00    -0.296 OA
BRANCH  36  37
HETATM   37  C21 UNL     1      -1.025  -2.164   0.254  1.00  0.00     0.296 C 
HETATM   38  O8  UNL     1      -0.297  -2.295   1.211  1.00  0.00    -0.259 OA
BRANCH  37  39
HETATM   39  C22 UNL     1      -1.772  -3.328  -0.311  1.00  0.00     0.063 A 
HETATM   40  C23 UNL     1      -1.730  -4.572   0.344  1.00  0.00     0.005 A 
HETATM   41  C24 UNL     1      -2.434  -5.668  -0.188  1.00  0.00     0.000 A 
HETATM   42  C25 UNL     1      -3.176  -5.522  -1.371  1.00  0.00     0.000 A 
HETATM   43  C26 UNL     1      -3.217  -4.277  -2.026  1.00  0.00     0.000 A 
HETATM   44  C27 UNL     1      -2.516  -3.180  -1.494  1.00  0.00     0.005 A 
ENDBRANCH  37  39
ENDBRANCH  36  37
ENDBRANCH  18  36
BRANCH   5  45
HETATM   45  O1  UNL     1      -2.986  -0.078   1.080  1.00  0.00    -0.301 OA
BRANCH  45  46
HETATM   46  C6  UNL     1      -4.293  -0.246   0.902  1.00  0.00     0.272 C 
HETATM   47  O2  UNL     1      -5.070  -0.486   1.795  1.00  0.00    -0.264 OA
HETATM   48  C7  UNL     1      -4.766  -0.115  -0.522  1.00  0.00     0.106 C 
ENDBRANCH  45  46
ENDBRANCH   5  45
BRANCH   3  49
HETATM   49  O4  UNL     1      -2.543   4.063   0.838  1.00  0.00    -0.299 OA
BRANCH  49  50
HETATM   50  C9  UNL     1      -3.231   4.961   1.537  1.00  0.00     0.273 C 
HETATM   51  O5  UNL     1      -3.109   5.121   2.730  1.00  0.00    -0.264 OA
HETATM   52  C10 UNL     1      -4.199   5.791   0.738  1.00  0.00     0.106 C 
ENDBRANCH  49  50
ENDBRANCH   3  49
TORSDOF 10
