REMARK  5 active torsions:
REMARK  status: ('A' for Active; 'I' for Inactive)
REMARK    1  A    between atoms: C3_3  and  C19_20 
REMARK    2  A    between atoms: C3_3  and  C20_23 
REMARK    3  A    between atoms: C15_15  and  C17_17 
REMARK    4  A    between atoms: C20_23  and  O4_24 
REMARK    5  A    between atoms: O4_24  and  C21_25 
ROOT
HETATM    1  C1  UNL     1      -2.502   2.137  -0.393  1.00  0.00     0.001 C 
HETATM    2  C2  UNL     1      -2.900   0.953   0.498  1.00  0.00     0.013 C 
HETATM    3  C3  UNL     1      -2.295  -0.379   0.016  1.00  0.00     0.106 C 
HETATM    4  C4  UNL     1      -0.752  -0.240  -0.146  1.00  0.00     0.012 C 
HETATM    5  C5  UNL     1      -0.295   0.969  -1.016  1.00  0.00     0.001 C 
HETATM    6  C6  UNL     1      -0.977   2.258  -0.498  1.00  0.00     0.000 C 
HETATM    7  C7  UNL     1       1.272   1.109  -1.035  1.00  0.00     0.000 C 
HETATM    8  C8  UNL     1       2.031  -0.185  -0.633  1.00  0.00     0.000 C 
HETATM    9  C9  UNL     1       1.320  -1.416  -1.199  1.00  0.00     0.000 C 
HETATM   10  C10 UNL     1      -0.076  -1.572  -0.568  1.00  0.00     0.001 C 
HETATM   11  C11 UNL     1       3.467  -0.066  -1.162  1.00  0.00     0.000 C 
HETATM   12  C12 UNL     1       4.061   0.955  -0.193  1.00  0.00     0.003 C 
HETATM   13  C13 UNL     1       3.418   2.336  -0.408  1.00  0.00     0.000 C 
HETATM   14  C14 UNL     1       1.887   2.291  -0.250  1.00  0.00     0.000 C 
HETATM   15  C15 UNL     1       3.670   0.352   1.158  1.00  0.00     0.033 C 
HETATM   16  C16 UNL     1       2.336  -0.355   0.875  1.00  0.00     0.003 C 
HETATM   17  C18 UNL     1      -0.766   0.736  -2.463  1.00  0.00     0.000 C 
ENDROOT
BRANCH   3  18
HETATM   18  C19 UNL     1      -2.973  -0.795  -1.270  1.00  0.00     0.187 C 
HETATM   19  O2  UNL     1      -2.678  -1.828  -1.820  1.00  0.00    -0.647 OA
HETATM   20  O3  UNL     1      -3.891   0.053  -1.725  1.00  0.00    -0.647 OA
ENDBRANCH   3  18
BRANCH   3  21
HETATM   21  C20 UNL     1      -2.617  -1.467   1.047  1.00  0.00     0.162 C 
BRANCH  21  22
HETATM   22  O4  UNL     1      -4.022  -1.539   1.236  1.00  0.00    -0.301 OA
BRANCH  22  23
HETATM   23  C21 UNL     1      -4.365  -2.469   2.123  1.00  0.00     0.272 C 
HETATM   24  O5  UNL     1      -3.572  -3.174   2.703  1.00  0.00    -0.264 OA
HETATM   25  C22 UNL     1      -5.844  -2.600   2.373  1.00  0.00     0.106 C 
ENDBRANCH  22  23
ENDBRANCH  21  22
ENDBRANCH   3  21
BRANCH  15  26
HETATM   26  C17 UNL     1       4.729  -0.650   1.617  1.00  0.00     0.182 C 
HETATM   27  O1  UNL     1       5.873   0.070   2.016  1.00  0.00    -0.221 OA
ENDBRANCH  15  26
TORSDOF 5
