REMARK  3 active torsions:
REMARK  status: ('A' for Active; 'I' for Inactive)
REMARK    1  A    between atoms: C1_1  and  C16_19 
REMARK    2  A    between atoms: C4_4  and  O2_16 
REMARK    3  A    between atoms: C16_19  and  C17_20 
ROOT
HETATM    1  C1  UNL     1       1.731   0.111  -0.635  1.00  0.00     0.004 A 
HETATM    2  C2  UNL     1       2.346  -1.139  -0.863  1.00  0.00     0.129 A 
HETATM    3  C3  UNL     1       1.557  -2.279  -1.117  1.00  0.00     0.051 A 
HETATM    4  C4  UNL     1       0.149  -2.188  -1.139  1.00  0.00     0.096 A 
HETATM    5  C5  UNL     1      -0.500  -0.938  -0.883  1.00  0.00     0.018 A 
HETATM    6  C6  UNL     1      -1.982  -0.783  -0.852  1.00  0.00    -0.002 A 
HETATM    7  C7  UNL     1      -2.869  -1.877  -0.631  1.00  0.00     0.002 A 
HETATM    8  C8  UNL     1      -4.270  -1.686  -0.639  1.00  0.00     0.027 A 
HETATM    9  C9  UNL     1      -4.811  -0.400  -0.850  1.00  0.00     0.131 A 
HETATM   10  C10 UNL     1      -3.949   0.701  -1.043  1.00  0.00     0.023 A 
HETATM   11  C11 UNL     1      -2.543   0.519  -1.037  1.00  0.00    -0.020 A 
HETATM   12  C12 UNL     1      -1.648   1.686  -1.228  1.00  0.00     0.031 C 
HETATM   13  C13 UNL     1      -0.344   1.539  -0.428  1.00  0.00     0.031 C 
HETATM   14  C14 UNL     1       0.311   0.221  -0.654  1.00  0.00    -0.022 A 
HETATM   15  O1  UNL     1      -6.139  -0.223  -0.861  1.00  0.00    -0.190 OA
HETATM   16  O3  UNL     1       3.684  -1.252  -0.842  1.00  0.00    -0.190 OA
ENDROOT
BRANCH   1  17
HETATM   17  C16 UNL     1       2.576   1.291  -0.379  1.00  0.00     0.054 C 
BRANCH  17  18
HETATM   18  C17 UNL     1       2.401   1.730   1.029  1.00  0.00    -0.018 A 
HETATM   19  C18 UNL     1       2.026   3.057   1.311  1.00  0.00    -0.002 A 
HETATM   20  C19 UNL     1       1.859   3.471   2.643  1.00  0.00     0.027 A 
HETATM   21  C20 UNL     1       2.068   2.564   3.697  1.00  0.00     0.131 A 
HETATM   22  C21 UNL     1       2.443   1.240   3.414  1.00  0.00     0.027 A 
HETATM   23  O4  UNL     1       1.912   2.955   4.947  1.00  0.00    -0.190 OA
HETATM   24  C22 UNL     1       2.609   0.822   2.082  1.00  0.00    -0.002 A 
ENDBRANCH  17  18
ENDBRANCH   1  17
BRANCH   4  25
HETATM   25  O2  UNL     1      -0.531  -3.307  -1.432  1.00  0.00    -0.328 OA
HETATM   26  C15 UNL     1       0.168  -4.359  -2.080  1.00  0.00     0.181 C 
ENDBRANCH   4  25
TORSDOF 3
