REMARK  1 active torsions:
REMARK  status: ('A' for Active; 'I' for Inactive)
REMARK    1  A    between atoms: C9_11  and  C10_12 
ROOT
HETATM    1  O1  UNL     1       2.455   2.830   0.342  1.00  0.00    -0.259 OA
HETATM    2  C1  UNL     1       1.721   1.885   0.166  1.00  0.00     0.300 A 
HETATM    3  O2  UNL     1       0.350   1.902   0.070  1.00  0.00    -0.274 OA
HETATM    4  C2  UNL     1      -0.088   0.609  -0.133  1.00  0.00     0.096 A 
HETATM    5  C3  UNL     1       1.086  -0.275  -0.160  1.00  0.00     0.027 A 
HETATM    6  C4  UNL     1       1.207  -1.678  -0.330  1.00  0.00     0.002 A 
HETATM    7  C5  UNL     1       2.506  -2.252  -0.309  1.00  0.00     0.000 A 
HETATM    8  C6  UNL     1       3.649  -1.426  -0.119  1.00  0.00     0.000 A 
HETATM    9  C7  UNL     1       3.493  -0.025   0.049  1.00  0.00     0.005 A 
HETATM   10  C8  UNL     1       2.184   0.510   0.024  1.00  0.00     0.065 A 
HETATM   11  C9  UNL     1      -1.390   0.283  -0.275  1.00  0.00    -0.021 C 
HETATM   12  C12 UNL     1      -1.877  -1.127  -0.496  1.00  0.00     0.028 C 
ENDROOT
BRANCH  11  13
HETATM   13  C10 UNL     1      -2.445   1.359  -0.217  1.00  0.00     0.024 C 
HETATM   14  C11 UNL     1      -3.279   1.291   1.063  1.00  0.00     0.005 C 
ENDBRANCH  11  13
TORSDOF 1
