REMARK  4 active torsions:
REMARK  status: ('A' for Active; 'I' for Inactive)
REMARK    1  A    between atoms: C1_1  and  C2_2 
REMARK    2  A    between atoms: C1_1  and  C6_7 
REMARK    3  A    between atoms: C2_2  and  C3_3 
REMARK    4  A    between atoms: C3_3  and  C4_4 
ROOT
HETATM    1  C6  UNL     1       0.090  -1.842   0.033  1.00  0.00     0.035 A 
HETATM    2  C7  UNL     1      -1.316  -1.895   0.033  1.00  0.00     0.003 A 
HETATM    3  C8  UNL     1      -1.975  -3.137   0.033  1.00  0.00     0.000 A 
HETATM    4  C9  UNL     1      -1.229  -4.328   0.033  1.00  0.00     0.000 A 
HETATM    5  C10 UNL     1       0.176  -4.275   0.033  1.00  0.00     0.000 A 
HETATM    6  C11 UNL     1       0.836  -3.035   0.033  1.00  0.00     0.003 A 
ENDROOT
BRANCH   1   7
HETATM    7  C1  UNL     1       0.789  -0.521   0.033  1.00  0.00     0.173 C 
HETATM    8  O1  UNL     1       1.996  -0.459   0.027  1.00  0.00    -0.291 OA
BRANCH   7   9
HETATM    9  C2  UNL     1      -0.053   0.727   0.039  1.00  0.00     0.069 C 
BRANCH   9  10
HETATM   10  C3  UNL     1       0.797   1.996  -0.019  1.00  0.00     0.008 C 
BRANCH  10  11
HETATM   11  C4  UNL     1      -0.049   3.272  -0.027  1.00  0.00     0.001 C 
HETATM   12  C5  UNL     1       0.801   4.541  -0.086  1.00  0.00     0.000 C 
ENDBRANCH  10  11
ENDBRANCH   9  10
ENDBRANCH   7   9
ENDBRANCH   1   7
TORSDOF 4
