REMARK  7 active torsions:
REMARK  status: ('A' for Active; 'I' for Inactive)
REMARK    1  A    between atoms: C4_4  and  C7_7 
REMARK    2  A    between atoms: C7_7  and  O1_8 
REMARK    3  A    between atoms: O1_8  and  C8_9 
REMARK    4  A    between atoms: C12_13  and  C13_15 
REMARK    5  A    between atoms: C13_15  and  O3_16 
REMARK    6  A    between atoms: O3_16  and  C14_17 
REMARK    7  A    between atoms: C18_21  and  C19_23 
ROOT
HETATM    1  C8  UNL     1      -1.789  -2.221  -0.500  1.00  0.00     0.270 C 
HETATM    2  C9  UNL     1      -1.836  -3.647   0.103  1.00  0.00     0.241 C 
HETATM    3  C10 UNL     1      -2.158  -3.600   1.613  1.00  0.00     0.220 C 
HETATM    4  C11 UNL     1      -1.217  -2.598   2.320  1.00  0.00     0.215 C 
HETATM    5  C12 UNL     1      -1.209  -1.230   1.604  1.00  0.00     0.180 C 
HETATM    6  O2  UNL     1      -0.877  -1.416   0.234  1.00  0.00    -0.326 OA
HETATM    7  O9  UNL     1      -1.641  -2.408   3.660  1.00  0.00    -0.218 OA
HETATM    8  O10 UNL     1      -1.998  -4.891   2.180  1.00  0.00    -0.218 OA
HETATM    9  O11 UNL     1      -2.832  -4.406  -0.564  1.00  0.00    -0.215 OA
ENDROOT
BRANCH   5  10
HETATM   10  C13 UNL     1      -0.172  -0.260   2.180  1.00  0.00     0.177 C 
BRANCH  10  11
HETATM   11  O3  UNL     1      -0.356   0.996   1.568  1.00  0.00    -0.326 OA
BRANCH  11  12
HETATM   12  C14 UNL     1       0.520   1.990   2.064  1.00  0.00     0.270 C 
HETATM   13  C15 UNL     1       0.119   3.385   1.521  1.00  0.00     0.241 C 
HETATM   14  C16 UNL     1       1.156   4.457   1.926  1.00  0.00     0.220 C 
HETATM   15  O8  UNL     1      -1.152   3.744   2.037  1.00  0.00    -0.215 OA
HETATM   16  C17 UNL     1       2.580   3.975   1.568  1.00  0.00     0.215 C 
HETATM   17  O7  UNL     1       0.879   5.676   1.254  1.00  0.00    -0.218 OA
HETATM   18  C18 UNL     1       2.850   2.557   2.117  1.00  0.00     0.184 C 
HETATM   19  O6  UNL     1       3.539   4.863   2.115  1.00  0.00    -0.218 OA
HETATM   20  O4  UNL     1       1.840   1.670   1.650  1.00  0.00    -0.326 OA
BRANCH  18  21
HETATM   21  C19 UNL     1       4.191   1.981   1.654  1.00  0.00     0.214 C 
HETATM   22  O5  UNL     1       4.410   0.768   2.340  1.00  0.00    -0.218 OA
ENDBRANCH  18  21
ENDBRANCH  11  12
ENDBRANCH  10  11
ENDBRANCH   5  10
BRANCH   1  23
HETATM   23  O1  UNL     1      -1.356  -2.266  -1.846  1.00  0.00    -0.324 OA
BRANCH  23  24
HETATM   24  C7  UNL     1      -1.324  -0.998  -2.463  1.00  0.00     0.172 C 
BRANCH  24  25
HETATM   25  C4  UNL     1      -1.072  -1.162  -3.918  1.00  0.00     0.007 A 
HETATM   26  C3  UNL     1      -0.996  -0.031  -4.750  1.00  0.00    -0.002 A 
HETATM   27  C2  UNL     1      -0.758  -0.186  -6.127  1.00  0.00    -0.000 A 
HETATM   28  C1  UNL     1      -0.596  -1.471  -6.672  1.00  0.00    -0.000 A 
HETATM   29  C6  UNL     1      -0.672  -2.602  -5.842  1.00  0.00    -0.000 A 
HETATM   30  C5  UNL     1      -0.910  -2.447  -4.465  1.00  0.00    -0.002 A 
ENDBRANCH  24  25
ENDBRANCH  23  24
ENDBRANCH   1  23
TORSDOF 7
