REMARK  1 active torsions:
REMARK  status: ('A' for Active; 'I' for Inactive)
REMARK    1  A    between atoms: C4_4  and  O2_8 
ROOT
HETATM    1  C1  UNL     1       0.529  -0.693   0.275  1.00  0.00     0.087 A 
HETATM    2  C2  UNL     1       0.377   0.621  -0.244  1.00  0.00     0.107 A 
HETATM    3  C3  UNL     1      -0.920   1.148  -0.447  1.00  0.00     0.049 A 
HETATM    4  C4  UNL     1      -2.059   0.371  -0.137  1.00  0.00     0.098 A 
HETATM    5  C5  UNL     1      -1.904  -0.938   0.381  1.00  0.00     0.052 A 
HETATM    6  C6  UNL     1      -0.613  -1.475   0.588  1.00  0.00     0.138 A 
HETATM    7  O1  UNL     1      -0.486  -2.717   1.080  1.00  0.00    -0.190 OA
HETATM    8  O3  UNL     1       1.463   1.369  -0.541  1.00  0.00    -0.311 OA
HETATM    9  C8  UNL     1       2.730   0.935  -0.375  1.00  0.00     0.081 A 
HETATM   10  C9  UNL     1       2.998  -0.297   0.109  1.00  0.00     0.062 A 
HETATM   11  C10 UNL     1       1.906  -1.223   0.479  1.00  0.00     0.201 A 
HETATM   12  O4  UNL     1       2.224  -2.311   0.904  1.00  0.00    -0.286 OA
HETATM   13  C11 UNL     1       3.887   1.832  -0.728  1.00  0.00     0.058 C 
ENDROOT
BRANCH   4  14
HETATM   14  O2  UNL     1      -3.285   0.873  -0.332  1.00  0.00    -0.328 OA
HETATM   15  C7  UNL     1      -4.401   0.043  -0.045  1.00  0.00     0.181 C 
ENDBRANCH   4  14
TORSDOF 1
