REMARK  3 active torsions:
REMARK  status: ('A' for Active; 'I' for Inactive)
REMARK    1  A    between atoms: C1_1  and  O4_25 
REMARK    2  A    between atoms: C2_2  and  O3_23 
REMARK    3  A    between atoms: C14_15  and  O2_20 
ROOT
HETATM    1  C1  UNL     1      -3.246  -1.297  -0.662  1.00  0.00     0.116 A 
HETATM    2  C2  UNL     1      -2.053  -1.613  -1.356  1.00  0.00     0.116 A 
HETATM    3  C3  UNL     1      -1.020  -0.652  -1.467  1.00  0.00     0.024 A 
HETATM    4  C4  UNL     1      -1.174   0.633  -0.885  1.00  0.00     0.007 A 
HETATM    5  C5  UNL     1      -2.375   0.947  -0.195  1.00  0.00    -0.020 A 
HETATM    6  C6  UNL     1      -3.406  -0.018  -0.084  1.00  0.00     0.022 A 
HETATM    7  C7  UNL     1      -2.518   2.303   0.392  1.00  0.00     0.061 C 
HETATM    8  C8  UNL     1      -1.195   2.904   0.951  1.00  0.00     0.256 C 
HETATM    9  N1  UNL     1       0.045   2.305   0.400  1.00  0.00     0.144 N 
HETATM   10  C9  UNL     1      -0.135   1.707  -0.942  1.00  0.00     0.246 C 
HETATM   11  C10 UNL     1       1.256   1.330  -1.524  1.00  0.00     0.058 C 
HETATM   12  C11 UNL     1       2.082   0.527  -0.584  1.00  0.00    -0.020 A 
HETATM   13  C12 UNL     1       1.830   0.580   0.816  1.00  0.00     0.031 A 
HETATM   14  C13 UNL     1       0.715   1.400   1.363  1.00  0.00     0.279 C 
HETATM   15  C14 UNL     1       2.648  -0.168   1.703  1.00  0.00     0.117 A 
HETATM   16  C15 UNL     1       3.701  -0.969   1.199  1.00  0.00     0.153 A 
HETATM   17  C16 UNL     1       3.938  -1.033  -0.192  1.00  0.00     0.029 A 
HETATM   18  C17 UNL     1       3.131  -0.289  -1.080  1.00  0.00    -0.002 A 
HETATM   19  O1  UNL     1       4.473  -1.672   2.039  1.00  0.00    -0.188 OA
HETATM   20  C19 UNL     1       2.033   2.596  -1.912  1.00  0.00     0.007 C 
ENDROOT
BRANCH   1  21
HETATM   21  O4  UNL     1      -4.225  -2.205  -0.553  1.00  0.00    -0.326 OA
HETATM   22  C21 UNL     1      -5.356  -1.875   0.238  1.00  0.00     0.181 C 
ENDBRANCH   1  21
BRANCH   2  23
HETATM   23  O3  UNL     1      -1.898  -2.824  -1.908  1.00  0.00    -0.326 OA
HETATM   24  C20 UNL     1      -0.643  -3.135  -2.492  1.00  0.00     0.181 C 
ENDBRANCH   2  23
BRANCH  15  25
HETATM   25  O2  UNL     1       2.426  -0.123   3.025  1.00  0.00    -0.326 OA
HETATM   26  C18 UNL     1       2.504  -1.338   3.756  1.00  0.00     0.181 C 
ENDBRANCH  15  25
TORSDOF 3
