REMARK  0 active torsions:
REMARK  status: ('A' for Active; 'I' for Inactive)
ROOT
HETATM    1  C1  UNL     1       1.524  -1.854   0.734  1.00  0.00    -0.006 A 
HETATM    2  C2  UNL     1       0.398  -2.762   0.894  1.00  0.00    -0.009 A 
HETATM    3  C3  UNL     1      -0.605  -2.350   0.109  1.00  0.00    -0.038 A 
HETATM    4  C4  UNL     1      -0.223  -1.100  -0.660  1.00  0.00     0.067 A 
HETATM    5  C5  UNL     1       1.193  -0.881  -0.137  1.00  0.00    -0.011 A 
HETATM    6  C6  UNL     1       2.086   0.287  -0.537  1.00  0.00     0.142 C 
HETATM    7  C7  UNL     1       1.316   1.529  -1.047  1.00  0.00     0.035 C 
HETATM    8  C8  UNL     1       0.301   2.158  -0.061  1.00  0.00     0.010 C 
HETATM    9  C9  UNL     1      -0.668   1.142   0.564  1.00  0.00     0.056 C 
HETATM   10  C10 UNL     1      -1.154   0.119  -0.479  1.00  0.00     0.136 C 
HETATM   11  O1  UNL     1      -2.498  -0.246  -0.133  1.00  0.00    -0.300 OA
HETATM   12  C11 UNL     1      -3.025   0.728   0.611  1.00  0.00     0.292 C 
HETATM   13  C12 UNL     1      -1.990   1.658   1.041  1.00  0.00     0.043 C 
HETATM   14  C13 UNL     1      -2.172   2.789   1.750  1.00  0.00     0.001 C 
HETATM   15  O2  UNL     1      -4.191   0.838   0.906  1.00  0.00    -0.260 OA
HETATM   16  O3  UNL     1       2.858   0.707   0.574  1.00  0.00    -0.222 OA
HETATM   17  C14 UNL     1       3.088  -0.192  -1.592  1.00  0.00     0.037 C 
HETATM   18  C15 UNL     1      -1.941  -3.037  -0.010  1.00  0.00     0.027 C 
ENDROOT
TORSDOF 0
