REMARK  3 active torsions:
REMARK  status: ('A' for Active; 'I' for Inactive)
REMARK    1  A    between atoms: C1_1  and  C13_13 
REMARK    2  A    between atoms: C3_3  and  C10_10 
REMARK    3  A    between atoms: C6_6  and  C8_8 
ROOT
HETATM    1  C1  UNL     1       1.133   0.174  -0.324  1.00  0.00     0.022 C 
HETATM    2  C2  UNL     1      -0.078   1.049   0.055  1.00  0.00     0.004 C 
HETATM    3  C3  UNL     1      -1.361   0.611  -0.670  1.00  0.00     0.000 C 
HETATM    4  C4  UNL     1      -1.643  -0.879  -0.432  1.00  0.00     0.000 C 
HETATM    5  C5  UNL     1      -0.439  -1.752  -0.818  1.00  0.00     0.004 C 
HETATM    6  C6  UNL     1       0.854  -1.334  -0.086  1.00  0.00     0.022 C 
HETATM    7  C7  UNL     1       0.719  -1.633   1.414  1.00  0.00     0.004 C 
ENDROOT
BRANCH   1   8
HETATM    8  C13 UNL     1       2.371   0.652   0.400  1.00  0.00    -0.044 C 
HETATM    9  C14 UNL     1       3.465   0.935  -0.326  1.00  0.00    -0.009 C 
HETATM   10  C15 UNL     1       2.439   0.816   1.895  1.00  0.00     0.026 C 
ENDBRANCH   1   8
BRANCH   6  11
HETATM   11  C8  UNL     1       2.000  -2.166  -0.611  1.00  0.00    -0.026 C 
HETATM   12  C9  UNL     1       2.209  -3.379  -0.074  1.00  0.00    -0.005 C 
ENDBRANCH   6  11
BRANCH   3  13
HETATM   13  C10 UNL     1      -2.555   1.474  -0.252  1.00  0.00     0.000 C 
HETATM   14  C11 UNL     1      -2.289   2.971  -0.416  1.00  0.00     0.000 C 
HETATM   15  C12 UNL     1      -3.861   1.031  -0.910  1.00  0.00     0.000 C 
ENDBRANCH   3  13
TORSDOF 3
