REMARK  4 active torsions:
REMARK  status: ('A' for Active; 'I' for Inactive)
REMARK    1  A    between atoms: C2_2  and  C11_16 
REMARK    2  A    between atoms: C6_6  and  O3_12 
REMARK    3  A    between atoms: C11_16  and  C12_17 
REMARK    4  A    between atoms: C15_20  and  O6_23 
ROOT
HETATM    1  C1  UNL     1       2.386   1.226  -1.748  1.00  0.00     0.157 C 
HETATM    2  C2  UNL     1       1.036   1.421  -1.038  1.00  0.00     0.097 C 
HETATM    3  C3  UNL     1       0.161   0.193  -1.191  1.00  0.00     0.179 C 
HETATM    4  C4  UNL     1       0.871  -1.118  -1.260  1.00  0.00     0.085 A 
HETATM    5  C5  UNL     1       0.142  -2.337  -1.277  1.00  0.00     0.160 A 
HETATM    6  C6  UNL     1       0.834  -3.571  -1.292  1.00  0.00     0.145 A 
HETATM    7  C7  UNL     1       2.249  -3.592  -1.290  1.00  0.00     0.157 A 
HETATM    8  C8  UNL     1       2.975  -2.378  -1.293  1.00  0.00     0.054 A 
HETATM    9  C9  UNL     1       2.293  -1.140  -1.299  1.00  0.00     0.101 A 
HETATM   10  O1  UNL     1       3.009   0.003  -1.341  1.00  0.00    -0.330 OA
HETATM   11  O2  UNL     1       2.905  -4.761  -1.290  1.00  0.00    -0.188 OA
HETATM   12  O4  UNL     1      -1.200  -2.335  -1.269  1.00  0.00    -0.188 OA
HETATM   13  O5  UNL     1      -1.035   0.372  -1.241  1.00  0.00    -0.291 OA
ENDROOT
BRANCH   2  14
HETATM   14  C11 UNL     1       1.226   1.747   0.446  1.00  0.00     0.037 C 
BRANCH  14  15
HETATM   15  C12 UNL     1      -0.063   2.091   1.101  1.00  0.00    -0.019 A 
HETATM   16  C13 UNL     1      -0.717   1.144   1.907  1.00  0.00     0.025 A 
HETATM   17  C14 UNL     1      -1.937   1.464   2.529  1.00  0.00     0.153 A 
HETATM   18  C15 UNL     1      -2.505   2.739   2.343  1.00  0.00     0.119 A 
HETATM   19  O7  UNL     1      -2.545   0.571   3.283  1.00  0.00    -0.188 OA
HETATM   20  C16 UNL     1      -1.849   3.686   1.536  1.00  0.00     0.026 A 
HETATM   21  C17 UNL     1      -0.630   3.364   0.916  1.00  0.00    -0.002 A 
BRANCH  18  22
HETATM   22  O6  UNL     1      -3.648   3.048   2.921  1.00  0.00    -0.326 OA
HETATM   23  C18 UNL     1      -4.119   4.382   2.796  1.00  0.00     0.181 C 
ENDBRANCH  18  22
ENDBRANCH  14  15
ENDBRANCH   2  14
BRANCH   6  24
HETATM   24  O3  UNL     1       0.149  -4.724  -1.304  1.00  0.00    -0.324 OA
HETATM   25  C10 UNL     1       0.642  -5.785  -2.109  1.00  0.00     0.182 C 
ENDBRANCH   6  24
TORSDOF 4
