REMARK  12 active torsions:
REMARK  status: ('A' for Active; 'I' for Inactive)
REMARK    1  A    between atoms: C1_1  and  C15_15 
REMARK    2  A    between atoms: C2_2  and  C3_3 
REMARK    3  A    between atoms: C4_4  and  C5_5 
REMARK    4  A    between atoms: C5_5  and  C6_6 
REMARK    5  A    between atoms: C6_6  and  C7_7 
REMARK    6  A    between atoms: C7_7  and  C8_8 
REMARK    7  A    between atoms: C8_8  and  C9_9 
REMARK    8  A    between atoms: C9_9  and  C10_10 
REMARK    9  A    between atoms: C10_10  and  C11_11 
REMARK   10  A    between atoms: C11_11  and  C12_12 
REMARK   11  A    between atoms: C12_12  and  C13_13 
REMARK   12  A    between atoms: C15_15  and  C16_17 
ROOT
HETATM    1  C5  UNL     1       2.842   0.145  -0.598  1.00  0.00     0.077 C 
ENDROOT
BRANCH   1   2
HETATM    2  C4  UNL     1       3.288   0.260  -1.984  1.00  0.00    -0.078 C 
HETATM    3  C3  UNL     1       3.651   0.354  -3.113  1.00  0.00    -0.014 C 
BRANCH   3   4
HETATM    4  C2  UNL     1       4.072   0.463  -4.423  1.00  0.00    -0.011 C 
HETATM    5  C1  UNL     1       4.435   0.557  -5.552  1.00  0.00    -0.041 C 
BRANCH   5   6
HETATM    6  C15 UNL     1       4.881   0.672  -6.938  1.00  0.00     0.238 C 
HETATM    7  O1  UNL     1       4.473  -0.468  -7.659  1.00  0.00    -0.204 OA
BRANCH   6   8
HETATM    8  C16 UNL     1       6.384   0.755  -6.938  1.00  0.00     0.019 C 
HETATM    9  C17 UNL     1       6.959   1.969  -6.938  1.00  0.00    -0.001 C 
ENDBRANCH   6   8
ENDBRANCH   5   6
ENDBRANCH   3   4
ENDBRANCH   1   2
BRANCH   1  10
HETATM   10  C6  UNL     1       1.317   0.057  -0.532  1.00  0.00     0.014 C 
BRANCH  10  11
HETATM   11  C7  UNL     1       0.795  -0.065   0.900  1.00  0.00     0.001 C 
BRANCH  11  12
HETATM   12  C8  UNL     1      -0.730  -0.154   0.967  1.00  0.00     0.000 C 
BRANCH  12  13
HETATM   13  C9  UNL     1      -1.252  -0.276   2.398  1.00  0.00     0.000 C 
BRANCH  13  14
HETATM   14  C10 UNL     1      -2.777  -0.364   2.465  1.00  0.00     0.000 C 
BRANCH  14  15
HETATM   15  C11 UNL     1      -3.299  -0.487   3.897  1.00  0.00     0.000 C 
BRANCH  15  16
HETATM   16  C12 UNL     1      -4.824  -0.575   3.963  1.00  0.00     0.000 C 
BRANCH  16  17
HETATM   17  C13 UNL     1      -5.346  -0.697   5.395  1.00  0.00     0.000 C 
HETATM   18  C14 UNL     1      -6.871  -0.785   5.462  1.00  0.00     0.000 C 
ENDBRANCH  16  17
ENDBRANCH  15  16
ENDBRANCH  14  15
ENDBRANCH  13  14
ENDBRANCH  12  13
ENDBRANCH  11  12
ENDBRANCH  10  11
ENDBRANCH   1  10
TORSDOF 12
