REMARK  0 active torsions:
REMARK  status: ('A' for Active; 'I' for Inactive)
ROOT
HETATM    1  C1  UNL     1      -2.998  -1.195  -0.396  1.00  0.00     0.026 C 
HETATM    2  C2  UNL     1      -2.914   0.297  -0.043  1.00  0.00     0.005 C 
HETATM    3  C3  UNL     1      -1.506   0.856  -0.291  1.00  0.00     0.004 C 
HETATM    4  C4  UNL     1      -0.471   0.057   0.549  1.00  0.00     0.026 C 
HETATM    5  C5  UNL     1      -0.594  -1.449   0.334  1.00  0.00     0.010 C 
HETATM    6  C6  UNL     1      -1.766  -2.004  -0.055  1.00  0.00    -0.028 C 
HETATM    7  C7  UNL     1       0.619  -2.279   0.549  1.00  0.00     0.198 C 
HETATM    8  C8  UNL     1       1.965  -1.582   0.535  1.00  0.00     0.206 C 
HETATM    9  C9  UNL     1       1.908  -0.266   1.309  1.00  0.00     0.189 C 
HETATM   10  C10 UNL     1       1.006   0.520   0.316  1.00  0.00     0.062 C 
HETATM   11  C11 UNL     1       1.647   0.096  -1.045  1.00  0.00     0.096 C 
HETATM   12  O1  UNL     1       2.238  -1.162  -0.785  1.00  0.00    -0.351 OA
HETATM   13  C12 UNL     1       2.781   1.053  -1.402  1.00  0.00     0.030 C 
HETATM   14  C13 UNL     1       0.738  -0.092  -2.252  1.00  0.00     0.030 C 
HETATM   15  O2  UNL     1       3.191   0.326   1.457  1.00  0.00    -0.220 OA
HETATM   16  O3  UNL     1       0.543  -3.475   0.725  1.00  0.00    -0.289 OA
HETATM   17  C14 UNL     1      -0.781   0.332   2.033  1.00  0.00     0.005 C 
HETATM   18  C15 UNL     1      -1.455   2.361  -0.004  1.00  0.00     0.000 C 
ENDROOT
TORSDOF 0
