REMARK  5 active torsions:
REMARK  status: ('A' for Active; 'I' for Inactive)
REMARK    1  A    between atoms: C4_4  and  C8_9 
REMARK    2  A    between atoms: C5_5  and  O1_7 
REMARK    3  A    between atoms: C8_9  and  C9_10 
REMARK    4  A    between atoms: C8_9  and  O4_16 
REMARK    5  A    between atoms: C9_10  and  C10_11 
ROOT
HETATM    1  C1  UNL     1      -2.322   1.643  -0.232  1.00  0.00     0.105 A 
HETATM    2  C2  UNL     1      -2.389   0.313  -0.728  1.00  0.00     0.023 A 
HETATM    3  C3  UNL     1      -1.207  -0.443  -0.924  1.00  0.00     0.002 A 
HETATM    4  C4  UNL     1       0.049   0.133  -0.619  1.00  0.00     0.030 A 
HETATM    5  C5  UNL     1       0.121   1.459  -0.123  1.00  0.00     0.094 A 
HETATM    6  C6  UNL     1      -1.063   2.211   0.068  1.00  0.00     0.049 A 
HETATM    7  C14 UNL     1      -3.721  -0.266  -1.037  1.00  0.00     0.007 A 
HETATM    8  C15 UNL     1      -4.819   0.490  -0.836  1.00  0.00     0.069 A 
HETATM    9  C16 UNL     1      -4.684   1.871  -0.318  1.00  0.00     0.300 A 
HETATM   10  O5  UNL     1      -3.453   2.359  -0.049  1.00  0.00    -0.273 OA
HETATM   11  O6  UNL     1      -5.688   2.523  -0.150  1.00  0.00    -0.259 OA
ENDROOT
BRANCH   4  12
HETATM   12  C8  UNL     1       1.279  -0.652  -0.820  1.00  0.00     0.172 C 
BRANCH  12  13
HETATM   13  C9  UNL     1       2.016  -0.895   0.496  1.00  0.00     0.211 C 
HETATM   14  O3  UNL     1       3.240  -1.531   0.207  1.00  0.00    -0.218 OA
BRANCH  13  15
HETATM   15  C10 UNL     1       1.228  -1.785   1.459  1.00  0.00     0.158 C 
HETATM   16  C11 UNL     1       0.603  -2.996   0.766  1.00  0.00     0.036 C 
HETATM   17  C12 UNL     1       2.033  -2.166   2.701  1.00  0.00     0.036 C 
HETATM   18  O2  UNL     1       0.187  -0.918   1.856  1.00  0.00    -0.223 OA
ENDBRANCH  13  15
ENDBRANCH  12  13
BRANCH  12  19
HETATM   19  O4  UNL     1       2.144   0.043  -1.689  1.00  0.00    -0.347 OA
HETATM   20  C13 UNL     1       1.625   0.188  -2.992  1.00  0.00     0.175 C 
ENDBRANCH  12  19
ENDBRANCH   4  12
BRANCH   5  21
HETATM   21  O1  UNL     1       1.309   2.010   0.168  1.00  0.00    -0.328 OA
HETATM   22  C7  UNL     1       1.322   3.342   0.660  1.00  0.00     0.181 C 
ENDBRANCH   5  21
TORSDOF 5
