REMARK  2 active torsions:
REMARK  status: ('A' for Active; 'I' for Inactive)
REMARK    1  A    between atoms: C5_6  and  C6_7 
REMARK    2  A    between atoms: C6_7  and  C7_8 
ROOT
HETATM    1  C1  UNL     1      -4.147  -0.055   0.305  1.00  0.00     0.050 C 
HETATM    2  C2  UNL     1      -3.735   1.393   0.334  1.00  0.00    -0.027 C 
HETATM    3  C3  UNL     1      -2.572   1.701   0.932  1.00  0.00    -0.009 C 
HETATM    4  C4  UNL     1      -1.734   0.602   1.557  1.00  0.00     0.109 C 
HETATM    5  N1  UNL     1      -1.707  -0.596   0.674  1.00  0.00    -0.365 N 
HETATM    6  C5  UNL     1      -2.959  -0.986  -0.022  1.00  0.00     0.112 C 
HETATM    7  C9  UNL     1      -0.809  -1.707   1.049  1.00  0.00     0.099 C 
HETATM    8  C10 UNL     1       0.453  -1.729   0.162  1.00  0.00     0.050 C 
HETATM    9  C11 UNL     1       1.766  -1.801   0.965  1.00  0.00     0.122 C 
HETATM   10  N2  UNL     1       2.879  -1.309   0.156  1.00  0.00    -0.295 NA
HETATM   11  C12 UNL     1       4.084  -0.941   0.902  1.00  0.00     0.120 C 
HETATM   12  C13 UNL     1       4.879   0.139   0.148  1.00  0.00     0.028 C 
HETATM   13  C14 UNL     1       4.383   1.588   0.346  1.00  0.00     0.029 C 
HETATM   14  C15 UNL     1       2.918   1.867  -0.063  1.00  0.00     0.129 C 
HETATM   15  N3  UNL     1       1.949   1.539   1.012  1.00  0.00    -0.238 NA
HETATM   16  C16 UNL     1       0.594   1.494   0.785  1.00  0.00     0.254 C 
HETATM   17  C17 UNL     1      -0.326   1.125   1.935  1.00  0.00     0.116 C 
HETATM   18  O2  UNL     1       0.148   1.738  -0.313  1.00  0.00    -0.271 OA
ENDROOT
BRANCH   6  19
HETATM   19  C6  UNL     1      -2.678  -1.029  -1.526  1.00  0.00     0.172 C 
HETATM   20  O1  UNL     1      -3.777  -1.637  -2.164  1.00  0.00    -0.222 OA
BRANCH  19  21
HETATM   21  C7  UNL     1      -2.483   0.363  -2.129  1.00  0.00     0.035 C 
HETATM   22  C8  UNL     1      -1.900   0.316  -3.543  1.00  0.00     0.003 C 
ENDBRANCH  19  21
ENDBRANCH   6  19
TORSDOF 2
