REMARK  3 active torsions:
REMARK  status: ('A' for Active; 'I' for Inactive)
REMARK    1  A    between atoms: C5_6  and  C6_7 
REMARK    2  A    between atoms: C6_7  and  O2_9 
REMARK    3  A    between atoms: O2_9  and  C7_10 
ROOT
HETATM    1  C1  UNL     1      -2.031   0.695  -0.088  1.00  0.00    -0.021 C 
HETATM    2  C2  UNL     1      -2.057   2.207  -0.096  1.00  0.00     0.061 C 
HETATM    3  C3  UNL     1      -0.670   2.832  -0.309  1.00  0.00     0.255 C 
HETATM    4  N1  UNL     1       0.315   2.150   0.535  1.00  0.00     0.144 N 
HETATM    5  C4  UNL     1       0.455   0.732   0.178  1.00  0.00     0.282 C 
HETATM    6  C5  UNL     1      -0.877   0.010   0.055  1.00  0.00     0.070 C 
HETATM    7  C9  UNL     1       1.602   2.834   0.525  1.00  0.00     0.286 C 
ENDROOT
BRANCH   6   8
HETATM    8  C6  UNL     1      -0.879  -1.461   0.090  1.00  0.00     0.293 C 
HETATM    9  O1  UNL     1      -1.908  -2.067   0.277  1.00  0.00    -0.259 OA
BRANCH   8  10
HETATM   10  O2  UNL     1       0.303  -2.043  -0.094  1.00  0.00    -0.299 OA
BRANCH  10  11
HETATM   11  C7  UNL     1       0.219  -3.461  -0.045  1.00  0.00     0.152 C 
HETATM   12  C8  UNL     1       1.608  -4.061  -0.264  1.00  0.00     0.035 C 
ENDBRANCH  10  11
ENDBRANCH   8  10
ENDBRANCH   6   8
TORSDOF 3
