REMARK WARNING: 32 MAX_TORS EXCEEDED!!!
REMARK  39 active torsions:
REMARK  status: ('A' for Active; 'I' for Inactive)
REMARK       I    between atoms: N1_1  and  C1_2 
REMARK    1  A    between atoms: N1_1  and  C25_28 
REMARK    2  A    between atoms: C1_2  and  C2_3 
REMARK    3  A    between atoms: C2_3  and  C3_5 
REMARK    4  A    between atoms: C3_5  and  C4_6 
REMARK    5  A    between atoms: C4_6  and  C5_7 
REMARK    6  A    between atoms: C5_7  and  C6_8 
REMARK    7  A    between atoms: C6_8  and  C7_9 
REMARK    8  A    between atoms: C7_9  and  C8_10 
REMARK    9  A    between atoms: C8_10  and  C9_11 
REMARK   10  A    between atoms: C9_11  and  C10_12 
REMARK   11  A    between atoms: C10_12  and  C11_13 
REMARK   12  A    between atoms: C11_13  and  C12_14 
REMARK   13  A    between atoms: C12_14  and  C13_15 
REMARK   14  A    between atoms: C13_15  and  C14_16 
REMARK   15  A    between atoms: C14_16  and  C15_17 
REMARK   16  A    between atoms: C15_17  and  C16_18 
REMARK   17  A    between atoms: C16_18  and  C17_19 
REMARK   18  A    between atoms: C17_19  and  C18_20 
REMARK   19  A    between atoms: C18_20  and  C19_21 
REMARK   20  A    between atoms: C19_21  and  C20_22 
REMARK   21  A    between atoms: C20_22  and  C21_23 
REMARK   22  A    between atoms: C21_23  and  C22_24 
REMARK   23  A    between atoms: C22_24  and  C23_25 
REMARK   24  A    between atoms: C25_28  and  C26_29 
REMARK   25  A    between atoms: C25_28  and  C42_47 
REMARK   26  A    between atoms: C26_29  and  C27_30 
REMARK   27  A    between atoms: C27_30  and  C28_32 
REMARK   28  A    between atoms: C28_32  and  C29_33 
REMARK   29  A    between atoms: C29_33  and  C30_34 
REMARK   30  A    between atoms: C30_34  and  C31_35 
REMARK   31  A    between atoms: C31_35  and  C32_36 
REMARK   32  A    between atoms: C32_36  and  C33_37 
REMARK   33  A    between atoms: C33_37  and  C34_38 
REMARK   34  A    between atoms: C34_38  and  C35_39 
REMARK   35  A    between atoms: C35_39  and  C36_40 
REMARK   36  A    between atoms: C36_40  and  C37_41 
REMARK   37  A    between atoms: C37_41  and  C38_42 
REMARK   38  A    between atoms: C38_42  and  C39_43 
REMARK   39  A    between atoms: C39_43  and  C40_44 
ROOT
HETATM    1  N1  UNL     1       5.572   3.107  -1.594  1.00  0.00    -0.233 NA
HETATM    2  C1  UNL     1       4.900   1.918  -1.594  1.00  0.00     0.282 C 
HETATM    3  O2  UNL     1       5.510   0.873  -1.594  1.00  0.00    -0.268 OA
ENDROOT
BRANCH   2   4
HETATM    4  C2  UNL     1       3.397   1.938  -1.594  1.00  0.00     0.232 C 
HETATM    5  O1  UNL     1       2.930   2.207  -0.291  1.00  0.00    -0.213 OA
BRANCH   4   6
HETATM    6  C3  UNL     1       2.797   0.605  -2.051  1.00  0.00     0.043 C 
BRANCH   6   7
HETATM    7  C4  UNL     1       1.283   0.682  -2.258  1.00  0.00     0.003 C 
BRANCH   7   8
HETATM    8  C5  UNL     1       0.688  -0.639  -2.746  1.00  0.00     0.000 C 
BRANCH   8   9
HETATM    9  C6  UNL     1      -0.826  -0.564  -2.951  1.00  0.00     0.000 C 
BRANCH   9  10
HETATM   10  C7  UNL     1      -1.420  -1.887  -3.439  1.00  0.00     0.000 C 
BRANCH  10  11
HETATM   11  C8  UNL     1      -2.934  -1.813  -3.645  1.00  0.00     0.000 C 
BRANCH  11  12
HETATM   12  C9  UNL     1      -3.529  -3.133  -4.133  1.00  0.00     0.000 C 
BRANCH  12  13
HETATM   13  C10 UNL     1      -5.043  -3.059  -4.336  1.00  0.00     0.000 C 
BRANCH  13  14
HETATM   14  C11 UNL     1      -5.637  -4.379  -4.826  1.00  0.00     0.000 C 
BRANCH  14  15
HETATM   15  C12 UNL     1      -7.150  -4.305  -5.029  1.00  0.00     0.000 C 
BRANCH  15  16
HETATM   16  C13 UNL     1      -7.746  -5.625  -5.520  1.00  0.00     0.000 C 
BRANCH  16  17
HETATM   17  C14 UNL     1      -9.260  -5.551  -5.723  1.00  0.00     0.000 C 
BRANCH  17  18
HETATM   18  C15 UNL     1      -9.854  -6.873  -6.213  1.00  0.00     0.000 C 
BRANCH  18  19
HETATM   19  C16 UNL     1     -11.367  -6.799  -6.416  1.00  0.00     0.000 C 
BRANCH  19  20
HETATM   20  C17 UNL     1     -11.963  -8.119  -6.906  1.00  0.00     0.000 C 
BRANCH  20  21
HETATM   21  C18 UNL     1     -13.477  -8.045  -7.109  1.00  0.00     0.000 C 
BRANCH  21  22
HETATM   22  C19 UNL     1     -14.071  -9.365  -7.600  1.00  0.00     0.000 C 
BRANCH  22  23
HETATM   23  C20 UNL     1     -15.584  -9.291  -7.803  1.00  0.00     0.000 C 
BRANCH  23  24
HETATM   24  C21 UNL     1     -16.180 -10.611  -8.293  1.00  0.00     0.000 C 
BRANCH  24  25
HETATM   25  C22 UNL     1     -17.694 -10.537  -8.496  1.00  0.00     0.000 C 
BRANCH  25  26
HETATM   26  C23 UNL     1     -18.287 -11.858  -8.986  1.00  0.00     0.000 C 
HETATM   27  C24 UNL     1     -19.801 -11.783  -9.190  1.00  0.00     0.000 C 
ENDBRANCH  25  26
ENDBRANCH  24  25
ENDBRANCH  23  24
ENDBRANCH  22  23
ENDBRANCH  21  22
ENDBRANCH  20  21
ENDBRANCH  19  20
ENDBRANCH  18  19
ENDBRANCH  17  18
ENDBRANCH  16  17
ENDBRANCH  15  16
ENDBRANCH  14  15
ENDBRANCH  13  14
ENDBRANCH  12  13
ENDBRANCH  11  12
ENDBRANCH  10  11
ENDBRANCH   9  10
ENDBRANCH   8   9
ENDBRANCH   7   8
ENDBRANCH   6   7
ENDBRANCH   4   6
ENDBRANCH   2   4
BRANCH   1  28
HETATM   28  C25 UNL     1       7.041   3.107  -1.594  1.00  0.00     0.172 C 
BRANCH  28  29
HETATM   29  C26 UNL     1       7.590   4.254  -0.744  1.00  0.00     0.207 C 
HETATM   30  O4  UNL     1       8.961   4.404  -1.037  1.00  0.00    -0.218 OA
BRANCH  29  31
HETATM   31  C27 UNL     1       7.447   3.996   0.756  1.00  0.00     0.184 C 
HETATM   32  O3  UNL     1       6.074   4.004   1.078  1.00  0.00    -0.221 OA
BRANCH  31  33
HETATM   33  C28 UNL     1       8.145   5.059   1.607  1.00  0.00     0.036 C 
BRANCH  33  34
HETATM   34  C29 UNL     1       8.055   4.766   3.106  1.00  0.00     0.003 C 
BRANCH  34  35
HETATM   35  C30 UNL     1       8.803   5.795   3.953  1.00  0.00     0.000 C 
BRANCH  35  36
HETATM   36  C31 UNL     1       8.711   5.506   5.451  1.00  0.00     0.000 C 
BRANCH  36  37
HETATM   37  C32 UNL     1       9.459   6.533   6.299  1.00  0.00     0.000 C 
BRANCH  37  38
HETATM   38  C33 UNL     1       9.369   6.244   7.797  1.00  0.00     0.000 C 
BRANCH  38  39
HETATM   39  C34 UNL     1      10.117   7.274   8.645  1.00  0.00     0.000 C 
BRANCH  39  40
HETATM   40  C35 UNL     1      10.026   6.983  10.143  1.00  0.00     0.000 C 
BRANCH  40  41
HETATM   41  C36 UNL     1      10.774   8.012  10.990  1.00  0.00     0.000 C 
BRANCH  41  42
HETATM   42  C37 UNL     1      10.682   7.721  12.488  1.00  0.00     0.000 C 
BRANCH  42  43
HETATM   43  C38 UNL     1      11.432   8.750  13.336  1.00  0.00     0.000 C 
BRANCH  43  44
HETATM   44  C39 UNL     1      11.340   8.461  14.834  1.00  0.00     0.000 C 
BRANCH  44  45
HETATM   45  C40 UNL     1      12.088   9.488  15.682  1.00  0.00     0.000 C 
HETATM   46  C41 UNL     1      11.996   9.199  17.180  1.00  0.00     0.000 C 
ENDBRANCH  44  45
ENDBRANCH  43  44
ENDBRANCH  42  43
ENDBRANCH  41  42
ENDBRANCH  40  41
ENDBRANCH  39  40
ENDBRANCH  38  39
ENDBRANCH  37  38
ENDBRANCH  36  37
ENDBRANCH  35  36
ENDBRANCH  34  35
ENDBRANCH  33  34
ENDBRANCH  31  33
ENDBRANCH  29  31
ENDBRANCH  28  29
BRANCH  28  47
HETATM   47  C42 UNL     1       7.590   3.119  -3.022  1.00  0.00     0.209 C 
HETATM   48  O5  UNL     1       7.119   1.967  -3.684  1.00  0.00    -0.218 OA
ENDBRANCH  28  47
ENDBRANCH   1  28
TORSDOF 39
