REMARK  6 active torsions:
REMARK  status: ('A' for Active; 'I' for Inactive)
REMARK    1  A    between atoms: C1_1  and  O11_27 
REMARK    2  A    between atoms: C7_10  and  O4_14 
REMARK    3  A    between atoms: C8_11  and  C9_12 
REMARK    4  A    between atoms: O4_14  and  O5_15 
REMARK    5  A    between atoms: O5_15  and  C11_16 
REMARK    6  A    between atoms: C15_20  and  C16_21 
ROOT
HETATM    1  C1  UNL     1       4.617  -0.574   1.186  1.00  0.00     0.243 C 
HETATM    2  C2  UNL     1       3.559  -1.330   0.359  1.00  0.00     0.067 C 
HETATM    3  C3  UNL     1       2.117  -0.814   0.570  1.00  0.00     0.044 C 
HETATM    4  C4  UNL     1       2.068   0.514   1.295  1.00  0.00     0.066 C 
HETATM    5  C5  UNL     1       3.264   1.385   1.219  1.00  0.00     0.296 C 
HETATM    6  O1  UNL     1       4.480   0.844   1.023  1.00  0.00    -0.273 OA
HETATM    7  O2  UNL     1       3.119   2.580   1.330  1.00  0.00    -0.259 OA
HETATM    8  C6  UNL     1       0.961   0.856   1.994  1.00  0.00     0.120 C 
HETATM    9  O3  UNL     1      -0.125   0.072   2.156  1.00  0.00    -0.301 OA
HETATM   10  C7  UNL     1      -0.227  -1.152   1.414  1.00  0.00     0.278 C 
HETATM   11  C8  UNL     1       1.154  -1.822   1.232  1.00  0.00     0.086 C 
ENDROOT
BRANCH  10  12
HETATM   12  O4  UNL     1      -0.820  -0.902   0.154  1.00  0.00    -0.189 OA
BRANCH  12  13
HETATM   13  O5  UNL     1      -2.135  -0.353   0.383  1.00  0.00    -0.187 OA
BRANCH  13  14
HETATM   14  C11 UNL     1      -2.727  -0.103  -0.877  1.00  0.00     0.303 C 
HETATM   15  C12 UNL     1      -4.229   0.242  -0.709  1.00  0.00     0.244 C 
HETATM   16  C13 UNL     1      -4.854   0.670  -2.057  1.00  0.00     0.220 C 
HETATM   17  O10 UNL     1      -4.920  -0.893  -0.211  1.00  0.00    -0.215 OA
HETATM   18  C14 UNL     1      -3.981   1.758  -2.719  1.00  0.00     0.215 C 
HETATM   19  O9  UNL     1      -6.164   1.170  -1.842  1.00  0.00    -0.218 OA
HETATM   20  C15 UNL     1      -2.498   1.326  -2.787  1.00  0.00     0.184 C 
HETATM   21  O8  UNL     1      -4.442   2.008  -4.037  1.00  0.00    -0.218 OA
HETATM   22  O7  UNL     1      -2.047   0.986  -1.484  1.00  0.00    -0.324 OA
BRANCH  20  23
HETATM   23  C16 UNL     1      -1.576   2.438  -3.297  1.00  0.00     0.214 C 
HETATM   24  O6  UNL     1      -0.287   1.893  -3.479  1.00  0.00    -0.218 OA
ENDBRANCH  20  23
ENDBRANCH  13  14
ENDBRANCH  12  13
ENDBRANCH  10  12
BRANCH  11  25
HETATM   25  C9  UNL     1       1.668  -2.332   2.559  1.00  0.00    -0.021 C 
HETATM   26  C10 UNL     1       1.932  -3.643   2.682  1.00  0.00    -0.005 C 
ENDBRANCH  11  25
BRANCH   1  27
HETATM   27  O11 UNL     1       4.531  -0.943   2.549  1.00  0.00    -0.328 OA
HETATM   28  C17 UNL     1       5.522  -0.340   3.352  1.00  0.00     0.177 C 
ENDBRANCH   1  27
TORSDOF 6
