REMARK  8 active torsions:
REMARK  status: ('A' for Active; 'I' for Inactive)
REMARK    1  A    between atoms: C1_1  and  O9_30 
REMARK    2  A    between atoms: C2_2  and  O8_28 
REMARK    3  A    between atoms: C3_3  and  O7_26 
REMARK    4  A    between atoms: C6_6  and  O1_7 
REMARK    5  A    between atoms: C8_10  and  C12_16 
REMARK    6  A    between atoms: C9_11  and  O4_14 
REMARK    7  A    between atoms: C15_19  and  O6_24 
REMARK    8  A    between atoms: C16_20  and  O5_22 
ROOT
HETATM    1  C1  UNL     1      -3.902  -0.359   0.158  1.00  0.00     0.142 A 
HETATM    2  C2  UNL     1      -3.746  -1.664   0.687  1.00  0.00     0.141 A 
HETATM    3  C3  UNL     1      -2.451  -2.201   0.881  1.00  0.00     0.123 A 
HETATM    4  C4  UNL     1      -1.311  -1.428   0.541  1.00  0.00     0.090 A 
HETATM    5  C5  UNL     1      -1.467  -0.121   0.012  1.00  0.00     0.129 A 
HETATM    6  C6  UNL     1      -2.764   0.412  -0.180  1.00  0.00     0.141 A 
HETATM    7  O2  UNL     1      -0.381   0.615  -0.309  1.00  0.00    -0.303 OA
HETATM    8  C8  UNL     1       0.889   0.186  -0.156  1.00  0.00     0.125 A 
HETATM    9  C9  UNL     1       1.170  -1.045   0.338  1.00  0.00     0.156 A 
HETATM   10  C10 UNL     1       0.068  -1.957   0.728  1.00  0.00     0.224 A 
HETATM   11  O3  UNL     1       0.379  -3.043   1.162  1.00  0.00    -0.284 OA
ENDROOT
BRANCH   8  12
HETATM   12  C12 UNL     1       2.012   1.096  -0.547  1.00  0.00     0.027 A 
HETATM   13  C13 UNL     1       1.871   1.955  -1.650  1.00  0.00     0.004 A 
HETATM   14  C14 UNL     1       2.928   2.809  -2.012  1.00  0.00     0.026 A 
HETATM   15  C15 UNL     1       4.125   2.807  -1.275  1.00  0.00     0.116 A 
HETATM   16  C16 UNL     1       4.266   1.945  -0.172  1.00  0.00     0.116 A 
HETATM   17  C17 UNL     1       3.209   1.092   0.191  1.00  0.00     0.028 A 
BRANCH  15  18
HETATM   18  O6  UNL     1       5.111   3.609  -1.623  1.00  0.00    -0.326 OA
HETATM   19  C19 UNL     1       4.916   4.457  -2.746  1.00  0.00     0.181 C 
ENDBRANCH  15  18
BRANCH  16  20
HETATM   20  O5  UNL     1       5.385   1.937   0.523  1.00  0.00    -0.326 OA
HETATM   21  C18 UNL     1       5.477   1.051   1.629  1.00  0.00     0.181 C 
ENDBRANCH  16  20
ENDBRANCH   8  12
BRANCH   9  22
HETATM   22  O4  UNL     1       2.430  -1.461   0.484  1.00  0.00    -0.323 OA
HETATM   23  C11 UNL     1       2.924  -2.106  -0.682  1.00  0.00     0.182 C 
ENDBRANCH   9  22
BRANCH   6  24
HETATM   24  O1  UNL     1      -2.912   1.646  -0.682  1.00  0.00    -0.324 OA
HETATM   25  C7  UNL     1      -1.742   2.363  -1.045  1.00  0.00     0.182 C 
ENDBRANCH   6  24
BRANCH   3  26
HETATM   26  O7  UNL     1      -2.315  -3.438   1.383  1.00  0.00    -0.326 OA
HETATM   27  C20 UNL     1      -2.785  -3.676   2.703  1.00  0.00     0.181 C 
ENDBRANCH   3  26
BRANCH   1  28
HETATM   28  O9  UNL     1      -5.129   0.146  -0.025  1.00  0.00    -0.324 OA
HETATM   29  C22 UNL     1      -6.070   0.010   1.029  1.00  0.00     0.182 C 
ENDBRANCH   1  28
BRANCH   2  30
HETATM   30  O8  UNL     1      -4.826  -2.391   1.006  1.00  0.00    -0.324 OA
HETATM   31  C21 UNL     1      -5.104  -3.549   0.232  1.00  0.00     0.182 C 
ENDBRANCH   2  30
TORSDOF 8
