REMARK  3 active torsions:
REMARK  status: ('A' for Active; 'I' for Inactive)
REMARK    1  A    between atoms: C1_1  and  C2_2 
REMARK    2  A    between atoms: C1_1  and  C6_7 
REMARK    3  A    between atoms: C6_7  and  C8_9 
ROOT
HETATM    1  C1  UNL     1      -1.173   0.483  -0.315  1.00  0.00     0.175 C 
HETATM    2  O1  UNL     1      -1.866   1.072  -1.112  1.00  0.00    -0.291 OA
ENDROOT
BRANCH   1   3
HETATM    3  C2  UNL     1      -0.629   1.183   0.855  1.00  0.00     0.029 C 
HETATM    4  C3  UNL     1       0.554   1.815   0.787  1.00  0.00    -0.041 C 
HETATM    5  C4  UNL     1       1.065   2.516   2.017  1.00  0.00     0.026 C 
HETATM    6  C5  UNL     1       1.308   1.789  -0.516  1.00  0.00     0.026 C 
ENDBRANCH   1   3
BRANCH   1   7
HETATM    7  C6  UNL     1      -0.848  -0.975  -0.499  1.00  0.00     0.074 C 
HETATM    8  C7  UNL     1      -2.089  -1.864  -0.412  1.00  0.00     0.012 C 
HETATM    9  C10 UNL     1      -0.138  -1.572   0.717  1.00  0.00     0.012 C 
BRANCH   7  10
HETATM   10  C8  UNL     1      -0.078  -1.187  -1.775  1.00  0.00    -0.019 C 
HETATM   11  C9  UNL     1       1.165  -1.689  -1.697  1.00  0.00    -0.004 C 
ENDBRANCH   7  10
ENDBRANCH   1   7
TORSDOF 3
