REMARK  1 active torsions:
REMARK  status: ('A' for Active; 'I' for Inactive)
REMARK    1  A    between atoms: C4_4  and  C9_10 
ROOT
HETATM    1  C1  UNL     1       0.592  -1.256  -0.535  1.00  0.00     0.035 C 
HETATM    2  C2  UNL     1       0.963  -0.260   0.574  1.00  0.00     0.052 C 
HETATM    3  C3  UNL     1       0.211   1.063   0.527  1.00  0.00    -0.032 C 
HETATM    4  C4  UNL     1      -1.041   1.256   0.057  1.00  0.00    -0.049 C 
HETATM    5  C5  UNL     1      -1.947   0.166  -0.488  1.00  0.00     0.024 C 
HETATM    6  C6  UNL     1      -1.846  -1.184   0.240  1.00  0.00     0.035 C 
HETATM    7  C7  UNL     1      -0.682  -2.080  -0.234  1.00  0.00     0.128 C 
HETATM    8  O1  UNL     1      -1.076  -2.723  -1.434  1.00  0.00    -0.226 OA
HETATM    9  C8  UNL     1      -0.426  -3.197   0.785  1.00  0.00     0.033 C 
HETATM   10  C12 UNL     1       2.508  -0.111   0.445  1.00  0.00     0.131 C 
HETATM   11  C13 UNL     1       2.928  -1.029  -0.709  1.00  0.00     0.031 C 
HETATM   12  C14 UNL     1       1.855  -2.104  -0.701  1.00  0.00     0.005 C 
HETATM   13  O2  UNL     1       3.127  -0.559   1.639  1.00  0.00    -0.226 OA
HETATM   14  C15 UNL     1       3.062   1.285   0.164  1.00  0.00     0.033 C 
ENDROOT
BRANCH   4  15
HETATM   15  C9  UNL     1      -1.611   2.652   0.070  1.00  0.00     0.018 C 
HETATM   16  C10 UNL     1      -2.697   2.828   1.133  1.00  0.00     0.004 C 
HETATM   17  C11 UNL     1      -2.065   3.111  -1.316  1.00  0.00     0.004 C 
ENDBRANCH   4  15
TORSDOF 1
