REMARK  1 active torsions:
REMARK  status: ('A' for Active; 'I' for Inactive)
REMARK    1  A    between atoms: C4_4  and  C9_12 
ROOT
HETATM    1  C1  UNL     1       1.395   1.193  -0.068  1.00  0.00     0.034 A 
HETATM    2  C2  UNL     1       1.451  -0.135   0.109  1.00  0.00    -0.011 A 
HETATM    3  C3  UNL     1       0.379  -1.131  -0.273  1.00  0.00     0.201 C 
HETATM    4  C4  UNL     1      -1.019  -0.551  -0.656  1.00  0.00     0.186 C 
HETATM    5  C5  UNL     1      -1.539   0.449   0.426  1.00  0.00     0.185 C 
HETATM    6  C6  UNL     1      -1.016   1.893   0.221  1.00  0.00     0.070 C 
HETATM    7  C7  UNL     1       0.223   1.932  -0.697  1.00  0.00     0.150 C 
HETATM    8  C8  UNL     1       0.580   3.381  -1.047  1.00  0.00     0.038 C 
HETATM    9  O1  UNL     1      -0.113   1.334  -1.947  1.00  0.00    -0.222 OA
HETATM   10  O2  UNL     1      -0.953   0.137  -1.906  1.00  0.00    -0.220 OA
HETATM   11  O3  UNL     1      -2.957   0.496   0.461  1.00  0.00    -0.221 OA
HETATM   12  O4  UNL     1       0.883  -1.961  -1.307  1.00  0.00    -0.216 OA
HETATM   13  C12 UNL     1       2.744  -0.566   0.770  1.00  0.00     0.028 A 
HETATM   14  C13 UNL     1       3.539   0.742   0.967  1.00  0.00     0.073 A 
HETATM   15  C14 UNL     1       2.621   1.811   0.436  1.00  0.00     0.171 A 
HETATM   16  O5  UNL     1       2.879   2.992   0.438  1.00  0.00    -0.292 OA
HETATM   17  C15 UNL     1       2.506  -1.266   2.104  1.00  0.00     0.005 C 
ENDROOT
BRANCH   4  18
HETATM   18  C9  UNL     1      -1.994  -1.721  -0.891  1.00  0.00     0.033 C 
HETATM   19  C10 UNL     1      -2.506  -2.332   0.416  1.00  0.00     0.003 C 
HETATM   20  C11 UNL     1      -3.125  -1.363  -1.855  1.00  0.00     0.003 C 
ENDBRANCH   4  18
TORSDOF 1
