REMARK  0 active torsions:
REMARK  status: ('A' for Active; 'I' for Inactive)
ROOT
HETATM    1  C1  UNL     1      -3.039   1.285  -0.422  1.00  0.00     0.255 C 
HETATM    2  N1  UNL     1      -2.074   1.858   0.527  1.00  0.00     0.142 N 
HETATM    3  C2  UNL     1      -0.758   1.174   0.609  1.00  0.00     0.246 C 
HETATM    4  C3  UNL     1      -0.672  -0.189  -0.004  1.00  0.00     0.007 A 
HETATM    5  C4  UNL     1      -1.846  -0.896  -0.352  1.00  0.00    -0.020 A 
HETATM    6  C5  UNL     1      -3.164  -0.234  -0.215  1.00  0.00     0.061 C 
HETATM    7  C6  UNL     1      -1.738  -2.217  -0.832  1.00  0.00     0.022 A 
HETATM    8  C7  UNL     1      -0.478  -2.838  -1.006  1.00  0.00     0.119 A 
HETATM    9  C8  UNL     1       0.691  -2.125  -0.719  1.00  0.00     0.119 A 
HETATM   10  C9  UNL     1       0.606  -0.781  -0.236  1.00  0.00     0.022 A 
HETATM   11  C10 UNL     1       1.820   0.041   0.023  1.00  0.00    -0.002 A 
HETATM   12  C11 UNL     1       1.686   1.459   0.148  1.00  0.00    -0.020 A 
HETATM   13  C12 UNL     1       0.344   2.094   0.049  1.00  0.00     0.064 C 
HETATM   14  C13 UNL     1       2.830   2.270   0.363  1.00  0.00    -0.004 A 
HETATM   15  C14 UNL     1       4.111   1.684   0.457  1.00  0.00    -0.000 A 
HETATM   16  C15 UNL     1       4.252   0.283   0.351  1.00  0.00    -0.000 A 
HETATM   17  C16 UNL     1       3.119  -0.535   0.144  1.00  0.00    -0.000 A 
HETATM   18  O1  UNL     1       1.734  -2.918  -0.986  1.00  0.00    -0.300 OA
HETATM   19  C17 UNL     1       1.268  -4.203  -1.449  1.00  0.00     0.304 A 
HETATM   20  O2  UNL     1      -0.166  -4.061  -1.434  1.00  0.00    -0.300 OA
HETATM   21  C18 UNL     1      -2.680   2.086   1.840  1.00  0.00     0.286 C 
ENDROOT
TORSDOF 0
