REMARK  12 active torsions:
REMARK  status: ('A' for Active; 'I' for Inactive)
REMARK    1  A    between atoms: C4_4  and  C28_35 
REMARK    2  A    between atoms: C9_9  and  O4_28 
REMARK    3  A    between atoms: C10_10  and  C22_24 
REMARK    4  A    between atoms: C11_11  and  O1_12 
REMARK    5  A    between atoms: O1_12  and  C12_13 
REMARK    6  A    between atoms: C12_13  and  C13_14 
REMARK    7  A    between atoms: C14_15  and  C15_16 
REMARK    8  A    between atoms: C16_17  and  C17_18 
REMARK    9  A    between atoms: C17_18  and  C18_19 
REMARK   10  A    between atoms: C18_19  and  C19_20 
REMARK   11  A    between atoms: C19_20  and  C20_21 
REMARK   12  A    between atoms: O4_28  and  C25_29 
ROOT
HETATM    1  C1  UNL     1      -2.427   0.645  -3.274  1.00  0.00     0.088 C 
HETATM    2  C2  UNL     1      -2.708   2.164  -3.525  1.00  0.00     0.217 C 
HETATM    3  C3  UNL     1      -1.426   2.989  -3.260  1.00  0.00     0.217 C 
HETATM    4  C4  UNL     1      -0.866   2.986  -1.819  1.00  0.00     0.179 A 
HETATM    5  C5  UNL     1      -1.345   2.040  -0.649  1.00  0.00     0.150 A 
HETATM    6  C6  UNL     1      -2.435   0.932  -0.641  1.00  0.00     0.089 C 
HETATM    7  C7  UNL     1      -2.806   0.039  -1.890  1.00  0.00     0.140 C 
HETATM    8  C8  UNL     1      -2.225  -1.401  -1.759  1.00  0.00     0.059 C 
HETATM    9  C9  UNL     1      -2.685  -2.139  -0.471  1.00  0.00     0.160 C 
HETATM   10  C10 UNL     1      -2.920  -1.217   0.765  1.00  0.00     0.193 C 
HETATM   11  C11 UNL     1      -2.114   0.093   0.639  1.00  0.00     0.163 C 
HETATM   12  O3  UNL     1      -4.287  -0.865   0.883  1.00  0.00    -0.217 OA
HETATM   13  C27 UNL     1      -0.692  -1.409  -1.867  1.00  0.00     0.005 C 
HETATM   14  O6  UNL     1      -4.221  -0.117  -1.911  1.00  0.00    -0.225 OA
HETATM   15  O7  UNL     1      -0.303   1.744  -1.520  1.00  0.00    -0.351 OA
HETATM   16  O9  UNL     1      -1.648   4.341  -3.629  1.00  0.00    -0.218 OA
HETATM   17  C29 UNL     1      -3.193   2.181  -4.960  1.00  0.00     0.199 C 
HETATM   18  C30 UNL     1      -3.409   0.819  -5.414  1.00  0.00     0.011 C 
HETATM   19  C31 UNL     1      -3.016  -0.058  -4.487  1.00  0.00    -0.022 C 
HETATM   20  C32 UNL     1      -4.002   0.444  -6.746  1.00  0.00     0.034 C 
HETATM   21  O10 UNL     1      -3.376   3.170  -5.633  1.00  0.00    -0.289 OA
HETATM   22  O11 UNL     1      -3.775   2.649  -2.724  1.00  0.00    -0.215 OA
ENDROOT
BRANCH  11  23
HETATM   23  O1  UNL     1      -0.729  -0.237   0.673  1.00  0.00    -0.298 OA
BRANCH  23  24
HETATM   24  C12 UNL     1      -0.086   0.378   1.661  1.00  0.00     0.296 C 
HETATM   25  O2  UNL     1      -0.513   1.349   2.241  1.00  0.00    -0.259 OA
BRANCH  24  26
HETATM   26  C13 UNL     1       1.214  -0.195   2.030  1.00  0.00     0.068 C 
HETATM   27  C14 UNL     1       1.927   0.321   3.045  1.00  0.00     0.005 C 
BRANCH  27  28
HETATM   28  C15 UNL     1       3.226  -0.252   3.414  1.00  0.00    -0.004 C 
HETATM   29  C16 UNL     1       3.939   0.264   4.428  1.00  0.00    -0.026 C 
BRANCH  29  30
HETATM   30  C17 UNL     1       5.266  -0.362   4.765  1.00  0.00     0.026 C 
BRANCH  30  31
HETATM   31  C18 UNL     1       6.418   0.244   3.963  1.00  0.00     0.005 C 
BRANCH  31  32
HETATM   32  C19 UNL     1       7.771  -0.378   4.310  1.00  0.00     0.000 C 
BRANCH  32  33
HETATM   33  C20 UNL     1       8.921   0.226   3.504  1.00  0.00     0.000 C 
HETATM   34  C21 UNL     1      10.274  -0.395   3.852  1.00  0.00     0.000 C 
ENDBRANCH  32  33
ENDBRANCH  31  32
ENDBRANCH  30  31
ENDBRANCH  29  30
ENDBRANCH  27  28
ENDBRANCH  24  26
ENDBRANCH  23  24
ENDBRANCH  11  23
BRANCH  10  35
HETATM   35  C22 UNL     1      -2.581  -1.944   2.045  1.00  0.00    -0.012 C 
HETATM   36  C23 UNL     1      -2.069  -1.242   3.275  1.00  0.00     0.029 C 
HETATM   37  C24 UNL     1      -2.744  -3.276   2.089  1.00  0.00    -0.007 C 
ENDBRANCH  10  35
BRANCH   9  38
HETATM   38  O4  UNL     1      -3.853  -2.902  -0.759  1.00  0.00    -0.301 OA
BRANCH  38  39
HETATM   39  C25 UNL     1      -3.568  -4.066  -1.335  1.00  0.00     0.272 C 
HETATM   40  C26 UNL     1      -4.723  -5.025  -1.445  1.00  0.00     0.106 C 
HETATM   41  O5  UNL     1      -2.472  -4.361  -1.751  1.00  0.00    -0.264 OA
ENDBRANCH  38  39
ENDBRANCH   9  38
BRANCH   4  42
HETATM   42  C28 UNL     1       0.182   4.035  -1.455  1.00  0.00     0.214 C 
HETATM   43  O8  UNL     1      -0.476   5.266  -1.255  1.00  0.00    -0.218 OA
ENDBRANCH   4  42
TORSDOF 12
