REMARK  3 active torsions:
REMARK  status: ('A' for Active; 'I' for Inactive)
REMARK    1  A    between atoms: C10_10  and  O1_11 
REMARK    2  A    between atoms: O1_11  and  C11_12 
REMARK    3  A    between atoms: C11_12  and  C12_13 
ROOT
HETATM    1  C1  UNL     1      -2.180   1.014  -2.059  1.00  0.00    -0.015 C 
HETATM    2  C2  UNL     1      -3.064   0.803  -0.873  1.00  0.00     0.201 C 
HETATM    3  C3  UNL     1      -2.014   0.516   0.238  1.00  0.00     0.196 C 
HETATM    4  C4  UNL     1      -0.750   1.334  -0.174  1.00  0.00     0.101 C 
HETATM    5  C5  UNL     1      -0.922   1.285  -1.693  1.00  0.00    -0.023 C 
HETATM    6  C6  UNL     1       0.414   0.580   0.445  1.00  0.00     0.160 C 
HETATM    7  C7  UNL     1       1.281  -0.174  -0.496  1.00  0.00     0.079 C 
HETATM    8  C8  UNL     1       0.434  -1.225  -1.215  1.00  0.00    -0.025 C 
HETATM    9  C9  UNL     1      -0.850  -1.586  -0.926  1.00  0.00    -0.018 C 
HETATM   10  C10 UNL     1      -1.723  -1.037   0.215  1.00  0.00     0.174 C 
HETATM   11  C18 UNL     1      -1.498  -2.629  -1.801  1.00  0.00     0.029 C 
HETATM   12  C19 UNL     1       2.010   0.857  -1.387  1.00  0.00     0.011 A 
HETATM   13  C20 UNL     1       1.852   2.387  -1.211  1.00  0.00     0.001 A 
HETATM   14  C21 UNL     1       1.057   3.141  -0.096  1.00  0.00     0.001 C 
HETATM   15  C22 UNL     1      -0.455   2.814   0.164  1.00  0.00     0.013 C 
HETATM   16  C23 UNL     1      -1.381   3.814  -0.545  1.00  0.00     0.001 C 
HETATM   17  C24 UNL     1       3.170   1.693  -0.871  1.00  0.00     0.001 A 
HETATM   18  C25 UNL     1       4.338   1.928  -1.820  1.00  0.00     0.000 C 
HETATM   19  C26 UNL     1       3.584   1.516   0.586  1.00  0.00     0.000 C 
HETATM   20  O3  UNL     1       0.633   0.592   1.635  1.00  0.00    -0.295 OA
HETATM   21  O4  UNL     1      -2.480   0.889   1.527  1.00  0.00    -0.219 OA
HETATM   22  O5  UNL     1      -3.824   1.978  -0.647  1.00  0.00    -0.216 OA
HETATM   23  C27 UNL     1      -2.662   0.916  -3.481  1.00  0.00     0.029 C 
ENDROOT
BRANCH  10  24
HETATM   24  O1  UNL     1      -1.137  -1.467   1.439  1.00  0.00    -0.294 OA
BRANCH  24  25
HETATM   25  C11 UNL     1      -1.207  -2.787   1.598  1.00  0.00     0.296 C 
HETATM   26  O2  UNL     1      -1.955  -3.500   0.971  1.00  0.00    -0.259 OA
BRANCH  25  27
HETATM   27  C12 UNL     1      -0.283  -3.354   2.625  1.00  0.00     0.063 A 
HETATM   28  C13 UNL     1       0.512  -2.496   3.408  1.00  0.00     0.005 A 
HETATM   29  C14 UNL     1       1.381  -3.031   4.373  1.00  0.00     0.000 A 
HETATM   30  C15 UNL     1       1.455  -4.422   4.561  1.00  0.00     0.000 A 
HETATM   31  C16 UNL     1       0.662  -5.279   3.779  1.00  0.00     0.000 A 
HETATM   32  C17 UNL     1      -0.209  -4.746   2.813  1.00  0.00     0.005 A 
ENDBRANCH  25  27
ENDBRANCH  24  25
ENDBRANCH  10  24
TORSDOF 3
