REMARK  4 active torsions:
REMARK  status: ('A' for Active; 'I' for Inactive)
REMARK    1  A    between atoms: C7_8  and  C16_24 
REMARK    2  A    between atoms: C8_9  and  O3_12 
REMARK    3  A    between atoms: O3_12  and  C10_13 
REMARK    4  A    between atoms: C10_13  and  C11_14 
ROOT
HETATM    1  C1  UNL     1      -6.172   0.649   0.088  1.00  0.00     0.160 A 
HETATM    2  C2  UNL     1      -6.020  -0.656   0.619  1.00  0.00     0.182 A 
HETATM    3  C3  UNL     1      -4.725  -1.197   0.813  1.00  0.00     0.163 A 
HETATM    4  C4  UNL     1      -3.584  -0.426   0.475  1.00  0.00     0.091 A 
HETATM    5  C5  UNL     1      -3.736   0.881  -0.055  1.00  0.00     0.107 A 
HETATM    6  C6  UNL     1      -5.031   1.416  -0.248  1.00  0.00     0.054 A 
HETATM    7  O1  UNL     1      -2.648   1.615  -0.375  1.00  0.00    -0.305 OA
HETATM    8  C7  UNL     1      -1.379   1.182  -0.221  1.00  0.00     0.125 A 
HETATM    9  C8  UNL     1      -1.101  -0.051   0.273  1.00  0.00     0.156 A 
HETATM   10  C9  UNL     1      -2.207  -0.959   0.664  1.00  0.00     0.224 A 
HETATM   11  O2  UNL     1      -1.898  -2.045   1.098  1.00  0.00    -0.284 OA
HETATM   12  O10 UNL     1      -4.594  -2.434   1.316  1.00  0.00    -0.188 OA
HETATM   13  O11 UNL     1      -7.102  -1.381   0.936  1.00  0.00    -0.186 OA
HETATM   14  O12 UNL     1      -7.396   1.158  -0.096  1.00  0.00    -0.188 OA
ENDROOT
BRANCH   9  15
HETATM   15  O3  UNL     1       0.156  -0.467   0.420  1.00  0.00    -0.323 OA
BRANCH  15  16
HETATM   16  C10 UNL     1       0.645  -1.131  -0.736  1.00  0.00     0.181 C 
BRANCH  16  17
HETATM   17  C11 UNL     1       2.108  -1.527  -0.518  1.00  0.00     0.181 C 
HETATM   18  C12 UNL     1       2.358  -2.291   0.803  1.00  0.00     0.215 C 
HETATM   19  C13 UNL     1       3.840  -2.726   0.916  1.00  0.00     0.220 C 
HETATM   20  O8  UNL     1       1.527  -3.437   0.852  1.00  0.00    -0.218 OA
HETATM   21  C14 UNL     1       4.783  -1.711   0.215  1.00  0.00     0.244 C 
HETATM   22  O7  UNL     1       4.184  -2.816   2.287  1.00  0.00    -0.218 OA
HETATM   23  C15 UNL     1       4.145  -0.307   0.070  1.00  0.00     0.303 C 
HETATM   24  O6  UNL     1       5.115  -2.191  -1.076  1.00  0.00    -0.215 OA
HETATM   25  O4  UNL     1       4.018   0.277   1.352  1.00  0.00    -0.187 OA
HETATM   26  O5  UNL     1       2.867  -0.318  -0.572  1.00  0.00    -0.324 OA
ENDBRANCH  16  17
ENDBRANCH  15  16
ENDBRANCH   9  15
BRANCH   8  27
HETATM   27  C16 UNL     1      -0.254   2.088  -0.609  1.00  0.00     0.025 A 
HETATM   28  C17 UNL     1      -0.344   2.860  -1.781  1.00  0.00     0.004 A 
HETATM   29  C18 UNL     1       0.715   3.711  -2.145  1.00  0.00     0.028 A 
HETATM   30  C19 UNL     1       1.865   3.793  -1.340  1.00  0.00     0.131 A 
HETATM   31  C20 UNL     1       1.951   3.022  -0.168  1.00  0.00     0.028 A 
HETATM   32  O9  UNL     1       2.858   4.592  -1.682  1.00  0.00    -0.190 OA
HETATM   33  C21 UNL     1       0.895   2.170   0.197  1.00  0.00     0.004 A 
ENDBRANCH   8  27
TORSDOF 4
