REMARK  5 active torsions:
REMARK  status: ('A' for Active; 'I' for Inactive)
REMARK    1  A    between atoms: C4_4  and  C25_31 
REMARK    2  A    between atoms: C9_9  and  O4_25 
REMARK    3  A    between atoms: C10_10  and  C19_22 
REMARK    4  A    between atoms: C12_13  and  C13_16 
REMARK    5  A    between atoms: O4_25  and  C22_26 
ROOT
HETATM    1  C1  UNL     1       1.506   0.422  -1.416  1.00  0.00     0.063 C 
HETATM    2  C2  UNL     1       2.824  -0.084  -0.734  1.00  0.00     0.209 C 
HETATM    3  C3  UNL     1       2.709  -1.377   0.117  1.00  0.00     0.216 C 
HETATM    4  C4  UNL     1       2.096  -2.514  -0.717  1.00  0.00     0.179 A 
HETATM    5  C5  UNL     1       0.602  -2.441  -1.191  1.00  0.00     0.150 A 
HETATM    6  C6  UNL     1      -0.363  -1.262  -0.926  1.00  0.00     0.085 C 
HETATM    7  C7  UNL     1       0.150   0.201  -0.654  1.00  0.00     0.107 C 
HETATM    8  C8  UNL     1      -0.961   1.197  -1.146  1.00  0.00     0.056 C 
HETATM    9  C9  UNL     1      -2.402   0.648  -0.943  1.00  0.00     0.157 C 
HETATM   10  C10 UNL     1      -2.479  -0.342   0.231  1.00  0.00     0.163 C 
HETATM   11  C11 UNL     1      -1.494  -1.539   0.098  1.00  0.00     0.156 C 
HETATM   12  O1  UNL     1      -0.875  -1.479   1.361  1.00  0.00    -0.309 OA
HETATM   13  C12 UNL     1      -0.658  -0.121   1.639  1.00  0.00     0.318 C 
HETATM   14  O2  UNL     1       0.346   0.408   0.762  1.00  0.00    -0.314 OA
HETATM   15  O3  UNL     1      -1.967   0.332   1.373  1.00  0.00    -0.306 OA
HETATM   16  C24 UNL     1      -0.857   2.602  -0.518  1.00  0.00     0.005 C 
HETATM   17  O6  UNL     1       1.029  -3.088  -0.033  1.00  0.00    -0.351 OA
HETATM   18  O8  UNL     1       3.971  -1.787   0.621  1.00  0.00    -0.218 OA
HETATM   19  C26 UNL     1       3.285   1.117   0.057  1.00  0.00     0.180 C 
HETATM   20  C27 UNL     1       2.584   2.361  -0.398  1.00  0.00     0.060 C 
HETATM   21  C28 UNL     1       1.900   1.897  -1.682  1.00  0.00     0.013 C 
HETATM   22  C29 UNL     1       3.529   3.525  -0.668  1.00  0.00     0.008 C 
HETATM   23  O9  UNL     1       4.104   1.090   0.947  1.00  0.00    -0.293 OA
HETATM   24  O10 UNL     1       3.783  -0.309  -1.764  1.00  0.00    -0.216 OA
ENDROOT
BRANCH  13  25
HETATM   25  C13 UNL     1      -0.285   0.094   3.061  1.00  0.00     0.058 A 
HETATM   26  C14 UNL     1       0.502  -0.857   3.736  1.00  0.00     0.003 A 
HETATM   27  C15 UNL     1       0.854  -0.652   5.080  1.00  0.00    -0.000 A 
HETATM   28  C16 UNL     1       0.420   0.504   5.752  1.00  0.00    -0.000 A 
HETATM   29  C17 UNL     1      -0.365   1.455   5.080  1.00  0.00    -0.000 A 
HETATM   30  C18 UNL     1      -0.719   1.250   3.734  1.00  0.00     0.003 A 
ENDBRANCH  13  25
BRANCH  10  31
HETATM   31  C19 UNL     1      -3.895  -0.770   0.531  1.00  0.00    -0.015 C 
HETATM   32  C20 UNL     1      -4.246  -1.719   1.645  1.00  0.00     0.029 C 
HETATM   33  C21 UNL     1      -4.887  -0.279  -0.232  1.00  0.00    -0.007 C 
ENDBRANCH  10  31
BRANCH   9  34
HETATM   34  O4  UNL     1      -2.844   0.002  -2.131  1.00  0.00    -0.301 OA
BRANCH  34  35
HETATM   35  C22 UNL     1      -3.100   0.865  -3.111  1.00  0.00     0.272 C 
HETATM   36  C23 UNL     1      -3.518   0.244  -4.416  1.00  0.00     0.106 C 
HETATM   37  O5  UNL     1      -3.010   2.064  -2.992  1.00  0.00    -0.264 OA
ENDBRANCH  34  35
ENDBRANCH   9  34
BRANCH   4  38
HETATM   38  C25 UNL     1       2.959  -3.625  -1.311  1.00  0.00     0.214 C 
HETATM   39  O7  UNL     1       3.606  -3.119  -2.455  1.00  0.00    -0.218 OA
ENDBRANCH   4  38
TORSDOF 5
