REMARK  4 active torsions:
REMARK  status: ('A' for Active; 'I' for Inactive)
REMARK    1  A    between atoms: C6_6  and  C7_7 
REMARK    2  A    between atoms: C7_7  and  C8_8 
REMARK    3  A    between atoms: C13_14  and  C15_17 
REMARK    4  A    between atoms: C22_26  and  C23_28 
ROOT
HETATM    1  C1  UNL     1       1.875   0.027  -0.107  1.00  0.00     0.090 A 
HETATM    2  C2  UNL     1       1.816  -1.207  -0.766  1.00  0.00     0.028 A 
HETATM    3  C3  UNL     1       0.580  -1.854  -1.039  1.00  0.00     0.134 A 
HETATM    4  C4  UNL     1      -0.625  -1.221  -0.623  1.00  0.00     0.087 A 
HETATM    5  C5  UNL     1      -0.586   0.029   0.043  1.00  0.00     0.103 A 
HETATM    6  C6  UNL     1       0.660   0.639   0.291  1.00  0.00     0.027 A 
HETATM    7  O1  UNL     1      -1.727   0.633   0.437  1.00  0.00    -0.305 OA
HETATM    8  C12 UNL     1      -2.951   0.107   0.240  1.00  0.00     0.126 A 
HETATM    9  C13 UNL     1      -3.131  -1.078  -0.385  1.00  0.00     0.064 A 
HETATM   10  C14 UNL     1      -1.959  -1.848  -0.875  1.00  0.00     0.201 A 
HETATM   11  O2  UNL     1      -2.172  -2.902  -1.432  1.00  0.00    -0.286 OA
HETATM   12  O4  UNL     1       0.438  -3.031  -1.664  1.00  0.00    -0.190 OA
HETATM   13  C21 UNL     1       3.223  -1.647  -1.084  1.00  0.00     0.063 A 
HETATM   14  C22 UNL     1       4.068  -0.475  -0.500  1.00  0.00     0.153 A 
HETATM   15  O5  UNL     1       3.127   0.461   0.053  1.00  0.00    -0.331 OA
ENDROOT
BRANCH   9  16
HETATM   16  C15 UNL     1      -4.516  -1.605  -0.572  1.00  0.00     0.005 A 
HETATM   17  C16 UNL     1      -4.770  -2.982  -0.439  1.00  0.00     0.002 A 
HETATM   18  C17 UNL     1      -6.072  -3.477  -0.617  1.00  0.00     0.027 A 
HETATM   19  C18 UNL     1      -7.127  -2.600  -0.928  1.00  0.00     0.131 A 
HETATM   20  C19 UNL     1      -6.871  -1.223  -1.059  1.00  0.00     0.027 A 
HETATM   21  O3  UNL     1      -8.350  -3.064  -1.094  1.00  0.00    -0.190 OA
HETATM   22  C20 UNL     1      -5.568  -0.727  -0.883  1.00  0.00     0.002 A 
ENDBRANCH   9  16
BRANCH   6  23
HETATM   23  C7  UNL     1       0.711   1.939   0.978  1.00  0.00     0.056 C 
BRANCH  23  24
HETATM   24  C8  UNL     1       0.830   3.088   0.014  1.00  0.00    -0.030 C 
HETATM   25  C9  UNL     1       0.654   4.336   0.477  1.00  0.00    -0.048 C 
HETATM   26  C10 UNL     1       0.742   5.483  -0.496  1.00  0.00     0.026 C 
HETATM   27  C11 UNL     1       0.377   4.525   1.943  1.00  0.00     0.026 C 
ENDBRANCH  23  24
ENDBRANCH   6  23
BRANCH  14  28
HETATM   28  C23 UNL     1       5.016  -0.947   0.598  1.00  0.00     0.152 C 
HETATM   29  C24 UNL     1       5.902   0.215   1.043  1.00  0.00     0.036 C 
HETATM   30  O6  UNL     1       5.846  -1.959   0.072  1.00  0.00    -0.224 OA
HETATM   31  C25 UNL     1       4.203  -1.545   1.748  1.00  0.00     0.036 C 
ENDBRANCH  14  28
TORSDOF 4
