REMARK  7 active torsions:
REMARK  status: ('A' for Active; 'I' for Inactive)
REMARK    1  A    between atoms: C6_6  and  O1_7 
REMARK    2  A    between atoms: C9_10  and  C25_33 
REMARK    3  A    between atoms: C10_11  and  C19_22 
REMARK    4  A    between atoms: C11_12  and  C12_13 
REMARK    5  A    between atoms: C16_17  and  O2_19 
REMARK    6  A    between atoms: C19_22  and  O4_23 
REMARK    7  A    between atoms: O4_23  and  C20_24 
ROOT
HETATM    1  C1  UNL     1       3.846  -3.160  -0.293  1.00  0.00     0.153 A 
HETATM    2  C2  UNL     1       2.955  -2.072  -0.434  1.00  0.00     0.025 A 
HETATM    3  C3  UNL     1       1.545  -2.266  -0.379  1.00  0.00    -0.020 A 
HETATM    4  C4  UNL     1       1.041  -3.594  -0.215  1.00  0.00    -0.024 A 
HETATM    5  C5  UNL     1       1.944  -4.680  -0.070  1.00  0.00     0.022 A 
HETATM    6  C6  UNL     1       3.340  -4.465  -0.105  1.00  0.00     0.119 A 
HETATM    7  C8  UNL     1      -0.416  -3.875  -0.189  1.00  0.00     0.029 C 
HETATM    8  C9  UNL     1      -1.267  -2.775  -0.842  1.00  0.00     0.041 C 
HETATM    9  C10 UNL     1      -0.877  -1.408  -0.260  1.00  0.00     0.041 C 
HETATM   10  C11 UNL     1       0.621  -1.090  -0.514  1.00  0.00     0.047 C 
HETATM   11  O10 UNL     1       5.168  -2.949  -0.338  1.00  0.00    -0.188 OA
ENDROOT
BRANCH   9  12
HETATM   12  C19 UNL     1      -1.781  -0.291  -0.803  1.00  0.00     0.146 C 
BRANCH  12  13
HETATM   13  O4  UNL     1      -1.599   0.854   0.000  1.00  0.00    -0.329 OA
BRANCH  13  14
HETATM   14  C20 UNL     1      -2.404   1.945  -0.396  1.00  0.00     0.270 C 
HETATM   15  O5  UNL     1      -1.922   2.430  -1.643  1.00  0.00    -0.326 OA
HETATM   16  C21 UNL     1      -2.666   3.506  -2.193  1.00  0.00     0.181 C 
HETATM   17  C22 UNL     1      -2.605   4.717  -1.242  1.00  0.00     0.215 C 
HETATM   18  C23 UNL     1      -3.092   4.340   0.174  1.00  0.00     0.220 C 
HETATM   19  O8  UNL     1      -3.414   5.746  -1.781  1.00  0.00    -0.218 OA
HETATM   20  C24 UNL     1      -2.346   3.076   0.664  1.00  0.00     0.241 C 
HETATM   21  O7  UNL     1      -2.851   5.418   1.066  1.00  0.00    -0.218 OA
HETATM   22  O6  UNL     1      -2.935   2.621   1.871  1.00  0.00    -0.215 OA
ENDBRANCH  13  14
ENDBRANCH  12  13
ENDBRANCH   9  12
BRANCH   8  23
HETATM   23  C25 UNL     1      -2.760  -3.074  -0.658  1.00  0.00     0.183 C 
HETATM   24  O9  UNL     1      -3.433  -2.699  -1.838  1.00  0.00    -0.221 OA
ENDBRANCH   8  23
BRANCH  10  25
HETATM   25  C12 UNL     1       1.051   0.035   0.356  1.00  0.00    -0.016 A 
HETATM   26  C13 UNL     1       1.106  -0.129   1.750  1.00  0.00    -0.002 A 
HETATM   27  C14 UNL     1       1.512   0.938   2.568  1.00  0.00     0.029 A 
HETATM   28  C15 UNL     1       1.867   2.172   1.996  1.00  0.00     0.153 A 
HETATM   29  C16 UNL     1       1.815   2.338   0.600  1.00  0.00     0.119 A 
HETATM   30  O3  UNL     1       2.250   3.168   2.772  1.00  0.00    -0.188 OA
HETATM   31  C17 UNL     1       1.406   1.270  -0.217  1.00  0.00     0.022 A 
BRANCH  29  32
HETATM   32  O2  UNL     1       2.147   3.492   0.057  1.00  0.00    -0.326 OA
HETATM   33  C18 UNL     1       2.555   4.543   0.920  1.00  0.00     0.181 C 
ENDBRANCH  29  32
ENDBRANCH  10  25
BRANCH   6  34
HETATM   34  O1  UNL     1       4.178  -5.500   0.037  1.00  0.00    -0.326 OA
HETATM   35  C7  UNL     1       3.617  -6.783   0.281  1.00  0.00     0.181 C 
ENDBRANCH   6  34
TORSDOF 7
