REMARK  13 active torsions:
REMARK  status: ('A' for Active; 'I' for Inactive)
REMARK    1  A    between atoms: C2_2  and  O6_25 
REMARK    2  A    between atoms: C3_3  and  O5_23 
REMARK    3  A    between atoms: C5_5  and  C7_7 
REMARK    4  A    between atoms: C7_7  and  C8_8 
REMARK    5  A    between atoms: C8_8  and  C9_9 
REMARK    6  A    between atoms: C9_9  and  C10_10 
REMARK    7  A    between atoms: C9_9  and  O3_19 
REMARK    8  A    between atoms: C10_10  and  C11_11 
REMARK    9  A    between atoms: C11_11  and  C12_12 
REMARK   10  A    between atoms: C11_11  and  O1_15 
REMARK   11  A    between atoms: C12_12  and  C13_13 
REMARK   12  A    between atoms: O1_15  and  C15_16 
REMARK   13  A    between atoms: O3_19  and  C17_20 
ROOT
HETATM    1  C9  UNL     1       1.803   0.719  -0.424  1.00  0.00     0.127 C 
ENDROOT
BRANCH   1   2
HETATM    2  C8  UNL     1       0.288   0.548  -0.530  1.00  0.00     0.035 C 
BRANCH   2   3
HETATM    3  C7  UNL     1      -0.462   1.879  -0.458  1.00  0.00     0.029 C 
BRANCH   3   4
HETATM    4  C5  UNL     1      -1.934   1.682  -0.532  1.00  0.00    -0.020 A 
HETATM    5  C4  UNL     1      -2.708   1.712   0.641  1.00  0.00     0.022 A 
HETATM    6  C3  UNL     1      -4.100   1.527   0.576  1.00  0.00     0.116 A 
HETATM    7  C2  UNL     1      -4.721   1.311  -0.669  1.00  0.00     0.116 A 
HETATM    8  C1  UNL     1      -3.945   1.281  -1.841  1.00  0.00     0.026 A 
HETATM    9  C6  UNL     1      -2.554   1.467  -1.775  1.00  0.00    -0.002 A 
BRANCH   6  10
HETATM   10  O5  UNL     1      -4.819   1.556   1.680  1.00  0.00    -0.326 OA
HETATM   11  C19 UNL     1      -6.220   1.355   1.569  1.00  0.00     0.181 C 
ENDBRANCH   6  10
BRANCH   7  12
HETATM   12  O6  UNL     1      -6.025   1.136  -0.739  1.00  0.00    -0.326 OA
HETATM   13  C20 UNL     1      -6.601   0.922  -2.020  1.00  0.00     0.181 C 
ENDBRANCH   7  12
ENDBRANCH   3   4
ENDBRANCH   2   3
ENDBRANCH   1   2
BRANCH   1  14
HETATM   14  C10 UNL     1       2.554  -0.611  -0.504  1.00  0.00     0.060 C 
BRANCH  14  15
HETATM   15  C11 UNL     1       2.413  -1.446   0.769  1.00  0.00     0.127 C 
BRANCH  15  16
HETATM   16  C12 UNL     1       3.196  -2.758   0.704  1.00  0.00     0.030 C 
BRANCH  16  17
HETATM   17  C13 UNL     1       2.548  -3.788  -0.221  1.00  0.00     0.003 C 
HETATM   18  C14 UNL     1       3.306  -5.115  -0.250  1.00  0.00     0.000 C 
ENDBRANCH  16  17
ENDBRANCH  15  16
BRANCH  15  19
HETATM   19  O1  UNL     1       2.853  -0.686   1.885  1.00  0.00    -0.304 OA
BRANCH  19  20
HETATM   20  C15 UNL     1       2.446  -1.203   3.041  1.00  0.00     0.272 C 
HETATM   21  O2  UNL     1       1.719  -2.165   3.130  1.00  0.00    -0.264 OA
HETATM   22  C16 UNL     1       2.958  -0.501   4.271  1.00  0.00     0.106 C 
ENDBRANCH  19  20
ENDBRANCH  15  19
ENDBRANCH  14  15
ENDBRANCH   1  14
BRANCH   1  23
HETATM   23  O3  UNL     1       2.257   1.581  -1.457  1.00  0.00    -0.304 OA
BRANCH  23  24
HETATM   24  C17 UNL     1       3.479   2.051  -1.224  1.00  0.00     0.272 C 
HETATM   25  O4  UNL     1       4.110   1.818  -0.220  1.00  0.00    -0.264 OA
HETATM   26  C18 UNL     1       4.050   2.917  -2.315  1.00  0.00     0.106 C 
ENDBRANCH  23  24
ENDBRANCH   1  23
TORSDOF 13
