REMARK  4 active torsions:
REMARK  status: ('A' for Active; 'I' for Inactive)
REMARK    1  A    between atoms: S1_1  and  S2_2 
REMARK    2  A    between atoms: S1_1  and  C4_6 
REMARK    3  A    between atoms: S2_2  and  C1_3 
REMARK    4  A    between atoms: C1_3  and  C2_4 
ROOT
HETATM    1  S1  UNL     1       0.658  -1.072   0.857  1.00  0.00    -0.055 SA
ENDROOT
BRANCH   1   2
HETATM    2  S2  UNL     1       1.158   0.906   0.857  1.00  0.00    -0.073 SA
BRANCH   2   3
HETATM    3  C1  UNL     1       1.260   1.301  -0.912  1.00  0.00     0.095 C 
BRANCH   3   4
HETATM    4  C2  UNL     1       1.627   2.752  -1.082  1.00  0.00    -0.014 C 
HETATM    5  C3  UNL     1       0.676   3.680  -0.893  1.00  0.00    -0.004 C 
ENDBRANCH   3   4
ENDBRANCH   2   3
ENDBRANCH   1   2
BRANCH   1   6
HETATM    6  C4  UNL     1      -1.029  -1.072   0.857  1.00  0.00     0.037 C 
HETATM    7  C5  UNL     1      -1.758  -2.201   0.857  1.00  0.00    -0.018 C 
HETATM    8  C6  UNL     1      -1.035  -3.521   0.857  1.00  0.00     0.031 C 
ENDBRANCH   1   6
TORSDOF 4
