REMARK  1 active torsions:
REMARK  status: ('A' for Active; 'I' for Inactive)
REMARK    1  A    between atoms: C2_2  and  C13_14 
ROOT
HETATM    1  C1  UNL     1       1.969   0.053  -0.367  1.00  0.00     0.006 C 
HETATM    2  C2  UNL     1       1.324  -1.010   0.545  1.00  0.00     0.018 C 
HETATM    3  C3  UNL     1      -0.111  -1.340   0.094  1.00  0.00     0.004 C 
HETATM    4  C4  UNL     1      -1.131  -0.232   0.381  1.00  0.00     0.003 C 
HETATM    5  C5  UNL     1      -0.824   1.166  -0.190  1.00  0.00     0.028 C 
HETATM    6  C6  UNL     1       0.330   1.957   0.476  1.00  0.00     0.127 C 
HETATM    7  C7  UNL     1       1.754   1.520   0.047  1.00  0.00     0.031 C 
HETATM    8  C8  UNL     1       0.152   3.453   0.178  1.00  0.00     0.033 C 
HETATM    9  O1  UNL     1       0.232   1.846   1.885  1.00  0.00    -0.226 OA
HETATM   10  C9  UNL     1      -2.197   1.848  -0.055  1.00  0.00     0.002 C 
HETATM   11  C10 UNL     1      -3.258   0.752   0.025  1.00  0.00     0.000 C 
HETATM   12  C11 UNL     1      -2.504  -0.551  -0.223  1.00  0.00     0.000 C 
HETATM   13  C12 UNL     1      -2.467  -0.840  -1.725  1.00  0.00     0.000 C 
ENDROOT
BRANCH   2  14
HETATM   14  C13 UNL     1       2.152  -2.273   0.533  1.00  0.00    -0.044 C 
HETATM   15  C14 UNL     1       2.631  -2.738   1.697  1.00  0.00    -0.009 C 
HETATM   16  C15 UNL     1       2.463  -3.037  -0.727  1.00  0.00     0.026 C 
ENDBRANCH   2  14
TORSDOF 1
