REMARK  5 active torsions:
REMARK  status: ('A' for Active; 'I' for Inactive)
REMARK    1  A    between atoms: C15_18  and  C18_22 
REMARK    2  A    between atoms: C18_22  and  C20_24 
REMARK    3  A    between atoms: C20_24  and  C21_25 
REMARK    4  A    between atoms: C21_25  and  C22_26 
REMARK    5  A    between atoms: C22_26  and  O6_28 
ROOT
HETATM    1  C1  UNL     1       5.352   1.346   0.896  1.00  0.00     0.033 C 
HETATM    2  C2  UNL     1       5.773  -0.008   1.477  1.00  0.00     0.152 C 
HETATM    3  C3  UNL     1       5.137  -1.176   0.695  1.00  0.00     0.029 C 
HETATM    4  C4  UNL     1       3.592  -1.000   0.705  1.00  0.00     0.014 C 
HETATM    5  C5  UNL     1       3.064   0.365   0.148  1.00  0.00     0.022 C 
HETATM    6  C6  UNL     1       3.824   1.506   0.889  1.00  0.00     0.007 C 
HETATM    7  C7  UNL     1       1.529   0.441   0.316  1.00  0.00     0.014 C 
HETATM    8  C8  UNL     1       0.797  -0.705   0.441  1.00  0.00     0.017 C 
HETATM    9  C9  UNL     1       1.383  -2.027   0.100  1.00  0.00     0.169 C 
HETATM   10  C10 UNL     1       2.877  -2.174   0.025  1.00  0.00     0.069 C 
HETATM   11  O1  UNL     1       0.701  -2.996  -0.137  1.00  0.00    -0.292 OA
HETATM   12  C11 UNL     1      -0.643  -0.557   0.941  1.00  0.00     0.075 C 
HETATM   13  C12 UNL     1      -1.359   0.516   0.094  1.00  0.00     0.045 C 
HETATM   14  C13 UNL     1      -0.686   1.852   0.451  1.00  0.00     0.213 C 
HETATM   15  C14 UNL     1       0.832   1.775   0.326  1.00  0.00     0.199 C 
HETATM   16  O2  UNL     1       1.453   2.807   0.219  1.00  0.00    -0.289 OA
HETATM   17  O3  UNL     1      -1.213   2.873  -0.377  1.00  0.00    -0.215 OA
HETATM   18  C15 UNL     1      -2.842   0.307   0.475  1.00  0.00     0.011 C 
HETATM   19  C16 UNL     1      -2.965  -1.223   0.432  1.00  0.00     0.065 C 
HETATM   20  C17 UNL     1      -1.615  -1.713   0.879  1.00  0.00     0.154 C 
HETATM   21  O4  UNL     1      -1.387  -2.863   1.172  1.00  0.00    -0.296 OA
HETATM   22  C24 UNL     1      -1.211   0.182  -1.406  1.00  0.00     0.004 C 
HETATM   23  C25 UNL     1      -0.578  -0.197   2.430  1.00  0.00     0.012 C 
HETATM   24  C26 UNL     1       3.332   0.486  -1.357  1.00  0.00     0.004 C 
HETATM   25  C27 UNL     1       5.670  -1.234  -0.746  1.00  0.00     0.003 C 
HETATM   26  C28 UNL     1       5.512  -2.496   1.387  1.00  0.00     0.003 C 
HETATM   27  O7  UNL     1       7.188  -0.096   1.459  1.00  0.00    -0.224 OA
ENDROOT
BRANCH  18  28
HETATM   28  C18 UNL     1      -3.856   0.992  -0.441  1.00  0.00     0.001 C 
HETATM   29  C19 UNL     1      -5.016   1.533   0.396  1.00  0.00     0.000 C 
BRANCH  28  30
HETATM   30  C20 UNL     1      -4.317   0.010  -1.520  1.00  0.00     0.010 C 
BRANCH  30  31
HETATM   31  C21 UNL     1      -5.211   0.666  -2.570  1.00  0.00     0.096 C 
BRANCH  31  32
HETATM   32  C22 UNL     1      -6.649   0.744  -2.133  1.00  0.00     0.272 C 
HETATM   33  O5  UNL     1      -7.225   1.807  -2.078  1.00  0.00    -0.264 OA
BRANCH  32  34
HETATM   34  O6  UNL     1      -7.211  -0.420  -1.820  1.00  0.00    -0.299 OA
HETATM   35  C23 UNL     1      -8.569  -0.277  -1.432  1.00  0.00     0.184 C 
ENDBRANCH  32  34
ENDBRANCH  31  32
ENDBRANCH  30  31
ENDBRANCH  28  30
ENDBRANCH  18  28
TORSDOF 5
