REMARK  6 active torsions:
REMARK  status: ('A' for Active; 'I' for Inactive)
REMARK    1  A    between atoms: C4_4  and  C7_7 
REMARK    2  A    between atoms: C7_7  and  C8_8 
REMARK    3  A    between atoms: C9_9  and  C10_10 
REMARK    4  A    between atoms: C11_11  and  O2_22 
REMARK    5  A    between atoms: C14_14  and  C16_16 
REMARK    6  A    between atoms: C16_16  and  C19_19 
ROOT
HETATM    1  C10 UNL     1      -1.889  -0.436   0.039  1.00  0.00     0.022 A 
HETATM    2  C11 UNL     1      -2.096   0.797  -0.611  1.00  0.00     0.096 A 
HETATM    3  C12 UNL     1      -1.238   1.185  -1.654  1.00  0.00     0.051 A 
HETATM    4  C13 UNL     1      -0.176   0.355  -2.053  1.00  0.00     0.129 A 
HETATM    5  C14 UNL     1       0.027  -0.875  -1.402  1.00  0.00     0.006 A 
HETATM    6  C15 UNL     1      -0.828  -1.270  -0.357  1.00  0.00     0.000 A 
HETATM    7  O1  UNL     1       0.621   0.734  -3.033  1.00  0.00    -0.190 OA
ENDROOT
BRANCH   1   8
HETATM    8  C9  UNL     1      -2.789  -0.867   1.150  1.00  0.00     0.005 C 
HETATM    9  C8  UNL     1      -2.242  -1.233   2.320  1.00  0.00     0.042 C 
BRANCH   9  10
HETATM   10  C7  UNL     1      -0.785  -1.207   2.504  1.00  0.00     0.196 C 
HETATM   11  O3  UNL     1      -0.170  -2.236   2.652  1.00  0.00    -0.287 OA
BRANCH  10  12
HETATM   12  C4  UNL     1      -0.086   0.111   2.504  1.00  0.00     0.039 A 
HETATM   13  C3  UNL     1      -0.832   1.305   2.504  1.00  0.00     0.005 A 
HETATM   14  C2  UNL     1      -0.172   2.545   2.504  1.00  0.00     0.028 A 
HETATM   15  C1  UNL     1       1.232   2.600   2.504  1.00  0.00     0.131 A 
HETATM   16  C6  UNL     1       1.977   1.406   2.504  1.00  0.00     0.028 A 
HETATM   17  O4  UNL     1       1.850   3.766   2.504  1.00  0.00    -0.190 OA
HETATM   18  C5  UNL     1       1.318   0.164   2.504  1.00  0.00     0.005 A 
ENDBRANCH  10  12
ENDBRANCH   9  10
ENDBRANCH   1   8
BRANCH   2  19
HETATM   19  O2  UNL     1      -3.086   1.588  -0.250  1.00  0.00    -0.328 OA
HETATM   20  C21 UNL     1      -3.197   2.851  -0.889  1.00  0.00     0.181 C 
ENDBRANCH   2  19
BRANCH   5  21
HETATM   21  C16 UNL     1       1.147  -1.768  -1.811  1.00  0.00     0.039 C 
HETATM   22  C17 UNL     1       1.305  -1.811  -3.332  1.00  0.00     0.009 C 
HETATM   23  C18 UNL     1       1.014  -3.158  -1.191  1.00  0.00     0.009 C 
BRANCH  21  24
HETATM   24  C19 UNL     1       2.217  -0.942  -1.146  1.00  0.00    -0.023 C 
HETATM   25  C20 UNL     1       3.238  -1.578  -0.551  1.00  0.00    -0.005 C 
ENDBRANCH  21  24
ENDBRANCH   5  21
TORSDOF 6
