REMARK  0 active torsions:
REMARK  status: ('A' for Active; 'I' for Inactive)
ROOT
HETATM    1  C1  UNL     1       0.857  -0.685  -0.762  1.00  0.00     0.107 A 
HETATM    2  C2  UNL     1       0.723   0.199   0.358  1.00  0.00     0.049 A 
HETATM    3  C3  UNL     1      -0.561   0.651   0.807  1.00  0.00     0.135 A 
HETATM    4  C4  UNL     1      -1.678   0.168   0.078  1.00  0.00     0.050 A 
HETATM    5  C5  UNL     1      -1.543  -0.676  -0.986  1.00  0.00     0.104 A 
HETATM    6  C6  UNL     1      -0.297  -1.135  -1.451  1.00  0.00     0.050 A 
HETATM    7  O1  UNL     1      -2.783  -0.990  -1.512  1.00  0.00    -0.305 OA
HETATM    8  C7  UNL     1      -3.691  -0.271  -0.681  1.00  0.00     0.123 A 
HETATM    9  C8  UNL     1      -2.982   0.447   0.307  1.00  0.00     0.031 A 
HETATM   10  O2  UNL     1      -0.566   1.479   1.863  1.00  0.00    -0.190 OA
HETATM   11  C9  UNL     1       1.965   0.641   1.047  1.00  0.00     0.009 A 
HETATM   12  C10 UNL     1       3.156   0.197   0.602  1.00  0.00     0.069 A 
HETATM   13  C11 UNL     1       3.223  -0.715  -0.560  1.00  0.00     0.300 A 
HETATM   14  O3  UNL     1       2.080  -1.096  -1.166  1.00  0.00    -0.273 OA
HETATM   15  O4  UNL     1       4.309  -1.094  -0.933  1.00  0.00    -0.259 OA
ENDROOT
TORSDOF 0
