REMARK  1 active torsions:
REMARK  status: ('A' for Active; 'I' for Inactive)
REMARK    1  A    between atoms: C7_7  and  O2_14 
ROOT
HETATM    1  C1  UNL     1      -3.356   0.453   0.303  1.00  0.00     0.000 A 
HETATM    2  C2  UNL     1      -3.268   0.455   1.711  1.00  0.00     0.002 A 
HETATM    3  C3  UNL     1      -2.024   0.246   2.350  1.00  0.00     0.019 A 
HETATM    4  C4  UNL     1      -0.850   0.033   1.586  1.00  0.00     0.085 A 
HETATM    5  C5  UNL     1      -0.940   0.031   0.135  1.00  0.00     0.040 A 
HETATM    6  C6  UNL     1      -2.201   0.242  -0.484  1.00  0.00     0.004 A 
HETATM    7  C7  UNL     1       0.240  -0.184  -0.678  1.00  0.00     0.099 A 
HETATM    8  C8  UNL     1       1.455  -0.381   0.035  1.00  0.00     0.066 A 
HETATM    9  C9  UNL     1       1.410  -0.357   1.393  1.00  0.00     0.184 A 
HETATM   10  N1  UNL     1       0.363  -0.166   2.242  1.00  0.00    -0.222 NA
HETATM   11  O1  UNL     1       2.707  -0.572   1.848  1.00  0.00    -0.287 OA
HETATM   12  C10 UNL     1       3.502  -0.723   0.678  1.00  0.00     0.125 A 
HETATM   13  C11 UNL     1       2.689  -0.600  -0.465  1.00  0.00     0.032 A 
ENDROOT
BRANCH   7  14
HETATM   14  O2  UNL     1       0.078  -0.174  -2.010  1.00  0.00    -0.328 OA
HETATM   15  C12 UNL     1       1.144   0.320  -2.809  1.00  0.00     0.181 C 
ENDBRANCH   7  14
TORSDOF 1
