REMARK  9 active torsions:
REMARK  status: ('A' for Active; 'I' for Inactive)
REMARK    1  A    between atoms: C5_5  and  C9_10 
REMARK    2  A    between atoms: C9_10  and  O2_11 
REMARK    3  A    between atoms: O2_11  and  C10_12 
REMARK    4  A    between atoms: C10_12  and  C11_13 
REMARK    5  A    between atoms: C11_13  and  C12_14 
REMARK    6  A    between atoms: C12_14  and  O3_17 
REMARK    7  A    between atoms: O3_17  and  C15_18 
REMARK    8  A    between atoms: C15_18  and  C16_19 
REMARK    9  A    between atoms: C16_19  and  C17_20 
ROOT
HETATM    1  C1  UNL     1       0.945  -3.226  -1.182  1.00  0.00     0.102 A 
HETATM    2  C2  UNL     1       2.195  -3.687  -1.647  1.00  0.00     0.050 A 
HETATM    3  C3  UNL     1       3.354  -3.240  -0.959  1.00  0.00     0.105 A 
HETATM    4  C4  UNL     1       3.227  -2.355   0.160  1.00  0.00     0.022 A 
HETATM    5  C5  UNL     1       1.943  -1.914   0.596  1.00  0.00     0.011 A 
HETATM    6  C6  UNL     1       0.809  -2.383  -0.115  1.00  0.00     0.023 A 
HETATM    7  C7  UNL     1      -0.498  -2.105   0.111  1.00  0.00     0.029 A 
HETATM    8  C8  UNL     1      -1.203  -2.826  -0.879  1.00  0.00     0.123 A 
HETATM    9  O1  UNL     1      -0.293  -3.543  -1.707  1.00  0.00    -0.305 OA
HETATM   10  C19 UNL     1       4.471  -1.916   0.850  1.00  0.00     0.007 A 
HETATM   11  C20 UNL     1       5.658  -2.361   0.398  1.00  0.00     0.069 A 
HETATM   12  C21 UNL     1       5.719  -3.275  -0.764  1.00  0.00     0.300 A 
HETATM   13  O5  UNL     1       4.574  -3.654  -1.367  1.00  0.00    -0.273 OA
HETATM   14  O6  UNL     1       6.803  -3.654  -1.141  1.00  0.00    -0.259 OA
ENDROOT
BRANCH   5  15
HETATM   15  C9  UNL     1       1.793  -1.002   1.746  1.00  0.00     0.169 C 
BRANCH  15  16
HETATM   16  O2  UNL     1       2.262   0.279   1.395  1.00  0.00    -0.347 OA
BRANCH  16  17
HETATM   17  C10 UNL     1       1.318   1.039   0.674  1.00  0.00     0.178 C 
BRANCH  17  18
HETATM   18  C11 UNL     1       0.377   1.709   1.676  1.00  0.00     0.206 C 
HETATM   19  O4  UNL     1       1.107   2.688   2.379  1.00  0.00    -0.218 OA
BRANCH  18  20
HETATM   20  C12 UNL     1      -0.812   2.393   1.000  1.00  0.00     0.123 C 
HETATM   21  C13 UNL     1      -1.730   3.098   1.998  1.00  0.00     0.032 C 
HETATM   22  C14 UNL     1      -0.393   3.299  -0.158  1.00  0.00     0.032 C 
BRANCH  20  23
HETATM   23  O3  UNL     1      -1.506   1.287   0.467  1.00  0.00    -0.356 OA
BRANCH  23  24
HETATM   24  C15 UNL     1      -2.688   1.649  -0.213  1.00  0.00     0.142 C 
BRANCH  24  25
HETATM   25  C16 UNL     1      -3.318   0.379  -0.785  1.00  0.00     0.032 C 
BRANCH  25  26
HETATM   26  C17 UNL     1      -4.648   0.647  -1.488  1.00  0.00     0.003 C 
HETATM   27  C18 UNL     1      -4.481   1.434  -2.789  1.00  0.00     0.000 C 
ENDBRANCH  25  26
ENDBRANCH  24  25
ENDBRANCH  23  24
ENDBRANCH  20  23
ENDBRANCH  18  20
ENDBRANCH  17  18
ENDBRANCH  16  17
ENDBRANCH  15  16
ENDBRANCH   5  15
TORSDOF 9
