REMARK  8 active torsions:
REMARK  status: ('A' for Active; 'I' for Inactive)
REMARK    1  A    between atoms: C1_1  and  C18_27 
REMARK    2  A    between atoms: C4_4  and  O3_13 
REMARK    3  A    between atoms: C5_5  and  C7_8 
REMARK    4  A    between atoms: C7_8  and  C8_9 
REMARK    5  A    between atoms: C8_9  and  C9_10 
REMARK    6  A    between atoms: O3_13  and  C11_14 
REMARK    7  A    between atoms: C12_16  and  C16_23 
REMARK    8  A    between atoms: C19_29  and  C23_36 
ROOT
HETATM    1  C1  UNL     1      -1.178   1.492   1.018  1.00  0.00     0.058 A 
HETATM    2  C2  UNL     1      -0.109   1.418   1.930  1.00  0.00     0.129 A 
HETATM    3  C3  UNL     1       1.129   0.893   1.514  1.00  0.00     0.026 A 
HETATM    4  C4  UNL     1       1.301   0.441   0.191  1.00  0.00     0.100 A 
HETATM    5  C5  UNL     1       0.229   0.516  -0.717  1.00  0.00     0.082 A 
HETATM    6  C6  UNL     1      -1.014   1.041  -0.307  1.00  0.00     0.136 A 
HETATM    7  O1  UNL     1      -2.020   1.111  -1.158  1.00  0.00    -0.190 OA
HETATM    8  C17 UNL     1       2.262   0.814   2.479  1.00  0.00     0.035 C 
HETATM    9  O9  UNL     1      -0.268   1.842   3.170  1.00  0.00    -0.191 OA
ENDROOT
BRANCH   4  10
HETATM   10  O3  UNL     1       2.463  -0.051  -0.189  1.00  0.00    -0.304 OA
BRANCH  10  11
HETATM   11  C11 UNL     1       2.561  -1.455  -0.393  1.00  0.00     0.274 C 
HETATM   12  O4  UNL     1       2.238  -2.115   0.822  1.00  0.00    -0.326 OA
HETATM   13  C12 UNL     1       2.248  -3.537   0.754  1.00  0.00     0.184 C 
HETATM   14  C13 UNL     1       3.668  -4.023   0.381  1.00  0.00     0.215 C 
HETATM   15  C14 UNL     1       4.166  -3.361  -0.922  1.00  0.00     0.220 C 
HETATM   16  O7  UNL     1       3.637  -5.430   0.223  1.00  0.00    -0.218 OA
HETATM   17  C15 UNL     1       3.994  -1.828  -0.826  1.00  0.00     0.241 C 
HETATM   18  O6  UNL     1       5.533  -3.678  -1.133  1.00  0.00    -0.218 OA
HETATM   19  O5  UNL     1       4.256  -1.232  -2.082  1.00  0.00    -0.215 OA
BRANCH  13  20
HETATM   20  C16 UNL     1       1.779  -4.047   2.119  1.00  0.00     0.214 C 
HETATM   21  O8  UNL     1       0.422  -3.701   2.277  1.00  0.00    -0.218 OA
ENDBRANCH  13  20
ENDBRANCH  10  11
ENDBRANCH   4  10
BRANCH   5  22
HETATM   22  C7  UNL     1       0.406   0.037  -2.123  1.00  0.00     0.177 C 
HETATM   23  O2  UNL     1      -0.307  -0.826  -2.582  1.00  0.00    -0.291 OA
BRANCH  22  24
HETATM   24  C8  UNL     1       1.498   0.658  -2.951  1.00  0.00     0.069 C 
BRANCH  24  25
HETATM   25  C9  UNL     1       1.705  -0.063  -4.283  1.00  0.00     0.008 C 
HETATM   26  C10 UNL     1       2.822   0.557  -5.123  1.00  0.00     0.001 C 
ENDBRANCH  24  25
ENDBRANCH  22  24
ENDBRANCH   5  22
BRANCH   1  27
HETATM   27  C18 UNL     1      -2.488   2.047   1.453  1.00  0.00     0.174 C 
HETATM   28  O10 UNL     1      -3.512   1.172   0.992  1.00  0.00    -0.347 OA
HETATM   29  C19 UNL     1      -4.828   1.500   1.416  1.00  0.00     0.181 C 
HETATM   30  C20 UNL     1      -5.211   2.893   0.865  1.00  0.00     0.214 C 
HETATM   31  C21 UNL     1      -4.174   3.961   1.275  1.00  0.00     0.218 C 
HETATM   32  O13 UNL     1      -6.488   3.242   1.369  1.00  0.00    -0.218 OA
HETATM   33  C22 UNL     1      -2.752   3.479   0.914  1.00  0.00     0.216 C 
HETATM   34  O12 UNL     1      -4.455   5.182   0.611  1.00  0.00    -0.218 OA
HETATM   35  O11 UNL     1      -1.799   4.373   1.467  1.00  0.00    -0.218 OA
BRANCH  29  36
HETATM   36  C23 UNL     1      -5.748   0.385   0.908  1.00  0.00     0.214 C 
HETATM   37  O14 UNL     1      -5.420  -0.803   1.594  1.00  0.00    -0.218 OA
ENDBRANCH  29  36
ENDBRANCH   1  27
TORSDOF 8
