REMARK  7 active torsions:
REMARK  status: ('A' for Active; 'I' for Inactive)
REMARK    1  A    between atoms: C4_4  and  O3_9 
REMARK    2  A    between atoms: C5_6  and  C6_7 
REMARK    3  A    between atoms: O3_9  and  C7_10 
REMARK    4  A    between atoms: C9_12  and  C14_18 
REMARK    5  A    between atoms: C12_15  and  O4_16 
REMARK    6  A    between atoms: C14_18  and  C15_19 
REMARK    7  A    between atoms: C15_19  and  C16_20 
ROOT
HETATM    1  C7  UNL     1       1.215  -0.191   1.016  1.00  0.00     0.119 A 
HETATM    2  C8  UNL     1       1.654  -0.941  -0.088  1.00  0.00     0.022 A 
HETATM    3  C9  UNL     1       1.650  -2.348  -0.035  1.00  0.00    -0.019 A 
HETATM    4  C10 UNL     1       1.207  -3.002   1.125  1.00  0.00    -0.002 A 
HETATM    5  C11 UNL     1       0.769  -2.254   2.231  1.00  0.00     0.026 A 
HETATM    6  C12 UNL     1       0.771  -0.848   2.180  1.00  0.00     0.116 A 
ENDROOT
BRANCH   1   7
HETATM    7  O3  UNL     1       1.221   1.127   0.959  1.00  0.00    -0.302 OA
BRANCH   7   8
HETATM    8  C4  UNL     1       0.740   1.746  -0.228  1.00  0.00     0.274 C 
HETATM    9  C3  UNL     1       0.758   3.303  -0.115  1.00  0.00     0.241 C 
HETATM   10  C2  UNL     1      -0.395   3.973  -0.892  1.00  0.00     0.220 C 
HETATM   11  O7  UNL     1       0.658   3.705   1.240  1.00  0.00    -0.215 OA
HETATM   12  C1  UNL     1      -1.766   3.322  -0.547  1.00  0.00     0.215 C 
HETATM   13  O8  UNL     1      -0.143   3.799  -2.275  1.00  0.00    -0.218 OA
HETATM   14  C5  UNL     1      -1.643   1.897   0.057  1.00  0.00     0.184 C 
HETATM   15  O9  UNL     1      -2.442   4.139   0.393  1.00  0.00    -0.218 OA
HETATM   16  O1  UNL     1      -0.549   1.231  -0.555  1.00  0.00    -0.326 OA
BRANCH  14  17
HETATM   17  C6  UNL     1      -2.893   1.049  -0.189  1.00  0.00     0.214 C 
HETATM   18  O2  UNL     1      -2.779  -0.133   0.570  1.00  0.00    -0.218 OA
ENDBRANCH  14  17
ENDBRANCH   7   8
ENDBRANCH   1   7
BRANCH   6  19
HETATM   19  O4  UNL     1       0.357  -0.152   3.219  1.00  0.00    -0.326 OA
HETATM   20  C13 UNL     1      -0.252  -0.855   4.291  1.00  0.00     0.181 C 
ENDBRANCH   6  19
BRANCH   3  21
HETATM   21  C14 UNL     1       2.115  -3.137  -1.207  1.00  0.00     0.038 C 
BRANCH  21  22
HETATM   22  C15 UNL     1       0.969  -3.439  -2.172  1.00  0.00     0.102 C 
BRANCH  22  23
HETATM   23  C16 UNL     1       1.424  -4.221  -3.375  1.00  0.00     0.186 C 
HETATM   24  O5  UNL     1       0.510  -4.373  -4.328  1.00  0.00    -0.647 OA
HETATM   25  O6  UNL     1       2.545  -4.666  -3.441  1.00  0.00    -0.647 OA
ENDBRANCH  22  23
ENDBRANCH  21  22
ENDBRANCH   3  21
TORSDOF 7
