REMARK  4 active torsions:
REMARK  status: ('A' for Active; 'I' for Inactive)
REMARK    1  A    between atoms: C3_3  and  C19_23 
REMARK    2  A    between atoms: C7_7  and  C12_12 
REMARK    3  A    between atoms: C12_12  and  C13_13 
REMARK    4  A    between atoms: C13_13  and  C14_14 
ROOT
HETATM    1  C1  UNL     1      -2.865  -0.873  -0.668  1.00  0.00     0.033 C 
HETATM    2  C2  UNL     1      -2.531  -2.348  -1.014  1.00  0.00     0.154 C 
HETATM    3  C3  UNL     1      -1.365  -2.922  -0.170  1.00  0.00     0.059 C 
HETATM    4  C4  UNL     1      -0.082  -2.020  -0.227  1.00  0.00     0.005 C 
HETATM    5  C5  UNL     1      -0.324  -0.535  -0.619  1.00  0.00     0.004 C 
HETATM    6  C6  UNL     1      -1.686  -0.080  -0.064  1.00  0.00     0.003 C 
HETATM    7  C7  UNL     1       0.844   0.293  -0.023  1.00  0.00     0.021 C 
HETATM    8  C8  UNL     1       2.193  -0.352  -0.305  1.00  0.00    -0.044 C 
HETATM    9  C9  UNL     1       2.262  -1.566  -1.215  1.00  0.00     0.022 C 
HETATM   10  C10 UNL     1       1.115  -2.588  -1.020  1.00  0.00     0.004 C 
HETATM   11  C11 UNL     1       3.314   0.141   0.256  1.00  0.00    -0.009 C 
HETATM   12  C18 UNL     1      -0.334  -0.336  -2.148  1.00  0.00     0.000 C 
HETATM   13  C20 UNL     1      -1.861  -3.000   1.281  1.00  0.00     0.005 C 
HETATM   14  O6  UNL     1      -2.240  -2.467  -2.395  1.00  0.00    -0.223 OA
ENDROOT
BRANCH   7  15
HETATM   15  C12 UNL     1       0.824   1.758  -0.484  1.00  0.00     0.038 C 
BRANCH  15  16
HETATM   16  C13 UNL     1       1.525   2.695   0.498  1.00  0.00     0.164 C 
HETATM   17  O4  UNL     1       2.594   3.322  -0.176  1.00  0.00    -0.223 OA
BRANCH  16  18
HETATM   18  C14 UNL     1       0.547   3.777   0.953  1.00  0.00     0.150 C 
HETATM   19  C15 UNL     1      -0.506   3.287   1.904  1.00  0.00     0.277 C 
HETATM   20  O1  UNL     1      -0.762   4.141   2.891  1.00  0.00    -0.299 OA
HETATM   21  O3  UNL     1      -1.049   2.215   1.772  1.00  0.00    -0.264 OA
HETATM   22  C16 UNL     1      -0.031   5.334   2.615  1.00  0.00     0.185 C 
HETATM   23  C17 UNL     1       1.170   4.939   1.746  1.00  0.00     0.194 C 
HETATM   24  O2  UNL     1       2.225   4.496   2.584  1.00  0.00    -0.220 OA
ENDBRANCH  16  18
ENDBRANCH  15  16
ENDBRANCH   7  15
BRANCH   3  25
HETATM   25  C19 UNL     1      -1.061  -4.371  -0.588  1.00  0.00     0.185 C 
HETATM   26  O5  UNL     1      -2.258  -5.110  -0.521  1.00  0.00    -0.221 OA
ENDBRANCH   3  25
TORSDOF 4
