REMARK  9 active torsions:
REMARK  status: ('A' for Active; 'I' for Inactive)
REMARK    1  A    between atoms: C1_1  and  O9_37 
REMARK    2  A    between atoms: C2_2  and  O8_35 
REMARK    3  A    between atoms: C6_6  and  O1_7 
REMARK    4  A    between atoms: C11_12  and  O5_25 
REMARK    5  A    between atoms: C14_15  and  O4_23 
REMARK    6  A    between atoms: C15_16  and  O3_21 
REMARK    7  A    between atoms: C16_17  and  O2_19 
REMARK    8  A    between atoms: O5_25  and  C21_26 
REMARK    9  A    between atoms: C22_27  and  C23_28 
ROOT
HETATM    1  C1  UNL     1       2.396   2.031   0.209  1.00  0.00     0.138 A 
HETATM    2  C2  UNL     1       1.918   0.725   0.018  1.00  0.00     0.118 A 
HETATM    3  C3  UNL     1       0.578   0.490  -0.371  1.00  0.00     0.026 A 
HETATM    4  C4  UNL     1      -0.303   1.621  -0.561  1.00  0.00    -0.000 A 
HETATM    5  C5  UNL     1       0.211   2.912  -0.346  1.00  0.00     0.026 A 
HETATM    6  C6  UNL     1       1.541   3.125   0.031  1.00  0.00     0.118 A 
HETATM    7  C8  UNL     1      -1.740   1.619  -0.994  1.00  0.00    -0.024 C 
HETATM    8  C9  UNL     1      -2.651   0.371  -0.902  1.00  0.00     0.053 C 
HETATM    9  C10 UNL     1      -2.914  -0.203   0.529  1.00  0.00     0.157 C 
HETATM   10  C11 UNL     1      -1.656  -0.772   1.268  1.00  0.00     0.143 C 
HETATM   11  C12 UNL     1      -0.832  -1.541   0.275  1.00  0.00     0.009 A 
HETATM   12  C13 UNL     1       0.172  -0.926  -0.553  1.00  0.00     0.025 A 
HETATM   13  C14 UNL     1       0.814  -1.699  -1.547  1.00  0.00     0.118 A 
HETATM   14  C15 UNL     1       0.527  -3.067  -1.687  1.00  0.00     0.138 A 
HETATM   15  C16 UNL     1      -0.410  -3.680  -0.848  1.00  0.00     0.118 A 
HETATM   16  C17 UNL     1      -1.084  -2.918   0.119  1.00  0.00     0.024 A 
HETATM   17  C25 UNL     1      -2.065  -1.629   2.484  1.00  0.00     0.037 C 
HETATM   18  O7  UNL     1      -3.492   0.811   1.330  1.00  0.00    -0.223 OA
HETATM   19  C26 UNL     1      -3.998  -1.291   0.434  1.00  0.00     0.036 C 
HETATM   20  C27 UNL     1      -3.986   0.713  -1.592  1.00  0.00     0.007 C 
ENDROOT
BRANCH  10  21
HETATM   21  O5  UNL     1      -0.904   0.283   1.858  1.00  0.00    -0.327 OA
BRANCH  21  22
HETATM   22  C21 UNL     1       0.150  -0.162   2.531  1.00  0.00     0.115 C 
HETATM   23  C22 UNL     1       0.738   0.607   3.463  1.00  0.00     0.044 C 
HETATM   24  C24 UNL     1       0.174   1.978   3.721  1.00  0.00     0.037 C 
BRANCH  23  25
HETATM   25  C23 UNL     1       1.904   0.174   4.240  1.00  0.00     0.232 C 
HETATM   26  O6  UNL     1       2.258  -0.982   4.217  1.00  0.00    -0.283 OA
ENDBRANCH  23  25
ENDBRANCH  21  22
ENDBRANCH  10  21
BRANCH  13  27
HETATM   27  O4  UNL     1       1.701  -1.145  -2.352  1.00  0.00    -0.326 OA
HETATM   28  C20 UNL     1       1.287  -0.043  -3.145  1.00  0.00     0.181 C 
ENDBRANCH  13  27
BRANCH  15  29
HETATM   29  O2  UNL     1      -0.668  -4.965  -0.961  1.00  0.00    -0.326 OA
HETATM   30  C18 UNL     1      -0.832  -5.500  -2.268  1.00  0.00     0.181 C 
ENDBRANCH  15  29
BRANCH   2  31
HETATM   31  O8  UNL     1       2.750  -0.283   0.211  1.00  0.00    -0.326 OA
HETATM   32  C28 UNL     1       3.637  -0.213   1.316  1.00  0.00     0.181 C 
ENDBRANCH   2  31
BRANCH  14  33
HETATM   33  O3  UNL     1       1.144  -3.775  -2.611  1.00  0.00    -0.324 OA
HETATM   34  C19 UNL     1       1.283  -3.209  -3.906  1.00  0.00     0.182 C 
ENDBRANCH  14  33
BRANCH   1  35
HETATM   35  O9  UNL     1       3.652   2.227   0.561  1.00  0.00    -0.324 OA
HETATM   36  C29 UNL     1       4.373   3.262  -0.092  1.00  0.00     0.182 C 
ENDBRANCH   1  35
BRANCH   6  37
HETATM   37  O1  UNL     1       1.982   4.354   0.217  1.00  0.00    -0.326 OA
HETATM   38  C7  UNL     1       1.033   5.410   0.207  1.00  0.00     0.181 C 
ENDBRANCH   6  37
TORSDOF 9
