REMARK  15 active torsions:
REMARK  status: ('A' for Active; 'I' for Inactive)
REMARK    1  A    between atoms: C1_1  and  O17_50 
REMARK    2  A    between atoms: C2_2  and  O11_38 
REMARK    3  A    between atoms: C3_3  and  O10_36 
REMARK    4  A    between atoms: C4_4  and  C10_11 
REMARK    5  A    between atoms: C5_5  and  C7_7 
REMARK    6  A    between atoms: C8_8  and  C9_9 
REMARK    7  A    between atoms: C10_11  and  C11_12 
REMARK    8  A    between atoms: C12_13  and  C13_14 
REMARK    9  A    between atoms: C15_16  and  O9_34 
REMARK   10  A    between atoms: C16_17  and  O3_22 
REMARK   11  A    between atoms: C17_18  and  O2_20 
REMARK   12  A    between atoms: O3_22  and  C20_23 
REMARK   13  A    between atoms: C24_30  and  C25_32 
REMARK   14  A    between atoms: O11_38  and  C28_39 
REMARK   15  A    between atoms: C32_46  and  C33_48 
ROOT
HETATM    1  C1  UNL     1      -3.281  -1.270   2.674  1.00  0.00     0.118 A 
HETATM    2  C2  UNL     1      -2.346  -2.254   2.307  1.00  0.00     0.141 A 
HETATM    3  C3  UNL     1      -1.106  -1.879   1.758  1.00  0.00     0.115 A 
HETATM    4  C4  UNL     1      -0.801  -0.516   1.576  1.00  0.00     0.007 A 
HETATM    5  C5  UNL     1      -1.738   0.471   1.945  1.00  0.00     0.000 A 
HETATM    6  C6  UNL     1      -2.975   0.088   2.492  1.00  0.00     0.026 A 
ENDROOT
BRANCH   4   7
HETATM    7  C10 UNL     1       0.516  -0.125   0.996  1.00  0.00     0.054 C 
BRANCH   7   8
HETATM    8  C11 UNL     1       1.584   0.000   2.049  1.00  0.00    -0.021 C 
HETATM    9  C12 UNL     1       2.746   0.586   1.715  1.00  0.00    -0.004 C 
BRANCH   9  10
HETATM   10  C13 UNL     1       2.922   1.086   0.318  1.00  0.00     0.004 A 
HETATM   11  C14 UNL     1       2.988   0.178  -0.752  1.00  0.00     0.026 A 
HETATM   12  C15 UNL     1       3.154   0.646  -2.068  1.00  0.00     0.118 A 
HETATM   13  C16 UNL     1       3.252   2.029  -2.313  1.00  0.00     0.141 A 
HETATM   14  C17 UNL     1       3.185   2.941  -1.242  1.00  0.00     0.118 A 
HETATM   15  C18 UNL     1       3.019   2.467   0.072  1.00  0.00     0.026 A 
BRANCH  12  16
HETATM   16  O9  UNL     1       3.217  -0.211  -3.066  1.00  0.00    -0.326 OA
HETATM   17  C26 UNL     1       3.051  -1.590  -2.773  1.00  0.00     0.181 C 
ENDBRANCH  12  16
BRANCH  13  18
HETATM   18  O3  UNL     1       3.406   2.471  -3.545  1.00  0.00    -0.300 OA
BRANCH  18  19
HETATM   19  C20 UNL     1       2.416   3.342  -4.072  1.00  0.00     0.274 C 
HETATM   20  C21 UNL     1       1.629   2.627  -5.193  1.00  0.00     0.241 C 
HETATM   21  O4  UNL     1       0.924   1.537  -4.627  1.00  0.00    -0.215 OA
HETATM   22  C22 UNL     1       0.642   3.598  -5.879  1.00  0.00     0.220 C 
HETATM   23  O5  UNL     1      -0.006   2.977  -6.979  1.00  0.00    -0.218 OA
HETATM   24  C23 UNL     1       1.379   4.883  -6.326  1.00  0.00     0.215 C 
HETATM   25  O6  UNL     1       2.264   4.613  -7.404  1.00  0.00    -0.218 OA
HETATM   26  C24 UNL     1       2.195   5.488  -5.158  1.00  0.00     0.184 C 
HETATM   27  O7  UNL     1       3.059   4.506  -4.586  1.00  0.00    -0.326 OA
BRANCH  26  28
HETATM   28  C25 UNL     1       1.303   6.076  -4.057  1.00  0.00     0.214 C 
HETATM   29  O8  UNL     1       2.137   6.637  -3.066  1.00  0.00    -0.218 OA
ENDBRANCH  26  28
ENDBRANCH  18  19
ENDBRANCH  13  18
BRANCH  14  30
HETATM   30  O2  UNL     1       3.277   4.236  -1.467  1.00  0.00    -0.326 OA
HETATM   31  C19 UNL     1       3.410   5.100  -0.348  1.00  0.00     0.181 C 
ENDBRANCH  14  30
ENDBRANCH   9  10
ENDBRANCH   7   8
ENDBRANCH   4   7
BRANCH   3  32
HETATM   32  O10 UNL     1      -0.233  -2.805   1.416  1.00  0.00    -0.326 OA
HETATM   33  C27 UNL     1      -0.611  -3.742   0.418  1.00  0.00     0.181 C 
ENDBRANCH   3  32
BRANCH   5  34
HETATM   34  C7  UNL     1      -1.432   1.924   1.760  1.00  0.00    -0.002 C 
HETATM   35  C8  UNL     1      -1.447   2.432   0.518  1.00  0.00     0.009 C 
BRANCH  35  36
HETATM   36  C9  UNL     1      -1.139   3.895   0.336  1.00  0.00     0.209 C 
HETATM   37  O1  UNL     1      -0.588   4.104  -0.945  1.00  0.00    -0.215 OA
ENDBRANCH  35  36
ENDBRANCH   5  34
BRANCH   2  38
HETATM   38  O11 UNL     1      -2.631  -3.531   2.477  1.00  0.00    -0.300 OA
BRANCH  38  39
HETATM   39  C28 UNL     1      -2.846  -3.996   3.803  1.00  0.00     0.274 C 
HETATM   40  C29 UNL     1      -3.926  -5.115   3.805  1.00  0.00     0.241 C 
HETATM   41  O12 UNL     1      -4.805  -4.941   4.906  1.00  0.00    -0.215 OA
HETATM   42  C30 UNL     1      -3.340  -6.557   3.746  1.00  0.00     0.220 C 
HETATM   43  O13 UNL     1      -3.111  -7.098   5.041  1.00  0.00    -0.218 OA
HETATM   44  C31 UNL     1      -2.006  -6.504   2.969  1.00  0.00     0.215 C 
HETATM   45  O14 UNL     1      -1.449  -7.799   2.822  1.00  0.00    -0.218 OA
HETATM   46  C32 UNL     1      -0.975  -5.498   3.572  1.00  0.00     0.184 C 
HETATM   47  O15 UNL     1      -1.623  -4.486   4.344  1.00  0.00    -0.326 OA
BRANCH  46  48
HETATM   48  C33 UNL     1       0.072  -6.125   4.502  1.00  0.00     0.214 C 
HETATM   49  O16 UNL     1       1.031  -5.141   4.816  1.00  0.00    -0.218 OA
ENDBRANCH  46  48
ENDBRANCH  38  39
ENDBRANCH   2  38
BRANCH   1  50
HETATM   50  O17 UNL     1      -4.444  -1.619   3.188  1.00  0.00    -0.326 OA
HETATM   51  C34 UNL     1      -5.389  -0.594   3.457  1.00  0.00     0.181 C 
ENDBRANCH   1  50
TORSDOF 15
