REMARK  16 active torsions:
REMARK  status: ('A' for Active; 'I' for Inactive)
REMARK    1  A    between atoms: C2_2  and  C15_23 
REMARK    2  A    between atoms: C4_4  and  O8_21 
REMARK    3  A    between atoms: C5_5  and  O2_9 
REMARK    4  A    between atoms: C6_6  and  O1_7 
REMARK    5  A    between atoms: O2_9  and  C8_10 
REMARK    6  A    between atoms: C12_17  and  C13_19 
REMARK    7  A    between atoms: C16_24  and  C17_25 
REMARK    8  A    between atoms: C17_25  and  O9_26 
REMARK    9  A    between atoms: O9_26  and  C18_27 
REMARK   10  A    between atoms: C18_27  and  C19_28 
REMARK   11  A    between atoms: C19_28  and  C20_29 
REMARK   12  A    between atoms: C20_29  and  C21_30 
REMARK   13  A    between atoms: C20_29  and  C24_35 
REMARK   14  A    between atoms: C21_30  and  C22_31 
REMARK   15  A    between atoms: C24_35  and  C25_36 
REMARK   16  A    between atoms: C29_43  and  C30_45 
ROOT
HETATM    1  C15 UNL     1       0.820  -0.377   2.486  1.00  0.00    -0.002 C 
HETATM    2  C16 UNL     1       1.656  -1.000   1.639  1.00  0.00     0.006 C 
ENDROOT
BRANCH   2   3
HETATM    3  C17 UNL     1       1.705  -2.506   1.656  1.00  0.00     0.178 C 
BRANCH   3   4
HETATM    4  O9  UNL     1       2.299  -2.973   0.455  1.00  0.00    -0.297 OA
BRANCH   4   5
HETATM    5  C18 UNL     1       2.348  -4.301   0.398  1.00  0.00     0.272 C 
HETATM    6  O17 UNL     1       1.930  -5.027   1.272  1.00  0.00    -0.264 OA
BRANCH   5   7
HETATM    7  C19 UNL     1       2.969  -4.867  -0.850  1.00  0.00     0.096 C 
BRANCH   7   8
HETATM    8  C20 UNL     1       1.928  -5.438  -1.813  1.00  0.00     0.022 C 
HETATM    9  C23 UNL     1       1.006  -6.459  -1.148  1.00  0.00     0.001 C 
BRANCH   8  10
HETATM   10  C21 UNL     1       3.012  -6.092  -2.670  1.00  0.00     0.098 C 
BRANCH  10  11
HETATM   11  C22 UNL     1       3.516  -7.379  -2.074  1.00  0.00     0.185 C 
HETATM   12  O10 UNL     1       2.709  -8.426  -2.227  1.00  0.00    -0.647 OA
HETATM   13  O11 UNL     1       4.580  -7.428  -1.506  1.00  0.00    -0.647 OA
ENDBRANCH  10  11
ENDBRANCH   8  10
BRANCH   8  14
HETATM   14  C24 UNL     1       1.160  -4.348  -2.563  1.00  0.00     0.033 C 
BRANCH  14  15
HETATM   15  C25 UNL     1      -0.019  -3.797  -1.758  1.00  0.00     0.148 C 
HETATM   16  C26 UNL     1      -0.350  -2.326  -2.102  1.00  0.00     0.212 C 
HETATM   17  O12 UNL     1       0.744  -1.512  -1.715  1.00  0.00    -0.218 OA
HETATM   18  C27 UNL     1      -1.633  -1.857  -1.385  1.00  0.00     0.217 C 
HETATM   19  O13 UNL     1      -2.012  -0.574  -1.857  1.00  0.00    -0.218 OA
HETATM   20  C28 UNL     1      -2.771  -2.869  -1.643  1.00  0.00     0.214 C 
HETATM   21  O14 UNL     1      -3.889  -2.553  -0.828  1.00  0.00    -0.218 OA
HETATM   22  C29 UNL     1      -2.324  -4.313  -1.326  1.00  0.00     0.181 C 
HETATM   23  O15 UNL     1      -1.143  -4.615  -2.059  1.00  0.00    -0.351 OA
BRANCH  22  24
HETATM   24  C30 UNL     1      -3.369  -5.361  -1.719  1.00  0.00     0.214 C 
HETATM   25  O16 UNL     1      -2.943  -6.613  -1.232  1.00  0.00    -0.218 OA
ENDBRANCH  22  24
ENDBRANCH  14  15
ENDBRANCH   8  14
ENDBRANCH   7   8
ENDBRANCH   5   7
ENDBRANCH   4   5
ENDBRANCH   3   4
ENDBRANCH   2   3
BRANCH   1  26
HETATM   26  C2  UNL     1       0.770   1.117   2.473  1.00  0.00     0.004 A 
HETATM   27  C1  UNL     1       1.582   1.842   1.584  1.00  0.00     0.026 A 
HETATM   28  C6  UNL     1       1.535   3.246   1.568  1.00  0.00     0.118 A 
HETATM   29  C5  UNL     1       0.672   3.928   2.445  1.00  0.00     0.141 A 
HETATM   30  C4  UNL     1      -0.144   3.205   3.336  1.00  0.00     0.118 A 
HETATM   31  C3  UNL     1      -0.094   1.799   3.348  1.00  0.00     0.026 A 
BRANCH  28  32
HETATM   32  O1  UNL     1       2.301   3.920   0.732  1.00  0.00    -0.326 OA
HETATM   33  C7  UNL     1       3.252   3.195  -0.033  1.00  0.00     0.181 C 
ENDBRANCH  28  32
BRANCH  29  34
HETATM   34  O2  UNL     1       0.625   5.246   2.432  1.00  0.00    -0.300 OA
BRANCH  34  35
HETATM   35  C8  UNL     1       0.137   5.885   1.262  1.00  0.00     0.274 C 
HETATM   36  C9  UNL     1       0.332   7.412   1.371  1.00  0.00     0.241 C 
HETATM   37  O3  UNL     1       1.723   7.686   1.410  1.00  0.00    -0.215 OA
HETATM   38  C10 UNL     1      -0.314   8.147   0.176  1.00  0.00     0.220 C 
HETATM   39  O4  UNL     1      -0.287   9.547   0.400  1.00  0.00    -0.218 OA
HETATM   40  C11 UNL     1      -1.773   7.670  -0.002  1.00  0.00     0.215 C 
HETATM   41  O5  UNL     1      -2.303   8.188  -1.209  1.00  0.00    -0.218 OA
HETATM   42  C12 UNL     1      -1.861   6.127  -0.043  1.00  0.00     0.184 C 
HETATM   43  O6  UNL     1      -1.246   5.588   1.121  1.00  0.00    -0.326 OA
BRANCH  42  44
HETATM   44  C13 UNL     1      -3.303   5.611  -0.061  1.00  0.00     0.214 C 
HETATM   45  O7  UNL     1      -3.270   4.221  -0.287  1.00  0.00    -0.218 OA
ENDBRANCH  42  44
ENDBRANCH  34  35
ENDBRANCH  29  34
BRANCH  30  46
HETATM   46  O8  UNL     1      -0.955   3.840   4.158  1.00  0.00    -0.326 OA
HETATM   47  C14 UNL     1      -1.756   3.063   5.035  1.00  0.00     0.181 C 
ENDBRANCH  30  46
ENDBRANCH   1  26
TORSDOF 16
