REMARK  8 active torsions:
REMARK  status: ('A' for Active; 'I' for Inactive)
REMARK    1  A    between atoms: C2_2  and  O7_28 
REMARK    2  A    between atoms: C4_4  and  C13_17 
REMARK    3  A    between atoms: C5_6  and  C6_7 
REMARK    4  A    between atoms: C10_11  and  O2_13 
REMARK    5  A    between atoms: C13_17  and  C14_18 
REMARK    6  A    between atoms: C14_18  and  C15_19 
REMARK    7  A    between atoms: C19_23  and  O5_25 
REMARK    8  A    between atoms: O7_28  and  C22_29 
ROOT
HETATM    1  C1  UNL     1      -1.290   2.407   1.509  1.00  0.00     0.065 C 
HETATM    2  C2  UNL     1      -1.426   1.586   2.797  1.00  0.00     0.130 C 
HETATM    3  C3  UNL     1      -0.552   0.330   2.711  1.00  0.00     0.060 C 
HETATM    4  C4  UNL     1      -0.832  -0.456   1.416  1.00  0.00     0.118 C 
HETATM    5  O1  UNL     1      -0.667   0.402   0.291  1.00  0.00    -0.355 OA
HETATM    6  C5  UNL     1      -1.535   1.530   0.262  1.00  0.00     0.140 C 
ENDROOT
BRANCH   4   7
HETATM    7  C13 UNL     1       0.125  -1.636   1.239  1.00  0.00     0.034 C 
BRANCH   7   8
HETATM    8  C14 UNL     1      -0.284  -2.561   0.093  1.00  0.00     0.029 C 
BRANCH   8   9
HETATM    9  C15 UNL     1       0.646  -3.713  -0.040  1.00  0.00    -0.020 A 
HETATM   10  C16 UNL     1       0.264  -4.985   0.419  1.00  0.00    -0.002 A 
HETATM   11  C17 UNL     1       1.146  -6.071   0.292  1.00  0.00     0.029 A 
HETATM   12  C18 UNL     1       2.412  -5.891  -0.294  1.00  0.00     0.153 A 
HETATM   13  C19 UNL     1       2.796  -4.617  -0.753  1.00  0.00     0.119 A 
HETATM   14  O6  UNL     1       3.234  -6.915  -0.409  1.00  0.00    -0.188 OA
HETATM   15  C20 UNL     1       1.912  -3.531  -0.625  1.00  0.00     0.022 A 
BRANCH  13  16
HETATM   16  O5  UNL     1       3.980  -4.439  -1.303  1.00  0.00    -0.326 OA
HETATM   17  C21 UNL     1       4.265  -3.172  -1.877  1.00  0.00     0.181 C 
ENDBRANCH  13  16
ENDBRANCH   8   9
ENDBRANCH   7   8
ENDBRANCH   4   7
BRANCH   2  18
HETATM   18  O7  UNL     1      -1.030   2.372   3.912  1.00  0.00    -0.304 OA
BRANCH  18  19
HETATM   19  C22 UNL     1      -1.417   1.841   5.068  1.00  0.00     0.272 C 
HETATM   20  O8  UNL     1      -2.127   0.867   5.158  1.00  0.00    -0.264 OA
HETATM   21  C23 UNL     1      -0.905   2.542   6.298  1.00  0.00     0.106 C 
ENDBRANCH  18  19
ENDBRANCH   2  18
BRANCH   6  22
HETATM   22  C6  UNL     1      -1.302   2.281  -1.000  1.00  0.00     0.009 A 
HETATM   23  C7  UNL     1      -0.992   3.651  -0.957  1.00  0.00     0.028 A 
HETATM   24  C8  UNL     1      -0.772   4.363  -2.149  1.00  0.00     0.158 A 
HETATM   25  C9  UNL     1      -0.862   3.702  -3.389  1.00  0.00     0.178 A 
HETATM   26  O4  UNL     1      -0.482   5.648  -2.103  1.00  0.00    -0.188 OA
HETATM   27  C10 UNL     1      -1.173   2.329  -3.433  1.00  0.00     0.121 A 
HETATM   28  O3  UNL     1      -0.656   4.368  -4.508  1.00  0.00    -0.186 OA
HETATM   29  C11 UNL     1      -1.392   1.622  -2.238  1.00  0.00     0.025 A 
BRANCH  27  30
HETATM   30  O2  UNL     1      -1.258   1.706  -4.591  1.00  0.00    -0.326 OA
HETATM   31  C12 UNL     1      -1.029   2.460  -5.773  1.00  0.00     0.181 C 
ENDBRANCH  27  30
ENDBRANCH   6  22
TORSDOF 8
