REMARK  10 active torsions:
REMARK  status: ('A' for Active; 'I' for Inactive)
REMARK    1  A    between atoms: C2_2  and  O13_49 
REMARK    2  A    between atoms: C5_5  and  O1_6 
REMARK    3  A    between atoms: O1_6  and  C6_7 
REMARK    4  A    between atoms: C16_20  and  O7_33 
REMARK    5  A    between atoms: C18_22  and  O5_23 
REMARK    6  A    between atoms: O5_23  and  C19_24 
REMARK    7  A    between atoms: C19_24  and  C20_25 
REMARK    8  A    between atoms: O7_33  and  C27_34 
REMARK    9  A    between atoms: C27_34  and  C28_35 
REMARK   10  A    between atoms: O13_49  and  C37_50 
ROOT
HETATM    1  C1  UNL     1      -1.611   0.191  -1.416  1.00  0.00     0.097 C 
HETATM    2  C2  UNL     1      -2.633   1.027  -0.617  1.00  0.00     0.187 C 
HETATM    3  C3  UNL     1      -3.856   1.016  -1.561  1.00  0.00     0.214 C 
HETATM    4  C4  UNL     1      -3.928  -0.469  -1.996  1.00  0.00     0.183 C 
HETATM    5  C5  UNL     1      -2.459  -0.953  -2.008  1.00  0.00     0.160 C 
HETATM    6  C8  UNL     1      -4.811  -1.231  -1.006  1.00  0.00     0.038 C 
HETATM    7  O3  UNL     1      -4.529  -0.652  -3.268  1.00  0.00    -0.221 OA
HETATM    8  O4  UNL     1      -3.654   1.889  -2.666  1.00  0.00    -0.218 OA
HETATM    9  C9  UNL     1      -2.186   2.410  -0.141  1.00  0.00     0.180 C 
HETATM   10  C10 UNL     1      -1.463   3.359  -1.084  1.00  0.00     0.090 C 
HETATM   11  C11 UNL     1      -0.246   4.109  -0.500  1.00  0.00     0.150 A 
HETATM   12  C12 UNL     1       1.293   3.828  -0.775  1.00  0.00     0.149 A 
HETATM   13  C13 UNL     1       1.957   2.725  -1.643  1.00  0.00     0.082 C 
HETATM   14  C14 UNL     1       2.791   1.730  -0.840  1.00  0.00     0.185 C 
HETATM   15  C15 UNL     1       3.117   0.340  -1.367  1.00  0.00     0.240 C 
HETATM   16  C16 UNL     1       2.201  -0.801  -0.863  1.00  0.00     0.183 C 
HETATM   17  C17 UNL     1       0.783  -0.838  -1.410  1.00  0.00     0.013 C 
HETATM   18  C18 UNL     1      -0.340  -0.188  -0.621  1.00  0.00     0.150 C 
HETATM   19  C26 UNL     1       0.549  -1.457  -2.582  1.00  0.00    -0.004 C 
HETATM   20  O9  UNL     1       3.238   0.293  -2.777  1.00  0.00    -0.212 OA
HETATM   21  O10 UNL     1       3.221   2.049   0.244  1.00  0.00    -0.293 OA
HETATM   22  C34 UNL     1       0.953   2.049  -2.570  1.00  0.00     0.010 C 
HETATM   23  C35 UNL     1       2.916   3.549  -2.504  1.00  0.00     0.010 C 
HETATM   24  O11 UNL     1       0.549   3.246   0.248  1.00  0.00    -0.353 OA
HETATM   25  C36 UNL     1      -2.410   4.486  -1.500  1.00  0.00     0.011 C 
HETATM   26  O12 UNL     1      -2.402   2.764   0.998  1.00  0.00    -0.293 OA
ENDROOT
BRANCH  16  27
HETATM   27  O7  UNL     1       2.156  -0.758   0.559  1.00  0.00    -0.294 OA
BRANCH  27  28
HETATM   28  C27 UNL     1       3.309  -1.125   1.111  1.00  0.00     0.296 C 
HETATM   29  O8  UNL     1       4.102  -1.871   0.584  1.00  0.00    -0.259 OA
BRANCH  28  30
HETATM   30  C28 UNL     1       3.580  -0.549   2.463  1.00  0.00     0.063 A 
HETATM   31  C29 UNL     1       2.875   0.590   2.897  1.00  0.00     0.005 A 
HETATM   32  C30 UNL     1       3.131   1.133   4.168  1.00  0.00     0.000 A 
HETATM   33  C31 UNL     1       4.088   0.537   5.006  1.00  0.00     0.000 A 
HETATM   34  C32 UNL     1       4.791  -0.600   4.574  1.00  0.00     0.000 A 
HETATM   35  C33 UNL     1       4.537  -1.143   3.303  1.00  0.00     0.005 A 
ENDBRANCH  28  30
ENDBRANCH  27  28
ENDBRANCH  16  27
BRANCH  18  36
HETATM   36  O5  UNL     1      -0.676  -1.041   0.467  1.00  0.00    -0.296 OA
BRANCH  36  37
HETATM   37  C19 UNL     1      -0.100  -2.235   0.369  1.00  0.00     0.296 C 
HETATM   38  O6  UNL     1      -0.088  -2.897  -0.643  1.00  0.00    -0.259 OA
BRANCH  37  39
HETATM   39  C20 UNL     1       0.551  -2.733   1.619  1.00  0.00     0.063 A 
HETATM   40  C21 UNL     1       0.854  -4.098   1.760  1.00  0.00     0.005 A 
HETATM   41  C22 UNL     1       1.467  -4.565   2.936  1.00  0.00     0.000 A 
HETATM   42  C23 UNL     1       1.775  -3.668   3.971  1.00  0.00     0.000 A 
HETATM   43  C24 UNL     1       1.473  -2.303   3.832  1.00  0.00     0.000 A 
HETATM   44  C25 UNL     1       0.859  -1.834   2.656  1.00  0.00     0.005 A 
ENDBRANCH  37  39
ENDBRANCH  36  37
ENDBRANCH  18  36
BRANCH   2  45
HETATM   45  O13 UNL     1      -2.988   0.301   0.557  1.00  0.00    -0.297 OA
BRANCH  45  46
HETATM   46  C37 UNL     1      -2.121   0.486   1.549  1.00  0.00     0.273 C 
HETATM   47  O14 UNL     1      -1.074   1.078   1.426  1.00  0.00    -0.264 OA
HETATM   48  C38 UNL     1      -2.527  -0.100   2.873  1.00  0.00     0.106 C 
ENDBRANCH  45  46
ENDBRANCH   2  45
BRANCH   5  49
HETATM   49  O1  UNL     1      -2.320  -2.143  -1.242  1.00  0.00    -0.301 OA
BRANCH  49  50
HETATM   50  C6  UNL     1      -2.592  -3.236  -1.951  1.00  0.00     0.272 C 
HETATM   51  O2  UNL     1      -2.678  -3.252  -3.156  1.00  0.00    -0.264 OA
HETATM   52  C7  UNL     1      -2.795  -4.488  -1.143  1.00  0.00     0.106 C 
ENDBRANCH  49  50
ENDBRANCH   5  49
TORSDOF 10
