REMARK  0 active torsions:
REMARK  status: ('A' for Active; 'I' for Inactive)
ROOT
HETATM    1  C1  UNL     1      -0.194  -1.108   0.312  1.00  0.00     0.149 C 
HETATM    2  C2  UNL     1       1.019  -0.283   0.619  1.00  0.00     0.051 C 
HETATM    3  C3  UNL     1       1.197  -0.029   2.113  1.00  0.00     0.007 C 
HETATM    4  C4  UNL     1       2.277  -0.912   0.023  1.00  0.00     0.007 C 
HETATM    5  C5  UNL     1       0.660   1.008  -0.152  1.00  0.00     0.007 C 
HETATM    6  C6  UNL     1      -0.553   1.740   0.447  1.00  0.00     0.001 C 
HETATM    7  C7  UNL     1      -1.733   0.820   0.098  1.00  0.00     0.007 C 
HETATM    8  C8  UNL     1      -1.043  -0.324  -0.650  1.00  0.00     0.051 C 
HETATM    9  C9  UNL     1      -1.975  -1.160  -1.522  1.00  0.00     0.007 C 
HETATM   10  C10 UNL     1       0.000   0.473  -1.432  1.00  0.00     0.007 C 
HETATM   11  O1  UNL     1      -0.442  -2.203   0.758  1.00  0.00    -0.296 OA
ENDROOT
TORSDOF 0
