REMARK  5 active torsions:
REMARK  status: ('A' for Active; 'I' for Inactive)
REMARK    1  A    between atoms: C1_1  and  O3_20 
REMARK    2  A    between atoms: C5_5  and  C7_7 
REMARK    3  A    between atoms: C7_7  and  C8_8 
REMARK    4  A    between atoms: C7_7  and  C10_10 
REMARK    5  A    between atoms: C11_11  and  C12_12 
ROOT
HETATM    1  C7  UNL     1      -0.197   0.244  -0.262  1.00  0.00     0.066 C 
ENDROOT
BRANCH   1   2
HETATM    2  C5  UNL     1       0.484   0.576   1.016  1.00  0.00    -0.012 A 
HETATM    3  C4  UNL     1       0.947  -0.451   1.855  1.00  0.00    -0.001 A 
HETATM    4  C3  UNL     1       1.592  -0.133   3.064  1.00  0.00     0.029 A 
HETATM    5  C2  UNL     1       1.775   1.209   3.436  1.00  0.00     0.153 A 
HETATM    6  C1  UNL     1       1.313   2.240   2.594  1.00  0.00     0.119 A 
HETATM    7  O2  UNL     1       2.381   1.500   4.570  1.00  0.00    -0.188 OA
HETATM    8  C6  UNL     1       0.668   1.920   1.387  1.00  0.00     0.023 A 
BRANCH   6   9
HETATM    9  O3  UNL     1       1.482   3.502   2.936  1.00  0.00    -0.326 OA
HETATM   10  C18 UNL     1       1.066   4.502   2.018  1.00  0.00     0.181 C 
ENDBRANCH   6   9
ENDBRANCH   1   2
BRANCH   1  11
HETATM   11  C8  UNL     1      -1.625   0.719  -0.283  1.00  0.00    -0.018 C 
HETATM   12  C9  UNL     1      -2.494   0.172   0.582  1.00  0.00    -0.004 C 
ENDBRANCH   1  11
BRANCH   1  13
HETATM   13  C10 UNL     1       0.551   0.770  -1.457  1.00  0.00    -0.018 C 
HETATM   14  C11 UNL     1       0.590   0.020  -2.570  1.00  0.00    -0.004 C 
BRANCH  14  15
HETATM   15  C12 UNL     1      -0.109  -1.299  -2.570  1.00  0.00    -0.000 A 
HETATM   16  C13 UNL     1      -1.514  -1.352  -2.570  1.00  0.00     0.002 A 
HETATM   17  C14 UNL     1      -2.170  -2.596  -2.570  1.00  0.00     0.027 A 
HETATM   18  C15 UNL     1      -1.428  -3.789  -2.570  1.00  0.00     0.131 A 
HETATM   19  C16 UNL     1      -0.021  -3.732  -2.570  1.00  0.00     0.027 A 
HETATM   20  O1  UNL     1      -2.045  -4.953  -2.570  1.00  0.00    -0.190 OA
HETATM   21  C17 UNL     1       0.637  -2.492  -2.570  1.00  0.00     0.002 A 
ENDBRANCH  14  15
ENDBRANCH   1  13
TORSDOF 5
