REMARK  13 active torsions:
REMARK  status: ('A' for Active; 'I' for Inactive)
REMARK    1  A    between atoms: C1_1  and  C2_2 
REMARK    2  A    between atoms: C3_3  and  C4_4 
REMARK    3  A    between atoms: C4_4  and  C5_5 
REMARK    4  A    between atoms: C5_5  and  C6_6 
REMARK    5  A    between atoms: C6_6  and  C7_7 
REMARK    6  A    between atoms: C7_7  and  C8_8 
REMARK    7  A    between atoms: C8_8  and  C9_9 
REMARK    8  A    between atoms: C9_9  and  C10_10 
REMARK    9  A    between atoms: C10_10  and  C11_11 
REMARK   10  A    between atoms: C11_11  and  C12_12 
REMARK   11  A    between atoms: C12_12  and  C13_13 
REMARK   12  A    between atoms: C13_13  and  C14_14 
REMARK   13  A    between atoms: C14_14  and  C15_15 
ROOT
HETATM    1  C8  UNL     1       2.188   0.455   0.119  1.00  0.00     0.000 C 
ENDROOT
BRANCH   1   2
HETATM    2  C7  UNL     1       2.799  -0.924   0.371  1.00  0.00     0.000 C 
HETATM    3  C19 UNL     1       3.617  -1.434  -0.816  1.00  0.00     0.000 C 
BRANCH   2   4
HETATM    4  C6  UNL     1       3.565  -0.998   1.692  1.00  0.00     0.000 C 
BRANCH   4   5
HETATM    5  C5  UNL     1       2.641  -1.016   2.910  1.00  0.00     0.004 C 
BRANCH   5   6
HETATM    6  C4  UNL     1       3.402  -1.174   4.227  1.00  0.00     0.022 C 
BRANCH   6   7
HETATM    7  C3  UNL     1       2.541  -0.889   5.428  1.00  0.00    -0.046 C 
HETATM    8  C2  UNL     1       1.256  -1.279   5.401  1.00  0.00     0.001 C 
HETATM    9  C20 UNL     1       3.053  -0.187   6.656  1.00  0.00     0.026 C 
BRANCH   8  10
HETATM   10  C1  UNL     1       0.393  -0.996   6.600  1.00  0.00     0.208 C 
HETATM   11  O1  UNL     1      -0.959  -1.227   6.274  1.00  0.00    -0.215 OA
ENDBRANCH   8  10
ENDBRANCH   6   7
ENDBRANCH   5   6
ENDBRANCH   4   5
ENDBRANCH   2   4
ENDBRANCH   1   2
BRANCH   1  12
HETATM   12  C9  UNL     1       1.227   0.467  -1.068  1.00  0.00     0.000 C 
BRANCH  12  13
HETATM   13  C10 UNL     1       0.496   1.803  -1.223  1.00  0.00     0.000 C 
BRANCH  13  14
HETATM   14  C11 UNL     1      -0.418   1.836  -2.449  1.00  0.00     0.000 C 
HETATM   15  C18 UNL     1      -0.715   3.258  -2.924  1.00  0.00     0.000 C 
BRANCH  14  16
HETATM   16  C12 UNL     1      -1.684   0.998  -2.264  1.00  0.00     0.000 C 
BRANCH  16  17
HETATM   17  C13 UNL     1      -2.475   0.830  -3.561  1.00  0.00     0.000 C 
BRANCH  17  18
HETATM   18  C14 UNL     1      -3.654  -0.133  -3.412  1.00  0.00     0.000 C 
BRANCH  18  19
HETATM   19  C15 UNL     1      -4.377  -0.389  -4.734  1.00  0.00     0.000 C 
HETATM   20  C16 UNL     1      -5.309  -1.600  -4.674  1.00  0.00     0.000 C 
HETATM   21  C17 UNL     1      -5.070   0.861  -5.279  1.00  0.00     0.000 C 
ENDBRANCH  18  19
ENDBRANCH  17  18
ENDBRANCH  16  17
ENDBRANCH  14  16
ENDBRANCH  13  14
ENDBRANCH  12  13
ENDBRANCH   1  12
TORSDOF 13
