REMARK  7 active torsions:
REMARK  status: ('A' for Active; 'I' for Inactive)
REMARK    1  A    between atoms: C18_18  and  O1_20 
REMARK    2  A    between atoms: O1_20  and  C20_21 
REMARK    3  A    between atoms: C21_22  and  O10_41 
REMARK    4  A    between atoms: C23_24  and  O4_29 
REMARK    5  A    between atoms: C24_25  and  C25_27 
REMARK    6  A    between atoms: O4_29  and  C26_30 
REMARK    7  A    between atoms: O10_41  and  C32_42 
ROOT
HETATM    1  O1  UNL     1      -1.945  -0.725   0.145  1.00  0.00    -0.329 OA
ENDROOT
BRANCH   1   2
HETATM    2  C18 UNL     1      -0.986   0.311   0.018  1.00  0.00     0.148 C 
HETATM    3  C17 UNL     1       0.076  -0.031  -1.057  1.00  0.00     0.179 C 
HETATM    4  C16 UNL     1       1.203   1.027  -1.092  1.00  0.00     0.035 C 
HETATM    5  O15 UNL     1       0.641  -1.314  -0.840  1.00  0.00    -0.221 OA
HETATM    6  C15 UNL     1       1.836   1.344   0.295  1.00  0.00     0.003 C 
HETATM    7  C10 UNL     1       2.871   2.508   0.182  1.00  0.00     0.000 C 
HETATM    8  C14 UNL     1       0.719   1.705   1.314  1.00  0.00     0.003 C 
HETATM    9  C38 UNL     1       2.582   0.088   0.779  1.00  0.00     0.000 C 
HETATM   10  C9  UNL     1       3.816   2.580   1.406  1.00  0.00     0.000 C 
HETATM   11  C11 UNL     1       2.211   3.871  -0.115  1.00  0.00     0.000 C 
HETATM   12  C8  UNL     1       4.326   3.988   1.777  1.00  0.00     0.000 C 
HETATM   13  C7  UNL     1       4.492   4.996   0.627  1.00  0.00     0.003 C 
HETATM   14  C3  UNL     1       5.742   4.838  -0.295  1.00  0.00     0.032 C 
HETATM   15  C6  UNL     1       3.225   5.033  -0.268  1.00  0.00     0.003 C 
HETATM   16  C39 UNL     1       4.633   6.399   1.232  1.00  0.00     0.000 C 
HETATM   17  C2  UNL     1       6.668   3.606  -0.143  1.00  0.00     0.054 C 
HETATM   18  C4  UNL     1       5.197   4.684  -1.703  1.00  0.00     0.118 C 
HETATM   19  C1  UNL     1       8.086   4.053   0.203  1.00  0.00     0.005 C 
HETATM   20  C40 UNL     1       6.520   2.811  -1.469  1.00  0.00     0.187 C 
HETATM   21  O16 UNL     1       5.293   3.305  -1.955  1.00  0.00    -0.337 OA
HETATM   22  C41 UNL     1       7.609   3.043  -2.557  1.00  0.00     0.059 C 
HETATM   23  O17 UNL     1       6.359   1.418  -1.219  1.00  0.00    -0.335 OA
HETATM   24  C42 UNL     1       8.500   1.811  -2.805  1.00  0.00     0.041 C 
HETATM   25  C43 UNL     1       8.772   1.014  -1.516  1.00  0.00     0.179 C 
HETATM   26  C44 UNL     1       7.494   0.762  -0.660  1.00  0.00     0.148 C 
HETATM   27  O18 UNL     1       9.733   1.713  -0.744  1.00  0.00    -0.221 OA
HETATM   28  C45 UNL     1       7.131  -0.723  -0.584  1.00  0.00     0.035 C 
HETATM   29  C5  UNL     1       3.758   5.176  -1.699  1.00  0.00     0.030 C 
HETATM   30  C12 UNL     1       1.141   4.197   0.943  1.00  0.00     0.000 C 
HETATM   31  C13 UNL     1       0.090   3.086   1.035  1.00  0.00     0.000 C 
HETATM   32  C19 UNL     1      -0.359   0.604   1.393  1.00  0.00     0.032 C 
ENDBRANCH   1   2
BRANCH   1  33
HETATM   33  C20 UNL     1      -3.029  -0.379   0.984  1.00  0.00     0.267 C 
HETATM   34  C21 UNL     1      -4.387  -0.912   0.449  1.00  0.00     0.207 C 
HETATM   35  C22 UNL     1      -4.535  -2.445   0.582  1.00  0.00     0.214 C 
HETATM   36  C23 UNL     1      -4.188  -2.840   2.037  1.00  0.00     0.180 C 
HETATM   37  O9  UNL     1      -3.684  -3.115  -0.336  1.00  0.00    -0.218 OA
HETATM   38  C24 UNL     1      -2.824  -2.262   2.492  1.00  0.00     0.181 C 
HETATM   39  O2  UNL     1      -2.822  -0.846   2.316  1.00  0.00    -0.326 OA
BRANCH  34  40
HETATM   40  O10 UNL     1      -4.625  -0.477  -0.879  1.00  0.00    -0.324 OA
BRANCH  40  41
HETATM   41  C32 UNL     1      -5.953  -0.705  -1.311  1.00  0.00     0.270 C 
HETATM   42  C33 UNL     1      -6.596   0.621  -1.828  1.00  0.00     0.241 C 
HETATM   43  C34 UNL     1      -6.539   0.785  -3.375  1.00  0.00     0.220 C 
HETATM   44  O14 UNL     1      -7.920   0.730  -1.326  1.00  0.00    -0.215 OA
HETATM   45  C35 UNL     1      -5.303   0.031  -3.910  1.00  0.00     0.212 C 
HETATM   46  O13 UNL     1      -7.703   0.268  -4.014  1.00  0.00    -0.218 OA
HETATM   47  C36 UNL     1      -5.297  -1.473  -3.522  1.00  0.00     0.151 C 
HETATM   48  O12 UNL     1      -5.184   0.178  -5.316  1.00  0.00    -0.218 OA
HETATM   49  O11 UNL     1      -6.020  -1.721  -2.313  1.00  0.00    -0.329 OA
HETATM   50  C37 UNL     1      -3.877  -2.029  -3.369  1.00  0.00     0.035 C 
ENDBRANCH  40  41
ENDBRANCH  34  40
BRANCH  36  51
HETATM   51  O4  UNL     1      -4.193  -4.250   2.195  1.00  0.00    -0.326 OA
BRANCH  51  52
HETATM   52  C26 UNL     1      -5.484  -4.816   2.086  1.00  0.00     0.270 C 
HETATM   53  C27 UNL     1      -5.678  -5.912   3.174  1.00  0.00     0.241 C 
HETATM   54  C28 UNL     1      -6.658  -7.006   2.705  1.00  0.00     0.220 C 
HETATM   55  O8  UNL     1      -6.149  -5.301   4.363  1.00  0.00    -0.215 OA
HETATM   56  C29 UNL     1      -6.141  -7.637   1.387  1.00  0.00     0.212 C 
HETATM   57  O7  UNL     1      -6.799  -8.016   3.690  1.00  0.00    -0.218 OA
HETATM   58  C30 UNL     1      -5.330  -6.649   0.498  1.00  0.00     0.151 C 
HETATM   59  O6  UNL     1      -7.248  -8.135   0.652  1.00  0.00    -0.218 OA
HETATM   60  O5  UNL     1      -5.725  -5.305   0.764  1.00  0.00    -0.329 OA
HETATM   61  C31 UNL     1      -3.813  -6.785   0.682  1.00  0.00     0.035 C 
ENDBRANCH  51  52
ENDBRANCH  36  51
BRANCH  38  62
HETATM   62  C25 UNL     1      -2.539  -2.516   3.977  1.00  0.00     0.214 C 
HETATM   63  O3  UNL     1      -1.223  -2.096   4.250  1.00  0.00    -0.218 OA
ENDBRANCH  38  62
ENDBRANCH   1  33
TORSDOF 7
