REMARK  9 active torsions:
REMARK  status: ('A' for Active; 'I' for Inactive)
REMARK    1  A    between atoms: C2_2  and  O3_33 
REMARK    2  A    between atoms: C16_16  and  C25_26 
REMARK    3  A    between atoms: O3_33  and  C31_34 
REMARK    4  A    between atoms: C34_37  and  O11_53 
REMARK    5  A    between atoms: C35_38  and  C36_40 
REMARK    6  A    between atoms: C36_40  and  O5_41 
REMARK    7  A    between atoms: O5_41  and  C37_42 
REMARK    8  A    between atoms: C41_46  and  C42_48 
REMARK    9  A    between atoms: O11_53  and  C43_54 
ROOT
HETATM    1  O3  UNL     1      -3.422   0.908   1.865  1.00  0.00    -0.332 OA
ENDROOT
BRANCH   1   2
HETATM    2  C2  UNL     1      -2.426   1.873   1.574  1.00  0.00     0.118 C 
HETATM    3  C1  UNL     1      -2.184   1.904   0.049  1.00  0.00     0.030 C 
HETATM    4  C6  UNL     1      -1.871   3.314  -0.478  1.00  0.00     0.003 C 
HETATM    5  C5  UNL     1      -0.979   4.146   0.471  1.00  0.00     0.001 C 
HETATM    6  C4  UNL     1      -1.631   4.256   1.901  1.00  0.00     0.002 C 
HETATM    7  C7  UNL     1       0.449   3.521   0.578  1.00  0.00     0.005 C 
HETATM    8  C28 UNL     1      -0.877   5.551  -0.150  1.00  0.00     0.000 C 
HETATM    9  C3  UNL     1      -2.805   3.256   2.158  1.00  0.00     0.025 C 
HETATM   10  C10 UNL     1      -0.565   4.191   3.026  1.00  0.00     0.000 C 
HETATM   11  C29 UNL     1      -3.102   3.139   3.664  1.00  0.00     0.002 C 
HETATM   12  C30 UNL     1      -4.098   3.779   1.514  1.00  0.00     0.002 C 
HETATM   13  C9  UNL     1       0.717   4.949   2.666  1.00  0.00     0.000 C 
HETATM   14  C8  UNL     1       1.441   4.377   1.414  1.00  0.00     0.004 C 
HETATM   15  C11 UNL     1       2.680   3.484   1.785  1.00  0.00     0.017 C 
HETATM   16  C27 UNL     1       1.916   5.574   0.565  1.00  0.00     0.000 C 
HETATM   17  C12 UNL     1       3.215   2.707   0.576  1.00  0.00    -0.049 C 
HETATM   18  C18 UNL     1       3.812   4.355   2.401  1.00  0.00     0.037 C 
HETATM   19  C26 UNL     1       2.271   2.424   2.817  1.00  0.00     0.004 C 
HETATM   20  C13 UNL     1       2.510   2.602  -0.578  1.00  0.00    -0.035 C 
HETATM   21  C15 UNL     1       4.576   2.023   0.738  1.00  0.00     0.023 C 
HETATM   22  C14 UNL     1       1.113   3.150  -0.760  1.00  0.00     0.025 C 
HETATM   23  C16 UNL     1       5.660   3.000   1.260  1.00  0.00     0.062 C 
HETATM   24  C22 UNL     1       5.072   1.227  -0.496  1.00  0.00     0.004 C 
HETATM   25  C17 UNL     1       5.146   3.611   2.588  1.00  0.00     0.155 C 
HETATM   26  C19 UNL     1       6.980   2.230   1.500  1.00  0.00     0.005 C 
HETATM   27  O1  UNL     1       6.096   4.516   3.125  1.00  0.00    -0.223 OA
HETATM   28  C20 UNL     1       7.455   1.451   0.264  1.00  0.00     0.000 C 
HETATM   29  C21 UNL     1       6.391   0.467  -0.246  1.00  0.00     0.000 C 
HETATM   30  C23 UNL     1       6.170  -0.649   0.781  1.00  0.00     0.000 C 
HETATM   31  C24 UNL     1       6.867  -0.174  -1.553  1.00  0.00     0.000 C 
BRANCH  23  32
HETATM   32  C25 UNL     1       5.904   4.105   0.215  1.00  0.00     0.185 C 
HETATM   33  O2  UNL     1       6.320   3.494  -0.984  1.00  0.00    -0.221 OA
ENDBRANCH  23  32
ENDBRANCH   1   2
BRANCH   1  34
HETATM   34  C31 UNL     1      -2.951  -0.422   1.779  1.00  0.00     0.270 C 
HETATM   35  C32 UNL     1      -3.678  -1.322   2.809  1.00  0.00     0.241 C 
HETATM   36  C33 UNL     1      -3.287  -2.807   2.623  1.00  0.00     0.217 C 
HETATM   37  O17 UNL     1      -3.334  -0.908   4.121  1.00  0.00    -0.215 OA
HETATM   38  C34 UNL     1      -3.447  -3.211   1.141  1.00  0.00     0.180 C 
HETATM   39  O16 UNL     1      -4.111  -3.627   3.436  1.00  0.00    -0.218 OA
HETATM   40  C35 UNL     1      -2.725  -2.215   0.205  1.00  0.00     0.177 C 
HETATM   41  O4  UNL     1      -3.193  -0.899   0.463  1.00  0.00    -0.326 OA
BRANCH  38  42
HETATM   42  O11 UNL     1      -2.906  -4.504   0.934  1.00  0.00    -0.326 OA
BRANCH  42  43
HETATM   43  C43 UNL     1      -3.860  -5.537   1.086  1.00  0.00     0.270 C 
HETATM   44  C44 UNL     1      -4.449  -5.918  -0.297  1.00  0.00     0.241 C 
HETATM   45  C45 UNL     1      -3.420  -6.697  -1.152  1.00  0.00     0.220 C 
HETATM   46  O15 UNL     1      -5.617  -6.695  -0.084  1.00  0.00    -0.215 OA
HETATM   47  C46 UNL     1      -2.818  -7.865  -0.338  1.00  0.00     0.212 C 
HETATM   48  O14 UNL     1      -4.008  -7.162  -2.357  1.00  0.00    -0.218 OA
HETATM   49  C47 UNL     1      -2.276  -7.371   1.024  1.00  0.00     0.151 C 
HETATM   50  O13 UNL     1      -1.754  -8.459  -1.060  1.00  0.00    -0.218 OA
HETATM   51  O12 UNL     1      -3.301  -6.680   1.736  1.00  0.00    -0.329 OA
HETATM   52  C48 UNL     1      -1.809  -8.516   1.928  1.00  0.00     0.035 C 
ENDBRANCH  42  43
ENDBRANCH  38  42
BRANCH  40  53
HETATM   53  C36 UNL     1      -2.986  -2.492  -1.279  1.00  0.00     0.177 C 
BRANCH  53  54
HETATM   54  O5  UNL     1      -2.246  -1.565  -2.039  1.00  0.00    -0.326 OA
BRANCH  54  55
HETATM   55  C37 UNL     1      -2.445  -1.699  -3.432  1.00  0.00     0.270 C 
HETATM   56  C38 UNL     1      -1.766  -0.531  -4.193  1.00  0.00     0.241 C 
HETATM   57  C39 UNL     1      -1.840  -0.748  -5.721  1.00  0.00     0.220 C 
HETATM   58  O10 UNL     1      -2.412   0.685  -3.857  1.00  0.00    -0.215 OA
HETATM   59  C40 UNL     1      -1.344  -2.166  -6.078  1.00  0.00     0.215 C 
HETATM   60  O9  UNL     1      -1.043   0.221  -6.383  1.00  0.00    -0.218 OA
HETATM   61  C41 UNL     1      -2.053  -3.242  -5.225  1.00  0.00     0.184 C 
HETATM   62  O8  UNL     1      -1.596  -2.434  -7.445  1.00  0.00    -0.218 OA
HETATM   63  O6  UNL     1      -1.885  -2.938  -3.846  1.00  0.00    -0.326 OA
BRANCH  61  64
HETATM   64  C42 UNL     1      -1.479  -4.647  -5.437  1.00  0.00     0.214 C 
HETATM   65  O7  UNL     1      -2.281  -5.563  -4.727  1.00  0.00    -0.218 OA
ENDBRANCH  61  64
ENDBRANCH  54  55
ENDBRANCH  53  54
ENDBRANCH  40  53
ENDBRANCH   1  34
TORSDOF 9
