REMARK  9 active torsions:
REMARK  status: ('A' for Active; 'I' for Inactive)
REMARK    1  A    between atoms: C1_1  and  C17_26 
REMARK    2  A    between atoms: C2_2  and  C15_24 
REMARK    3  A    between atoms: C3_3  and  O4_11 
REMARK    4  A    between atoms: C5_6  and  C6_7 
REMARK    5  A    between atoms: C6_7  and  O3_9 
REMARK    6  A    between atoms: O4_11  and  C8_12 
REMARK    7  A    between atoms: C12_16  and  C14_19 
REMARK    8  A    between atoms: C17_26  and  C18_27 
REMARK    9  A    between atoms: C18_27  and  O11_29 
ROOT
HETATM    1  C1  UNL     1       2.299  -1.025  -1.141  1.00  0.00     0.048 C 
HETATM    2  C2  UNL     1       1.775   0.416  -1.299  1.00  0.00     0.084 C 
HETATM    3  C3  UNL     1       0.658   0.650  -0.262  1.00  0.00     0.246 C 
HETATM    4  O1  UNL     1       1.154   0.445   1.066  1.00  0.00    -0.303 OA
HETATM    5  C4  UNL     1       1.975  -0.600   1.287  1.00  0.00     0.120 C 
HETATM    6  C5  UNL     1       2.551  -1.346   0.318  1.00  0.00     0.066 C 
ENDROOT
BRANCH   3   7
HETATM    7  O4  UNL     1       0.160   1.971  -0.355  1.00  0.00    -0.303 OA
BRANCH   7   8
HETATM    8  C8  UNL     1      -0.957   2.203   0.482  1.00  0.00     0.272 C 
HETATM    9  C9  UNL     1      -1.242   3.723   0.586  1.00  0.00     0.241 C 
HETATM   10  C10 UNL     1      -2.551   4.014   1.361  1.00  0.00     0.220 C 
HETATM   11  O9  UNL     1      -0.149   4.402   1.184  1.00  0.00    -0.215 OA
HETATM   12  C11 UNL     1      -3.701   3.148   0.799  1.00  0.00     0.212 C 
HETATM   13  O8  UNL     1      -2.401   3.723   2.740  1.00  0.00    -0.218 OA
HETATM   14  C12 UNL     1      -3.313   1.648   0.633  1.00  0.00     0.156 C 
HETATM   15  O7  UNL     1      -4.086   3.695  -0.451  1.00  0.00    -0.218 OA
HETATM   16  O5  UNL     1      -2.082   1.537  -0.086  1.00  0.00    -0.329 OA
HETATM   17  C13 UNL     1      -3.141   0.941   1.984  1.00  0.00     0.035 C 
BRANCH  14  18
HETATM   18  C14 UNL     1      -4.350   0.869  -0.185  1.00  0.00     0.212 C 
HETATM   19  O6  UNL     1      -3.910  -0.467  -0.297  1.00  0.00    -0.218 OA
ENDBRANCH  14  18
ENDBRANCH   7   8
ENDBRANCH   3   7
BRANCH   2  20
HETATM   20  C15 UNL     1       1.348   0.701  -2.721  1.00  0.00    -0.021 C 
HETATM   21  C16 UNL     1       2.057   1.588  -3.439  1.00  0.00    -0.005 C 
ENDBRANCH   2  20
BRANCH   1  22
HETATM   22  C17 UNL     1       1.334  -2.068  -1.723  1.00  0.00     0.101 C 
BRANCH  22  23
HETATM   23  C18 UNL     1       1.902  -3.461  -1.687  1.00  0.00     0.272 C 
HETATM   24  O10 UNL     1       2.810  -3.781  -2.420  1.00  0.00    -0.264 OA
BRANCH  23  25
HETATM   25  O11 UNL     1       1.338  -4.281  -0.807  1.00  0.00    -0.299 OA
HETATM   26  C19 UNL     1       1.873  -5.594  -0.869  1.00  0.00     0.184 C 
ENDBRANCH  23  25
ENDBRANCH  22  23
ENDBRANCH   1  22
BRANCH   6  27
HETATM   27  C6  UNL     1       3.437  -2.473   0.652  1.00  0.00     0.294 C 
HETATM   28  O2  UNL     1       4.295  -2.826  -0.121  1.00  0.00    -0.259 OA
BRANCH  27  29
HETATM   29  O3  UNL     1       3.223  -3.045   1.834  1.00  0.00    -0.296 OA
HETATM   30  C7  UNL     1       4.139  -4.098   2.098  1.00  0.00     0.185 C 
ENDBRANCH  27  29
ENDBRANCH   6  27
TORSDOF 9
