REMARK  5 active torsions:
REMARK  status: ('A' for Active; 'I' for Inactive)
REMARK    1  A    between atoms: C1_2  and  C2_3 
REMARK    2  A    between atoms: C2_3  and  C3_5 
REMARK    3  A    between atoms: C3_5  and  C4_7 
REMARK    4  A    between atoms: C4_7  and  C5_9 
REMARK    5  A    between atoms: C5_9  and  C6_11 
ROOT
HETATM    1  C4  UNL     1       0.170  -0.078   0.430  1.00  0.00     0.226 C 
HETATM    2  O4  UNL     1       1.178  -1.058   0.537  1.00  0.00    -0.217 OA
ENDROOT
BRANCH   1   3
HETATM    3  C3  UNL     1      -0.553  -0.279  -0.904  1.00  0.00     0.223 C 
HETATM    4  O3  UNL     1      -1.117  -1.570  -0.910  1.00  0.00    -0.217 OA
BRANCH   3   5
HETATM    5  C2  UNL     1       0.385  -0.162  -2.106  1.00  0.00     0.249 C 
HETATM    6  O2  UNL     1      -0.391  -0.244  -3.280  1.00  0.00    -0.212 OA
BRANCH   5   7
HETATM    7  C1  UNL     1       1.160   1.129  -2.106  1.00  0.00     0.243 C 
HETATM    8  O1  UNL     1       2.369   1.129  -2.106  1.00  0.00    -0.285 OA
ENDBRANCH   5   7
ENDBRANCH   3   5
ENDBRANCH   1   3
BRANCH   1   9
HETATM    9  C5  UNL     1      -0.764  -0.218   1.633  1.00  0.00     0.271 C 
HETATM   10  O5  UNL     1      -1.769   0.764   1.527  1.00  0.00    -0.209 OA
BRANCH   9  11
HETATM   11  C6  UNL     1      -0.041  -0.058   2.941  1.00  0.00     0.220 C 
HETATM   12  O6  UNL     1      -0.121  -0.902   3.805  1.00  0.00    -0.645 OA
HETATM   13  O7  UNL     1       0.672   1.059   3.062  1.00  0.00    -0.645 OA
ENDBRANCH   9  11
ENDBRANCH   1   9
TORSDOF 5
