REMARK  0 active torsions:
REMARK  status: ('A' for Active; 'I' for Inactive)
ROOT
HETATM    1  C1  UNL     1      -0.437   0.291   1.305  1.00  0.00     0.002 C 
HETATM    2  C2  UNL     1       0.779   0.850   0.469  1.00  0.00     0.000 C 
HETATM    3  C3  UNL     1       0.576   1.410  -0.951  1.00  0.00     0.000 C 
HETATM    4  C4  UNL     1       1.850   0.633  -1.363  1.00  0.00     0.000 C 
HETATM    5  C5  UNL     1       1.609  -0.322  -0.148  1.00  0.00     0.000 C 
HETATM    6  C6  UNL     1       0.930  -1.652  -0.473  1.00  0.00     0.000 C 
HETATM    7  C7  UNL     1      -0.566  -1.506  -0.688  1.00  0.00     0.002 C 
HETATM    8  C8  UNL     1      -1.215  -0.803   0.508  1.00  0.00     0.028 C 
HETATM    9  C9  UNL     1      -2.625  -0.229   0.322  1.00  0.00     0.152 C 
HETATM   10  C10 UNL     1      -2.838   0.775   1.459  1.00  0.00     0.033 C 
HETATM   11  C11 UNL     1      -1.447   1.383   1.689  1.00  0.00     0.003 C 
HETATM   12  O1  UNL     1      -2.752   0.449  -0.912  1.00  0.00    -0.224 OA
HETATM   13  C12 UNL     1      -1.142  -1.690   1.785  1.00  0.00     0.002 C 
HETATM   14  C13 UNL     1      -0.103  -0.738   2.406  1.00  0.00     0.000 C 
HETATM   15  C14 UNL     1       1.744   0.004  -2.750  1.00  0.00     0.000 C 
HETATM   16  C15 UNL     1       3.127   1.459  -1.238  1.00  0.00     0.000 C 
ENDROOT
TORSDOF 0
