REMARK  1 active torsions:
REMARK  status: ('A' for Active; 'I' for Inactive)
REMARK    1  A    between atoms: C9_9  and  C10_10 
ROOT
HETATM    1  C1  UNL     1       1.522   2.293   0.389  1.00  0.00    -0.001 C 
HETATM    2  C2  UNL     1       2.861   2.227   0.250  1.00  0.00     0.004 C 
HETATM    3  C3  UNL     1       3.572   0.883   0.279  1.00  0.00     0.183 C 
HETATM    4  C4  UNL     1       2.625  -0.299   0.623  1.00  0.00     0.113 C 
HETATM    5  C5  UNL     1       1.348  -0.141  -0.229  1.00  0.00     0.051 C 
HETATM    6  C6  UNL     1       0.746   1.002   0.598  1.00  0.00     0.120 C 
HETATM    7  C7  UNL     1      -0.723   1.029   0.166  1.00  0.00     0.030 C 
HETATM    8  C8  UNL     1      -1.049  -0.441  -0.231  1.00  0.00     0.016 C 
HETATM    9  C9  UNL     1       0.272  -1.231  -0.131  1.00  0.00     0.091 C 
HETATM   10  C11 UNL     1      -2.172  -1.006   0.668  1.00  0.00     0.005 C 
HETATM   11  C12 UNL     1      -3.338  -0.090   0.269  1.00  0.00     0.018 C 
HETATM   12  C13 UNL     1      -3.146   1.305   0.900  1.00  0.00     0.004 C 
HETATM   13  C14 UNL     1      -1.670   1.623   1.223  1.00  0.00     0.003 C 
HETATM   14  C15 UNL     1      -3.168  -0.045  -1.223  1.00  0.00    -0.044 C 
HETATM   15  C16 UNL     1      -1.771  -0.445  -1.596  1.00  0.00     0.023 C 
HETATM   16  C17 UNL     1      -4.127   0.299  -2.100  1.00  0.00    -0.009 C 
HETATM   17  O3  UNL     1       0.910   0.603   1.959  1.00  0.00    -0.302 OA
HETATM   18  C18 UNL     1       2.047  -0.088   2.000  1.00  0.00     0.274 C 
HETATM   19  O4  UNL     1       2.565  -0.514   3.006  1.00  0.00    -0.264 OA
HETATM   20  C19 UNL     1       3.264  -1.680   0.459  1.00  0.00     0.013 C 
HETATM   21  O5  UNL     1       4.172   0.672  -0.984  1.00  0.00    -0.218 OA
ENDROOT
BRANCH   9  22
HETATM   22  C10 UNL     1       0.461  -2.334  -1.143  1.00  0.00     0.185 C 
HETATM   23  O1  UNL     1       1.242  -2.213  -2.057  1.00  0.00    -0.647 OA
HETATM   24  O2  UNL     1      -0.287  -3.416  -0.947  1.00  0.00    -0.647 OA
ENDBRANCH   9  22
TORSDOF 1
