REMARK  3 active torsions:
REMARK  status: ('A' for Active; 'I' for Inactive)
REMARK    1  A    between atoms: C11_13  and  O4_18 
REMARK    2  A    between atoms: O4_18  and  C15_19 
REMARK    3  A    between atoms: C15_19  and  C16_20 
ROOT
HETATM    1  C1  UNL     1       1.264   0.418  -2.875  1.00  0.00     0.024 A 
HETATM    2  C2  UNL     1       0.424   0.672  -1.766  1.00  0.00     0.099 A 
HETATM    3  C3  UNL     1       0.990   0.846  -0.473  1.00  0.00     0.082 A 
HETATM    4  C4  UNL     1       2.400   0.828  -0.305  1.00  0.00     0.108 A 
HETATM    5  C5  UNL     1       3.232   0.596  -1.436  1.00  0.00     0.023 A 
HETATM    6  C6  UNL     1       2.668   0.379  -2.715  1.00  0.00     0.004 A 
HETATM    7  C7  UNL     1       4.705   0.582  -1.244  1.00  0.00     0.007 A 
HETATM    8  C8  UNL     1       5.203   0.787  -0.010  1.00  0.00     0.069 A 
HETATM    9  C9  UNL     1       4.287   1.018   1.131  1.00  0.00     0.300 A 
HETATM   10  O1  UNL     1       2.955   1.025   0.914  1.00  0.00    -0.273 OA
HETATM   11  O2  UNL     1       4.764   1.193   2.227  1.00  0.00    -0.259 OA
HETATM   12  C10 UNL     1       0.090   1.037   0.699  1.00  0.00     0.207 C 
HETATM   13  C11 UNL     1      -1.393   0.896   0.420  1.00  0.00     0.211 C 
HETATM   14  C12 UNL     1      -1.764   1.377  -0.998  1.00  0.00     0.131 C 
HETATM   15  O3  UNL     1      -0.910   0.744  -1.963  1.00  0.00    -0.333 OA
HETATM   16  C13 UNL     1      -3.211   1.012  -1.346  1.00  0.00     0.033 C 
HETATM   17  C14 UNL     1      -1.588   2.896  -1.125  1.00  0.00     0.033 C 
HETATM   18  O6  UNL     1       0.418   1.283   1.838  1.00  0.00    -0.288 OA
ENDROOT
BRANCH  13  19
HETATM   19  O4  UNL     1      -1.740  -0.475   0.565  1.00  0.00    -0.291 OA
BRANCH  19  20
HETATM   20  C15 UNL     1      -1.773  -0.856   1.838  1.00  0.00     0.292 C 
HETATM   21  O5  UNL     1      -1.627  -0.104   2.772  1.00  0.00    -0.260 OA
BRANCH  20  22
HETATM   22  C16 UNL     1      -2.008  -2.287   2.066  1.00  0.00     0.037 C 
HETATM   23  C17 UNL     1      -3.156  -2.695   2.949  1.00  0.00     0.036 C 
HETATM   24  C18 UNL     1      -1.242  -3.248   1.527  1.00  0.00    -0.025 C 
HETATM   25  C19 UNL     1      -0.092  -2.840   0.645  1.00  0.00     0.030 C 
ENDBRANCH  20  22
ENDBRANCH  19  20
ENDBRANCH  13  19
TORSDOF 3
