REMARK  12 active torsions:
REMARK  status: ('A' for Active; 'I' for Inactive)
REMARK    1  A    between atoms: C3_3  and  O6_22 
REMARK    2  A    between atoms: C4_4  and  C7_8 
REMARK    3  A    between atoms: C7_8  and  O2_9 
REMARK    4  A    between atoms: O2_9  and  C8_10 
REMARK    5  A    between atoms: C8_10  and  C9_11 
REMARK    6  A    between atoms: C10_12  and  O4_19 
REMARK    7  A    between atoms: C14_16  and  O3_17 
REMARK    8  A    between atoms: O6_22  and  C17_23 
REMARK    9  A    between atoms: C21_30  and  C22_32 
REMARK   10  A    between atoms: C22_32  and  O11_33 
REMARK   11  A    between atoms: O11_33  and  C23_34 
REMARK   12  A    between atoms: C27_41  and  C28_43 
ROOT
HETATM    1  C17 UNL     1      -0.757  -1.807  -0.188  1.00  0.00     0.274 C 
HETATM    2  C18 UNL     1      -1.628  -3.082  -0.174  1.00  0.00     0.241 C 
HETATM    3  O7  UNL     1      -2.854  -2.799  -0.824  1.00  0.00    -0.215 OA
HETATM    4  C19 UNL     1      -1.895  -3.557   1.271  1.00  0.00     0.220 C 
HETATM    5  O8  UNL     1      -2.531  -4.824   1.253  1.00  0.00    -0.218 OA
HETATM    6  C20 UNL     1      -0.559  -3.652   2.043  1.00  0.00     0.215 C 
HETATM    7  O9  UNL     1      -0.816  -3.887   3.417  1.00  0.00    -0.218 OA
HETATM    8  C21 UNL     1       0.264  -2.349   1.912  1.00  0.00     0.180 C 
HETATM    9  O10 UNL     1       0.444  -2.039   0.535  1.00  0.00    -0.326 OA
ENDROOT
BRANCH   1  10
HETATM   10  O6  UNL     1      -0.427  -1.460  -1.527  1.00  0.00    -0.304 OA
BRANCH  10  11
HETATM   11  C3  UNL     1       0.195  -0.316  -1.733  1.00  0.00     0.095 A 
HETATM   12  C2  UNL     1       1.577  -0.311  -1.995  1.00  0.00     0.026 A 
HETATM   13  C1  UNL     1       2.251   0.903  -2.217  1.00  0.00     0.029 A 
HETATM   14  C6  UNL     1       1.546   2.119  -2.178  1.00  0.00     0.131 A 
HETATM   15  C5  UNL     1       0.166   2.115  -1.916  1.00  0.00     0.028 A 
HETATM   16  O1  UNL     1       2.179   3.255  -2.387  1.00  0.00    -0.190 OA
HETATM   17  C4  UNL     1      -0.511   0.902  -1.695  1.00  0.00     0.032 A 
BRANCH  17  18
HETATM   18  C7  UNL     1      -1.973   0.915  -1.420  1.00  0.00     0.181 C 
BRANCH  18  19
HETATM   19  O2  UNL     1      -2.603   1.874  -2.255  1.00  0.00    -0.293 OA
BRANCH  19  20
HETATM   20  C8  UNL     1      -3.913   1.949  -2.040  1.00  0.00     0.300 C 
HETATM   21  O5  UNL     1      -4.503   1.275  -1.227  1.00  0.00    -0.259 OA
BRANCH  20  22
HETATM   22  C9  UNL     1      -4.643   2.943  -2.887  1.00  0.00     0.108 A 
HETATM   23  C10 UNL     1      -3.939   3.709  -3.838  1.00  0.00     0.101 A 
HETATM   24  C11 UNL     1      -4.628   4.643  -4.632  1.00  0.00     0.025 A 
HETATM   25  C12 UNL     1      -6.014   4.811  -4.480  1.00  0.00     0.004 A 
HETATM   26  C13 UNL     1      -6.715   4.048  -3.533  1.00  0.00     0.025 A 
HETATM   27  C14 UNL     1      -6.034   3.111  -2.735  1.00  0.00     0.101 A 
BRANCH  23  28
HETATM   28  O4  UNL     1      -2.637   3.560  -3.991  1.00  0.00    -0.328 OA
HETATM   29  C16 UNL     1      -1.999   4.292  -5.027  1.00  0.00     0.181 C 
ENDBRANCH  23  28
BRANCH  27  30
HETATM   30  O3  UNL     1      -6.706   2.401  -1.850  1.00  0.00    -0.328 OA
HETATM   31  C15 UNL     1      -8.104   2.618  -1.744  1.00  0.00     0.181 C 
ENDBRANCH  27  30
ENDBRANCH  20  22
ENDBRANCH  19  20
ENDBRANCH  18  19
ENDBRANCH  17  18
ENDBRANCH  10  11
ENDBRANCH   1  10
BRANCH   8  32
HETATM   32  C22 UNL     1       1.662  -2.461   2.524  1.00  0.00     0.177 C 
BRANCH  32  33
HETATM   33  O11 UNL     1       2.259  -1.183   2.503  1.00  0.00    -0.326 OA
BRANCH  33  34
HETATM   34  C23 UNL     1       3.541  -1.157   3.096  1.00  0.00     0.270 C 
HETATM   35  C24 UNL     1       4.047   0.303   3.225  1.00  0.00     0.241 C 
HETATM   36  O12 UNL     1       3.222   1.007   4.140  1.00  0.00    -0.215 OA
HETATM   37  C25 UNL     1       5.510   0.340   3.723  1.00  0.00     0.220 C 
HETATM   38  O13 UNL     1       6.012   1.665   3.643  1.00  0.00    -0.218 OA
HETATM   39  C26 UNL     1       6.383  -0.604   2.867  1.00  0.00     0.215 C 
HETATM   40  O14 UNL     1       7.673  -0.718   3.442  1.00  0.00    -0.218 OA
HETATM   41  C27 UNL     1       5.758  -2.013   2.772  1.00  0.00     0.184 C 
HETATM   42  O15 UNL     1       4.429  -1.907   2.276  1.00  0.00    -0.326 OA
BRANCH  41  43
HETATM   43  C28 UNL     1       6.513  -2.938   1.812  1.00  0.00     0.214 C 
HETATM   44  O16 UNL     1       5.964  -4.232   1.922  1.00  0.00    -0.218 OA
ENDBRANCH  41  43
ENDBRANCH  33  34
ENDBRANCH  32  33
ENDBRANCH   8  32
TORSDOF 12
