REMARK  4 active torsions:
REMARK  status: ('A' for Active; 'I' for Inactive)
REMARK    1  A    between atoms: C1_1  and  C8_11 
REMARK    2  A    between atoms: C6_6  and  O1_7 
REMARK    3  A    between atoms: C8_11  and  C9_12 
REMARK    4  A    between atoms: C10_13  and  C11_14 
ROOT
HETATM    1  C1  UNL     1      -1.564   1.516   0.029  1.00  0.00     0.087 A 
HETATM    2  C2  UNL     1      -2.018   2.660   0.717  1.00  0.00     0.138 A 
HETATM    3  C3  UNL     1      -1.371   3.893   0.519  1.00  0.00     0.055 A 
HETATM    4  C4  UNL     1      -0.279   3.992  -0.359  1.00  0.00     0.135 A 
HETATM    5  C5  UNL     1       0.168   2.850  -1.043  1.00  0.00     0.052 A 
HETATM    6  C6  UNL     1      -0.469   1.611  -0.852  1.00  0.00     0.101 A 
HETATM    7  O2  UNL     1       0.322   5.150  -0.541  1.00  0.00    -0.190 OA
HETATM    8  O3  UNL     1      -3.041   2.586   1.545  1.00  0.00    -0.190 OA
ENDROOT
BRANCH   1   9
HETATM    9  C8  UNL     1      -2.246   0.201   0.236  1.00  0.00     0.200 C 
HETATM   10  O4  UNL     1      -3.443   0.139   0.381  1.00  0.00    -0.286 OA
BRANCH   9  11
HETATM   11  C9  UNL     1      -1.430  -1.020   0.262  1.00  0.00     0.042 C 
HETATM   12  C10 UNL     1      -0.223  -1.024   0.852  1.00  0.00     0.003 C 
BRANCH  12  13
HETATM   13  C11 UNL     1       0.570  -2.289   0.852  1.00  0.00     0.000 A 
HETATM   14  C12 UNL     1      -0.088  -3.533   0.852  1.00  0.00     0.000 A 
HETATM   15  C13 UNL     1       0.660  -4.723   0.852  1.00  0.00     0.000 A 
HETATM   16  C14 UNL     1       2.064  -4.672   0.852  1.00  0.00     0.000 A 
HETATM   17  C15 UNL     1       2.721  -3.432   0.852  1.00  0.00     0.000 A 
HETATM   18  C16 UNL     1       1.977  -2.240   0.852  1.00  0.00     0.000 A 
ENDBRANCH  12  13
ENDBRANCH   9  11
ENDBRANCH   1   9
BRANCH   6  19
HETATM   19  O1  UNL     1      -0.033   0.549  -1.502  1.00  0.00    -0.328 OA
HETATM   20  C7  UNL     1       0.887   0.748  -2.565  1.00  0.00     0.181 C 
ENDBRANCH   6  19
TORSDOF 4
