REMARK  2 active torsions:
REMARK  status: ('A' for Active; 'I' for Inactive)
REMARK    1  A    between atoms: C1_1  and  C9_9 
REMARK    2  A    between atoms: C2_2  and  C7_7 
ROOT
HETATM    1  C1  UNL     1      -0.858  -0.221   0.183  1.00  0.00     0.007 A 
HETATM    2  C2  UNL     1       0.552  -0.168   0.183  1.00  0.00    -0.024 A 
HETATM    3  C3  UNL     1       1.297  -1.361   0.183  1.00  0.00    -0.004 A 
HETATM    4  C4  UNL     1       0.638  -2.604   0.183  1.00  0.00    -0.000 A 
HETATM    5  C5  UNL     1      -0.766  -2.654   0.183  1.00  0.00    -0.000 A 
HETATM    6  C6  UNL     1      -1.512  -1.465   0.183  1.00  0.00    -0.002 A 
ENDROOT
BRANCH   1   7
HETATM    7  C9  UNL     1      -1.662   1.031   0.183  1.00  0.00     0.208 C 
HETATM    8  O1  UNL     1      -1.760   1.527   1.498  1.00  0.00    -0.215 OA
ENDBRANCH   1   7
BRANCH   2   9
HETATM    9  C7  UNL     1       1.265   1.137   0.183  1.00  0.00     0.026 C 
HETATM   10  C8  UNL     1       1.535   1.631  -1.239  1.00  0.00     0.005 C 
ENDBRANCH   2   9
TORSDOF 2
