REMARK  0 active torsions:
REMARK  status: ('A' for Active; 'I' for Inactive)
ROOT
HETATM    1  C1  UNL     1       5.244  -0.307  -1.100  1.00  0.00     0.002 A 
HETATM    2  C2  UNL     1       5.315  -0.649   0.277  1.00  0.00     0.000 A 
HETATM    3  C3  UNL     1       4.131  -0.713   1.061  1.00  0.00     0.005 A 
HETATM    4  C4  UNL     1       2.879  -0.434   0.457  1.00  0.00     0.058 A 
HETATM    5  C5  UNL     1       2.842  -0.104  -0.891  1.00  0.00     0.085 A 
HETATM    6  C6  UNL     1       3.992  -0.027  -1.701  1.00  0.00     0.019 A 
HETATM    7  N1  UNL     1       1.424   0.135  -1.262  1.00  0.00    -0.241 NA
HETATM    8  C7  UNL     1       0.672  -0.076  -0.047  1.00  0.00     0.141 A 
HETATM    9  C8  UNL     1       1.576  -0.445   1.076  1.00  0.00     0.216 A 
HETATM   10  O1  UNL     1       1.332  -0.697   2.234  1.00  0.00    -0.285 OA
HETATM   11  C9  UNL     1      -0.676   0.049   0.043  1.00  0.00     0.141 A 
HETATM   12  C10 UNL     1      -1.578   0.406  -1.082  1.00  0.00     0.216 A 
HETATM   13  C11 UNL     1      -2.879   0.418  -0.461  1.00  0.00     0.058 A 
HETATM   14  C12 UNL     1      -2.842   0.103   0.891  1.00  0.00     0.085 A 
HETATM   15  N2  UNL     1      -1.426  -0.147   1.262  1.00  0.00    -0.241 NA
HETATM   16  C13 UNL     1      -3.992   0.053   1.707  1.00  0.00     0.019 A 
HETATM   17  C14 UNL     1      -5.242   0.340   1.104  1.00  0.00     0.002 A 
HETATM   18  C15 UNL     1      -5.311   0.666  -0.277  1.00  0.00     0.000 A 
HETATM   19  C16 UNL     1      -4.129   0.705  -1.062  1.00  0.00     0.005 A 
HETATM   20  O2  UNL     1      -1.336   0.637  -2.244  1.00  0.00    -0.285 OA
ENDROOT
TORSDOF 0
