REMARK  0 active torsions:
REMARK  status: ('A' for Active; 'I' for Inactive)
ROOT
HETATM    1  C1  UNL     1       0.392  -1.922  -1.195  1.00  0.00     0.000 C 
HETATM    2  C2  UNL     1      -0.736  -1.826  -0.149  1.00  0.00     0.000 C 
HETATM    3  C3  UNL     1      -0.782  -3.178   0.609  1.00  0.00     0.000 C 
HETATM    4  C4  UNL     1      -2.041  -3.310   1.471  1.00  0.00     0.004 C 
HETATM    5  C5  UNL     1      -3.022  -3.221   0.325  1.00  0.00     0.015 C 
HETATM    6  C6  UNL     1      -4.266  -3.519   0.471  1.00  0.00    -0.045 C 
HETATM    7  C7  UNL     1      -4.764  -4.596   1.080  1.00  0.00    -0.009 C 
HETATM    8  C8  UNL     1      -4.840  -2.802  -0.540  1.00  0.00     0.018 C 
HETATM    9  C9  UNL     1      -5.183  -1.439   0.434  1.00  0.00     0.004 C 
HETATM   10  C10 UNL     1      -3.715  -0.806   1.046  1.00  0.00     0.001 C 
HETATM   11  C11 UNL     1      -3.123  -1.271  -0.145  1.00  0.00     0.003 C 
HETATM   12  C12 UNL     1      -2.104  -1.298  -0.858  1.00  0.00     0.001 C 
HETATM   13  C13 UNL     1      -3.416  -2.190  -1.843  1.00  0.00     0.004 C 
HETATM   14  C14 UNL     1      -3.933  -0.047  -1.246  1.00  0.00     0.000 C 
HETATM   15  C15 UNL     1      -2.533  -4.665  -0.507  1.00  0.00     0.004 C 
ENDROOT
TORSDOF 0
