REMARK  8 active torsions:
REMARK  status: ('A' for Active; 'I' for Inactive)
REMARK    1  A    between atoms: C2_2  and  O7_38 
REMARK    2  A    between atoms: C6_6  and  O1_7 
REMARK    3  A    between atoms: O1_7  and  C7_8 
REMARK    4  A    between atoms: C7_8  and  C8_9 
REMARK    5  A    between atoms: C12_14  and  C28_33 
REMARK    6  A    between atoms: C20_24  and  C22_26 
REMARK    7  A    between atoms: C28_33  and  C29_34 
REMARK    8  A    between atoms: O7_38  and  C32_39 
ROOT
HETATM    1  C1  UNL     1      -3.525  -0.250  -0.301  1.00  0.00     0.060 C 
HETATM    2  C2  UNL     1      -3.442  -0.732  -1.783  1.00  0.00     0.129 C 
HETATM    3  C3  UNL     1      -2.320  -1.770  -1.881  1.00  0.00     0.056 C 
HETATM    4  C4  UNL     1      -1.035  -0.982  -1.527  1.00  0.00     0.037 C 
HETATM    5  C5  UNL     1      -0.965  -0.023  -0.307  1.00  0.00     0.029 C 
HETATM    6  C6  UNL     1      -2.207  -0.379   0.529  1.00  0.00     0.127 C 
HETATM    7  C12 UNL     1       0.441  -0.154   0.387  1.00  0.00     0.016 C 
HETATM    8  C13 UNL     1       1.529  -0.324  -0.721  1.00  0.00     0.045 C 
HETATM    9  C14 UNL     1       1.342  -1.787  -1.199  1.00  0.00     0.146 C 
HETATM   10  C15 UNL     1      -0.086  -2.170  -1.600  1.00  0.00     0.143 C 
HETATM   11  O3  UNL     1      -0.375  -2.654  -2.897  1.00  0.00    -0.354 OA
HETATM   12  C16 UNL     1      -1.754  -2.402  -3.182  1.00  0.00     0.145 C 
HETATM   13  O4  UNL     1       2.437  -2.086  -2.059  1.00  0.00    -0.352 OA
HETATM   14  C17 UNL     1       3.576  -1.361  -1.609  1.00  0.00     0.134 C 
HETATM   15  C18 UNL     1       2.994  -0.561  -0.498  1.00  0.00    -0.023 C 
HETATM   16  C19 UNL     1       3.869  -0.312   0.479  1.00  0.00    -0.045 C 
HETATM   17  C20 UNL     1       5.135  -1.074   0.180  1.00  0.00     0.045 C 
HETATM   18  C21 UNL     1       4.686  -2.127  -0.873  1.00  0.00     0.042 C 
HETATM   19  C26 UNL     1       3.658   0.531   1.707  1.00  0.00     0.026 C 
HETATM   20  C27 UNL     1       1.437   0.731  -1.830  1.00  0.00     0.007 C 
HETATM   21  C30 UNL     1      -1.160   1.422  -0.818  1.00  0.00     0.003 C 
HETATM   22  C31 UNL     1      -2.734  -2.971  -1.008  1.00  0.00     0.005 C 
ENDROOT
BRANCH   6  23
HETATM   23  O1  UNL     1      -2.283   0.475   1.664  1.00  0.00    -0.301 OA
BRANCH  23  24
HETATM   24  C7  UNL     1      -3.182   0.057   2.553  1.00  0.00     0.291 C 
HETATM   25  O2  UNL     1      -3.789  -0.984   2.459  1.00  0.00    -0.260 OA
BRANCH  24  26
HETATM   26  C8  UNL     1      -3.410   0.949   3.695  1.00  0.00     0.037 C 
HETATM   27  C9  UNL     1      -4.424   0.543   4.733  1.00  0.00     0.036 C 
HETATM   28  C10 UNL     1      -2.756   2.111   3.858  1.00  0.00    -0.025 C 
HETATM   29  C11 UNL     1      -3.070   2.949   5.068  1.00  0.00     0.030 C 
ENDBRANCH  24  26
ENDBRANCH  23  24
ENDBRANCH   6  23
BRANCH   2  30
HETATM   30  O7  UNL     1      -3.178   0.367  -2.647  1.00  0.00    -0.304 OA
BRANCH  30  31
HETATM   31  C32 UNL     1      -4.221   1.186  -2.758  1.00  0.00     0.272 C 
HETATM   32  C33 UNL     1      -3.979   2.426  -3.576  1.00  0.00     0.106 C 
HETATM   33  O8  UNL     1      -5.297   0.977  -2.248  1.00  0.00    -0.264 OA
ENDBRANCH  30  31
ENDBRANCH   2  30
BRANCH   7  34
HETATM   34  C28 UNL     1       0.766   1.055   1.273  1.00  0.00     0.073 C 
BRANCH  34  35
HETATM   35  C29 UNL     1       0.588   0.756   2.736  1.00  0.00     0.207 C 
HETATM   36  O6  UNL     1       0.254  -0.344   3.113  1.00  0.00    -0.288 OA
ENDBRANCH  34  35
ENDBRANCH   7  34
BRANCH  17  37
HETATM   37  C22 UNL     1       6.215  -0.166  -0.367  1.00  0.00     0.008 A 
HETATM   38  C23 UNL     1       6.824   0.910   0.285  1.00  0.00     0.119 A 
HETATM   39  O5  UNL     1       7.764   1.522  -0.494  1.00  0.00    -0.303 OA
HETATM   40  C24 UNL     1       7.742   0.813  -1.660  1.00  0.00     0.122 A 
HETATM   41  C25 UNL     1       6.809  -0.228  -1.627  1.00  0.00     0.025 A 
ENDBRANCH  17  37
TORSDOF 8
