REMARK  2 active torsions:
REMARK  status: ('A' for Active; 'I' for Inactive)
REMARK    1  A    between atoms: C1_2  and  C2_3 
REMARK    2  A    between atoms: C5_6  and  C8_9 
ROOT
HETATM    1  C2  UNL     1      -1.487  -1.393  -0.625  1.00  0.00     0.016 C 
HETATM    2  C3  UNL     1      -0.197  -1.766  -0.522  1.00  0.00    -0.027 C 
HETATM    3  C4  UNL     1       0.914  -0.793  -0.856  1.00  0.00     0.030 C 
HETATM    4  C5  UNL     1       0.625   0.689  -0.498  1.00  0.00     0.023 C 
HETATM    5  C6  UNL     1      -0.875   1.004  -0.291  1.00  0.00     0.009 C 
HETATM    6  C7  UNL     1      -1.795   0.029  -1.039  1.00  0.00     0.030 C 
ENDROOT
BRANCH   4   7
HETATM    7  C8  UNL     1       1.432   1.143   0.697  1.00  0.00    -0.044 C 
HETATM    8  C9  UNL     1       1.369   0.455   2.035  1.00  0.00     0.026 C 
HETATM    9  C10 UNL     1       2.238   2.207   0.560  1.00  0.00    -0.009 C 
ENDBRANCH   4   7
BRANCH   1  10
HETATM   10  C1  UNL     1      -2.586  -2.326  -0.336  1.00  0.00     0.230 C 
HETATM   11  O1  UNL     1      -3.737  -1.971  -0.449  1.00  0.00    -0.283 OA
ENDBRANCH   1  10
TORSDOF 2
