REMARK  14 active torsions:
REMARK  status: ('A' for Active; 'I' for Inactive)
REMARK    1  A    between atoms: C3_3  and  C4_4 
REMARK    2  A    between atoms: C5_5  and  C6_6 
REMARK    3  A    between atoms: C7_7  and  C8_8 
REMARK    4  A    between atoms: C8_8  and  C9_9 
REMARK    5  A    between atoms: C9_9  and  C10_10 
REMARK    6  A    between atoms: C9_9  and  O2_16 
REMARK    7  A    between atoms: C11_11  and  C12_12 
REMARK    8  A    between atoms: C12_12  and  C13_13 
REMARK    9  A    between atoms: C13_13  and  C14_14 
REMARK   10  A    between atoms: O2_16  and  C15_17 
REMARK   11  A    between atoms: C19_21  and  C20_23 
REMARK   12  A    between atoms: C20_23  and  O4_24 
REMARK   13  A    between atoms: O4_24  and  C21_25 
REMARK   14  A    between atoms: C25_29  and  C26_31 
ROOT
HETATM    1  C15 UNL     1      -0.543   3.199  -1.060  1.00  0.00     0.270 C 
HETATM    2  C16 UNL     1      -0.291   4.629  -1.601  1.00  0.00     0.241 C 
HETATM    3  C17 UNL     1       1.133   5.115  -1.244  1.00  0.00     0.220 C 
HETATM    4  C18 UNL     1       2.172   4.047  -1.650  1.00  0.00     0.215 C 
HETATM    5  C19 UNL     1       1.791   2.652  -1.101  1.00  0.00     0.180 C 
HETATM    6  O3  UNL     1       0.475   2.322  -1.523  1.00  0.00    -0.326 OA
HETATM    7  O10 UNL     1       3.447   4.400  -1.146  1.00  0.00    -0.218 OA
HETATM    8  O11 UNL     1       1.408   6.334  -1.918  1.00  0.00    -0.218 OA
HETATM    9  O12 UNL     1      -1.244   5.518  -1.043  1.00  0.00    -0.215 OA
ENDROOT
BRANCH   1  10
HETATM   10  O2  UNL     1      -1.789   2.711  -1.512  1.00  0.00    -0.323 OA
BRANCH  10  11
HETATM   11  C9  UNL     1      -2.189   1.525  -0.863  1.00  0.00     0.182 C 
BRANCH  11  12
HETATM   12  C8  UNL     1      -3.356   0.922  -1.646  1.00  0.00     0.247 C 
HETATM   13  O13 UNL     1      -2.893   0.586  -2.935  1.00  0.00    -0.206 OA
BRANCH  12  14
HETATM   14  C7  UNL     1      -3.852  -0.279  -0.980  1.00  0.00    -0.043 C 
HETATM   15  C6  UNL     1      -4.256  -1.258  -0.437  1.00  0.00    -0.011 C 
BRANCH  15  16
HETATM   16  C5  UNL     1      -4.725  -2.393   0.192  1.00  0.00    -0.009 C 
HETATM   17  C4  UNL     1      -5.129  -3.371   0.734  1.00  0.00    -0.051 C 
BRANCH  17  18
HETATM   18  C3  UNL     1      -5.619  -4.553   1.391  1.00  0.00     0.045 C 
HETATM   19  C2  UNL     1      -6.645  -5.248   0.873  1.00  0.00    -0.017 C 
HETATM   20  C1  UNL     1      -7.117  -6.479   1.602  1.00  0.00     0.031 C 
ENDBRANCH  17  18
ENDBRANCH  15  16
ENDBRANCH  12  14
ENDBRANCH  11  12
BRANCH  11  21
HETATM   21  C10 UNL     1      -2.557   1.834   0.565  1.00  0.00     0.002 C 
HETATM   22  C11 UNL     1      -1.869   1.229   1.547  1.00  0.00    -0.028 C 
BRANCH  22  23
HETATM   23  C12 UNL     1      -2.236   1.537   2.975  1.00  0.00     0.029 C 
BRANCH  23  24
HETATM   24  C13 UNL     1      -2.525   0.273   3.787  1.00  0.00     0.040 C 
BRANCH  24  25
HETATM   25  C14 UNL     1      -2.891   0.580   5.240  1.00  0.00     0.183 C 
HETATM   26  O1  UNL     1      -3.139  -0.643   5.899  1.00  0.00    -0.221 OA
ENDBRANCH  24  25
ENDBRANCH  23  24
ENDBRANCH  22  23
ENDBRANCH  11  21
ENDBRANCH  10  11
ENDBRANCH   1  10
BRANCH   5  27
HETATM   27  C20 UNL     1       2.711   1.539  -1.611  1.00  0.00     0.177 C 
BRANCH  27  28
HETATM   28  O4  UNL     1       2.387   0.350  -0.926  1.00  0.00    -0.326 OA
BRANCH  28  29
HETATM   29  C21 UNL     1       3.141  -0.766  -1.355  1.00  0.00     0.270 C 
HETATM   30  C22 UNL     1       2.586  -2.070  -0.730  1.00  0.00     0.241 C 
HETATM   31  C23 UNL     1       3.494  -3.275  -1.066  1.00  0.00     0.220 C 
HETATM   32  O9  UNL     1       1.281  -2.311  -1.230  1.00  0.00    -0.215 OA
HETATM   33  C24 UNL     1       4.963  -2.938  -0.728  1.00  0.00     0.215 C 
HETATM   34  O8  UNL     1       3.078  -4.410  -0.322  1.00  0.00    -0.218 OA
HETATM   35  C25 UNL     1       5.391  -1.594  -1.363  1.00  0.00     0.184 C 
HETATM   36  O7  UNL     1       5.815  -3.961  -1.217  1.00  0.00    -0.218 OA
HETATM   37  O5  UNL     1       4.490  -0.572  -0.955  1.00  0.00    -0.326 OA
BRANCH  35  38
HETATM   38  C26 UNL     1       6.791  -1.148  -0.928  1.00  0.00     0.214 C 
HETATM   39  O6  UNL     1       7.145  -0.012  -1.684  1.00  0.00    -0.218 OA
ENDBRANCH  35  38
ENDBRANCH  28  29
ENDBRANCH  27  28
ENDBRANCH   5  27
TORSDOF 14
