REMARK  12 active torsions:
REMARK  status: ('A' for Active; 'I' for Inactive)
REMARK    1  A    between atoms: C2_2  and  O3_22 
REMARK    2  A    between atoms: C3_3  and  O2_20 
REMARK    3  A    between atoms: C5_5  and  C7_7 
REMARK    4  A    between atoms: C7_7  and  C8_8 
REMARK    5  A    between atoms: C8_8  and  C9_9 
REMARK    6  A    between atoms: C9_9  and  C10_10 
REMARK    7  A    between atoms: C11_11  and  C12_12 
REMARK    8  A    between atoms: C12_12  and  C13_13 
REMARK    9  A    between atoms: C13_13  and  C14_14 
REMARK   10  A    between atoms: C14_14  and  C15_15 
REMARK   11  A    between atoms: C15_15  and  C16_16 
REMARK   12  A    between atoms: C16_16  and  C17_17 
ROOT
HETATM    1  C8  UNL     1       1.678  -1.023  -0.867  1.00  0.00     0.074 C 
ENDROOT
BRANCH   1   2
HETATM    2  C7  UNL     1       1.041  -1.324  -2.225  1.00  0.00     0.035 C 
BRANCH   2   3
HETATM    3  C5  UNL     1       0.346  -2.639  -2.225  1.00  0.00    -0.020 A 
HETATM    4  C4  UNL     1      -1.059  -2.691  -2.225  1.00  0.00     0.022 A 
HETATM    5  C3  UNL     1      -1.721  -3.932  -2.225  1.00  0.00     0.116 A 
HETATM    6  C2  UNL     1      -0.975  -5.125  -2.225  1.00  0.00     0.116 A 
HETATM    7  C1  UNL     1       0.432  -5.070  -2.225  1.00  0.00     0.026 A 
HETATM    8  C6  UNL     1       1.092  -3.828  -2.225  1.00  0.00    -0.002 A 
BRANCH   5   9
HETATM    9  O2  UNL     1      -3.039  -3.973  -2.225  1.00  0.00    -0.326 OA
HETATM   10  C19 UNL     1      -3.676  -4.924  -3.067  1.00  0.00     0.181 C 
ENDBRANCH   5   9
BRANCH   6  11
HETATM   11  O3  UNL     1      -1.586  -6.291  -2.225  1.00  0.00    -0.326 OA
HETATM   12  C20 UNL     1      -0.785  -7.465  -2.238  1.00  0.00     0.181 C 
ENDBRANCH   6  11
ENDBRANCH   2   3
ENDBRANCH   1   2
BRANCH   1  13
HETATM   13  C9  UNL     1       0.690  -1.119   0.264  1.00  0.00     0.173 C 
HETATM   14  O1  UNL     1       0.385  -2.191   0.734  1.00  0.00    -0.291 OA
BRANCH  13  15
HETATM   15  C10 UNL     1       0.102   0.117   0.791  1.00  0.00     0.033 C 
HETATM   16  C11 UNL     1       0.049   1.227   0.035  1.00  0.00    -0.023 C 
BRANCH  16  17
HETATM   17  C12 UNL     1      -0.564   2.469   0.627  1.00  0.00     0.026 C 
BRANCH  17  18
HETATM   18  C13 UNL     1       0.387   3.664   0.588  1.00  0.00     0.005 C 
BRANCH  18  19
HETATM   19  C14 UNL     1      -0.273   4.959   1.062  1.00  0.00     0.000 C 
BRANCH  19  20
HETATM   20  C15 UNL     1      -0.713   4.897   2.525  1.00  0.00     0.000 C 
BRANCH  20  21
HETATM   21  C16 UNL     1       0.455   4.666   3.484  1.00  0.00     0.000 C 
BRANCH  21  22
HETATM   22  C17 UNL     1       1.457   5.820   3.478  1.00  0.00     0.000 C 
HETATM   23  C18 UNL     1       2.551   5.658   4.535  1.00  0.00     0.000 C 
ENDBRANCH  21  22
ENDBRANCH  20  21
ENDBRANCH  19  20
ENDBRANCH  18  19
ENDBRANCH  17  18
ENDBRANCH  16  17
ENDBRANCH  13  15
ENDBRANCH   1  13
TORSDOF 12
