REMARK  9 active torsions:
REMARK  status: ('A' for Active; 'I' for Inactive)
REMARK    1  A    between atoms: C2_2  and  O8_37 
REMARK    2  A    between atoms: C4_4  and  O6_33 
REMARK    3  A    between atoms: C11_11  and  O1_12 
REMARK    4  A    between atoms: O1_12  and  C12_13 
REMARK    5  A    between atoms: C12_13  and  C13_14 
REMARK    6  A    between atoms: C20_22  and  O3_27 
REMARK    7  A    between atoms: O3_27  and  C25_28 
REMARK    8  A    between atoms: O6_33  and  C28_34 
REMARK    9  A    between atoms: O8_37  and  C30_38 
ROOT
HETATM    1  C1  UNL     1       3.709  -2.047   0.068  1.00  0.00     0.044 C 
HETATM    2  C2  UNL     1       3.672  -0.580   0.566  1.00  0.00     0.131 C 
HETATM    3  C3  UNL     1       3.307   0.471  -0.518  1.00  0.00     0.065 C 
HETATM    4  C4  UNL     1       2.373   1.609  -0.064  1.00  0.00     0.145 C 
HETATM    5  C5  UNL     1       1.004   1.119   0.357  1.00  0.00    -0.021 C 
HETATM    6  C6  UNL     1       0.266   0.328  -0.449  1.00  0.00    -0.028 C 
HETATM    7  C7  UNL     1      -1.061  -0.252  -0.010  1.00  0.00     0.080 C 
HETATM    8  C8  UNL     1      -1.611  -1.428  -0.846  1.00  0.00     0.158 C 
HETATM    9  C9  UNL     1      -3.025  -1.471  -0.234  1.00  0.00     0.036 C 
HETATM   10  C10 UNL     1      -3.492  -0.021  -0.098  1.00  0.00     0.031 C 
HETATM   11  C11 UNL     1      -2.195   0.783   0.025  1.00  0.00     0.131 C 
HETATM   12  C19 UNL     1      -4.404   0.152   1.113  1.00  0.00     0.003 C 
HETATM   13  C20 UNL     1      -0.904  -2.803  -0.682  1.00  0.00     0.156 C 
HETATM   14  C21 UNL     1       0.318  -3.201  -1.553  1.00  0.00     0.052 C 
HETATM   15  C22 UNL     1       1.623  -2.475  -1.307  1.00  0.00    -0.028 C 
HETATM   16  C23 UNL     1       2.324  -2.637  -0.164  1.00  0.00    -0.029 C 
HETATM   17  C24 UNL     1       0.004  -3.215  -3.055  1.00  0.00     0.007 C 
HETATM   18  O5  UNL     1      -1.725  -1.078  -2.217  1.00  0.00    -0.223 OA
HETATM   19  C27 UNL     1       0.506   1.535   1.719  1.00  0.00     0.029 C 
HETATM   20  C32 UNL     1       4.561  -2.156  -1.205  1.00  0.00     0.007 C 
HETATM   21  C33 UNL     1       4.383  -2.912   1.141  1.00  0.00     0.007 C 
ENDROOT
BRANCH  11  22
HETATM   22  O1  UNL     1      -2.092   1.676  -1.078  1.00  0.00    -0.301 OA
BRANCH  22  23
HETATM   23  C12 UNL     1      -3.092   2.551  -1.117  1.00  0.00     0.296 C 
HETATM   24  O2  UNL     1      -4.174   2.315  -1.605  1.00  0.00    -0.259 OA
BRANCH  23  25
HETATM   25  C13 UNL     1      -2.799   3.883  -0.508  1.00  0.00     0.063 A 
HETATM   26  C14 UNL     1      -1.502   4.178  -0.049  1.00  0.00     0.005 A 
HETATM   27  C15 UNL     1      -1.229   5.430   0.525  1.00  0.00     0.000 A 
HETATM   28  C16 UNL     1      -2.248   6.391   0.641  1.00  0.00     0.000 A 
HETATM   29  C17 UNL     1      -3.543   6.096   0.184  1.00  0.00     0.000 A 
HETATM   30  C18 UNL     1      -3.820   4.844  -0.391  1.00  0.00     0.005 A 
ENDBRANCH  23  25
ENDBRANCH  22  23
ENDBRANCH  11  22
BRANCH  13  31
HETATM   31  O3  UNL     1      -1.875  -3.826  -0.875  1.00  0.00    -0.301 OA
BRANCH  31  32
HETATM   32  C25 UNL     1      -2.346  -4.301   0.275  1.00  0.00     0.272 C 
HETATM   33  O4  UNL     1      -1.756  -4.221   1.328  1.00  0.00    -0.264 OA
HETATM   34  C26 UNL     1      -3.693  -4.965   0.191  1.00  0.00     0.106 C 
ENDBRANCH  31  32
ENDBRANCH  13  31
BRANCH   4  35
HETATM   35  O6  UNL     1       2.219   2.533  -1.131  1.00  0.00    -0.300 OA
BRANCH  35  36
HETATM   36  C28 UNL     1       1.768   3.715  -0.717  1.00  0.00     0.273 C 
HETATM   37  O7  UNL     1       1.713   4.043   0.445  1.00  0.00    -0.264 OA
HETATM   38  C29 UNL     1       1.316   4.647  -1.809  1.00  0.00     0.106 C 
ENDBRANCH  35  36
ENDBRANCH   4  35
BRANCH   2  39
HETATM   39  O8  UNL     1       2.797  -0.500   1.686  1.00  0.00    -0.304 OA
BRANCH  39  40
HETATM   40  C30 UNL     1       3.414  -0.783   2.830  1.00  0.00     0.272 C 
HETATM   41  O9  UNL     1       4.594  -0.600   3.023  1.00  0.00    -0.264 OA
HETATM   42  C31 UNL     1       2.535  -1.363   3.904  1.00  0.00     0.106 C 
ENDBRANCH  39  40
ENDBRANCH   2  39
TORSDOF 9
