REMARK  2 active torsions:
REMARK  status: ('A' for Active; 'I' for Inactive)
REMARK    1  A    between atoms: C4_5  and  C5_6 
REMARK    2  A    between atoms: C5_6  and  C6_7 
ROOT
HETATM    1  O1  UNL     1      -1.666  -3.476  -1.078  1.00  0.00    -0.190 OA
HETATM    2  C1  UNL     1      -1.234  -2.289  -0.703  1.00  0.00     0.131 A 
HETATM    3  C2  UNL     1      -1.158  -1.237  -1.634  1.00  0.00     0.027 A 
HETATM    4  C3  UNL     1      -0.698   0.029  -1.234  1.00  0.00    -0.002 A 
HETATM    5  C4  UNL     1      -0.312   0.248   0.100  1.00  0.00    -0.018 A 
HETATM    6  C8  UNL     1      -0.387  -0.801   1.033  1.00  0.00    -0.002 A 
HETATM    7  C9  UNL     1      -0.848  -2.066   0.631  1.00  0.00     0.027 A 
ENDROOT
BRANCH   5   8
HETATM    8  C5  UNL     1       0.175   1.587   0.523  1.00  0.00     0.052 C 
BRANCH   8   9
HETATM    9  C6  UNL     1       1.678   1.669   0.523  1.00  0.00    -0.021 C 
HETATM   10  C7  UNL     1       2.253   2.883   0.523  1.00  0.00    -0.005 C 
ENDBRANCH   8   9
ENDBRANCH   5   8
TORSDOF 2
