REMARK  6 active torsions:
REMARK  status: ('A' for Active; 'I' for Inactive)
REMARK    1  A    between atoms: C15_18  and  C18_22 
REMARK    2  A    between atoms: C18_22  and  C19_23 
REMARK    3  A    between atoms: C19_23  and  C20_24 
REMARK    4  A    between atoms: C20_24  and  C21_25 
REMARK    5  A    between atoms: C21_25  and  C22_26 
REMARK    6  A    between atoms: C22_26  and  C24_28 
ROOT
HETATM    1  C1  UNL     1      -5.045   0.812  -0.701  1.00  0.00     0.033 C 
HETATM    2  C2  UNL     1      -4.959  -0.502  -1.506  1.00  0.00     0.152 C 
HETATM    3  C3  UNL     1      -5.346  -1.744  -0.662  1.00  0.00     0.029 C 
HETATM    4  C4  UNL     1      -4.391  -1.879   0.584  1.00  0.00     0.014 C 
HETATM    5  C5  UNL     1      -3.777  -0.522   1.084  1.00  0.00     0.022 C 
HETATM    6  C6  UNL     1      -4.818   0.590   0.801  1.00  0.00     0.007 C 
HETATM    7  C7  UNL     1      -2.395  -0.172   0.490  1.00  0.00     0.014 C 
HETATM    8  C8  UNL     1      -1.725  -1.059  -0.305  1.00  0.00     0.017 C 
HETATM    9  C9  UNL     1      -2.299  -2.389  -0.590  1.00  0.00     0.169 C 
HETATM   10  C10 UNL     1      -3.275  -2.920   0.414  1.00  0.00     0.069 C 
HETATM   11  O1  UNL     1      -2.027  -3.020  -1.584  1.00  0.00    -0.292 OA
HETATM   12  C11 UNL     1      -0.379  -0.647  -0.904  1.00  0.00     0.075 C 
HETATM   13  C12 UNL     1       0.406   0.246   0.086  1.00  0.00     0.045 C 
HETATM   14  C13 UNL     1      -0.420   1.523   0.268  1.00  0.00     0.213 C 
HETATM   15  C14 UNL     1      -1.791   1.164   0.812  1.00  0.00     0.199 C 
HETATM   16  O2  UNL     1      -2.377   1.955   1.516  1.00  0.00    -0.289 OA
HETATM   17  O3  UNL     1       0.264   2.406   1.141  1.00  0.00    -0.215 OA
HETATM   18  C15 UNL     1       1.797   0.332  -0.584  1.00  0.00     0.011 C 
HETATM   19  C16 UNL     1       2.039  -1.129  -0.988  1.00  0.00     0.065 C 
HETATM   20  C17 UNL     1       0.664  -1.707  -1.178  1.00  0.00     0.154 C 
HETATM   21  O4  UNL     1       0.471  -2.856  -1.500  1.00  0.00    -0.296 OA
HETATM   22  C26 UNL     1       0.592  -0.484   1.434  1.00  0.00     0.004 C 
HETATM   23  C27 UNL     1      -0.666   0.051  -2.236  1.00  0.00     0.012 C 
HETATM   24  C28 UNL     1      -3.564  -0.617   2.603  1.00  0.00     0.004 C 
HETATM   25  C29 UNL     1      -6.799  -1.600  -0.176  1.00  0.00     0.003 C 
HETATM   26  C30 UNL     1      -5.316  -3.006  -1.541  1.00  0.00     0.003 C 
HETATM   27  O8  UNL     1      -5.773  -0.389  -2.660  1.00  0.00    -0.224 OA
ENDROOT
BRANCH  18  28
HETATM   28  C18 UNL     1       2.914   0.869   0.309  1.00  0.00     0.008 C 
HETATM   29  C25 UNL     1       2.889   2.398   0.293  1.00  0.00     0.001 C 
BRANCH  28  30
HETATM   30  C19 UNL     1       4.254   0.297  -0.154  1.00  0.00     0.065 C 
BRANCH  30  31
HETATM   31  C20 UNL     1       5.416   0.867   0.613  1.00  0.00     0.151 C 
HETATM   32  O7  UNL     1       5.242   1.490   1.635  1.00  0.00    -0.296 OA
BRANCH  31  33
HETATM   33  C21 UNL     1       6.803   0.641   0.072  1.00  0.00     0.075 C 
BRANCH  33  34
HETATM   34  C22 UNL     1       7.850   1.518   0.758  1.00  0.00     0.095 C 
HETATM   35  C23 UNL     1       9.278   1.016   0.537  1.00  0.00     0.012 C 
BRANCH  34  36
HETATM   36  C24 UNL     1       7.692   2.975   0.416  1.00  0.00     0.185 C 
HETATM   37  O5  UNL     1       8.391   3.496  -0.422  1.00  0.00    -0.647 OA
HETATM   38  O6  UNL     1       6.744   3.615   1.094  1.00  0.00    -0.647 OA
ENDBRANCH  34  36
ENDBRANCH  33  34
ENDBRANCH  31  33
ENDBRANCH  30  31
ENDBRANCH  28  30
ENDBRANCH  18  28
TORSDOF 6
