REMARK  1 active torsions:
REMARK  status: ('A' for Active; 'I' for Inactive)
REMARK    1  A    between atoms: C9_11  and  C10_12 
ROOT
HETATM    1  O1  UNL     1      -0.883   4.129   0.826  1.00  0.00    -0.259 OA
HETATM    2  C1  UNL     1      -0.551   2.998   0.557  1.00  0.00     0.300 A 
HETATM    3  O2  UNL     1       0.726   2.543   0.315  1.00  0.00    -0.273 OA
HETATM    4  C2  UNL     1       0.656   1.193   0.045  1.00  0.00     0.099 A 
HETATM    5  C3  UNL     1      -0.750   0.774   0.127  1.00  0.00     0.028 A 
HETATM    6  C4  UNL     1      -1.373  -0.488  -0.053  1.00  0.00     0.002 A 
HETATM    7  C5  UNL     1      -2.781  -0.572   0.094  1.00  0.00     0.000 A 
HETATM    8  C6  UNL     1      -3.537   0.588   0.414  1.00  0.00     0.000 A 
HETATM    9  C7  UNL     1      -2.885   1.836   0.590  1.00  0.00     0.005 A 
HETATM   10  C8  UNL     1      -1.481   1.883   0.438  1.00  0.00     0.065 A 
HETATM   11  C9  UNL     1       1.740   0.443  -0.242  1.00  0.00    -0.002 C 
ENDROOT
BRANCH  11  12
HETATM   12  C10 UNL     1       1.687  -1.033  -0.543  1.00  0.00     0.024 C 
HETATM   13  C11 UNL     1       1.432  -1.875   0.707  1.00  0.00     0.005 C 
HETATM   14  C12 UNL     1       2.904  -1.510  -1.338  1.00  0.00     0.005 C 
ENDBRANCH  11  12
TORSDOF 1
