REMARK  14 active torsions:
REMARK  status: ('A' for Active; 'I' for Inactive)
REMARK    1  A    between atoms: C1_1  and  O10_46 
REMARK    2  A    between atoms: C2_2  and  O9_44 
REMARK    3  A    between atoms: C11_14  and  O4_16 
REMARK    4  A    between atoms: O4_16  and  C13_17 
REMARK    5  A    between atoms: C13_17  and  C15_19 
REMARK    6  A    between atoms: O10_46  and  C37_47 
REMARK    7  A    between atoms: C40_50  and  O11_51 
REMARK    8  A    between atoms: O11_51  and  C41_52 
REMARK    9  A    between atoms: C44_55  and  O12_56 
REMARK   10  A    between atoms: O12_56  and  C45_57 
REMARK   11  A    between atoms: C47_59  and  O18_75 
REMARK   12  A    between atoms: C48_60  and  O13_61 
REMARK   13  A    between atoms: O13_61  and  C49_62 
REMARK   14  A    between atoms: C51_64  and  O16_70 
ROOT
HETATM    1  C1  UNL     1      -3.383  -0.590   0.944  1.00  0.00     0.172 C 
HETATM    2  C2  UNL     1      -4.671  -1.062   1.649  1.00  0.00     0.150 C 
HETATM    3  C3  UNL     1      -5.897  -0.515   0.901  1.00  0.00     0.094 C 
HETATM    4  C4  UNL     1      -5.820   1.018   0.690  1.00  0.00     0.249 C 
HETATM    5  O1  UNL     1      -4.577   1.334   0.056  1.00  0.00    -0.331 OA
HETATM    6  C5  UNL     1      -3.388   0.943   0.742  1.00  0.00     0.147 C 
HETATM    7  C6  UNL     1      -2.211   1.432  -0.107  1.00  0.00     0.035 C 
HETATM    8  C7  UNL     1      -6.962   1.471  -0.283  1.00  0.00     0.201 C 
HETATM    9  O2  UNL     1      -7.070   2.878  -0.510  1.00  0.00    -0.349 OA
HETATM   10  C8  UNL     1      -6.922   3.732   0.623  1.00  0.00     0.153 C 
HETATM   11  C9  UNL     1      -7.684   3.249   1.895  1.00  0.00     0.206 C 
HETATM   12  C10 UNL     1      -7.509   4.280   3.037  1.00  0.00     0.151 C 
HETATM   13  O3  UNL     1      -7.952   5.556   2.587  1.00  0.00    -0.331 OA
HETATM   14  C11 UNL     1      -7.243   6.085   1.473  1.00  0.00     0.238 C 
HETATM   15  C12 UNL     1      -7.385   5.146   0.257  1.00  0.00     0.094 C 
HETATM   16  C35 UNL     1      -8.332   3.944   4.285  1.00  0.00     0.035 C 
HETATM   17  O7  UNL     1      -7.269   1.964   2.365  1.00  0.00    -0.216 OA
HETATM   18  O8  UNL     1      -5.908   1.641   1.980  1.00  0.00    -0.195 OA
ENDROOT
BRANCH   1  19
HETATM   19  O10 UNL     1      -2.251  -0.942   1.722  1.00  0.00    -0.328 OA
BRANCH  19  20
HETATM   20  C37 UNL     1      -1.148  -1.354   0.944  1.00  0.00     0.238 C 
HETATM   21  C38 UNL     1       0.132  -1.292   1.800  1.00  0.00     0.097 C 
HETATM   22  C39 UNL     1       1.339  -1.828   1.015  1.00  0.00     0.187 C 
HETATM   23  C40 UNL     1       1.008  -3.218   0.432  1.00  0.00     0.175 C 
HETATM   24  O22 UNL     1       2.455  -1.904   1.884  1.00  0.00    -0.221 OA
HETATM   25  C61 UNL     1      -0.324  -3.195  -0.352  1.00  0.00     0.148 C 
HETATM   26  O21 UNL     1      -1.358  -2.682   0.481  1.00  0.00    -0.331 OA
HETATM   27  C62 UNL     1      -0.774  -4.588  -0.808  1.00  0.00     0.035 C 
BRANCH  23  28
HETATM   28  O11 UNL     1       2.045  -3.632  -0.442  1.00  0.00    -0.328 OA
BRANCH  28  29
HETATM   29  C41 UNL     1       2.412  -4.983  -0.267  1.00  0.00     0.238 C 
HETATM   30  C42 UNL     1       3.271  -5.436  -1.465  1.00  0.00     0.097 C 
HETATM   31  C43 UNL     1       3.774  -6.874  -1.263  1.00  0.00     0.187 C 
HETATM   32  C44 UNL     1       4.456  -7.000   0.118  1.00  0.00     0.175 C 
HETATM   33  O20 UNL     1       4.684  -7.195  -2.298  1.00  0.00    -0.221 OA
HETATM   34  C59 UNL     1       3.546  -6.458   1.246  1.00  0.00     0.148 C 
HETATM   35  O19 UNL     1       3.151  -5.127   0.939  1.00  0.00    -0.331 OA
HETATM   36  C60 UNL     1       4.248  -6.410   2.607  1.00  0.00     0.035 C 
BRANCH  32  37
HETATM   37  O12 UNL     1       4.754  -8.359   0.384  1.00  0.00    -0.328 OA
BRANCH  37  38
HETATM   38  C45 UNL     1       6.041  -8.550   0.930  1.00  0.00     0.238 C 
HETATM   39  C46 UNL     1       6.145  -9.976   1.507  1.00  0.00     0.094 C 
HETATM   40  C47 UNL     1       7.568 -10.253   2.021  1.00  0.00     0.150 C 
HETATM   41  C48 UNL     1       8.596  -9.915   0.920  1.00  0.00     0.172 C 
HETATM   42  C56 UNL     1       8.369  -8.493   0.358  1.00  0.00     0.147 C 
HETATM   43  O17 UNL     1       7.022  -8.364  -0.082  1.00  0.00    -0.331 OA
HETATM   44  C57 UNL     1       9.262  -8.178  -0.848  1.00  0.00     0.035 C 
BRANCH  40  45
HETATM   45  O18 UNL     1       7.663 -11.616   2.394  1.00  0.00    -0.351 OA
HETATM   46  C58 UNL     1       8.487 -11.827   3.517  1.00  0.00     0.174 C 
ENDBRANCH  40  45
BRANCH  41  47
HETATM   47  O13 UNL     1       9.909  -9.993   1.450  1.00  0.00    -0.328 OA
BRANCH  47  48
HETATM   48  C49 UNL     1      10.819 -10.637   0.586  1.00  0.00     0.238 C 
HETATM   49  C50 UNL     1      12.254 -10.433   1.113  1.00  0.00     0.094 C 
HETATM   50  C51 UNL     1      13.264 -11.204   0.251  1.00  0.00     0.153 C 
HETATM   51  C52 UNL     1      12.822 -12.677   0.118  1.00  0.00     0.206 C 
HETATM   52  C53 UNL     1      11.350 -12.780  -0.348  1.00  0.00     0.151 C 
HETATM   53  O15 UNL     1      13.646 -13.345  -0.821  1.00  0.00    -0.218 OA
HETATM   54  O14 UNL     1      10.520 -12.026   0.528  1.00  0.00    -0.331 OA
HETATM   55  C54 UNL     1      10.819 -14.219  -0.333  1.00  0.00     0.035 C 
BRANCH  50  56
HETATM   56  O16 UNL     1      14.542 -11.120   0.857  1.00  0.00    -0.351 OA
HETATM   57  C55 UNL     1      15.047  -9.805   0.908  1.00  0.00     0.174 C 
ENDBRANCH  50  56
ENDBRANCH  47  48
ENDBRANCH  41  47
ENDBRANCH  37  38
ENDBRANCH  32  37
ENDBRANCH  28  29
ENDBRANCH  23  28
ENDBRANCH  19  20
ENDBRANCH   1  19
BRANCH   2  58
HETATM   58  O9  UNL     1      -4.741  -2.478   1.670  1.00  0.00    -0.351 OA
HETATM   59  C36 UNL     1      -3.940  -3.057   2.676  1.00  0.00     0.174 C 
ENDBRANCH   2  58
BRANCH  14  60
HETATM   60  O4  UNL     1      -7.757   7.357   1.143  1.00  0.00    -0.331 OA
BRANCH  60  61
HETATM   61  C13 UNL     1      -7.171   8.401   1.887  1.00  0.00     0.146 C 
HETATM   62  C14 UNL     1      -7.638   8.276   3.339  1.00  0.00     0.035 C 
BRANCH  61  63
HETATM   63  C15 UNL     1      -7.659   9.733   1.308  1.00  0.00     0.151 C 
HETATM   64  C16 UNL     1      -7.213   9.995  -0.149  1.00  0.00     0.028 C 
HETATM   65  C17 UNL     1      -5.729  10.320   0.105  1.00  0.00     0.003 C 
HETATM   66  C23 UNL     1      -7.276   8.800  -1.110  1.00  0.00     0.003 C 
HETATM   67  C34 UNL     1      -7.984  11.196  -0.720  1.00  0.00     0.003 C 
HETATM   68  C18 UNL     1      -5.799  11.329   1.254  1.00  0.00     0.003 C 
HETATM   69  C20 UNL     1      -4.925  10.712  -1.156  1.00  0.00     0.004 C 
HETATM   70  C19 UNL     1      -7.022  10.904   2.079  1.00  0.00     0.033 C 
HETATM   71  C21 UNL     1      -5.049   9.537  -2.163  1.00  0.00     0.004 C 
HETATM   72  C27 UNL     1      -3.445  10.872  -0.763  1.00  0.00     0.025 C 
HETATM   73  C33 UNL     1      -5.453  12.038  -1.727  1.00  0.00     0.000 C 
HETATM   74  C22 UNL     1      -6.528   9.141  -2.413  1.00  0.00     0.000 C 
HETATM   75  C24 UNL     1      -4.238   9.809  -3.468  1.00  0.00     0.015 C 
HETATM   76  C25 UNL     1      -2.851  10.373  -3.161  1.00  0.00    -0.046 C 
HETATM   77  C31 UNL     1      -4.058   8.493  -4.273  1.00  0.00     0.006 C 
HETATM   78  C32 UNL     1      -4.981  10.832  -4.338  1.00  0.00     0.004 C 
HETATM   79  C26 UNL     1      -2.510  10.873  -1.952  1.00  0.00    -0.035 C 
HETATM   80  C28 UNL     1      -1.806  10.361  -4.260  1.00  0.00     0.055 C 
HETATM   81  C29 UNL     1      -2.378   9.925  -5.618  1.00  0.00     0.156 C 
HETATM   82  C30 UNL     1      -3.156   8.600  -5.524  1.00  0.00     0.034 C 
HETATM   83  O5  UNL     1      -1.325   9.789  -6.551  1.00  0.00    -0.223 OA
HETATM   84  O6  UNL     1      -9.068   9.743   1.444  1.00  0.00    -0.224 OA
ENDBRANCH  61  63
ENDBRANCH  60  61
ENDBRANCH  14  60
TORSDOF 14
