REMARK  11 active torsions:
REMARK  status: ('A' for Active; 'I' for Inactive)
REMARK    1  A    between atoms: C1_1  and  O13_43 
REMARK    2  A    between atoms: C7_8  and  C25_35 
REMARK    3  A    between atoms: C8_9  and  O3_12 
REMARK    4  A    between atoms: O3_12  and  C10_13 
REMARK    5  A    between atoms: C14_20  and  C15_22 
REMARK    6  A    between atoms: C15_22  and  O8_23 
REMARK    7  A    between atoms: O8_23  and  C16_24 
REMARK    8  A    between atoms: C16_24  and  C17_25 
REMARK    9  A    between atoms: C18_26  and  C19_27 
REMARK   10  A    between atoms: O13_43  and  C31_44 
REMARK   11  A    between atoms: C35_51  and  C36_53 
ROOT
HETATM    1  C1  UNL     1      -0.710  -2.707   3.676  1.00  0.00     0.101 A 
HETATM    2  C2  UNL     1      -0.654  -3.507   2.511  1.00  0.00     0.052 A 
HETATM    3  C3  UNL     1      -0.517  -2.904   1.239  1.00  0.00     0.138 A 
HETATM    4  C4  UNL     1      -0.433  -1.490   1.134  1.00  0.00     0.085 A 
HETATM    5  C5  UNL     1      -0.526  -0.684   2.303  1.00  0.00     0.101 A 
HETATM    6  C6  UNL     1      -0.645  -1.299   3.571  1.00  0.00     0.049 A 
HETATM    7  O1  UNL     1      -0.504   0.663   2.230  1.00  0.00    -0.326 OA
HETATM    8  C7  UNL     1      -0.796   1.321   0.992  1.00  0.00     0.178 C 
HETATM    9  C8  UNL     1      -0.016   0.664  -0.173  1.00  0.00     0.211 C 
HETATM   10  C9  UNL     1      -0.236  -0.836  -0.195  1.00  0.00     0.207 C 
HETATM   11  O2  UNL     1      -0.231  -1.380  -1.276  1.00  0.00    -0.288 OA
HETATM   12  O12 UNL     1      -0.458  -3.682   0.149  1.00  0.00    -0.190 OA
ENDROOT
BRANCH   9  13
HETATM   13  O3  UNL     1       1.374   0.909  -0.049  1.00  0.00    -0.321 OA
BRANCH  13  14
HETATM   14  C10 UNL     1       2.087   0.696  -1.252  1.00  0.00     0.270 C 
HETATM   15  C11 UNL     1       3.614   0.695  -0.983  1.00  0.00     0.241 C 
HETATM   16  O4  UNL     1       3.948  -0.421  -0.173  1.00  0.00    -0.215 OA
HETATM   17  C12 UNL     1       4.409   0.623  -2.307  1.00  0.00     0.220 C 
HETATM   18  O5  UNL     1       5.790   0.825  -2.050  1.00  0.00    -0.218 OA
HETATM   19  C13 UNL     1       3.896   1.698  -3.290  1.00  0.00     0.215 C 
HETATM   20  O6  UNL     1       4.488   1.506  -4.563  1.00  0.00    -0.218 OA
HETATM   21  C14 UNL     1       2.360   1.633  -3.442  1.00  0.00     0.181 C 
HETATM   22  O7  UNL     1       1.755   1.738  -2.161  1.00  0.00    -0.326 OA
BRANCH  21  23
HETATM   23  C15 UNL     1       1.795   2.776  -4.292  1.00  0.00     0.184 C 
BRANCH  23  24
HETATM   24  O8  UNL     1       0.384   2.646  -4.382  1.00  0.00    -0.296 OA
BRANCH  24  25
HETATM   25  C16 UNL     1      -0.168   3.613  -5.110  1.00  0.00     0.296 C 
HETATM   26  O10 UNL     1       0.460   4.502  -5.635  1.00  0.00    -0.259 OA
BRANCH  25  27
HETATM   27  C17 UNL     1      -1.627   3.549  -5.252  1.00  0.00     0.068 C 
HETATM   28  C18 UNL     1      -2.286   4.476  -5.966  1.00  0.00     0.005 C 
BRANCH  28  29
HETATM   29  C19 UNL     1      -3.771   4.370  -6.081  1.00  0.00     0.000 A 
HETATM   30  C20 UNL     1      -4.551   5.530  -6.234  1.00  0.00     0.002 A 
HETATM   31  C21 UNL     1      -5.948   5.429  -6.343  1.00  0.00     0.027 A 
HETATM   32  C22 UNL     1      -6.572   4.169  -6.300  1.00  0.00     0.131 A 
HETATM   33  C23 UNL     1      -5.790   3.011  -6.147  1.00  0.00     0.027 A 
HETATM   34  O9  UNL     1      -7.883   4.075  -6.402  1.00  0.00    -0.190 OA
HETATM   35  C24 UNL     1      -4.393   3.109  -6.038  1.00  0.00     0.002 A 
ENDBRANCH  28  29
ENDBRANCH  25  27
ENDBRANCH  24  25
ENDBRANCH  23  24
ENDBRANCH  21  23
ENDBRANCH  13  14
ENDBRANCH   9  13
BRANCH   8  36
HETATM   36  C25 UNL     1      -0.560   2.781   1.137  1.00  0.00     0.008 A 
HETATM   37  C26 UNL     1       0.517   3.246   1.912  1.00  0.00     0.000 A 
HETATM   38  C27 UNL     1       0.740   4.627   2.048  1.00  0.00     0.027 A 
HETATM   39  C28 UNL     1      -0.112   5.548   1.412  1.00  0.00     0.131 A 
HETATM   40  C29 UNL     1      -1.189   5.080   0.638  1.00  0.00     0.027 A 
HETATM   41  O11 UNL     1       0.098   6.843   1.541  1.00  0.00    -0.190 OA
HETATM   42  C30 UNL     1      -1.413   3.699   0.500  1.00  0.00     0.000 A 
ENDBRANCH   8  36
BRANCH   1  43
HETATM   43  O13 UNL     1      -0.829  -3.283   4.880  1.00  0.00    -0.303 OA
BRANCH  43  44
HETATM   44  C31 UNL     1      -0.443  -4.645   5.009  1.00  0.00     0.274 C 
HETATM   45  C32 UNL     1      -0.558  -5.090   6.482  1.00  0.00     0.241 C 
HETATM   46  O14 UNL     1      -1.921  -5.036   6.864  1.00  0.00    -0.215 OA
HETATM   47  C33 UNL     1      -0.014  -6.522   6.677  1.00  0.00     0.220 C 
HETATM   48  O15 UNL     1       0.047  -6.829   8.060  1.00  0.00    -0.218 OA
HETATM   49  C34 UNL     1       1.395  -6.634   6.052  1.00  0.00     0.215 C 
HETATM   50  O16 UNL     1       1.813  -7.988   6.052  1.00  0.00    -0.218 OA
HETATM   51  C35 UNL     1       1.408  -6.111   4.597  1.00  0.00     0.184 C 
HETATM   52  O17 UNL     1       0.901  -4.783   4.568  1.00  0.00    -0.326 OA
BRANCH  51  53
HETATM   53  C36 UNL     1       2.815  -6.061   3.993  1.00  0.00     0.214 C 
HETATM   54  O18 UNL     1       2.697  -5.735   2.627  1.00  0.00    -0.218 OA
ENDBRANCH  51  53
ENDBRANCH  43  44
ENDBRANCH   1  43
TORSDOF 11
