REMARK  7 active torsions:
REMARK  status: ('A' for Active; 'I' for Inactive)
REMARK    1  A    between atoms: C3_3  and  C13_15 
REMARK    2  A    between atoms: C4_4  and  O1_8 
REMARK    3  A    between atoms: O1_8  and  C8_9 
REMARK    4  A    between atoms: C8_9  and  C9_10 
REMARK    5  A    between atoms: C13_15  and  C14_16 
REMARK    6  A    between atoms: C14_16  and  O3_17 
REMARK    7  A    between atoms: O3_17  and  C15_18 
ROOT
HETATM    1  C1  UNL     1       2.016  -3.500  -0.557  1.00  0.00    -0.004 A 
HETATM    2  C2  UNL     1       2.672  -2.258  -0.557  1.00  0.00     0.001 A 
HETATM    3  C3  UNL     1       1.926  -1.065  -0.557  1.00  0.00     0.021 A 
HETATM    4  C4  UNL     1       0.518  -1.115  -0.557  1.00  0.00     0.103 A 
HETATM    5  C5  UNL     1      -0.135  -2.360  -0.557  1.00  0.00     0.021 A 
HETATM    6  C6  UNL     1       0.611  -3.553  -0.557  1.00  0.00    -0.020 A 
HETATM    7  C7  UNL     1      -0.086  -4.865  -0.557  1.00  0.00     0.031 C 
ENDROOT
BRANCH   3   8
HETATM    8  C13 UNL     1       2.637   0.250  -0.557  1.00  0.00     0.010 C 
HETATM    9  C17 UNL     1       3.867   0.318  -1.092  1.00  0.00    -0.002 C 
BRANCH   8  10
HETATM   10  C14 UNL     1       2.033   1.502   0.020  1.00  0.00     0.178 C 
BRANCH  10  11
HETATM   11  O3  UNL     1       1.432   1.207   1.272  1.00  0.00    -0.297 OA
BRANCH  11  12
HETATM   12  C15 UNL     1       0.899   2.281   1.844  1.00  0.00     0.273 C 
HETATM   13  O4  UNL     1       0.918   3.387   1.352  1.00  0.00    -0.264 OA
HETATM   14  C16 UNL     1       0.248   2.041   3.180  1.00  0.00     0.106 C 
ENDBRANCH  11  12
ENDBRANCH  10  11
ENDBRANCH   8  10
ENDBRANCH   3   8
BRANCH   4  15
HETATM   15  O1  UNL     1      -0.193  -0.004  -0.557  1.00  0.00    -0.273 OA
BRANCH  15  16
HETATM   16  C8  UNL     1      -1.318   0.041   0.152  1.00  0.00     0.296 C 
HETATM   17  O2  UNL     1      -1.570  -0.713   1.065  1.00  0.00    -0.259 OA
BRANCH  16  18
HETATM   18  C9  UNL     1      -2.275   1.084  -0.234  1.00  0.00     0.037 C 
HETATM   19  C10 UNL     1      -3.437   1.367   0.678  1.00  0.00     0.036 C 
HETATM   20  C11 UNL     1      -2.160   1.797  -1.367  1.00  0.00    -0.025 C 
HETATM   21  C12 UNL     1      -3.201   2.844  -1.666  1.00  0.00     0.030 C 
ENDBRANCH  16  18
ENDBRANCH  15  16
ENDBRANCH   4  15
TORSDOF 7
