REMARK  1 active torsions:
REMARK  status: ('A' for Active; 'I' for Inactive)
REMARK    1  A    between atoms: C2_2  and  C13_13 
ROOT
HETATM    1  C1  UNL     1      -0.623   0.939   0.176  1.00  0.00     0.025 C 
HETATM    2  C2  UNL     1      -1.732   0.123  -0.510  1.00  0.00     0.022 C 
HETATM    3  C3  UNL     1      -1.627  -1.365  -0.145  1.00  0.00     0.004 C 
HETATM    4  C4  UNL     1      -0.236  -1.914  -0.484  1.00  0.00     0.004 C 
HETATM    5  C5  UNL     1       0.912  -1.145   0.207  1.00  0.00     0.015 C 
HETATM    6  C6  UNL     1       2.260  -1.707  -0.295  1.00  0.00     0.004 C 
HETATM    7  C7  UNL     1       3.420  -0.771   0.045  1.00  0.00     0.004 C 
HETATM    8  C8  UNL     1       3.201   0.576  -0.645  1.00  0.00     0.021 C 
HETATM    9  C9  UNL     1       1.811   1.135  -0.426  1.00  0.00    -0.052 C 
HETATM   10  C10 UNL     1       0.766   0.357  -0.043  1.00  0.00    -0.052 C 
HETATM   11  C11 UNL     1       1.652   2.617  -0.656  1.00  0.00     0.026 C 
HETATM   12  C12 UNL     1       0.826  -1.354   1.727  1.00  0.00     0.004 C 
ENDROOT
BRANCH   2  13
HETATM   13  C13 UNL     1      -3.100   0.670  -0.174  1.00  0.00    -0.044 C 
HETATM   14  C14 UNL     1      -3.901   1.053  -1.182  1.00  0.00    -0.009 C 
HETATM   15  C15 UNL     1      -3.604   0.805   1.236  1.00  0.00     0.026 C 
ENDBRANCH   2  13
TORSDOF 1
