REMARK WARNING: 32 MAX_TORS EXCEEDED!!!
REMARK  48 active torsions:
REMARK  status: ('A' for Active; 'I' for Inactive)
REMARK    1  A    between atoms: C2_2  and  O10_63 
REMARK    2  A    between atoms: C4_4  and  O3_9 
REMARK    3  A    between atoms: C5_6  and  C6_7 
REMARK    4  A    between atoms: O3_9  and  C7_10 
REMARK    5  A    between atoms: C7_10  and  C8_11 
REMARK    6  A    between atoms: C8_11  and  C9_12 
REMARK    7  A    between atoms: C8_11  and  N1_41 
REMARK    8  A    between atoms: C9_12  and  C10_13 
REMARK    9  A    between atoms: C10_13  and  C11_14 
REMARK   10  A    between atoms: C11_14  and  C12_15 
REMARK   11  A    between atoms: C12_15  and  C13_16 
REMARK   12  A    between atoms: C13_16  and  C14_17 
REMARK   13  A    between atoms: C14_17  and  C15_18 
REMARK   14  A    between atoms: C16_19  and  C17_20 
REMARK   15  A    between atoms: C17_20  and  C18_21 
REMARK   16  A    between atoms: C18_21  and  C19_22 
REMARK   17  A    between atoms: C19_22  and  C20_23 
REMARK   18  A    between atoms: C20_23  and  C21_24 
REMARK   19  A    between atoms: C21_24  and  C22_25 
REMARK   20  A    between atoms: C22_25  and  C23_26 
REMARK   21  A    between atoms: C23_26  and  C24_27 
REMARK   22  A    between atoms: C24_27  and  C25_28 
REMARK   23  A    between atoms: C25_28  and  C26_29 
REMARK   24  A    between atoms: C26_29  and  C27_30 
REMARK   25  A    between atoms: C27_30  and  C28_31 
REMARK   26  A    between atoms: C28_31  and  C29_32 
REMARK   27  A    between atoms: C29_32  and  C30_33 
REMARK   28  A    between atoms: C30_33  and  C31_34 
REMARK   29  A    between atoms: C31_34  and  C32_35 
REMARK   30  A    between atoms: C32_35  and  C33_36 
REMARK       I    between atoms: N1_41  and  C35_42 
REMARK   31  A    between atoms: C35_42  and  C36_43 
REMARK   32  A    between atoms: C36_43  and  C37_44 
REMARK   33  A    between atoms: C37_44  and  C38_45 
REMARK   34  A    between atoms: C38_45  and  C39_46 
REMARK   35  A    between atoms: C39_46  and  C40_47 
REMARK   36  A    between atoms: C40_47  and  C41_48 
REMARK   37  A    between atoms: C41_48  and  C42_49 
REMARK   38  A    between atoms: C42_49  and  C43_50 
REMARK   39  A    between atoms: C43_50  and  C44_51 
REMARK   40  A    between atoms: C44_51  and  C45_52 
REMARK   41  A    between atoms: C45_52  and  C46_53 
REMARK   42  A    between atoms: C46_53  and  C47_54 
REMARK   43  A    between atoms: C47_54  and  C48_55 
REMARK   44  A    between atoms: C48_55  and  C49_56 
REMARK   45  A    between atoms: C49_56  and  C50_57 
REMARK   46  A    between atoms: C50_57  and  C51_58 
REMARK   47  A    between atoms: O10_63  and  C53_64 
REMARK   48  A    between atoms: C54_66  and  C58_73 
ROOT
HETATM    1  C8  UNL     1      -3.020   3.199   3.064  1.00  0.00     0.166 C 
ENDROOT
BRANCH   1   2
HETATM    2  C7  UNL     1      -4.234   3.559   3.920  1.00  0.00     0.172 C 
BRANCH   2   3
HETATM    3  O3  UNL     1      -4.699   4.826   3.516  1.00  0.00    -0.327 OA
BRANCH   3   4
HETATM    4  C4  UNL     1      -5.797   5.287   4.277  1.00  0.00     0.270 C 
HETATM    5  C3  UNL     1      -6.113   6.766   3.937  1.00  0.00     0.238 C 
HETATM    6  C2  UNL     1      -7.401   7.234   4.650  1.00  0.00     0.186 C 
HETATM    7  O9  UNL     1      -5.027   7.586   4.340  1.00  0.00    -0.215 OA
HETATM    8  C1  UNL     1      -8.543   6.225   4.396  1.00  0.00     0.211 C 
HETATM    9  C5  UNL     1      -8.100   4.779   4.719  1.00  0.00     0.184 C 
HETATM   10  O16 UNL     1      -9.658   6.547   5.209  1.00  0.00    -0.218 OA
HETATM   11  O1  UNL     1      -6.922   4.473   3.982  1.00  0.00    -0.326 OA
BRANCH   6  12
HETATM   12  O10 UNL     1      -7.779   8.516   4.170  1.00  0.00    -0.326 OA
BRANCH  12  13
HETATM   13  C53 UNL     1      -8.293   9.359   5.182  1.00  0.00     0.270 C 
HETATM   14  O11 UNL     1      -7.215   9.781   6.006  1.00  0.00    -0.326 OA
HETATM   15  C54 UNL     1      -7.584  10.602   7.107  1.00  0.00     0.184 C 
HETATM   16  C55 UNL     1      -8.229  11.904   6.580  1.00  0.00     0.215 C 
HETATM   17  C56 UNL     1      -9.420  11.602   5.645  1.00  0.00     0.220 C 
HETATM   18  O14 UNL     1      -8.670  12.672   7.686  1.00  0.00    -0.218 OA
HETATM   19  C57 UNL     1      -8.992  10.594   4.555  1.00  0.00     0.241 C 
HETATM   20  O13 UNL     1      -9.871  12.803   5.037  1.00  0.00    -0.218 OA
HETATM   21  O12 UNL     1     -10.137  10.168   3.832  1.00  0.00    -0.215 OA
BRANCH  15  22
HETATM   22  C58 UNL     1      -6.311  10.854   7.918  1.00  0.00     0.214 C 
HETATM   23  O15 UNL     1      -5.900   9.629   8.484  1.00  0.00    -0.218 OA
ENDBRANCH  15  22
ENDBRANCH  12  13
ENDBRANCH   6  12
BRANCH   9  24
HETATM   24  C6  UNL     1      -9.149   3.734   4.332  1.00  0.00     0.214 C 
HETATM   25  O2  UNL     1      -8.723   2.480   4.814  1.00  0.00    -0.218 OA
ENDBRANCH   9  24
ENDBRANCH   3   4
ENDBRANCH   2   3
ENDBRANCH   1   2
BRANCH   1  26
HETATM   26  C9  UNL     1      -2.248   1.998   3.609  1.00  0.00     0.180 C 
HETATM   27  O6  UNL     1      -3.068   0.857   3.492  1.00  0.00    -0.221 OA
BRANCH  26  28
HETATM   28  C10 UNL     1      -0.949   1.734   2.848  1.00  0.00     0.071 C 
BRANCH  28  29
HETATM   29  C11 UNL     1      -0.029   0.750   3.570  1.00  0.00     0.185 C 
HETATM   30  O5  UNL     1      -0.482  -0.557   3.301  1.00  0.00    -0.221 OA
BRANCH  29  31
HETATM   31  C12 UNL     1       1.426   0.855   3.113  1.00  0.00     0.183 C 
HETATM   32  O4  UNL     1       1.889   2.152   3.414  1.00  0.00    -0.221 OA
BRANCH  31  33
HETATM   33  C13 UNL     1       2.340  -0.152   3.811  1.00  0.00     0.040 C 
BRANCH  33  34
HETATM   34  C14 UNL     1       3.773  -0.113   3.281  1.00  0.00     0.028 C 
BRANCH  34  35
HETATM   35  C15 UNL     1       4.635  -1.191   3.883  1.00  0.00    -0.031 C 
HETATM   36  C16 UNL     1       5.305  -2.012   3.057  1.00  0.00    -0.031 C 
BRANCH  36  37
HETATM   37  C17 UNL     1       6.168  -3.090   3.658  1.00  0.00     0.026 C 
BRANCH  37  38
HETATM   38  C18 UNL     1       5.836  -4.477   3.109  1.00  0.00     0.005 C 
BRANCH  38  39
HETATM   39  C19 UNL     1       6.715  -5.574   3.709  1.00  0.00     0.000 C 
BRANCH  39  40
HETATM   40  C20 UNL     1       6.381  -6.963   3.160  1.00  0.00     0.000 C 
BRANCH  40  41
HETATM   41  C21 UNL     1       7.260  -8.061   3.760  1.00  0.00     0.000 C 
BRANCH  41  42
HETATM   42  C22 UNL     1       6.926  -9.449   3.213  1.00  0.00     0.000 C 
BRANCH  42  43
HETATM   43  C23 UNL     1       7.805 -10.547   3.812  1.00  0.00     0.000 C 
BRANCH  43  44
HETATM   44  C24 UNL     1       7.473 -11.934   3.264  1.00  0.00     0.000 C 
BRANCH  44  45
HETATM   45  C25 UNL     1       8.352 -13.031   3.863  1.00  0.00     0.000 C 
BRANCH  45  46
HETATM   46  C26 UNL     1       8.018 -14.420   3.314  1.00  0.00     0.000 C 
BRANCH  46  47
HETATM   47  C27 UNL     1       8.897 -15.518   3.914  1.00  0.00     0.000 C 
BRANCH  47  48
HETATM   48  C28 UNL     1       8.563 -16.907   3.367  1.00  0.00     0.000 C 
BRANCH  48  49
HETATM   49  C29 UNL     1       9.442 -18.004   3.967  1.00  0.00     0.000 C 
BRANCH  49  50
HETATM   50  C30 UNL     1       9.110 -19.393   3.418  1.00  0.00     0.000 C 
BRANCH  50  51
HETATM   51  C31 UNL     1       9.988 -20.491   4.018  1.00  0.00     0.000 C 
BRANCH  51  52
HETATM   52  C32 UNL     1       9.654 -21.877   3.471  1.00  0.00     0.000 C 
BRANCH  52  53
HETATM   53  C33 UNL     1      10.533 -22.977   4.070  1.00  0.00     0.000 C 
HETATM   54  C34 UNL     1      10.199 -24.364   3.521  1.00  0.00     0.000 C 
ENDBRANCH  52  53
ENDBRANCH  51  52
ENDBRANCH  50  51
ENDBRANCH  49  50
ENDBRANCH  48  49
ENDBRANCH  47  48
ENDBRANCH  46  47
ENDBRANCH  45  46
ENDBRANCH  44  45
ENDBRANCH  43  44
ENDBRANCH  42  43
ENDBRANCH  41  42
ENDBRANCH  40  41
ENDBRANCH  39  40
ENDBRANCH  38  39
ENDBRANCH  37  38
ENDBRANCH  36  37
ENDBRANCH  34  35
ENDBRANCH  33  34
ENDBRANCH  31  33
ENDBRANCH  29  31
ENDBRANCH  28  29
ENDBRANCH  26  28
ENDBRANCH   1  26
BRANCH   1  55
HETATM   55  N1  UNL     1      -3.406   2.984   1.662  1.00  0.00    -0.233 NA
HETATM   56  C35 UNL     1      -2.582   3.422   0.664  1.00  0.00     0.282 C 
HETATM   57  O8  UNL     1      -1.545   3.982   0.932  1.00  0.00    -0.268 OA
BRANCH  56  58
HETATM   58  C36 UNL     1      -2.994   3.193  -0.766  1.00  0.00     0.232 C 
HETATM   59  O7  UNL     1      -2.736   1.855  -1.121  1.00  0.00    -0.213 OA
BRANCH  58  60
HETATM   60  C37 UNL     1      -2.244   4.102  -1.740  1.00  0.00     0.043 C 
BRANCH  60  61
HETATM   61  C38 UNL     1      -2.807   4.033  -3.160  1.00  0.00     0.003 C 
BRANCH  61  62
HETATM   62  C39 UNL     1      -2.082   4.971  -4.127  1.00  0.00     0.000 C 
BRANCH  62  63
HETATM   63  C40 UNL     1      -2.643   4.902  -5.549  1.00  0.00     0.000 C 
BRANCH  63  64
HETATM   64  C41 UNL     1      -1.918   5.840  -6.514  1.00  0.00     0.000 C 
BRANCH  64  65
HETATM   65  C42 UNL     1      -2.481   5.772  -7.936  1.00  0.00     0.000 C 
BRANCH  65  66
HETATM   66  C43 UNL     1      -1.756   6.709  -8.903  1.00  0.00     0.000 C 
BRANCH  66  67
HETATM   67  C44 UNL     1      -2.316   6.641 -10.322  1.00  0.00     0.000 C 
BRANCH  67  68
HETATM   68  C45 UNL     1      -1.592   7.578 -11.289  1.00  0.00     0.000 C 
BRANCH  68  69
HETATM   69  C46 UNL     1      -2.154   7.510 -12.709  1.00  0.00     0.000 C 
BRANCH  69  70
HETATM   70  C47 UNL     1      -1.430   8.447 -13.676  1.00  0.00     0.000 C 
BRANCH  70  71
HETATM   71  C48 UNL     1      -1.992   8.379 -15.096  1.00  0.00     0.000 C 
BRANCH  71  72
HETATM   72  C49 UNL     1      -1.266   9.317 -16.063  1.00  0.00     0.000 C 
BRANCH  72  73
HETATM   73  C50 UNL     1      -1.828   9.248 -17.483  1.00  0.00     0.000 C 
BRANCH  73  74
HETATM   74  C51 UNL     1      -1.104  10.186 -18.450  1.00  0.00     0.000 C 
HETATM   75  C52 UNL     1      -1.666  10.117 -19.871  1.00  0.00     0.000 C 
ENDBRANCH  73  74
ENDBRANCH  72  73
ENDBRANCH  71  72
ENDBRANCH  70  71
ENDBRANCH  69  70
ENDBRANCH  68  69
ENDBRANCH  67  68
ENDBRANCH  66  67
ENDBRANCH  65  66
ENDBRANCH  64  65
ENDBRANCH  63  64
ENDBRANCH  62  63
ENDBRANCH  61  62
ENDBRANCH  60  61
ENDBRANCH  58  60
ENDBRANCH  56  58
ENDBRANCH   1  55
TORSDOF 48
