REMARK  5 active torsions:
REMARK  status: ('A' for Active; 'I' for Inactive)
REMARK    1  A    between atoms: C2_2  and  O10_38 
REMARK    2  A    between atoms: C13_15  and  O4_18 
REMARK    3  A    between atoms: O4_18  and  C15_19 
REMARK    4  A    between atoms: C18_23  and  C21_27 
REMARK    5  A    between atoms: O10_38  and  C29_39 
ROOT
HETATM    1  C1  UNL     1      -3.053   2.297   0.107  1.00  0.00     0.064 C 
HETATM    2  C2  UNL     1      -3.897   1.367   1.111  1.00  0.00     0.132 C 
HETATM    3  C3  UNL     1      -3.477  -0.002   0.617  1.00  0.00     0.081 C 
HETATM    4  C4  UNL     1      -1.918   0.004   0.979  1.00  0.00     0.018 C 
HETATM    5  C5  UNL     1      -1.348   0.125  -0.371  1.00  0.00     0.074 C 
HETATM    6  C6  UNL     1      -1.901   1.580  -0.805  1.00  0.00     0.160 C 
HETATM    7  O1  UNL     1      -2.260   1.578  -2.176  1.00  0.00    -0.223 OA
HETATM    8  C7  UNL     1       0.213   0.047  -0.271  1.00  0.00    -0.001 C 
HETATM    9  C8  UNL     1       0.910   0.959   0.807  1.00  0.00     0.053 C 
HETATM   10  C9  UNL     1       0.258   0.717   2.190  1.00  0.00     0.156 C 
HETATM   11  C10 UNL     1      -1.279   0.885   2.102  1.00  0.00     0.034 C 
HETATM   12  O2  UNL     1       0.576  -0.568   2.690  1.00  0.00    -0.223 OA
HETATM   13  C11 UNL     1       2.467   0.785   0.678  1.00  0.00     0.067 C 
HETATM   14  C12 UNL     1       2.951  -0.484  -0.057  1.00  0.00     0.044 C 
HETATM   15  C13 UNL     1       2.435  -0.358  -1.508  1.00  0.00     0.185 C 
HETATM   16  C14 UNL     1       0.969   0.039  -1.584  1.00  0.00     0.193 C 
HETATM   17  O3  UNL     1       0.445   0.332  -2.635  1.00  0.00    -0.289 OA
HETATM   18  C17 UNL     1       2.519  -1.789   0.629  1.00  0.00     0.004 C 
HETATM   19  C18 UNL     1       4.478  -0.350   0.148  1.00  0.00     0.035 C 
HETATM   20  C19 UNL     1       4.596   0.041   1.631  1.00  0.00     0.069 C 
HETATM   21  C20 UNL     1       3.348   0.836   1.893  1.00  0.00     0.151 C 
HETATM   22  O6  UNL     1       3.103   1.424   2.920  1.00  0.00    -0.296 OA
HETATM   23  C25 UNL     1       0.767   2.467   0.525  1.00  0.00     0.007 C 
HETATM   24  C26 UNL     1      -1.932  -1.254  -1.031  1.00  0.00     0.151 C 
HETATM   25  O8  UNL     1      -2.840  -2.123  -0.213  1.00  0.00    -0.329 OA
HETATM   26  C27 UNL     1      -3.731  -1.506   0.799  1.00  0.00     0.271 C 
HETATM   27  O9  UNL     1      -5.086  -1.904   0.666  1.00  0.00    -0.190 OA
HETATM   28  C28 UNL     1      -4.156   0.127  -0.814  1.00  0.00     0.008 C 
ENDROOT
BRANCH  19  29
HETATM   29  C21 UNL     1       5.260  -1.600  -0.195  1.00  0.00     0.005 A 
HETATM   30  C22 UNL     1       6.623  -1.828   0.014  1.00  0.00     0.118 A 
HETATM   31  O7  UNL     1       7.010  -3.065  -0.414  1.00  0.00    -0.303 OA
HETATM   32  C23 UNL     1       5.863  -3.623  -0.902  1.00  0.00     0.122 A 
HETATM   33  C24 UNL     1       4.768  -2.762  -0.789  1.00  0.00     0.025 A 
ENDBRANCH  19  29
BRANCH  15  34
HETATM   34  O4  UNL     1       2.631  -1.582  -2.199  1.00  0.00    -0.296 OA
BRANCH  34  35
HETATM   35  C15 UNL     1       2.574  -1.434  -3.520  1.00  0.00     0.273 C 
HETATM   36  O5  UNL     1       2.549  -0.361  -4.076  1.00  0.00    -0.264 OA
HETATM   37  C16 UNL     1       2.545  -2.717  -4.307  1.00  0.00     0.106 C 
ENDBRANCH  34  35
ENDBRANCH  15  34
BRANCH   2  38
HETATM   38  O10 UNL     1      -5.295   1.601   0.979  1.00  0.00    -0.304 OA
BRANCH  38  39
HETATM   39  C29 UNL     1      -5.654   2.795   1.443  1.00  0.00     0.272 C 
HETATM   40  O11 UNL     1      -4.885   3.588   1.934  1.00  0.00    -0.264 OA
HETATM   41  C30 UNL     1      -7.121   3.117   1.318  1.00  0.00     0.106 C 
ENDBRANCH  38  39
ENDBRANCH   2  38
TORSDOF 5
