REMARK  2 active torsions:
REMARK  status: ('A' for Active; 'I' for Inactive)
REMARK    1  A    between atoms: C3_3  and  C21_21 
REMARK    2  A    between atoms: C12_12  and  C16_16 
ROOT
HETATM    1  C1  UNL     1      -3.035   1.391  -0.676  1.00  0.00     0.153 C 
HETATM    2  C2  UNL     1      -3.598   0.250   0.174  1.00  0.00     0.043 C 
HETATM    3  C3  UNL     1      -2.904  -1.094  -0.150  1.00  0.00     0.081 C 
HETATM    4  C4  UNL     1      -1.430  -0.895  -0.642  1.00  0.00     0.010 C 
HETATM    5  C5  UNL     1      -0.729   0.361  -0.041  1.00  0.00     0.006 C 
HETATM    6  C6  UNL     1      -1.555   1.652  -0.338  1.00  0.00     0.033 C 
HETATM    7  C7  UNL     1       0.728   0.525  -0.601  1.00  0.00     0.015 C 
HETATM    8  C8  UNL     1       1.518  -0.774  -0.465  1.00  0.00    -0.049 C 
HETATM    9  C9  UNL     1       0.844  -2.027  -0.978  1.00  0.00     0.022 C 
HETATM   10  C10 UNL     1      -0.580  -2.170  -0.441  1.00  0.00     0.005 C 
HETATM   11  C11 UNL     1       2.762  -0.840   0.063  1.00  0.00    -0.031 C 
HETATM   12  C12 UNL     1       3.529   0.371   0.549  1.00  0.00     0.036 C 
HETATM   13  C13 UNL     1       2.967   1.660  -0.072  1.00  0.00     0.008 C 
HETATM   14  C14 UNL     1       1.443   1.723   0.082  1.00  0.00     0.004 C 
HETATM   15  C15 UNL     1       5.006   0.213   0.172  1.00  0.00     0.009 C 
HETATM   16  C18 UNL     1       0.699   0.795  -2.115  1.00  0.00     0.004 C 
HETATM   17  C19 UNL     1      -0.672   0.156   1.486  1.00  0.00     0.000 C 
HETATM   18  C20 UNL     1      -2.992  -1.986   1.098  1.00  0.00     0.011 C 
HETATM   19  O3  UNL     1      -3.785   2.568  -0.455  1.00  0.00    -0.223 OA
ENDROOT
BRANCH   3  20
HETATM   20  C21 UNL     1      -3.682  -1.807  -1.232  1.00  0.00     0.184 C 
HETATM   21  O1  UNL     1      -3.141  -2.172  -2.250  1.00  0.00    -0.647 OA
HETATM   22  O2  UNL     1      -4.975  -1.990  -0.973  1.00  0.00    -0.647 OA
ENDBRANCH   3  20
BRANCH  12  23
HETATM   23  C16 UNL     1       3.432   0.410   2.053  1.00  0.00    -0.023 C 
HETATM   24  C17 UNL     1       4.074   1.389   2.711  1.00  0.00    -0.005 C 
ENDBRANCH  12  23
TORSDOF 2
