REMARK  5 active torsions:
REMARK  status: ('A' for Active; 'I' for Inactive)
REMARK    1  A    between atoms: C16_17  and  C19_21 
REMARK    2  A    between atoms: C19_21  and  C21_24 
REMARK    3  A    between atoms: C21_24  and  C22_25 
REMARK    4  A    between atoms: C22_25  and  C23_26 
REMARK    5  A    between atoms: C23_26  and  C24_27 
ROOT
HETATM    1  C1  UNL     1      -6.529   0.504   0.549  1.00  0.00     0.182 C 
HETATM    2  C2  UNL     1      -5.844   1.873   0.725  1.00  0.00     0.183 C 
HETATM    3  C3  UNL     1      -5.227   2.408  -0.586  1.00  0.00     0.043 C 
HETATM    4  C4  UNL     1      -4.887   1.295  -1.607  1.00  0.00     0.065 C 
HETATM    5  C5  UNL     1      -4.436  -0.039  -0.955  1.00  0.00     0.013 C 
HETATM    6  C6  UNL     1      -5.524  -0.555   0.045  1.00  0.00     0.036 C 
HETATM    7  C7  UNL     1      -3.041   0.154  -0.266  1.00  0.00     0.021 C 
HETATM    8  C8  UNL     1      -2.043   0.932  -1.131  1.00  0.00    -0.015 C 
HETATM    9  C9  UNL     1      -2.436   1.648  -2.207  1.00  0.00     0.031 C 
HETATM   10  C10 UNL     1      -3.848   1.795  -2.582  1.00  0.00     0.172 C 
HETATM   11  O1  UNL     1      -4.160   2.299  -3.637  1.00  0.00    -0.291 OA
HETATM   12  C11 UNL     1      -0.584   0.881  -0.713  1.00  0.00     0.144 C 
HETATM   13  C12 UNL     1      -0.125  -0.561  -0.416  1.00  0.00     0.034 C 
HETATM   14  C13 UNL     1      -0.979  -1.133   0.723  1.00  0.00     0.003 C 
HETATM   15  C14 UNL     1      -2.449  -1.191   0.258  1.00  0.00     0.004 C 
HETATM   16  C15 UNL     1      -0.250  -1.441  -1.672  1.00  0.00     0.003 C 
HETATM   17  C16 UNL     1       1.375  -0.385  -0.125  1.00  0.00     0.064 C 
HETATM   18  C17 UNL     1       1.805   0.697  -1.144  1.00  0.00     0.157 C 
HETATM   19  C18 UNL     1       0.506   1.314  -1.707  1.00  0.00     0.067 C 
HETATM   20  O2  UNL     1       2.574   0.160  -2.203  1.00  0.00    -0.223 OA
HETATM   21  O5  UNL     1      -0.471   1.717   0.432  1.00  0.00    -0.222 OA
HETATM   22  C28 UNL     1      -4.295  -1.082  -2.082  1.00  0.00     0.001 C 
HETATM   23  O6  UNL     1      -6.736   2.826   1.270  1.00  0.00    -0.221 OA
HETATM   24  O7  UNL     1      -7.611   0.600  -0.361  1.00  0.00    -0.221 OA
ENDROOT
BRANCH  17  25
HETATM   25  C19 UNL     1       2.166  -1.697  -0.115  1.00  0.00     0.157 C 
HETATM   26  O3  UNL     1       2.107  -2.256  -1.408  1.00  0.00    -0.223 OA
HETATM   27  C20 UNL     1       1.520  -2.674   0.867  1.00  0.00     0.036 C 
BRANCH  25  28
HETATM   28  C21 UNL     1       3.629  -1.408   0.217  1.00  0.00     0.180 C 
HETATM   29  O4  UNL     1       4.363  -2.600   0.049  1.00  0.00    -0.221 OA
BRANCH  28  30
HETATM   30  C22 UNL     1       3.824  -0.924   1.654  1.00  0.00     0.035 C 
BRANCH  30  31
HETATM   31  C23 UNL     1       5.295  -0.690   2.004  1.00  0.00     0.003 C 
HETATM   32  C27 UNL     1       5.504  -0.361   3.483  1.00  0.00     0.000 C 
BRANCH  31  33
HETATM   33  C24 UNL     1       5.969   0.318   1.074  1.00  0.00     0.000 C 
HETATM   34  C25 UNL     1       5.324   1.703   1.139  1.00  0.00     0.000 C 
HETATM   35  C26 UNL     1       7.486   0.365   1.254  1.00  0.00     0.000 C 
ENDBRANCH  31  33
ENDBRANCH  30  31
ENDBRANCH  28  30
ENDBRANCH  25  28
ENDBRANCH  17  25
TORSDOF 5
