REMARK  9 active torsions:
REMARK  status: ('A' for Active; 'I' for Inactive)
REMARK    1  A    between atoms: C3_3  and  C7_8 
REMARK    2  A    between atoms: C7_8  and  C8_9 
REMARK    3  A    between atoms: C8_9  and  O2_10 
REMARK    4  A    between atoms: O2_10  and  C9_11 
REMARK    5  A    between atoms: C10_13  and  C23_32 
REMARK    6  A    between atoms: C11_14  and  O6_19 
REMARK    7  A    between atoms: O6_19  and  C14_20 
REMARK    8  A    between atoms: C14_20  and  C15_21 
REMARK    9  A    between atoms: C16_22  and  C17_23 
ROOT
HETATM    1  C9  UNL     1       2.105  -0.551  -1.107  1.00  0.00     0.270 C 
HETATM    2  O3  UNL     1       0.859  -0.674  -1.787  1.00  0.00    -0.326 OA
HETATM    3  C10 UNL     1      -0.240  -0.025  -1.158  1.00  0.00     0.181 C 
HETATM    4  C11 UNL     1       0.043   1.488  -1.061  1.00  0.00     0.187 C 
HETATM    5  C12 UNL     1       1.369   1.779  -0.334  1.00  0.00     0.217 C 
HETATM    6  C13 UNL     1       2.494   0.947  -0.992  1.00  0.00     0.241 C 
HETATM    7  O4  UNL     1       3.709   1.098  -0.275  1.00  0.00    -0.215 OA
HETATM    8  O5  UNL     1       1.228   1.443   1.039  1.00  0.00    -0.218 OA
ENDROOT
BRANCH   4   9
HETATM    9  O6  UNL     1      -1.035   2.137  -0.396  1.00  0.00    -0.296 OA
BRANCH   9  10
HETATM   10  C14 UNL     1      -0.961   3.463  -0.484  1.00  0.00     0.296 C 
HETATM   11  O9  UNL     1      -0.283   4.045  -1.297  1.00  0.00    -0.259 OA
BRANCH  10  12
HETATM   12  C15 UNL     1      -1.770   4.211   0.484  1.00  0.00     0.068 C 
HETATM   13  C16 UNL     1      -2.279   3.602   1.566  1.00  0.00     0.005 C 
BRANCH  13  14
HETATM   14  C17 UNL     1      -3.096   4.406   2.525  1.00  0.00     0.002 A 
HETATM   15  C18 UNL     1      -3.838   5.510   2.065  1.00  0.00     0.029 A 
HETATM   16  C19 UNL     1      -4.606   6.270   2.965  1.00  0.00     0.156 A 
HETATM   17  C20 UNL     1      -4.633   5.926   4.328  1.00  0.00     0.156 A 
HETATM   18  O8  UNL     1      -5.299   7.303   2.525  1.00  0.00    -0.188 OA
HETATM   19  C21 UNL     1      -3.891   4.824   4.787  1.00  0.00     0.029 A 
HETATM   20  O7  UNL     1      -5.352   6.633   5.178  1.00  0.00    -0.188 OA
HETATM   21  C22 UNL     1      -3.121   4.065   3.889  1.00  0.00     0.002 A 
ENDBRANCH  13  14
ENDBRANCH  10  12
ENDBRANCH   9  10
ENDBRANCH   4   9
BRANCH   3  22
HETATM   22  C23 UNL     1      -1.484  -0.334  -1.992  1.00  0.00     0.214 C 
HETATM   23  O10 UNL     1      -1.768  -1.709  -1.871  1.00  0.00    -0.218 OA
ENDBRANCH   3  22
BRANCH   1  24
HETATM   24  O2  UNL     1       3.084  -1.262  -1.840  1.00  0.00    -0.329 OA
BRANCH  24  25
HETATM   25  C8  UNL     1       3.264  -2.586  -1.391  1.00  0.00     0.150 C 
BRANCH  25  26
HETATM   26  C7  UNL     1       1.988  -3.371  -1.695  1.00  0.00     0.059 C 
BRANCH  26  27
HETATM   27  C3  UNL     1       2.172  -4.826  -1.461  1.00  0.00    -0.018 A 
HETATM   28  C2  UNL     1       2.568  -5.666  -2.518  1.00  0.00     0.025 A 
HETATM   29  C1  UNL     1       2.744  -7.045  -2.299  1.00  0.00     0.156 A 
HETATM   30  C6  UNL     1       2.523  -7.584  -1.018  1.00  0.00     0.156 A 
HETATM   31  O11 UNL     1       3.115  -7.824  -3.293  1.00  0.00    -0.188 OA
HETATM   32  C5  UNL     1       2.127  -6.744   0.037  1.00  0.00     0.029 A 
HETATM   33  O1  UNL     1       2.686  -8.875  -0.805  1.00  0.00    -0.188 OA
HETATM   34  C4  UNL     1       1.953  -5.367  -0.182  1.00  0.00    -0.002 A 
ENDBRANCH  26  27
ENDBRANCH  25  26
ENDBRANCH  24  25
ENDBRANCH   1  24
TORSDOF 9
