REMARK  14 active torsions:
REMARK  status: ('A' for Active; 'I' for Inactive)
REMARK    1  A    between atoms: C1_1  and  C2_2 
REMARK    2  A    between atoms: C3_3  and  C4_4 
REMARK    3  A    between atoms: C5_5  and  C6_6 
REMARK    4  A    between atoms: C6_6  and  C7_7 
REMARK    5  A    between atoms: C7_7  and  C8_8 
REMARK    6  A    between atoms: C8_8  and  C9_9 
REMARK    7  A    between atoms: C9_9  and  C10_10 
REMARK    8  A    between atoms: C10_10  and  C11_11 
REMARK    9  A    between atoms: C11_11  and  C12_12 
REMARK   10  A    between atoms: C12_12  and  C13_13 
REMARK   11  A    between atoms: C13_13  and  C14_14 
REMARK   12  A    between atoms: C14_14  and  C15_15 
REMARK   13  A    between atoms: C15_15  and  C16_16 
REMARK   14  A    between atoms: C16_16  and  C17_17 
ROOT
HETATM    1  C8  UNL     1       1.834   0.836   1.748  1.00  0.00     0.000 C 
ENDROOT
BRANCH   1   2
HETATM    2  C7  UNL     1       3.363   0.795   1.744  1.00  0.00     0.005 C 
BRANCH   2   3
HETATM    3  C6  UNL     1       3.979   1.615   2.879  1.00  0.00     0.026 C 
BRANCH   3   4
HETATM    4  C5  UNL     1       5.482   1.561   2.879  1.00  0.00    -0.026 C 
HETATM    5  C4  UNL     1       6.166   2.715   2.879  1.00  0.00    -0.004 C 
BRANCH   5   6
HETATM    6  C3  UNL     1       7.635   2.715   2.879  1.00  0.00     0.006 C 
HETATM    7  C2  UNL     1       8.318   3.871   2.879  1.00  0.00     0.070 C 
BRANCH   7   8
HETATM    8  C1  UNL     1       9.787   3.871   2.879  1.00  0.00     0.211 C 
HETATM    9  O1  UNL     1      10.399   2.828   2.879  1.00  0.00    -0.644 OA
HETATM   10  O2  UNL     1      10.363   5.068   2.879  1.00  0.00    -0.644 OA
ENDBRANCH   7   8
ENDBRANCH   5   6
ENDBRANCH   3   4
ENDBRANCH   2   3
ENDBRANCH   1   2
BRANCH   1  11
HETATM   11  C9  UNL     1       1.221   0.020   0.609  1.00  0.00     0.000 C 
BRANCH  11  12
HETATM   12  C10 UNL     1      -0.309   0.059   0.613  1.00  0.00     0.000 C 
BRANCH  12  13
HETATM   13  C11 UNL     1      -0.922  -0.758  -0.524  1.00  0.00     0.000 C 
BRANCH  13  14
HETATM   14  C12 UNL     1      -2.451  -0.717  -0.520  1.00  0.00     0.000 C 
BRANCH  14  15
HETATM   15  C13 UNL     1      -3.065  -1.535  -1.657  1.00  0.00     0.000 C 
BRANCH  15  16
HETATM   16  C14 UNL     1      -4.594  -1.494  -1.655  1.00  0.00     0.000 C 
BRANCH  16  17
HETATM   17  C15 UNL     1      -5.209  -2.311  -2.791  1.00  0.00     0.000 C 
BRANCH  17  18
HETATM   18  C16 UNL     1      -6.737  -2.270  -2.787  1.00  0.00     0.000 C 
BRANCH  18  19
HETATM   19  C17 UNL     1      -7.352  -3.088  -3.924  1.00  0.00     0.000 C 
HETATM   20  C18 UNL     1      -8.879  -3.047  -3.922  1.00  0.00     0.000 C 
ENDBRANCH  18  19
ENDBRANCH  17  18
ENDBRANCH  16  17
ENDBRANCH  15  16
ENDBRANCH  14  15
ENDBRANCH  13  14
ENDBRANCH  12  13
ENDBRANCH  11  12
ENDBRANCH   1  11
TORSDOF 14
