REMARK  6 active torsions:
REMARK  status: ('A' for Active; 'I' for Inactive)
REMARK    1  A    between atoms: C1_1  and  C2_2 
REMARK    2  A    between atoms: C1_1  and  C14_16 
REMARK    3  A    between atoms: C2_2  and  C3_3 
REMARK    4  A    between atoms: C3_3  and  C4_4 
REMARK    5  A    between atoms: C5_5  and  C6_6 
REMARK    6  A    between atoms: C7_7  and  C8_8 
ROOT
HETATM    1  C4  UNL     1      -0.285   0.416   0.963  1.00  0.00     0.065 C 
HETATM    2  C5  UNL     1       0.299  -0.623   1.580  1.00  0.00     0.134 C 
HETATM    3  O1  UNL     1       1.479  -0.474   2.178  1.00  0.00    -0.190 OA
ENDROOT
BRANCH   1   4
HETATM    4  C3  UNL     1       0.363   1.733   0.936  1.00  0.00     0.175 C 
HETATM    5  O2  UNL     1       0.559   2.340   1.963  1.00  0.00    -0.291 OA
BRANCH   4   6
HETATM    6  C2  UNL     1       0.779   2.305  -0.393  1.00  0.00     0.074 C 
BRANCH   6   7
HETATM    7  C1  UNL     1       0.111   3.651  -0.682  1.00  0.00     0.035 C 
BRANCH   7   8
HETATM    8  C14 UNL     1       0.402   4.119  -2.063  1.00  0.00    -0.022 A 
HETATM    9  C15 UNL     1      -0.430   3.733  -3.127  1.00  0.00    -0.004 A 
HETATM   10  C16 UNL     1      -0.152   4.178  -4.432  1.00  0.00    -0.000 A 
HETATM   11  C17 UNL     1       0.955   5.008  -4.672  1.00  0.00    -0.000 A 
HETATM   12  C18 UNL     1       1.787   5.395  -3.608  1.00  0.00    -0.000 A 
HETATM   13  C19 UNL     1       1.512   4.951  -2.303  1.00  0.00    -0.004 A 
ENDBRANCH   7   8
ENDBRANCH   6   7
ENDBRANCH   4   6
ENDBRANCH   1   4
BRANCH   2  14
HETATM   14  C6  UNL     1      -0.350  -1.939   1.605  1.00  0.00     0.028 C 
HETATM   15  C7  UNL     1       0.236  -2.978   2.223  1.00  0.00     0.002 C 
BRANCH  15  16
HETATM   16  C8  UNL     1      -0.465  -4.299   2.223  1.00  0.00     0.000 A 
HETATM   17  C9  UNL     1      -1.869  -4.351   2.223  1.00  0.00     0.000 A 
HETATM   18  C10 UNL     1      -2.527  -5.594   2.223  1.00  0.00     0.000 A 
HETATM   19  C11 UNL     1      -1.781  -6.785   2.223  1.00  0.00     0.000 A 
HETATM   20  C12 UNL     1      -0.377  -6.734   2.223  1.00  0.00     0.000 A 
HETATM   21  C13 UNL     1       0.281  -5.492   2.223  1.00  0.00     0.000 A 
ENDBRANCH  15  16
ENDBRANCH   2  14
TORSDOF 6
