REMARK  17 active torsions:
REMARK  status: ('A' for Active; 'I' for Inactive)
REMARK    1  A    between atoms: C2_2  and  C4_4 
REMARK    2  A    between atoms: C4_4  and  C5_5 
REMARK    3  A    between atoms: C5_5  and  C6_6 
REMARK    4  A    between atoms: C5_5  and  C21_30 
REMARK    5  A    between atoms: C6_6  and  C7_7 
REMARK    6  A    between atoms: C7_7  and  O2_9 
REMARK    7  A    between atoms: O2_9  and  C8_10 
REMARK    8  A    between atoms: C8_10  and  C9_11 
REMARK    9  A    between atoms: C12_14  and  O3_17 
REMARK   10  A    between atoms: O3_17  and  C15_18 
REMARK   11  A    between atoms: C19_22  and  C20_24 
REMARK   12  A    between atoms: C21_30  and  O11_32 
REMARK   13  A    between atoms: O11_32  and  C22_33 
REMARK   14  A    between atoms: C22_33  and  C23_34 
REMARK   15  A    between atoms: C26_37  and  O12_40 
REMARK   16  A    between atoms: O12_40  and  C29_41 
REMARK   17  A    between atoms: C33_45  and  C34_47 
ROOT
HETATM    1  C5  UNL     1      -2.057  -2.465   1.119  1.00  0.00     0.240 C 
HETATM    2  O18 UNL     1      -2.939  -1.519   1.682  1.00  0.00    -0.213 OA
ENDROOT
BRANCH   1   3
HETATM    3  C4  UNL     1      -2.693  -3.850   1.246  1.00  0.00     0.043 C 
BRANCH   3   4
HETATM    4  C2  UNL     1      -4.002  -3.971   0.467  1.00  0.00     0.003 C 
HETATM    5  C1  UNL     1      -3.965  -5.088  -0.576  1.00  0.00     0.000 C 
HETATM    6  C3  UNL     1      -5.227  -4.055   1.379  1.00  0.00     0.000 C 
ENDBRANCH   3   4
ENDBRANCH   1   3
BRANCH   1   7
HETATM    7  C6  UNL     1      -0.717  -2.361   1.852  1.00  0.00     0.274 C 
HETATM    8  O9  UNL     1      -0.953  -2.543   3.231  1.00  0.00    -0.209 OA
BRANCH   7   9
HETATM    9  C7  UNL     1      -0.043  -1.033   1.629  1.00  0.00     0.306 C 
HETATM   10  O1  UNL     1      -0.660  -0.086   1.201  1.00  0.00    -0.261 OA
BRANCH   9  11
HETATM   11  O2  UNL     1       1.250  -0.998   1.936  1.00  0.00    -0.295 OA
BRANCH  11  12
HETATM   12  C8  UNL     1       1.826   0.277   1.703  1.00  0.00     0.178 C 
BRANCH  12  13
HETATM   13  C9  UNL     1       3.268   0.244   2.066  1.00  0.00     0.008 A 
HETATM   14  C10 UNL     1       4.057   1.400   1.922  1.00  0.00     0.000 A 
HETATM   15  C11 UNL     1       5.420   1.367   2.264  1.00  0.00     0.024 A 
HETATM   16  C12 UNL     1       5.998   0.182   2.752  1.00  0.00     0.097 A 
HETATM   17  C13 UNL     1       5.207  -0.973   2.895  1.00  0.00     0.024 A 
HETATM   18  C14 UNL     1       3.844  -0.941   2.553  1.00  0.00     0.000 A 
BRANCH  16  19
HETATM   19  O3  UNL     1       7.276   0.152   3.074  1.00  0.00    -0.304 OA
BRANCH  19  20
HETATM   20  C15 UNL     1       7.881  -1.115   3.291  1.00  0.00     0.274 C 
HETATM   21  C16 UNL     1       9.367  -0.936   3.660  1.00  0.00     0.241 C 
HETATM   22  C17 UNL     1      10.084  -2.301   3.770  1.00  0.00     0.220 C 
HETATM   23  O8  UNL     1       9.449  -0.246   4.893  1.00  0.00    -0.215 OA
HETATM   24  C18 UNL     1       9.805  -3.139   2.502  1.00  0.00     0.215 C 
HETATM   25  O7  UNL     1      11.481  -2.098   3.918  1.00  0.00    -0.218 OA
HETATM   26  C19 UNL     1       8.293  -3.205   2.193  1.00  0.00     0.184 C 
HETATM   27  O6  UNL     1      10.291  -4.457   2.682  1.00  0.00    -0.218 OA
HETATM   28  O4  UNL     1       7.770  -1.887   2.104  1.00  0.00    -0.326 OA
BRANCH  26  29
HETATM   29  C20 UNL     1       7.985  -3.895   0.859  1.00  0.00     0.214 C 
HETATM   30  O5  UNL     1       6.596  -4.121   0.791  1.00  0.00    -0.218 OA
ENDBRANCH  26  29
ENDBRANCH  19  20
ENDBRANCH  16  19
ENDBRANCH  12  13
ENDBRANCH  11  12
ENDBRANCH   9  11
ENDBRANCH   7   9
ENDBRANCH   1   7
BRANCH   1  31
HETATM   31  C21 UNL     1      -1.924  -2.211  -0.357  1.00  0.00     0.303 C 
HETATM   32  O10 UNL     1      -1.564  -3.088  -1.109  1.00  0.00    -0.261 OA
BRANCH  31  33
HETATM   33  O11 UNL     1      -2.227  -0.978  -0.750  1.00  0.00    -0.295 OA
BRANCH  33  34
HETATM   34  C22 UNL     1      -2.094  -0.809  -2.154  1.00  0.00     0.178 C 
BRANCH  34  35
HETATM   35  C23 UNL     1      -2.490   0.574  -2.525  1.00  0.00     0.008 A 
HETATM   36  C24 UNL     1      -1.879   1.213  -3.619  1.00  0.00     0.000 A 
HETATM   37  C25 UNL     1      -2.254   2.520  -3.971  1.00  0.00     0.024 A 
HETATM   38  C26 UNL     1      -3.242   3.195  -3.230  1.00  0.00     0.097 A 
HETATM   39  C27 UNL     1      -3.852   2.555  -2.137  1.00  0.00     0.024 A 
HETATM   40  C28 UNL     1      -3.479   1.246  -1.785  1.00  0.00     0.000 A 
BRANCH  38  41
HETATM   41  O12 UNL     1      -3.594   4.422  -3.561  1.00  0.00    -0.304 OA
BRANCH  41  42
HETATM   42  C29 UNL     1      -4.856   4.897  -3.113  1.00  0.00     0.274 C 
HETATM   43  C30 UNL     1      -5.111   6.319  -3.658  1.00  0.00     0.241 C 
HETATM   44  C31 UNL     1      -6.529   6.809  -3.297  1.00  0.00     0.220 C 
HETATM   45  O17 UNL     1      -4.141   7.194  -3.109  1.00  0.00    -0.215 OA
HETATM   46  C32 UNL     1      -7.568   5.740  -3.705  1.00  0.00     0.215 C 
HETATM   47  O16 UNL     1      -6.803   8.028  -3.969  1.00  0.00    -0.218 OA
HETATM   48  C33 UNL     1      -7.188   4.344  -3.158  1.00  0.00     0.184 C 
HETATM   49  O15 UNL     1      -8.844   6.092  -3.199  1.00  0.00    -0.218 OA
HETATM   50  O13 UNL     1      -5.869   4.016  -3.578  1.00  0.00    -0.326 OA
BRANCH  48  51
HETATM   51  C34 UNL     1      -8.104   3.231  -3.674  1.00  0.00     0.214 C 
HETATM   52  O14 UNL     1      -7.832   2.059  -2.938  1.00  0.00    -0.218 OA
ENDBRANCH  48  51
ENDBRANCH  41  42
ENDBRANCH  38  41
ENDBRANCH  34  35
ENDBRANCH  33  34
ENDBRANCH  31  33
ENDBRANCH   1  31
TORSDOF 17
