REMARK  3 active torsions:
REMARK  status: ('A' for Active; 'I' for Inactive)
REMARK    1  A    between atoms: C4_4  and  C7_7 
REMARK    2  A    between atoms: C7_7  and  C8_9 
REMARK    3  A    between atoms: C9_10  and  C10_11 
ROOT
HETATM    1  C7  UNL     1       0.656  -2.318   0.131  1.00  0.00     0.196 C 
HETATM    2  O1  UNL     1       1.264  -3.305   0.474  1.00  0.00    -0.287 OA
ENDROOT
BRANCH   1   3
HETATM    3  C4  UNL     1      -0.762  -2.408  -0.328  1.00  0.00     0.039 A 
HETATM    4  C3  UNL     1      -1.533  -3.541  -0.010  1.00  0.00     0.005 A 
HETATM    5  C2  UNL     1      -2.867  -3.625  -0.442  1.00  0.00     0.028 A 
HETATM    6  C1  UNL     1      -3.436  -2.580  -1.194  1.00  0.00     0.131 A 
HETATM    7  C6  UNL     1      -2.662  -1.449  -1.510  1.00  0.00     0.028 A 
HETATM    8  O3  UNL     1      -4.688  -2.660  -1.598  1.00  0.00    -0.190 OA
HETATM    9  C5  UNL     1      -1.326  -1.363  -1.080  1.00  0.00     0.005 A 
ENDBRANCH   1   3
BRANCH   1  10
HETATM   10  C8  UNL     1       1.305  -1.002   0.154  1.00  0.00     0.042 C 
HETATM   11  C9  UNL     1       0.703   0.047   0.740  1.00  0.00     0.003 C 
BRANCH  11  12
HETATM   12  C10 UNL     1       1.404   1.367   0.740  1.00  0.00     0.002 A 
HETATM   13  C11 UNL     1       2.809   1.420   0.740  1.00  0.00     0.000 A 
HETATM   14  C12 UNL     1       3.465   2.662   0.740  1.00  0.00     0.002 A 
HETATM   15  C13 UNL     1       2.719   3.852   0.740  1.00  0.00     0.027 A 
HETATM   16  C14 UNL     1       1.314   3.805   0.740  1.00  0.00     0.131 A 
HETATM   17  C15 UNL     1       0.658   2.561   0.740  1.00  0.00     0.027 A 
HETATM   18  O2  UNL     1       0.615   4.922   0.740  1.00  0.00    -0.190 OA
ENDBRANCH  11  12
ENDBRANCH   1  10
TORSDOF 3
