REMARK  8 active torsions:
REMARK  status: ('A' for Active; 'I' for Inactive)
REMARK    1  A    between atoms: C3_3  and  C7_8 
REMARK    2  A    between atoms: C11_13  and  O3_14 
REMARK    3  A    between atoms: O3_14  and  C12_15 
REMARK    4  A    between atoms: C13_17  and  C23_34 
REMARK    5  A    between atoms: C16_20  and  O5_21 
REMARK    6  A    between atoms: O5_21  and  C17_22 
REMARK    7  A    between atoms: C23_34  and  O12_35 
REMARK    8  A    between atoms: O12_35  and  C24_36 
ROOT
HETATM    1  C12 UNL     1      -0.432  -0.367  -0.402  1.00  0.00     0.271 C 
HETATM    2  O4  UNL     1      -0.262  -0.412  -1.818  1.00  0.00    -0.326 OA
HETATM    3  C13 UNL     1       1.064  -0.686  -2.270  1.00  0.00     0.180 C 
HETATM    4  C14 UNL     1       1.555  -2.059  -1.740  1.00  0.00     0.214 C 
HETATM    5  C15 UNL     1       1.391  -2.131  -0.203  1.00  0.00     0.217 C 
HETATM    6  C16 UNL     1      -0.025  -1.707   0.252  1.00  0.00     0.207 C 
HETATM    7  O10 UNL     1       1.756  -3.402   0.311  1.00  0.00    -0.218 OA
HETATM    8  O11 UNL     1       0.844  -3.108  -2.383  1.00  0.00    -0.218 OA
ENDROOT
BRANCH   1   9
HETATM    9  O3  UNL     1       0.348   0.686   0.148  1.00  0.00    -0.298 OA
BRANCH   9  10
HETATM   10  C11 UNL     1      -0.268   1.295   1.164  1.00  0.00     0.158 A 
HETATM   11  C7  UNL     1       0.225   1.228   2.426  1.00  0.00     0.125 A 
HETATM   12  O2  UNL     1      -0.389   1.842   3.459  1.00  0.00    -0.305 OA
HETATM   13  C8  UNL     1      -1.525   2.561   3.338  1.00  0.00     0.107 A 
HETATM   14  C9  UNL     1      -2.145   2.707   2.070  1.00  0.00     0.089 A 
HETATM   15  C34 UNL     1      -2.102   3.170   4.477  1.00  0.00     0.052 A 
HETATM   16  C10 UNL     1      -1.512   2.055   0.891  1.00  0.00     0.224 A 
HETATM   17  C31 UNL     1      -3.340   3.461   1.941  1.00  0.00     0.138 A 
HETATM   18  O16 UNL     1      -1.902   2.080  -0.254  1.00  0.00    -0.284 OA
HETATM   19  C32 UNL     1      -3.912   4.066   3.084  1.00  0.00     0.055 A 
HETATM   20  O18 UNL     1      -3.938   3.607   0.750  1.00  0.00    -0.190 OA
HETATM   21  C33 UNL     1      -3.295   3.922   4.350  1.00  0.00     0.135 A 
HETATM   22  O17 UNL     1      -3.838   4.498   5.432  1.00  0.00    -0.190 OA
BRANCH  11  23
HETATM   23  C3  UNL     1       1.481   0.457   2.684  1.00  0.00     0.027 A 
HETATM   24  C2  UNL     1       2.559   0.545   1.785  1.00  0.00     0.032 A 
HETATM   25  C1  UNL     1       3.740  -0.178   2.025  1.00  0.00     0.156 A 
HETATM   26  C6  UNL     1       3.844  -0.994   3.168  1.00  0.00     0.156 A 
HETATM   27  O19 UNL     1       4.748  -0.090   1.178  1.00  0.00    -0.188 OA
HETATM   28  C5  UNL     1       2.766  -1.080   4.065  1.00  0.00     0.030 A 
HETATM   29  O1  UNL     1       4.949  -1.674   3.399  1.00  0.00    -0.188 OA
HETATM   30  C4  UNL     1       1.586  -0.357   3.824  1.00  0.00     0.004 A 
ENDBRANCH  11  23
ENDBRANCH   9  10
ENDBRANCH   1   9
BRANCH   6  31
HETATM   31  O5  UNL     1      -0.994  -2.691  -0.070  1.00  0.00    -0.324 OA
BRANCH  31  32
HETATM   32  C17 UNL     1      -2.166  -2.600   0.715  1.00  0.00     0.270 C 
HETATM   33  C18 UNL     1      -3.416  -3.289   0.074  1.00  0.00     0.241 C 
HETATM   34  O6  UNL     1      -3.383  -3.166  -1.344  1.00  0.00    -0.215 OA
HETATM   35  C19 UNL     1      -3.619  -4.758   0.559  1.00  0.00     0.220 C 
HETATM   36  O7  UNL     1      -4.299  -5.567  -0.393  1.00  0.00    -0.218 OA
HETATM   37  C20 UNL     1      -2.266  -5.373   0.971  1.00  0.00     0.212 C 
HETATM   38  O8  UNL     1      -2.422  -6.709   1.422  1.00  0.00    -0.218 OA
HETATM   39  C21 UNL     1      -1.543  -4.516   2.059  1.00  0.00     0.151 C 
HETATM   40  O9  UNL     1      -1.945  -3.145   2.010  1.00  0.00    -0.329 OA
HETATM   41  C22 UNL     1      -1.789  -4.955   3.508  1.00  0.00     0.035 C 
ENDBRANCH  31  32
ENDBRANCH   6  31
BRANCH   3  42
HETATM   42  C23 UNL     1       1.061  -0.586  -3.797  1.00  0.00     0.175 C 
BRANCH  42  43
HETATM   43  O12 UNL     1       0.371   0.588  -4.160  1.00  0.00    -0.351 OA
BRANCH  43  44
HETATM   44  C24 UNL     1       0.939   1.764  -3.611  1.00  0.00     0.148 C 
HETATM   45  C25 UNL     1       2.395   1.873  -4.109  1.00  0.00     0.035 C 
HETATM   46  C26 UNL     1       3.080   3.162  -3.621  1.00  0.00     0.036 C 
HETATM   47  C27 UNL     1       2.260   4.416  -4.002  1.00  0.00     0.185 C 
HETATM   48  C30 UNL     1       3.330   3.111  -2.109  1.00  0.00     0.003 C 
HETATM   49  C28 UNL     1       0.789   4.305  -3.522  1.00  0.00     0.215 C 
HETATM   50  O15 UNL     1       2.316   4.580  -5.410  1.00  0.00    -0.221 OA
HETATM   51  C29 UNL     1       0.104   3.004  -4.010  1.00  0.00     0.212 C 
HETATM   52  O14 UNL     1       0.053   5.447  -3.936  1.00  0.00    -0.218 OA
HETATM   53  O13 UNL     1      -1.189   2.904  -3.432  1.00  0.00    -0.218 OA
ENDBRANCH  43  44
ENDBRANCH  42  43
ENDBRANCH   3  42
TORSDOF 8
