REMARK  11 active torsions:
REMARK  status: ('A' for Active; 'I' for Inactive)
REMARK    1  A    between atoms: C2_2  and  O5_35 
REMARK    2  A    between atoms: C3_3  and  C30_33 
REMARK    3  A    between atoms: C16_16  and  C25_27 
REMARK    4  A    between atoms: C21_22  and  C24_25 
REMARK    5  A    between atoms: O5_35  and  C31_36 
REMARK    6  A    between atoms: C34_39  and  O13_55 
REMARK    7  A    between atoms: C35_40  and  C36_42 
REMARK    8  A    between atoms: C36_42  and  O7_43 
REMARK    9  A    between atoms: O7_43  and  C37_44 
REMARK   10  A    between atoms: C41_48  and  C42_50 
REMARK   11  A    between atoms: O13_55  and  C43_56 
ROOT
HETATM    1  C1  UNL     1       0.361   0.953   1.832  1.00  0.00     0.030 C 
HETATM    2  C2  UNL     1       1.207   1.459   0.658  1.00  0.00     0.120 C 
HETATM    3  C3  UNL     1       0.535   2.652  -0.086  1.00  0.00     0.056 C 
HETATM    4  C4  UNL     1      -1.024   2.578   0.035  1.00  0.00     0.005 C 
HETATM    5  C5  UNL     1      -1.596   1.135   0.127  1.00  0.00     0.004 C 
HETATM    6  C6  UNL     1      -0.957   0.350   1.320  1.00  0.00     0.003 C 
HETATM    7  C7  UNL     1      -3.158   1.191   0.268  1.00  0.00     0.022 C 
HETATM    8  C8  UNL     1      -3.891   1.992  -0.861  1.00  0.00     0.007 C 
HETATM    9  C9  UNL     1      -3.262   3.414  -0.895  1.00  0.00     0.001 C 
HETATM   10  C10 UNL     1      -1.736   3.408  -1.051  1.00  0.00     0.000 C 
HETATM   11  C11 UNL     1      -5.475   2.041  -0.633  1.00  0.00     0.021 C 
HETATM   12  C12 UNL     1      -5.885   1.631   0.785  1.00  0.00    -0.031 C 
HETATM   13  C13 UNL     1      -4.908   1.953   1.840  1.00  0.00    -0.009 C 
HETATM   14  C14 UNL     1      -3.600   1.766   1.607  1.00  0.00    -0.027 C 
HETATM   15  C15 UNL     1      -7.061   1.010   1.078  1.00  0.00    -0.044 C 
HETATM   16  C16 UNL     1      -8.006   0.467   0.010  1.00  0.00     0.074 C 
HETATM   17  C17 UNL     1      -7.760   1.080  -1.391  1.00  0.00     0.158 C 
HETATM   18  C18 UNL     1      -6.252   1.193  -1.676  1.00  0.00     0.037 C 
HETATM   19  O1  UNL     1      -8.387   2.340  -1.543  1.00  0.00    -0.223 OA
HETATM   20  C19 UNL     1      -9.463   0.670   0.488  1.00  0.00     0.009 C 
HETATM   21  C20 UNL     1      -9.805  -0.027   1.816  1.00  0.00     0.003 C 
HETATM   22  C21 UNL     1      -8.610  -0.217   2.783  1.00  0.00     0.034 C 
HETATM   23  C22 UNL     1      -7.496   0.826   2.529  1.00  0.00     0.024 C 
HETATM   24  C23 UNL     1      -9.102  -0.086   4.230  1.00  0.00     0.003 C 
HETATM   25  C26 UNL     1      -5.975   3.494  -0.746  1.00  0.00     0.004 C 
HETATM   26  C27 UNL     1      -3.582   1.356  -2.231  1.00  0.00     0.001 C 
HETATM   27  C28 UNL     1      -1.211   0.373  -1.154  1.00  0.00     0.000 C 
HETATM   28  C29 UNL     1       0.975   4.012   0.488  1.00  0.00     0.005 C 
ENDROOT
BRANCH   2  29
HETATM   29  O5  UNL     1       2.506   1.791   1.115  1.00  0.00    -0.332 OA
BRANCH  29  30
HETATM   30  C31 UNL     1       3.348   0.664   1.266  1.00  0.00     0.270 C 
HETATM   31  C32 UNL     1       4.502   0.988   2.250  1.00  0.00     0.241 C 
HETATM   32  C33 UNL     1       5.541  -0.156   2.318  1.00  0.00     0.217 C 
HETATM   33  O19 UNL     1       3.994   1.277   3.545  1.00  0.00    -0.215 OA
HETATM   34  C34 UNL     1       5.965  -0.572   0.893  1.00  0.00     0.180 C 
HETATM   35  O18 UNL     1       5.000  -1.293   2.973  1.00  0.00    -0.218 OA
HETATM   36  C35 UNL     1       4.758  -0.785  -0.057  1.00  0.00     0.177 C 
HETATM   37  O6  UNL     1       3.879   0.338  -0.016  1.00  0.00    -0.326 OA
BRANCH  34  38
HETATM   38  O13 UNL     1       6.805   0.440   0.359  1.00  0.00    -0.326 OA
BRANCH  38  39
HETATM   39  C43 UNL     1       8.148   0.330   0.781  1.00  0.00     0.270 C 
HETATM   40  C44 UNL     1       8.897   1.674   0.525  1.00  0.00     0.241 C 
HETATM   41  C45 UNL     1      10.404   1.475   0.279  1.00  0.00     0.220 C 
HETATM   42  O17 UNL     1       8.676   2.570   1.603  1.00  0.00    -0.215 OA
HETATM   43  C46 UNL     1      10.619   0.467  -0.883  1.00  0.00     0.212 C 
HETATM   44  O16 UNL     1      11.024   0.955   1.447  1.00  0.00    -0.218 OA
HETATM   45  C47 UNL     1       9.434  -0.523  -1.094  1.00  0.00     0.151 C 
HETATM   46  O15 UNL     1      10.852   1.193  -2.074  1.00  0.00    -0.218 OA
HETATM   47  O14 UNL     1       8.795  -0.783   0.154  1.00  0.00    -0.329 OA
HETATM   48  C48 UNL     1       8.369  -0.090  -2.121  1.00  0.00     0.035 C 
ENDBRANCH  38  39
ENDBRANCH  34  38
BRANCH  36  49
HETATM   49  C36 UNL     1       3.961  -2.059   0.252  1.00  0.00     0.177 C 
BRANCH  49  50
HETATM   50  O7  UNL     1       3.172  -2.369  -0.873  1.00  0.00    -0.326 OA
BRANCH  50  51
HETATM   51  C37 UNL     1       2.441  -3.572  -0.727  1.00  0.00     0.270 C 
HETATM   52  C38 UNL     1       1.387  -3.762  -1.850  1.00  0.00     0.241 C 
HETATM   53  C39 UNL     1       2.010  -4.109  -3.227  1.00  0.00     0.220 C 
HETATM   54  O12 UNL     1       0.516  -2.648  -1.938  1.00  0.00    -0.215 OA
HETATM   55  C40 UNL     1       3.029  -5.256  -3.065  1.00  0.00     0.215 C 
HETATM   56  O11 UNL     1       2.684  -2.990  -3.779  1.00  0.00    -0.218 OA
HETATM   57  C41 UNL     1       4.014  -4.998  -1.893  1.00  0.00     0.184 C 
HETATM   58  O10 UNL     1       2.318  -6.465  -2.846  1.00  0.00    -0.218 OA
HETATM   59  O8  UNL     1       3.309  -4.705  -0.686  1.00  0.00    -0.326 OA
BRANCH  57  60
HETATM   60  C42 UNL     1       4.943  -6.182  -1.608  1.00  0.00     0.214 C 
HETATM   61  O9  UNL     1       5.990  -5.731  -0.775  1.00  0.00    -0.218 OA
ENDBRANCH  57  60
ENDBRANCH  50  51
ENDBRANCH  49  50
ENDBRANCH  36  49
ENDBRANCH  29  30
ENDBRANCH   2  29
BRANCH   3  62
HETATM   62  C30 UNL     1       0.990   2.611  -1.553  1.00  0.00     0.184 C 
HETATM   63  O4  UNL     1       1.137   1.260  -1.932  1.00  0.00    -0.221 OA
ENDBRANCH   3  62
BRANCH  16  64
HETATM   64  C25 UNL     1      -7.725  -1.035  -0.135  1.00  0.00     0.188 C 
HETATM   65  O3  UNL     1      -8.959  -1.705  -0.256  1.00  0.00    -0.220 OA
ENDBRANCH  16  64
BRANCH  22  66
HETATM   66  C24 UNL     1      -8.029  -1.631   2.646  1.00  0.00     0.182 C 
HETATM   67  O2  UNL     1      -8.291  -2.332   3.842  1.00  0.00    -0.221 OA
ENDBRANCH  22  66
TORSDOF 11
