REMARK  4 active torsions:
REMARK  status: ('A' for Active; 'I' for Inactive)
REMARK    1  A    between atoms: C6_6  and  O1_7 
REMARK    2  A    between atoms: O1_7  and  C7_8 
REMARK    3  A    between atoms: C7_8  and  C8_9 
REMARK    4  A    between atoms: C8_9  and  C9_10 
ROOT
HETATM    1  C1  UNL     1      -1.582  -0.443   0.145  1.00  0.00     0.035 C 
HETATM    2  C2  UNL     1      -1.371  -1.816  -0.500  1.00  0.00     0.003 C 
HETATM    3  C3  UNL     1       0.125  -2.147  -0.627  1.00  0.00     0.004 C 
HETATM    4  C4  UNL     1       0.900  -1.051  -1.410  1.00  0.00     0.018 C 
HETATM    5  C5  UNL     1       0.578   0.355  -0.910  1.00  0.00    -0.015 C 
HETATM    6  C6  UNL     1      -0.889   0.668  -0.654  1.00  0.00     0.143 C 
HETATM    7  C12 UNL     1       1.535   1.289  -0.715  1.00  0.00     0.031 C 
HETATM    8  C13 UNL     1       2.973   1.037  -0.912  1.00  0.00     0.172 C 
HETATM    9  C14 UNL     1       3.441  -0.373  -1.207  1.00  0.00     0.062 A 
HETATM   10  C15 UNL     1       2.394  -1.443  -1.404  1.00  0.00     0.011 A 
HETATM   11  C16 UNL     1       3.262  -1.449  -0.152  1.00  0.00     0.008 A 
HETATM   12  C17 UNL     1       4.338  -2.525  -0.061  1.00  0.00     0.001 C 
HETATM   13  C18 UNL     1       2.666  -1.051   1.195  1.00  0.00     0.001 C 
HETATM   14  O3  UNL     1       3.760   1.951  -0.830  1.00  0.00    -0.291 OA
HETATM   15  C19 UNL     1       0.525  -1.080  -2.898  1.00  0.00     0.004 C 
HETATM   16  C20 UNL     1       0.312  -3.545  -1.234  1.00  0.00     0.000 C 
ENDROOT
BRANCH   6  17
HETATM   17  O1  UNL     1      -1.063   1.895   0.043  1.00  0.00    -0.300 OA
BRANCH  17  18
HETATM   18  C7  UNL     1      -2.301   2.367  -0.061  1.00  0.00     0.272 C 
HETATM   19  O2  UNL     1      -3.156   1.867  -0.754  1.00  0.00    -0.264 OA
BRANCH  18  20
HETATM   20  C8  UNL     1      -2.588   3.598   0.758  1.00  0.00     0.096 C 
BRANCH  20  21
HETATM   21  C9  UNL     1      -3.100   3.260   2.156  1.00  0.00     0.010 C 
HETATM   22  C10 UNL     1      -4.444   2.527   2.133  1.00  0.00     0.001 C 
HETATM   23  C11 UNL     1      -2.053   2.545   3.012  1.00  0.00     0.001 C 
ENDBRANCH  20  21
ENDBRANCH  18  20
ENDBRANCH  17  18
ENDBRANCH   6  17
TORSDOF 4
