REMARK  14 active torsions:
REMARK  status: ('A' for Active; 'I' for Inactive)
REMARK    1  A    between atoms: C2_2  and  O9_42 
REMARK    2  A    between atoms: C15_16  and  C24_31 
REMARK    3  A    between atoms: C16_17  and  O2_19 
REMARK    4  A    between atoms: O2_19  and  C18_20 
REMARK    5  A    between atoms: C22_24  and  C23_26 
REMARK    6  A    between atoms: C24_31  and  C25_32 
REMARK    7  A    between atoms: C25_32  and  C26_33 
REMARK    8  A    between atoms: C26_33  and  C27_34 
REMARK    9  A    between atoms: C27_34  and  C28_35 
REMARK   10  A    between atoms: O9_42  and  O10_43 
REMARK   11  A    between atoms: O10_43  and  C34_44 
REMARK   12  A    between atoms: C38_49  and  O12_50 
REMARK   13  A    between atoms: O12_50  and  C39_51 
REMARK   14  A    between atoms: C43_56  and  C44_57 
ROOT
HETATM    1  C1  UNL     1       4.201  -2.916   0.650  1.00  0.00     0.034 C 
HETATM    2  C2  UNL     1       4.307  -1.385   0.621  1.00  0.00     0.156 C 
HETATM    3  C3  UNL     1       3.455  -0.760   1.738  1.00  0.00     0.055 C 
HETATM    4  C4  UNL     1       2.053  -1.336   1.805  1.00  0.00    -0.046 C 
HETATM    5  C5  UNL     1       1.633  -2.356   0.750  1.00  0.00     0.015 C 
HETATM    6  C6  UNL     1       2.746  -3.424   0.549  1.00  0.00     0.006 C 
HETATM    7  C7  UNL     1       0.291  -3.070   1.123  1.00  0.00     0.011 C 
HETATM    8  C8  UNL     1      -0.760  -2.125   1.730  1.00  0.00     0.005 C 
HETATM    9  C9  UNL     1      -0.172  -1.443   2.979  1.00  0.00     0.025 C 
HETATM   10  C10 UNL     1       1.231  -0.920   2.793  1.00  0.00    -0.035 C 
HETATM   11  C11 UNL     1      -1.293  -1.123   0.684  1.00  0.00     0.009 C 
HETATM   12  C12 UNL     1      -1.748  -1.785  -0.643  1.00  0.00     0.054 C 
HETATM   13  C13 UNL     1      -0.990  -3.031  -1.074  1.00  0.00     0.150 C 
HETATM   14  C14 UNL     1      -0.338  -3.885  -0.016  1.00  0.00     0.065 C 
HETATM   15  O1  UNL     1      -0.902  -3.338  -2.242  1.00  0.00    -0.296 OA
HETATM   16  C15 UNL     1      -3.225  -2.092  -0.354  1.00  0.00     0.034 C 
HETATM   17  C16 UNL     1      -3.744  -0.852   0.381  1.00  0.00     0.118 C 
HETATM   18  C17 UNL     1      -2.545  -0.400   1.221  1.00  0.00     0.030 C 
HETATM   19  C32 UNL     1      -1.619  -0.719  -1.738  1.00  0.00     0.007 C 
HETATM   20  C33 UNL     1       1.488  -1.563  -0.559  1.00  0.00     0.004 C 
ENDROOT
BRANCH   2  21
HETATM   21  O9  UNL     1       5.658  -1.004   0.797  1.00  0.00    -0.223 OA
BRANCH  21  22
HETATM   22  O10 UNL     1       5.754   0.418   0.576  1.00  0.00    -0.215 OA
BRANCH  22  23
HETATM   23  C34 UNL     1       7.104   0.803   0.779  1.00  0.00     0.241 C 
HETATM   24  C35 UNL     1       8.014   0.527  -0.457  1.00  0.00     0.220 C 
HETATM   25  C36 UNL     1       8.219   1.824  -1.268  1.00  0.00     0.212 C 
HETATM   26  O18 UNL     1       7.533  -0.533  -1.273  1.00  0.00    -0.218 OA
HETATM   27  C37 UNL     1       8.801   2.975  -0.385  1.00  0.00     0.151 C 
HETATM   28  O17 UNL     1       9.049   1.602  -2.397  1.00  0.00    -0.218 OA
HETATM   29  O11 UNL     1       8.479   2.803   0.998  1.00  0.00    -0.329 OA
HETATM   30  C46 UNL     1      10.328   3.121  -0.426  1.00  0.00     0.035 C 
HETATM   31  C38 UNL     1       7.184   2.283   1.279  1.00  0.00     0.270 C 
BRANCH  31  32
HETATM   32  O12 UNL     1       6.176   3.129   0.742  1.00  0.00    -0.326 OA
BRANCH  32  33
HETATM   33  C39 UNL     1       5.029   3.227   1.568  1.00  0.00     0.180 C 
HETATM   34  C40 UNL     1       5.135   4.461   2.492  1.00  0.00     0.214 C 
HETATM   35  C41 UNL     1       3.811   4.619   3.271  1.00  0.00     0.212 C 
HETATM   36  O16 UNL     1       6.213   4.297   3.398  1.00  0.00    -0.218 OA
HETATM   37  C42 UNL     1       2.596   4.625   2.316  1.00  0.00     0.148 C 
HETATM   38  O15 UNL     1       3.822   5.832   4.004  1.00  0.00    -0.218 OA
HETATM   39  O13 UNL     1       2.617   3.451   1.506  1.00  0.00    -0.351 OA
HETATM   40  C45 UNL     1       1.256   4.623   3.059  1.00  0.00     0.035 C 
HETATM   41  C43 UNL     1       3.768   3.289   0.680  1.00  0.00     0.178 C 
BRANCH  41  42
HETATM   42  C44 UNL     1       3.791   4.410  -0.371  1.00  0.00     0.214 C 
HETATM   43  O14 UNL     1       2.574   4.375  -1.082  1.00  0.00    -0.218 OA
ENDBRANCH  41  42
ENDBRANCH  32  33
ENDBRANCH  31  32
ENDBRANCH  22  23
ENDBRANCH  21  22
ENDBRANCH   2  21
BRANCH  16  44
HETATM   44  C24 UNL     1      -4.023  -2.486  -1.598  1.00  0.00     0.003 C 
HETATM   45  C31 UNL     1      -5.520  -2.406  -1.291  1.00  0.00     0.000 C 
BRANCH  44  46
HETATM   46  C25 UNL     1      -3.592  -3.879  -2.063  1.00  0.00     0.003 C 
BRANCH  46  47
HETATM   47  C26 UNL     1      -4.768  -4.735  -2.535  1.00  0.00     0.033 C 
BRANCH  47  48
HETATM   48  C27 UNL     1      -5.295  -4.307  -3.904  1.00  0.00     0.152 C 
HETATM   49  O8  UNL     1      -4.449  -4.850  -4.893  1.00  0.00    -0.224 OA
BRANCH  48  50
HETATM   50  C28 UNL     1      -6.719  -4.801  -4.168  1.00  0.00     0.030 C 
HETATM   51  C29 UNL     1      -7.320  -4.209  -5.443  1.00  0.00     0.003 C 
HETATM   52  C30 UNL     1      -6.834  -6.324  -4.113  1.00  0.00     0.003 C 
ENDBRANCH  48  50
ENDBRANCH  47  48
ENDBRANCH  46  47
ENDBRANCH  44  46
ENDBRANCH  16  44
BRANCH  17  53
HETATM   53  O2  UNL     1      -4.119   0.174  -0.522  1.00  0.00    -0.332 OA
BRANCH  53  54
HETATM   54  C18 UNL     1      -5.084   1.060   0.014  1.00  0.00     0.270 C 
HETATM   55  C19 UNL     1      -5.533   2.076  -1.078  1.00  0.00     0.241 C 
HETATM   56  C20 UNL     1      -6.070   3.412  -0.486  1.00  0.00     0.220 C 
HETATM   57  O7  UNL     1      -6.559   1.473  -1.848  1.00  0.00    -0.215 OA
HETATM   58  C21 UNL     1      -6.524   3.236   0.980  1.00  0.00     0.215 C 
HETATM   59  O6  UNL     1      -5.033   4.375  -0.508  1.00  0.00    -0.218 OA
HETATM   60  C22 UNL     1      -5.447   2.539   1.873  1.00  0.00     0.184 C 
HETATM   61  O5  UNL     1      -7.729   2.488   0.973  1.00  0.00    -0.218 OA
HETATM   62  O3  UNL     1      -4.523   1.766   1.107  1.00  0.00    -0.326 OA
BRANCH  60  63
HETATM   63  C23 UNL     1      -5.998   1.648   2.998  1.00  0.00     0.214 C 
HETATM   64  O4  UNL     1      -4.932   1.305   3.854  1.00  0.00    -0.218 OA
ENDBRANCH  60  63
ENDBRANCH  53  54
ENDBRANCH  17  53
TORSDOF 14
