REMARK  2 active torsions:
REMARK  status: ('A' for Active; 'I' for Inactive)
REMARK    1  A    between atoms: C2_2  and  C3_3 
REMARK    2  A    between atoms: C4_4  and  C5_5 
ROOT
HETATM    1  C3  UNL     1      -1.156  -0.594   0.051  1.00  0.00     0.028 C 
HETATM    2  C4  UNL     1      -0.469   0.641  -0.613  1.00  0.00     0.027 C 
HETATM    3  C8  UNL     1       1.035   0.768  -0.244  1.00  0.00     0.032 C 
HETATM    4  C9  UNL     1       1.738  -0.580  -0.289  1.00  0.00    -0.005 A 
HETATM    5  C10 UNL     1       1.051  -1.779  -0.340  1.00  0.00     0.074 A 
HETATM    6  C11 UNL     1      -0.459  -1.916  -0.379  1.00  0.00     0.056 C 
HETATM    7  O1  UNL     1       1.983  -2.816  -0.359  1.00  0.00    -0.310 OA
HETATM    8  C12 UNL     1       3.250  -2.223  -0.322  1.00  0.00     0.118 A 
HETATM    9  C13 UNL     1       3.074  -0.844  -0.281  1.00  0.00     0.001 A 
HETATM   10  C14 UNL     1       4.182   0.188  -0.232  1.00  0.00     0.033 C 
HETATM   11  C15 UNL     1      -1.121  -0.461   1.580  1.00  0.00     0.005 C 
ENDROOT
BRANCH   1  12
HETATM   12  C2  UNL     1      -2.607  -0.674  -0.357  1.00  0.00    -0.026 C 
HETATM   13  C1  UNL     1      -3.342  -1.707   0.088  1.00  0.00    -0.005 C 
ENDBRANCH   1  12
BRANCH   2  14
HETATM   14  C5  UNL     1      -1.181   1.938  -0.305  1.00  0.00    -0.044 C 
HETATM   15  C6  UNL     1      -1.951   2.488  -1.258  1.00  0.00    -0.009 C 
HETATM   16  C7  UNL     1      -1.068   2.639   1.022  1.00  0.00     0.026 C 
ENDBRANCH   2  14
TORSDOF 2
