REMARK  13 active torsions:
REMARK  status: ('A' for Active; 'I' for Inactive)
REMARK    1  A    between atoms: C3_3  and  C55_76 
REMARK    2  A    between atoms: C4_4  and  O1_9 
REMARK    3  A    between atoms: O1_9  and  C9_10 
REMARK    4  A    between atoms: C29_33  and  O6_38 
REMARK    5  A    between atoms: C30_34  and  C32_36 
REMARK    6  A    between atoms: O6_38  and  C33_39 
REMARK    7  A    between atoms: C34_41  and  C51_70 
REMARK    8  A    between atoms: C37_44  and  O8_45 
REMARK    9  A    between atoms: O8_45  and  C38_46 
REMARK   10  A    between atoms: C39_48  and  C49_65 
REMARK   11  A    between atoms: C42_51  and  O10_52 
REMARK   12  A    between atoms: O10_52  and  C43_53 
REMARK   13  A    between atoms: C49_65  and  C50_66 
ROOT
HETATM    1  C1  UNL     1       6.435   1.279  -2.012  1.00  0.00     0.005 C 
HETATM    2  C2  UNL     1       6.039  -0.147  -1.565  1.00  0.00     0.027 C 
HETATM    3  C3  UNL     1       6.990  -0.706  -0.474  1.00  0.00     0.087 C 
HETATM    4  C4  UNL     1       8.467  -0.558  -0.943  1.00  0.00     0.123 C 
HETATM    5  C5  UNL     1       8.831   0.868  -1.400  1.00  0.00     0.030 C 
HETATM    6  C6  UNL     1       7.890   1.377  -2.503  1.00  0.00     0.003 C 
HETATM    7  C7  UNL     1       8.226   2.835  -2.832  1.00  0.00     0.000 C 
HETATM    8  C8  UNL     1       8.075   0.549  -3.781  1.00  0.00     0.000 C 
HETATM    9  C15 UNL     1       6.731  -0.007   0.893  1.00  0.00     0.010 C 
HETATM   10  C16 UNL     1       5.308   0.553   1.101  1.00  0.00     0.004 C 
HETATM   11  C17 UNL     1       4.192  -0.173   0.312  1.00  0.00     0.015 C 
HETATM   12  C18 UNL     1       4.567  -0.165  -1.165  1.00  0.00    -0.049 C 
HETATM   13  C19 UNL     1       3.630  -0.154  -2.139  1.00  0.00    -0.035 C 
HETATM   14  C20 UNL     1       2.148  -0.077  -1.864  1.00  0.00     0.025 C 
HETATM   15  C21 UNL     1       1.745  -0.195  -0.375  1.00  0.00     0.005 C 
HETATM   16  C22 UNL     1       2.796   0.501   0.542  1.00  0.00     0.004 C 
HETATM   17  C23 UNL     1       2.361   0.381   2.024  1.00  0.00     0.000 C 
HETATM   18  C24 UNL     1       0.913   0.808   2.279  1.00  0.00     0.000 C 
HETATM   19  C25 UNL     1      -0.072   0.030   1.384  1.00  0.00     0.005 C 
HETATM   20  C26 UNL     1       0.270   0.248  -0.119  1.00  0.00     0.001 C 
HETATM   21  C27 UNL     1      -0.697  -0.591  -0.988  1.00  0.00     0.003 C 
HETATM   22  C28 UNL     1      -2.172  -0.313  -0.672  1.00  0.00     0.030 C 
HETATM   23  C29 UNL     1      -2.468  -0.550   0.815  1.00  0.00     0.120 C 
HETATM   24  C30 UNL     1      -1.562   0.299   1.745  1.00  0.00     0.056 C 
HETATM   25  C31 UNL     1      -1.893   1.796   1.622  1.00  0.00     0.005 C 
HETATM   26  C52 UNL     1       0.089   1.727  -0.502  1.00  0.00     0.000 C 
HETATM   27  C53 UNL     1       2.883   1.997   0.186  1.00  0.00     0.000 C 
HETATM   28  C54 UNL     1       4.134  -1.641   0.770  1.00  0.00     0.004 C 
ENDROOT
BRANCH  23  29
HETATM   29  O6  UNL     1      -3.837  -0.280   1.058  1.00  0.00    -0.332 OA
BRANCH  29  30
HETATM   30  C33 UNL     1      -4.699  -1.281   0.555  1.00  0.00     0.267 C 
HETATM   31  O7  UNL     1      -4.430  -2.494   1.246  1.00  0.00    -0.318 OA
HETATM   32  C34 UNL     1      -5.184  -3.617   0.810  1.00  0.00     0.237 C 
HETATM   33  C35 UNL     1      -6.690  -3.341   1.040  1.00  0.00     0.223 C 
HETATM   34  C36 UNL     1      -7.130  -2.025   0.358  1.00  0.00     0.217 C 
HETATM   35  O19 UNL     1      -7.442  -4.422   0.516  1.00  0.00    -0.217 OA
HETATM   36  C37 UNL     1      -6.181  -0.876   0.763  1.00  0.00     0.207 C 
HETATM   37  O18 UNL     1      -8.459  -1.708   0.739  1.00  0.00    -0.218 OA
BRANCH  32  38
HETATM   38  C51 UNL     1      -4.683  -4.825   1.560  1.00  0.00     0.217 C 
HETATM   39  O20 UNL     1      -5.363  -5.364   2.401  1.00  0.00    -0.646 OA
HETATM   40  O21 UNL     1      -3.464  -5.236   1.220  1.00  0.00    -0.646 OA
ENDBRANCH  32  38
BRANCH  36  41
HETATM   41  O8  UNL     1      -6.469   0.270  -0.022  1.00  0.00    -0.324 OA
BRANCH  41  42
HETATM   42  C38 UNL     1      -7.164   1.274   0.691  1.00  0.00     0.267 C 
HETATM   43  O9  UNL     1      -6.227   1.993   1.484  1.00  0.00    -0.329 OA
HETATM   44  C39 UNL     1      -6.785   3.011   2.301  1.00  0.00     0.153 C 
HETATM   45  C40 UNL     1      -7.462   4.074   1.405  1.00  0.00     0.212 C 
HETATM   46  C41 UNL     1      -8.506   3.431   0.464  1.00  0.00     0.217 C 
HETATM   47  O16 UNL     1      -8.089   5.034   2.236  1.00  0.00    -0.218 OA
HETATM   48  C42 UNL     1      -7.876   2.241  -0.289  1.00  0.00     0.207 C 
HETATM   49  O15 UNL     1      -8.974   4.397  -0.463  1.00  0.00    -0.218 OA
BRANCH  44  50
HETATM   50  C49 UNL     1      -5.638   3.582   3.142  1.00  0.00     0.068 C 
BRANCH  50  51
HETATM   51  C50 UNL     1      -5.089   2.572   4.151  1.00  0.00     0.185 C 
HETATM   52  O17 UNL     1      -4.086   3.210   4.909  1.00  0.00    -0.221 OA
ENDBRANCH  50  51
ENDBRANCH  44  50
BRANCH  48  53
HETATM   53  O10 UNL     1      -8.892   1.537  -0.987  1.00  0.00    -0.324 OA
BRANCH  53  54
HETATM   54  C43 UNL     1      -8.934   1.842  -2.368  1.00  0.00     0.270 C 
HETATM   55  C44 UNL     1     -10.275   1.371  -2.986  1.00  0.00     0.241 C 
HETATM   56  C45 UNL     1     -10.273   1.553  -4.522  1.00  0.00     0.220 C 
HETATM   57  O14 UNL     1     -11.341   2.120  -2.426  1.00  0.00    -0.215 OA
HETATM   58  C46 UNL     1      -8.993   0.929  -5.123  1.00  0.00     0.212 C 
HETATM   59  O13 UNL     1     -11.418   0.932  -5.081  1.00  0.00    -0.218 OA
HETATM   60  C47 UNL     1      -7.727   1.438  -4.399  1.00  0.00     0.151 C 
HETATM   61  O12 UNL     1      -8.896   1.266  -6.497  1.00  0.00    -0.218 OA
HETATM   62  O11 UNL     1      -7.847   1.184  -3.006  1.00  0.00    -0.329 OA
HETATM   63  C48 UNL     1      -6.449   0.733  -4.866  1.00  0.00     0.035 C 
ENDBRANCH  53  54
ENDBRANCH  48  53
ENDBRANCH  41  42
ENDBRANCH  36  41
ENDBRANCH  29  30
ENDBRANCH  23  29
BRANCH  24  64
HETATM   64  C32 UNL     1      -1.816  -0.116   3.201  1.00  0.00     0.184 C 
HETATM   65  O5  UNL     1      -1.491  -1.483   3.333  1.00  0.00    -0.221 OA
ENDBRANCH  24  64
BRANCH   3  66
HETATM   66  C55 UNL     1       6.725  -2.194  -0.334  1.00  0.00     0.209 C 
HETATM   67  O22 UNL     1       6.881  -2.756   0.723  1.00  0.00    -0.288 OA
ENDBRANCH   3  66
BRANCH   4  68
HETATM   68  O1  UNL     1       9.368  -0.947   0.082  1.00  0.00    -0.352 OA
BRANCH  68  69
HETATM   69  C9  UNL     1      10.159  -2.065  -0.269  1.00  0.00     0.170 C 
HETATM   70  C10 UNL     1      10.836  -2.622   0.992  1.00  0.00     0.101 C 
HETATM   71  C11 UNL     1      12.024  -1.724   1.362  1.00  0.00     0.276 C 
HETATM   72  O2  UNL     1      12.953  -1.657   0.275  1.00  0.00    -0.306 OA
HETATM   73  O4  UNL     1      12.673  -2.237   2.506  1.00  0.00    -0.190 OA
HETATM   74  C12 UNL     1      12.472  -1.480  -0.972  1.00  0.00     0.098 C 
HETATM   75  C13 UNL     1      11.171  -1.642  -1.312  1.00  0.00     0.154 C 
HETATM   76  C14 UNL     1      13.442  -1.089  -2.058  1.00  0.00     0.060 C 
HETATM   77  O3  UNL     1      10.772  -1.445  -2.568  1.00  0.00    -0.191 OA
ENDBRANCH  68  69
ENDBRANCH   4  68
TORSDOF 13
