REMARK  3 active torsions:
REMARK  status: ('A' for Active; 'I' for Inactive)
REMARK    1  A    between atoms: C11_13  and  O4_18 
REMARK    2  A    between atoms: O4_18  and  C15_19 
REMARK    3  A    between atoms: C16_21  and  C20_28 
ROOT
HETATM    1  C1  UNL     1      -1.129  -1.555  -2.760  1.00  0.00     0.092 A 
HETATM    2  C2  UNL     1      -1.514  -0.775  -1.631  1.00  0.00     0.025 A 
HETATM    3  C3  UNL     1      -2.889  -0.604  -1.328  1.00  0.00     0.101 A 
HETATM    4  C4  UNL     1      -3.871  -1.225  -2.149  1.00  0.00     0.023 A 
HETATM    5  C5  UNL     1      -3.490  -2.010  -3.260  1.00  0.00     0.004 A 
HETATM    6  C6  UNL     1      -2.119  -2.174  -3.563  1.00  0.00     0.024 A 
HETATM    7  C7  UNL     1      -5.305  -1.033  -1.809  1.00  0.00     0.007 A 
HETATM    8  C8  UNL     1      -5.623  -0.275  -0.740  1.00  0.00     0.069 A 
HETATM    9  C9  UNL     1      -4.557   0.348   0.072  1.00  0.00     0.300 A 
HETATM   10  O1  UNL     1      -3.266   0.145  -0.268  1.00  0.00    -0.273 OA
HETATM   11  O2  UNL     1      -4.875   1.023   1.021  1.00  0.00    -0.259 OA
HETATM   12  C10 UNL     1      -0.477  -0.146  -0.775  1.00  0.00     0.062 C 
HETATM   13  C11 UNL     1       0.910  -0.783  -0.990  1.00  0.00     0.148 C 
HETATM   14  C12 UNL     1       1.211  -0.943  -2.498  1.00  0.00     0.124 C 
HETATM   15  O3  UNL     1       0.170  -1.732  -3.092  1.00  0.00    -0.334 OA
HETATM   16  C13 UNL     1       2.529  -1.686  -2.734  1.00  0.00     0.033 C 
HETATM   17  C14 UNL     1       1.248   0.410  -3.227  1.00  0.00     0.033 C 
ENDROOT
BRANCH  13  18
HETATM   18  O4  UNL     1       1.895   0.018  -0.365  1.00  0.00    -0.329 OA
BRANCH  18  19
HETATM   19  C15 UNL     1       1.770   0.059   1.043  1.00  0.00     0.270 C 
HETATM   20  O5  UNL     1       0.959   1.174   1.391  1.00  0.00    -0.326 OA
HETATM   21  C16 UNL     1       0.701   1.320   2.783  1.00  0.00     0.184 C 
HETATM   22  C17 UNL     1       2.037   1.529   3.531  1.00  0.00     0.215 C 
HETATM   23  C18 UNL     1       3.033   0.387   3.234  1.00  0.00     0.220 C 
HETATM   24  O8  UNL     1       1.773   1.586   4.922  1.00  0.00    -0.218 OA
HETATM   25  C19 UNL     1       3.164   0.191   1.707  1.00  0.00     0.241 C 
HETATM   26  O7  UNL     1       4.301   0.699   3.791  1.00  0.00    -0.218 OA
HETATM   27  O6  UNL     1       3.926  -0.979   1.445  1.00  0.00    -0.215 OA
BRANCH  21  28
HETATM   28  C20 UNL     1      -0.258   2.504   2.936  1.00  0.00     0.214 C 
HETATM   29  O9  UNL     1      -1.494   2.148   2.359  1.00  0.00    -0.218 OA
ENDBRANCH  21  28
ENDBRANCH  18  19
ENDBRANCH  13  18
TORSDOF 3
