REMARK  1 active torsions:
REMARK  status: ('A' for Active; 'I' for Inactive)
REMARK    1  A    between atoms: C1_1  and  C13_13 
ROOT
HETATM    1  C1  UNL     1      -1.527   1.218   0.308  1.00  0.00     0.008 C 
HETATM    2  C2  UNL     1      -2.766   0.346   0.046  1.00  0.00     0.005 C 
HETATM    3  C3  UNL     1      -2.575  -1.083   0.564  1.00  0.00     0.021 C 
HETATM    4  C4  UNL     1      -1.190  -1.634   0.348  1.00  0.00    -0.051 C 
HETATM    5  C5  UNL     1      -0.179  -0.891  -0.124  1.00  0.00    -0.048 C 
HETATM    6  C6  UNL     1       1.169  -1.521  -0.244  1.00  0.00     0.026 C 
HETATM    7  C7  UNL     1       2.255  -0.605   0.340  1.00  0.00     0.026 C 
HETATM    8  C8  UNL     1       2.129   0.793  -0.163  1.00  0.00    -0.047 C 
HETATM    9  C9  UNL     1       0.962   1.303  -0.552  1.00  0.00    -0.031 C 
HETATM   10  C10 UNL     1      -0.369   0.562  -0.544  1.00  0.00     0.039 C 
HETATM   11  C11 UNL     1       3.345   1.671  -0.196  1.00  0.00     0.026 C 
HETATM   12  C12 UNL     1      -0.934  -3.067   0.739  1.00  0.00     0.026 C 
ENDROOT
BRANCH   1  13
HETATM   13  C13 UNL     1      -1.934   2.699  -0.092  1.00  0.00     0.001 C 
HETATM   14  C14 UNL     1      -3.136   3.109   0.782  1.00  0.00     0.000 C 
HETATM   15  C15 UNL     1      -0.839   3.772   0.144  1.00  0.00     0.000 C 
ENDBRANCH   1  13
TORSDOF 1
