REMARK  1 active torsions:
REMARK  status: ('A' for Active; 'I' for Inactive)
REMARK    1  A    between atoms: C9_9  and  C12_12 
ROOT
HETATM    1  C1  UNL     1      -0.088   1.967  -2.035  1.00  0.00     0.026 C 
HETATM    2  C2  UNL     1       0.674   1.664  -0.768  1.00  0.00    -0.048 C 
HETATM    3  C3  UNL     1       1.945   1.213  -0.873  1.00  0.00    -0.035 C 
HETATM    4  C4  UNL     1       2.877   0.859   0.270  1.00  0.00     0.028 C 
HETATM    5  C5  UNL     1       2.344  -0.053   1.393  1.00  0.00     0.039 C 
HETATM    6  C6  UNL     1       1.777  -1.440   0.975  1.00  0.00     0.145 C 
HETATM    7  C7  UNL     1       1.027  -1.502  -0.348  1.00  0.00    -0.001 C 
HETATM    8  C8  UNL     1      -0.231  -1.098  -0.644  1.00  0.00    -0.029 C 
HETATM    9  C9  UNL     1      -1.266  -0.463   0.268  1.00  0.00     0.022 C 
HETATM   10  C10 UNL     1      -0.828   0.711   1.172  1.00  0.00     0.009 C 
HETATM   11  C11 UNL     1      -0.067   1.902   0.533  1.00  0.00     0.022 C 
HETATM   12  C15 UNL     1       2.928  -2.449   0.887  1.00  0.00     0.038 C 
HETATM   13  O1  UNL     1       0.959  -1.932   2.018  1.00  0.00    -0.222 OA
ENDROOT
BRANCH   9  14
HETATM   14  C12 UNL     1      -2.473  -0.037  -0.578  1.00  0.00     0.004 C 
HETATM   15  C13 UNL     1      -3.080  -1.199  -1.365  1.00  0.00     0.000 C 
HETATM   16  C14 UNL     1      -3.514   0.740   0.227  1.00  0.00     0.000 C 
ENDBRANCH   9  14
TORSDOF 1
