REMARK  15 active torsions:
REMARK  status: ('A' for Active; 'I' for Inactive)
REMARK    1  A    between atoms: C1_1  and  C22_28 
REMARK    2  A    between atoms: C3_3  and  O5_25 
REMARK    3  A    between atoms: C5_5  and  C7_7 
REMARK    4  A    between atoms: C7_7  and  C8_8 
REMARK    5  A    between atoms: C9_9  and  C10_10 
REMARK    6  A    between atoms: C10_10  and  C11_11 
REMARK    7  A    between atoms: C14_14  and  O2_19 
REMARK    8  A    between atoms: C15_15  and  O1_17 
REMARK    9  A    between atoms: C24_30  and  O11_52 
REMARK   10  A    between atoms: C26_32  and  C28_34 
REMARK   11  A    between atoms: C28_34  and  C29_35 
REMARK   12  A    between atoms: C32_39  and  C33_40 
REMARK   13  A    between atoms: C33_40  and  C34_41 
REMARK   14  A    between atoms: C36_43  and  O9_49 
REMARK   15  A    between atoms: C37_44  and  O8_47 
ROOT
HETATM    1  C1  UNL     1       2.414  -0.152  -1.031  1.00  0.00     0.029 A 
HETATM    2  C2  UNL     1       2.182   1.199  -0.693  1.00  0.00     0.153 A 
HETATM    3  C3  UNL     1       2.537   1.670   0.586  1.00  0.00     0.119 A 
HETATM    4  C4  UNL     1       3.117   0.797   1.522  1.00  0.00     0.022 A 
HETATM    5  C5  UNL     1       3.346  -0.549   1.186  1.00  0.00    -0.020 A 
HETATM    6  C6  UNL     1       2.994  -1.021  -0.090  1.00  0.00    -0.002 A 
HETATM    7  O6  UNL     1       1.639   2.029  -1.562  1.00  0.00    -0.188 OA
ENDROOT
BRANCH   1   8
HETATM    8  C22 UNL     1       2.055  -0.660  -2.348  1.00  0.00     0.029 A 
HETATM    9  C23 UNL     1       3.055  -1.018  -3.279  1.00  0.00     0.153 A 
HETATM   10  C24 UNL     1       2.688  -1.506  -4.547  1.00  0.00     0.119 A 
HETATM   11  O12 UNL     1       4.332  -0.898  -2.975  1.00  0.00    -0.188 OA
HETATM   12  C25 UNL     1       1.328  -1.637  -4.885  1.00  0.00     0.022 A 
HETATM   13  C26 UNL     1       0.334  -1.281  -3.959  1.00  0.00    -0.020 A 
HETATM   14  C27 UNL     1       0.695  -0.793  -2.693  1.00  0.00    -0.002 A 
BRANCH  10  15
HETATM   15  O11 UNL     1       3.615  -1.842  -5.422  1.00  0.00    -0.326 OA
HETATM   16  C42 UNL     1       3.191  -2.334  -6.686  1.00  0.00     0.181 C 
ENDBRANCH  10  15
BRANCH  13  17
HETATM   17  C28 UNL     1      -1.102  -1.422  -4.320  1.00  0.00     0.036 C 
BRANCH  17  18
HETATM   18  C29 UNL     1      -1.762  -2.570  -3.562  1.00  0.00     0.093 C 
HETATM   19  C30 UNL     1      -1.256  -3.928  -3.951  1.00  0.00     0.272 C 
HETATM   20  O7  UNL     1      -2.227  -4.818  -4.117  1.00  0.00    -0.302 OA
HETATM   21  O10 UNL     1      -0.080  -4.162  -4.102  1.00  0.00    -0.264 OA
HETATM   22  C31 UNL     1      -3.441  -4.193  -3.719  1.00  0.00     0.153 C 
HETATM   23  C32 UNL     1      -3.248  -2.684  -3.908  1.00  0.00     0.044 C 
BRANCH  23  24
HETATM   24  C33 UNL     1      -4.150  -1.844  -3.010  1.00  0.00     0.029 C 
BRANCH  24  25
HETATM   25  C34 UNL     1      -4.002  -0.391  -3.293  1.00  0.00    -0.020 A 
HETATM   26  C35 UNL     1      -3.375   0.447  -2.355  1.00  0.00     0.022 A 
HETATM   27  C36 UNL     1      -3.234   1.822  -2.617  1.00  0.00     0.116 A 
HETATM   28  C37 UNL     1      -3.721   2.359  -3.824  1.00  0.00     0.116 A 
HETATM   29  C38 UNL     1      -4.346   1.518  -4.762  1.00  0.00     0.026 A 
HETATM   30  C39 UNL     1      -4.488   0.145  -4.498  1.00  0.00    -0.002 A 
BRANCH  27  31
HETATM   31  O9  UNL     1      -2.645   2.604  -1.734  1.00  0.00    -0.326 OA
HETATM   32  C41 UNL     1      -1.809   3.645  -2.217  1.00  0.00     0.181 C 
ENDBRANCH  27  31
BRANCH  28  33
HETATM   33  O8  UNL     1      -3.592   3.647  -4.080  1.00  0.00    -0.326 OA
HETATM   34  C40 UNL     1      -4.024   4.121  -5.346  1.00  0.00     0.181 C 
ENDBRANCH  28  33
ENDBRANCH  24  25
ENDBRANCH  23  24
ENDBRANCH  17  18
ENDBRANCH  13  17
ENDBRANCH   1   8
BRANCH   3  35
HETATM   35  O5  UNL     1       2.324   2.930   0.910  1.00  0.00    -0.326 OA
HETATM   36  C21 UNL     1       2.734   3.365   2.197  1.00  0.00     0.181 C 
ENDBRANCH   3  35
BRANCH   5  37
HETATM   37  C7  UNL     1       3.961  -1.469   2.180  1.00  0.00     0.036 C 
BRANCH  37  38
HETATM   38  C8  UNL     1       2.902  -2.230   2.969  1.00  0.00     0.093 C 
HETATM   39  C9  UNL     1       2.000  -1.279   3.760  1.00  0.00     0.044 C 
HETATM   40  C19 UNL     1       0.697  -2.086   3.752  1.00  0.00     0.153 C 
HETATM   41  O3  UNL     1       0.650  -2.789   2.514  1.00  0.00    -0.302 OA
HETATM   42  C20 UNL     1       1.904  -2.949   2.110  1.00  0.00     0.272 C 
HETATM   43  O4  UNL     1       2.234  -3.598   1.143  1.00  0.00    -0.264 OA
BRANCH  39  44
HETATM   44  C10 UNL     1       2.504  -0.979   5.166  1.00  0.00     0.029 C 
BRANCH  44  45
HETATM   45  C11 UNL     1       1.541  -0.139   5.926  1.00  0.00    -0.020 A 
HETATM   46  C12 UNL     1       0.588  -0.742   6.764  1.00  0.00    -0.002 A 
HETATM   47  C13 UNL     1      -0.322   0.053   7.481  1.00  0.00     0.026 A 
HETATM   48  C14 UNL     1      -0.281   1.455   7.363  1.00  0.00     0.116 A 
HETATM   49  C15 UNL     1       0.674   2.059   6.526  1.00  0.00     0.116 A 
HETATM   50  C16 UNL     1       1.584   1.262   5.809  1.00  0.00     0.022 A 
BRANCH  48  51
HETATM   51  O2  UNL     1      -1.137   2.195   8.039  1.00  0.00    -0.326 OA
HETATM   52  C18 UNL     1      -2.164   1.533   8.764  1.00  0.00     0.181 C 
ENDBRANCH  48  51
BRANCH  49  53
HETATM   53  O1  UNL     1       0.721   3.371   6.410  1.00  0.00    -0.326 OA
HETATM   54  C17 UNL     1      -0.510   4.082   6.397  1.00  0.00     0.181 C 
ENDBRANCH  49  53
ENDBRANCH  44  45
ENDBRANCH  39  44
ENDBRANCH  37  38
ENDBRANCH   5  37
TORSDOF 15
