REMARK  3 active torsions:
REMARK  status: ('A' for Active; 'I' for Inactive)
REMARK    1  A    between atoms: C1_1  and  O4_12 
REMARK    2  A    between atoms: C5_5  and  O2_9 
REMARK    3  A    between atoms: C6_6  and  O1_7 
ROOT
HETATM    1  C1  UNL     1       1.377   0.697   0.090  1.00  0.00     0.120 A 
HETATM    2  C2  UNL     1       2.119  -0.496   0.090  1.00  0.00     0.054 A 
HETATM    3  C3  UNL     1       1.465  -1.738   0.090  1.00  0.00     0.135 A 
HETATM    4  C4  UNL     1       0.061  -1.785   0.090  1.00  0.00     0.054 A 
HETATM    5  C5  UNL     1      -0.689  -0.596   0.090  1.00  0.00     0.120 A 
HETATM    6  C6  UNL     1      -0.029   0.648   0.090  1.00  0.00     0.139 A 
HETATM    7  O3  UNL     1       2.166  -2.856   0.090  1.00  0.00    -0.190 OA
ENDROOT
BRANCH   1   8
HETATM    8  O4  UNL     1       2.000   1.859   0.090  1.00  0.00    -0.326 OA
HETATM    9  C9  UNL     1       2.043   2.592  -1.125  1.00  0.00     0.181 C 
ENDBRANCH   1   8
BRANCH   6  10
HETATM   10  O1  UNL     1      -0.730   1.766   0.090  1.00  0.00    -0.324 OA
HETATM   11  C7  UNL     1      -1.953   1.785   0.815  1.00  0.00     0.182 C 
ENDBRANCH   6  10
BRANCH   5  12
HETATM   12  O2  UNL     1      -2.006  -0.650   0.090  1.00  0.00    -0.326 OA
HETATM   13  C8  UNL     1      -2.619  -1.932   0.090  1.00  0.00     0.181 C 
ENDBRANCH   5  12
TORSDOF 3
