REMARK  7 active torsions:
REMARK  status: ('A' for Active; 'I' for Inactive)
REMARK    1  A    between atoms: C3_3  and  O4_14 
REMARK    2  A    between atoms: C6_6  and  O1_7 
REMARK    3  A    between atoms: O4_14  and  C11_15 
REMARK    4  A    between atoms: C11_15  and  C12_16 
REMARK    5  A    between atoms: C13_17  and  C14_18 
REMARK    6  A    between atoms: C14_18  and  C15_19 
REMARK    7  A    between atoms: C15_19  and  C16_20 
ROOT
HETATM    1  C1  UNL     1      -1.381   1.641   3.709  1.00  0.00     0.049 A 
HETATM    2  C2  UNL     1      -1.246   0.799   2.643  1.00  0.00     0.126 A 
HETATM    3  C3  UNL     1      -0.010   0.324   2.158  1.00  0.00     0.140 A 
HETATM    4  C4  UNL     1       1.139   0.783   2.861  1.00  0.00     0.129 A 
HETATM    5  C5  UNL     1       1.012   1.670   3.982  1.00  0.00     0.047 A 
HETATM    6  C6  UNL     1      -0.266   2.123   4.436  1.00  0.00     0.098 A 
HETATM    7  C8  UNL     1       2.260   2.107   4.668  1.00  0.00     0.009 A 
HETATM    8  C9  UNL     1       3.449   1.664   4.221  1.00  0.00     0.069 A 
HETATM    9  C10 UNL     1       3.510   0.752   3.059  1.00  0.00     0.300 A 
HETATM   10  O2  UNL     1       2.363   0.373   2.457  1.00  0.00    -0.271 OA
HETATM   11  O3  UNL     1       4.592   0.371   2.682  1.00  0.00    -0.259 OA
HETATM   12  O5  UNL     1      -2.492   0.488   2.123  1.00  0.00    -0.303 OA
HETATM   13  C21 UNL     1      -3.397   1.207   2.955  1.00  0.00     0.123 A 
HETATM   14  C22 UNL     1      -2.684   1.924   3.941  1.00  0.00     0.031 A 
ENDROOT
BRANCH   3  15
HETATM   15  O4  UNL     1       0.219  -0.500   1.125  1.00  0.00    -0.322 OA
BRANCH  15  16
HETATM   16  C11 UNL     1       1.131  -0.074   0.123  1.00  0.00     0.175 C 
BRANCH  16  17
HETATM   17  C12 UNL     1       0.711  -0.637  -1.209  1.00  0.00    -0.002 C 
HETATM   18  C13 UNL     1       1.322  -0.186  -2.317  1.00  0.00    -0.045 C 
HETATM   19  C20 UNL     1       2.397   0.859  -2.170  1.00  0.00     0.026 C 
BRANCH  18  20
HETATM   20  C14 UNL     1       1.023  -0.639  -3.721  1.00  0.00     0.026 C 
BRANCH  20  21
HETATM   21  C15 UNL     1      -0.238  -1.500  -3.799  1.00  0.00     0.030 C 
BRANCH  21  22
HETATM   22  C16 UNL     1      -0.611  -1.844  -5.215  1.00  0.00    -0.034 C 
HETATM   23  C17 UNL     1      -1.438  -2.883  -5.426  1.00  0.00    -0.048 C 
HETATM   24  C18 UNL     1      -1.854  -3.398  -6.778  1.00  0.00     0.026 C 
HETATM   25  C19 UNL     1      -2.004  -3.604  -4.235  1.00  0.00     0.026 C 
ENDBRANCH  21  22
ENDBRANCH  20  21
ENDBRANCH  18  20
ENDBRANCH  16  17
ENDBRANCH  15  16
ENDBRANCH   3  15
BRANCH   6  26
HETATM   26  O1  UNL     1      -0.268   2.951   5.492  1.00  0.00    -0.328 OA
HETATM   27  C7  UNL     1      -1.402   2.936   6.346  1.00  0.00     0.181 C 
ENDBRANCH   6  26
TORSDOF 7
