REMARK  2 active torsions:
REMARK  status: ('A' for Active; 'I' for Inactive)
REMARK    1  A    between atoms: C3_3  and  C20_21 
REMARK    2  A    between atoms: C12_13  and  C15_16 
ROOT
HETATM    1  C1  UNL     1      -3.342   1.344  -0.678  1.00  0.00     0.001 C 
HETATM    2  C2  UNL     1      -3.936   0.328   0.303  1.00  0.00     0.010 C 
HETATM    3  C3  UNL     1      -3.154  -1.010   0.301  1.00  0.00     0.079 C 
HETATM    4  C4  UNL     1      -1.658  -0.791  -0.094  1.00  0.00     0.016 C 
HETATM    5  C5  UNL     1      -1.092   0.570   0.400  1.00  0.00     0.019 C 
HETATM    6  C6  UNL     1      -1.883   1.703  -0.328  1.00  0.00     0.004 C 
HETATM    7  C7  UNL     1       0.389   0.705   0.168  1.00  0.00    -0.024 A 
HETATM    8  C8  UNL     1       1.213  -0.412  -0.188  1.00  0.00     0.004 A 
HETATM    9  C9  UNL     1       0.649  -1.789  -0.314  1.00  0.00     0.174 C 
HETATM   10  C10 UNL     1      -0.742  -1.949   0.322  1.00  0.00     0.038 C 
HETATM   11  O1  UNL     1       1.488  -2.766   0.277  1.00  0.00    -0.219 OA
HETATM   12  C11 UNL     1       2.598  -0.199  -0.439  1.00  0.00    -0.006 A 
HETATM   13  C12 UNL     1       3.174   1.082  -0.305  1.00  0.00    -0.023 A 
HETATM   14  C13 UNL     1       2.369   2.176   0.080  1.00  0.00    -0.005 A 
HETATM   15  C14 UNL     1       0.992   1.986   0.314  1.00  0.00    -0.005 A 
HETATM   16  C18 UNL     1      -1.314   0.687   1.920  1.00  0.00     0.004 C 
HETATM   17  C19 UNL     1      -3.295  -1.666   1.684  1.00  0.00     0.011 C 
ENDROOT
BRANCH   3  18
HETATM   18  C20 UNL     1      -3.789  -1.959  -0.688  1.00  0.00     0.184 C 
HETATM   19  O2  UNL     1      -3.867  -3.143  -0.453  1.00  0.00    -0.647 OA
HETATM   20  O3  UNL     1      -4.242  -1.395  -1.805  1.00  0.00    -0.647 OA
ENDBRANCH   3  18
BRANCH  13  21
HETATM   21  C15 UNL     1       4.610   1.279  -0.565  1.00  0.00     0.022 C 
HETATM   22  C16 UNL     1       5.471   0.496   0.428  1.00  0.00     0.005 C 
HETATM   23  C17 UNL     1       4.965   0.978  -2.020  1.00  0.00     0.005 C 
ENDBRANCH  13  21
TORSDOF 2
