REMARK  12 active torsions:
REMARK  status: ('A' for Active; 'I' for Inactive)
REMARK    1  A    between atoms: C1_1  and  O17_52 
REMARK    2  A    between atoms: C4_4  and  C7_7 
REMARK    3  A    between atoms: C8_8  and  O5_25 
REMARK    4  A    between atoms: C12_13  and  C16_19 
REMARK    5  A    between atoms: C16_19  and  C17_20 
REMARK    6  A    between atoms: O5_25  and  C21_26 
REMARK    7  A    between atoms: C23_28  and  O9_37 
REMARK    8  A    between atoms: C24_29  and  O7_33 
REMARK    9  A    between atoms: O7_33  and  C27_34 
REMARK   10  A    between atoms: O9_37  and  C29_38 
REMARK   11  A    between atoms: C33_42  and  O11_44 
REMARK   12  A    between atoms: O11_44  and  C34_45 
ROOT
HETATM    1  O5  UNL     1       0.174  -0.857  -1.041  1.00  0.00    -0.321 OA
ENDROOT
BRANCH   1   2
HETATM    2  C8  UNL     1       0.408  -1.156  -2.408  1.00  0.00     0.211 C 
HETATM    3  C7  UNL     1       0.803  -2.643  -2.588  1.00  0.00     0.178 C 
HETATM    4  O1  UNL     1       2.092  -2.893  -2.014  1.00  0.00    -0.326 OA
HETATM    5  C11 UNL     1       3.125  -2.064  -2.277  1.00  0.00     0.098 A 
HETATM    6  C10 UNL     1       2.904  -0.744  -2.762  1.00  0.00     0.085 A 
HETATM    7  C12 UNL     1       4.449  -2.521  -2.065  1.00  0.00     0.030 A 
HETATM    8  C9  UNL     1       1.504  -0.242  -2.914  1.00  0.00     0.207 C 
HETATM    9  C15 UNL     1       4.008   0.088  -3.084  1.00  0.00     0.138 A 
HETATM   10  O4  UNL     1       1.164   0.815  -3.397  1.00  0.00    -0.288 OA
HETATM   11  C14 UNL     1       5.324  -0.383  -2.889  1.00  0.00     0.055 A 
HETATM   12  O2  UNL     1       3.820   1.326  -3.567  1.00  0.00    -0.190 OA
HETATM   13  C13 UNL     1       5.549  -1.680  -2.371  1.00  0.00     0.131 A 
HETATM   14  O3  UNL     1       6.805  -2.109  -2.180  1.00  0.00    -0.190 OA
BRANCH   3  15
HETATM   15  C4  UNL     1      -0.184  -3.605  -2.033  1.00  0.00     0.008 A 
HETATM   16  C3  UNL     1       0.254  -4.703  -1.273  1.00  0.00     0.000 A 
HETATM   17  C2  UNL     1      -0.682  -5.613  -0.752  1.00  0.00     0.024 A 
HETATM   18  C1  UNL     1      -2.055  -5.430  -0.984  1.00  0.00     0.094 A 
HETATM   19  C6  UNL     1      -2.490  -4.328  -1.744  1.00  0.00     0.024 A 
HETATM   20  C5  UNL     1      -1.559  -3.418  -2.268  1.00  0.00     0.000 A 
BRANCH  18  21
HETATM   21  O17 UNL     1      -2.932  -6.283  -0.492  1.00  0.00    -0.328 OA
HETATM   22  C36 UNL     1      -4.311  -6.020  -0.705  1.00  0.00     0.181 C 
ENDBRANCH  18  21
ENDBRANCH   3  15
BRANCH   7  23
HETATM   23  C16 UNL     1       4.686  -3.875  -1.531  1.00  0.00     0.056 C 
BRANCH  23  24
HETATM   24  C17 UNL     1       3.979  -4.098  -0.221  1.00  0.00    -0.030 C 
HETATM   25  C18 UNL     1       3.922  -5.346   0.269  1.00  0.00    -0.048 C 
HETATM   26  C19 UNL     1       3.244  -5.744   1.555  1.00  0.00     0.026 C 
HETATM   27  C20 UNL     1       4.578  -6.455  -0.508  1.00  0.00     0.026 C 
ENDBRANCH  23  24
ENDBRANCH   7  23
ENDBRANCH   1   2
BRANCH   1  28
HETATM   28  C21 UNL     1      -0.578   0.324  -0.850  1.00  0.00     0.270 C 
HETATM   29  C22 UNL     1      -0.527   0.762   0.637  1.00  0.00     0.238 C 
HETATM   30  C23 UNL     1      -1.475   1.955   0.891  1.00  0.00     0.183 C 
HETATM   31  O16 UNL     1       0.799   1.137   0.973  1.00  0.00    -0.215 OA
HETATM   32  C24 UNL     1      -2.875   1.643   0.336  1.00  0.00     0.181 C 
HETATM   33  C25 UNL     1      -2.799   1.184  -1.133  1.00  0.00     0.148 C 
HETATM   34  O6  UNL     1      -1.922   0.068  -1.236  1.00  0.00    -0.329 OA
HETATM   35  C26 UNL     1      -4.160   0.742  -1.678  1.00  0.00     0.035 C 
BRANCH  30  36
HETATM   36  O9  UNL     1      -1.572   2.223   2.277  1.00  0.00    -0.326 OA
BRANCH  36  37
HETATM   37  C29 UNL     1      -0.699   3.246   2.711  1.00  0.00     0.272 C 
HETATM   38  C30 UNL     1      -0.574   3.235   4.258  1.00  0.00     0.241 C 
HETATM   39  C31 UNL     1       0.248   4.444   4.760  1.00  0.00     0.223 C 
HETATM   40  O15 UNL     1       0.059   2.033   4.668  1.00  0.00    -0.215 OA
HETATM   41  C32 UNL     1      -0.299   5.746   4.137  1.00  0.00     0.241 C 
HETATM   42  O14 UNL     1       0.176   4.520   6.174  1.00  0.00    -0.218 OA
HETATM   43  C33 UNL     1      -0.420   5.623   2.604  1.00  0.00     0.278 C 
HETATM   44  O13 UNL     1       0.568   6.826   4.436  1.00  0.00    -0.215 OA
HETATM   45  O10 UNL     1      -1.221   4.496   2.277  1.00  0.00    -0.302 OA
BRANCH  43  46
HETATM   46  O11 UNL     1      -1.033   6.789   2.068  1.00  0.00    -0.273 OA
BRANCH  46  47
HETATM   47  C34 UNL     1      -0.924   6.858   0.746  1.00  0.00     0.274 C 
HETATM   48  C35 UNL     1      -1.609   8.035   0.105  1.00  0.00     0.106 C 
HETATM   49  O12 UNL     1      -0.322   6.051   0.078  1.00  0.00    -0.264 OA
ENDBRANCH  46  47
ENDBRANCH  43  46
ENDBRANCH  36  37
ENDBRANCH  30  36
BRANCH  32  50
HETATM   50  O7  UNL     1      -3.689   2.805   0.420  1.00  0.00    -0.299 OA
BRANCH  50  51
HETATM   51  C27 UNL     1      -4.980   2.510   0.549  1.00  0.00     0.273 C 
HETATM   52  C28 UNL     1      -5.926   3.658   0.326  1.00  0.00     0.106 C 
HETATM   53  O8  UNL     1      -5.395   1.408   0.824  1.00  0.00    -0.264 OA
ENDBRANCH  50  51
ENDBRANCH  32  50
ENDBRANCH   1  28
TORSDOF 12
