REMARK  1 active torsions:
REMARK  status: ('A' for Active; 'I' for Inactive)
REMARK    1  A    between atoms: C19_19  and  C22_22 
ROOT
HETATM    1  C1  UNL     1       4.973   0.730  -1.787  1.00  0.00     0.034 C 
HETATM    2  C2  UNL     1       5.939   0.098  -0.762  1.00  0.00     0.155 C 
HETATM    3  C3  UNL     1       5.328  -1.168  -0.082  1.00  0.00     0.043 C 
HETATM    4  C4  UNL     1       3.832  -0.992   0.156  1.00  0.00    -0.047 C 
HETATM    5  C5  UNL     1       3.307   0.443   0.164  1.00  0.00     0.018 C 
HETATM    6  C6  UNL     1       3.594   1.111  -1.197  1.00  0.00     0.007 C 
HETATM    7  C7  UNL     1       1.840   0.523   0.660  1.00  0.00     0.004 C 
HETATM    8  C8  UNL     1       1.047  -0.586  -0.096  1.00  0.00     0.005 C 
HETATM    9  C9  UNL     1       1.502  -1.957   0.428  1.00  0.00     0.025 C 
HETATM   10  C10 UNL     1       3.016  -2.068   0.326  1.00  0.00    -0.035 C 
HETATM   11  C11 UNL     1      -0.483  -0.297  -0.262  1.00  0.00     0.000 C 
HETATM   12  C12 UNL     1      -1.018   0.516   0.955  1.00  0.00     0.000 C 
HETATM   13  C13 UNL     1      -0.338   1.914   0.949  1.00  0.00     0.000 C 
HETATM   14  C14 UNL     1       1.146   1.896   0.475  1.00  0.00     0.000 C 
HETATM   15  C15 UNL     1      -2.582   0.475   1.022  1.00  0.00     0.000 C 
HETATM   16  C16 UNL     1      -3.317   0.184  -0.293  1.00  0.00     0.000 C 
HETATM   17  C17 UNL     1      -2.840  -1.188  -0.830  1.00  0.00     0.000 C 
HETATM   18  C18 UNL     1      -1.367  -1.545  -0.478  1.00  0.00     0.000 C 
HETATM   19  C19 UNL     1      -4.764   0.205   0.232  1.00  0.00     0.000 C 
HETATM   20  C20 UNL     1      -4.787   1.434   1.154  1.00  0.00     0.000 C 
HETATM   21  C21 UNL     1      -3.334   1.688   1.572  1.00  0.00     0.000 C 
HETATM   22  C25 UNL     1      -3.199   1.320  -1.320  1.00  0.00     0.000 C 
HETATM   23  C26 UNL     1      -0.701  -0.197   2.287  1.00  0.00     0.000 C 
HETATM   24  C27 UNL     1      -0.592   0.533  -1.559  1.00  0.00     0.000 C 
HETATM   25  C28 UNL     1       1.936   0.273   2.180  1.00  0.00     0.000 C 
HETATM   26  C29 UNL     1       5.545  -2.350  -1.041  1.00  0.00     0.007 C 
HETATM   27  C30 UNL     1       6.016  -1.508   1.248  1.00  0.00     0.007 C 
HETATM   28  O1  UNL     1       6.309   1.086   0.186  1.00  0.00    -0.223 OA
ENDROOT
BRANCH  19  29
HETATM   29  C22 UNL     1      -5.840   0.252  -0.850  1.00  0.00     0.000 C 
HETATM   30  C23 UNL     1      -7.219   0.111  -0.203  1.00  0.00     0.000 C 
HETATM   31  C24 UNL     1      -5.565  -0.832  -1.891  1.00  0.00     0.000 C 
ENDBRANCH  19  29
TORSDOF 1
