REMARK  12 active torsions:
REMARK  status: ('A' for Active; 'I' for Inactive)
REMARK    1  A    between atoms: C2_2  and  O4_34 
REMARK    2  A    between atoms: C3_3  and  C30_32 
REMARK    3  A    between atoms: C16_16  and  C25_25 
REMARK    4  A    between atoms: O4_34  and  C31_35 
REMARK    5  A    between atoms: C31_35  and  C32_36 
REMARK    6  A    between atoms: C33_37  and  O17_65 
REMARK    7  A    between atoms: C36_40  and  O6_42 
REMARK    8  A    between atoms: O6_42  and  C37_43 
REMARK    9  A    between atoms: C41_48  and  O9_51 
REMARK   10  A    between atoms: O9_51  and  C43_52 
REMARK   11  A    between atoms: O17_65  and  C49_66 
REMARK   12  A    between atoms: C53_70  and  C54_71 
ROOT
HETATM    1  C32 UNL     1       3.502   2.002  -0.168  1.00  0.00     0.175 C 
HETATM    2  C33 UNL     1       2.551   2.813  -1.076  1.00  0.00     0.180 C 
HETATM    3  C34 UNL     1       2.844   2.557  -2.572  1.00  0.00     0.217 C 
HETATM    4  C35 UNL     1       2.885   1.037  -2.850  1.00  0.00     0.241 C 
HETATM    5  C36 UNL     1       3.816   0.314  -1.844  1.00  0.00     0.270 C 
HETATM    6  O5  UNL     1       3.424   0.625  -0.514  1.00  0.00    -0.326 OA
HETATM    7  O15 UNL     1       3.352   0.813  -4.170  1.00  0.00    -0.215 OA
HETATM    8  O16 UNL     1       1.840   3.166  -3.369  1.00  0.00    -0.218 OA
ENDROOT
BRANCH   1   9
HETATM    9  C31 UNL     1       3.143   2.107   1.316  1.00  0.00     0.145 C 
HETATM   10  C55 UNL     1       4.373   2.197   2.219  1.00  0.00     0.035 C 
BRANCH   9  11
HETATM   11  O4  UNL     1       2.416   0.953   1.678  1.00  0.00    -0.357 OA
BRANCH  11  12
HETATM   12  C2  UNL     1       1.014   1.113   1.547  1.00  0.00     0.118 C 
HETATM   13  C1  UNL     1       0.523   0.264   0.365  1.00  0.00     0.030 C 
HETATM   14  C6  UNL     1      -0.992   0.408   0.182  1.00  0.00     0.003 C 
HETATM   15  C5  UNL     1      -1.791   0.053   1.457  1.00  0.00     0.001 C 
HETATM   16  C4  UNL     1      -1.244   0.885   2.652  1.00  0.00     0.005 C 
HETATM   17  C7  UNL     1      -3.301   0.391   1.248  1.00  0.00     0.005 C 
HETATM   18  C28 UNL     1      -1.623  -1.453   1.727  1.00  0.00     0.000 C 
HETATM   19  C3  UNL     1       0.291   0.762   2.871  1.00  0.00     0.056 C 
HETATM   20  C10 UNL     1      -2.061   0.594   3.926  1.00  0.00     0.000 C 
HETATM   21  C29 UNL     1       0.664  -0.652   3.346  1.00  0.00     0.005 C 
HETATM   22  C9  UNL     1      -3.539   0.939   3.729  1.00  0.00     0.000 C 
HETATM   23  C8  UNL     1      -4.190   0.221   2.520  1.00  0.00     0.004 C 
HETATM   24  C11 UNL     1      -5.606   0.813   2.215  1.00  0.00     0.015 C 
HETATM   25  C27 UNL     1      -4.315  -1.275   2.865  1.00  0.00     0.000 C 
HETATM   26  C12 UNL     1      -6.205   0.176   0.965  1.00  0.00    -0.049 C 
HETATM   27  C18 UNL     1      -6.586   0.592   3.393  1.00  0.00     0.004 C 
HETATM   28  C26 UNL     1      -5.484   2.324   1.957  1.00  0.00     0.004 C 
HETATM   29  C13 UNL     1      -5.430  -0.322  -0.021  1.00  0.00    -0.035 C 
HETATM   30  C15 UNL     1      -7.719   0.080   0.828  1.00  0.00     0.028 C 
HETATM   31  C14 UNL     1      -3.920  -0.355   0.045  1.00  0.00     0.025 C 
HETATM   32  C16 UNL     1      -8.479   1.141   1.668  1.00  0.00     0.082 C 
HETATM   33  C22 UNL     1      -8.192  -1.357   1.143  1.00  0.00     0.004 C 
HETATM   34  C17 UNL     1      -8.018   1.117   3.152  1.00  0.00     0.011 C 
HETATM   35  C19 UNL     1     -10.008   0.922   1.555  1.00  0.00     0.011 C 
HETATM   36  C20 UNL     1     -10.449  -0.521   1.848  1.00  0.00     0.001 C 
HETATM   37  C21 UNL     1      -9.711  -1.547   0.971  1.00  0.00     0.000 C 
HETATM   38  C23 UNL     1     -10.108  -2.963   1.399  1.00  0.00     0.000 C 
HETATM   39  C24 UNL     1     -10.104  -1.363  -0.500  1.00  0.00     0.000 C 
BRANCH  19  40
HETATM   40  C30 UNL     1       0.732   1.752   3.959  1.00  0.00     0.184 C 
HETATM   41  O3  UNL     1       0.272   3.035   3.600  1.00  0.00    -0.221 OA
ENDBRANCH  19  40
BRANCH  32  42
HETATM   42  C25 UNL     1      -8.219   2.514   1.082  1.00  0.00     0.184 C 
HETATM   43  O1  UNL     1      -8.270   3.504   1.774  1.00  0.00    -0.647 OA
HETATM   44  O2  UNL     1      -7.938   2.531  -0.217  1.00  0.00    -0.647 OA
ENDBRANCH  32  42
ENDBRANCH  11  12
ENDBRANCH   9  11
ENDBRANCH   1   9
BRANCH   2  45
HETATM   45  O17 UNL     1       2.711   4.190  -0.785  1.00  0.00    -0.326 OA
BRANCH  45  46
HETATM   46  C49 UNL     1       1.660   4.721  -0.002  1.00  0.00     0.270 C 
HETATM   47  C50 UNL     1       0.742   5.623  -0.867  1.00  0.00     0.241 C 
HETATM   48  C51 UNL     1      -0.316   6.334   0.006  1.00  0.00     0.220 C 
HETATM   49  O22 UNL     1       0.090   4.828  -1.844  1.00  0.00    -0.215 OA
HETATM   50  C52 UNL     1       0.367   7.022   1.209  1.00  0.00     0.215 C 
HETATM   51  O21 UNL     1      -1.008   7.301  -0.769  1.00  0.00    -0.218 OA
HETATM   52  C53 UNL     1       1.291   6.039   1.965  1.00  0.00     0.184 C 
HETATM   53  O20 UNL     1      -0.615   7.504   2.108  1.00  0.00    -0.218 OA
HETATM   54  O19 UNL     1       2.229   5.481   1.057  1.00  0.00    -0.326 OA
BRANCH  52  55
HETATM   55  C54 UNL     1       2.102   6.717   3.074  1.00  0.00     0.214 C 
HETATM   56  O18 UNL     1       2.779   5.717   3.799  1.00  0.00    -0.218 OA
ENDBRANCH  52  55
ENDBRANCH  45  46
ENDBRANCH   2  45
BRANCH   5  57
HETATM   57  O6  UNL     1       3.740  -1.088  -2.016  1.00  0.00    -0.326 OA
BRANCH  57  58
HETATM   58  C37 UNL     1       5.008  -1.699  -2.187  1.00  0.00     0.186 C 
HETATM   59  C38 UNL     1       5.676  -1.914  -0.810  1.00  0.00     0.209 C 
HETATM   60  C39 UNL     1       6.965  -2.758  -0.934  1.00  0.00     0.151 C 
HETATM   61  O14 UNL     1       6.006  -0.662  -0.236  1.00  0.00    -0.218 OA
HETATM   62  C40 UNL     1       7.568  -3.125   0.428  1.00  0.00     0.035 C 
HETATM   63  O7  UNL     1       6.666  -3.981  -1.594  1.00  0.00    -0.329 OA
HETATM   64  C41 UNL     1       6.178  -3.846  -2.920  1.00  0.00     0.270 C 
HETATM   65  C42 UNL     1       4.844  -3.055  -2.910  1.00  0.00     0.238 C 
HETATM   66  O8  UNL     1       4.422  -2.828  -4.246  1.00  0.00    -0.215 OA
BRANCH  64  67
HETATM   67  O9  UNL     1       5.983  -5.139  -3.459  1.00  0.00    -0.323 OA
BRANCH  67  68
HETATM   68  C43 UNL     1       6.846  -5.424  -4.549  1.00  0.00     0.210 C 
HETATM   69  C44 UNL     1       6.193  -6.498  -5.449  1.00  0.00     0.217 C 
HETATM   70  C45 UNL     1       7.205  -6.981  -6.512  1.00  0.00     0.212 C 
HETATM   71  O13 UNL     1       5.047  -5.961  -6.088  1.00  0.00    -0.218 OA
HETATM   72  C46 UNL     1       8.551  -7.387  -5.867  1.00  0.00     0.151 C 
HETATM   73  O12 UNL     1       6.680  -8.100  -7.203  1.00  0.00    -0.218 OA
HETATM   74  O10 UNL     1       9.047  -6.307  -5.090  1.00  0.00    -0.327 OA
HETATM   75  C48 UNL     1       9.631  -7.723  -6.900  1.00  0.00     0.035 C 
HETATM   76  C47 UNL     1       8.215  -5.910  -4.008  1.00  0.00     0.299 C 
HETATM   77  O11 UNL     1       8.863  -4.871  -3.303  1.00  0.00    -0.187 OA
ENDBRANCH  67  68
ENDBRANCH  64  67
ENDBRANCH  57  58
ENDBRANCH   5  57
TORSDOF 12
