REMARK  4 active torsions:
REMARK  status: ('A' for Active; 'I' for Inactive)
REMARK    1  A    between atoms: C3_3  and  C8_8 
REMARK    2  A    between atoms: C8_8  and  O1_11 
REMARK    3  A    between atoms: O1_11  and  C11_12 
REMARK    4  A    between atoms: C15_19  and  C16_21 
ROOT
HETATM    1  C11 UNL     1       0.859   1.213  -0.178  1.00  0.00     0.270 C 
HETATM    2  C12 UNL     1       0.467   2.685   0.113  1.00  0.00     0.241 C 
HETATM    3  O2  UNL     1      -0.811   2.953  -0.443  1.00  0.00    -0.215 OA
HETATM    4  C13 UNL     1       1.504   3.662  -0.486  1.00  0.00     0.220 C 
HETATM    5  O3  UNL     1       1.230   4.984  -0.045  1.00  0.00    -0.218 OA
HETATM    6  C14 UNL     1       2.926   3.248  -0.051  1.00  0.00     0.215 C 
HETATM    7  O4  UNL     1       3.887   4.025  -0.744  1.00  0.00    -0.218 OA
HETATM    8  C15 UNL     1       3.191   1.756  -0.344  1.00  0.00     0.184 C 
HETATM    9  O5  UNL     1       2.184   0.967   0.277  1.00  0.00    -0.326 OA
ENDROOT
BRANCH   1  10
HETATM   10  O1  UNL     1      -0.018   0.326   0.490  1.00  0.00    -0.334 OA
BRANCH  10  11
HETATM   11  C8  UNL     1      -0.266  -0.858  -0.234  1.00  0.00     0.096 C 
HETATM   12  C9  UNL     1       1.074  -1.533  -0.524  1.00  0.00     0.030 C 
HETATM   13  C10 UNL     1      -1.027  -0.488  -1.508  1.00  0.00     0.030 C 
BRANCH  11  14
HETATM   14  C3  UNL     1      -1.125  -1.647   0.762  1.00  0.00     0.030 C 
HETATM   15  C2  UNL     1      -1.293  -3.115   0.295  1.00  0.00     0.028 C 
HETATM   16  C1  UNL     1      -2.633  -3.742   0.619  1.00  0.00    -0.035 C 
HETATM   17  C6  UNL     1      -3.750  -2.994   0.592  1.00  0.00    -0.048 C 
HETATM   18  C5  UNL     1      -3.647  -1.520   0.285  1.00  0.00     0.022 C 
HETATM   19  C7  UNL     1      -5.102  -3.596   0.875  1.00  0.00     0.026 C 
HETATM   20  C4  UNL     1      -2.459  -0.922   1.051  1.00  0.00     0.007 C 
ENDBRANCH  11  14
ENDBRANCH  10  11
ENDBRANCH   1  10
BRANCH   8  21
HETATM   21  C16 UNL     1       4.537   1.271   0.207  1.00  0.00     0.214 C 
HETATM   22  O6  UNL     1       4.766  -0.035  -0.268  1.00  0.00    -0.218 OA
ENDBRANCH   8  21
TORSDOF 4
