REMARK  0 active torsions:
REMARK  status: ('A' for Active; 'I' for Inactive)
ROOT
HETATM    1  N1  UNL     1      -0.014   1.381  -0.565  1.00  0.00    -0.232 NA
HETATM    2  C1  UNL     1       1.068   0.715  -0.287  1.00  0.00     0.123 A 
HETATM    3  N2  UNL     1       1.138  -0.602   0.205  1.00  0.00    -0.284 N 
HETATM    4  C2  UNL     1      -0.034  -1.344   0.449  1.00  0.00     0.263 A 
HETATM    5  C3  UNL     1      -1.293  -0.602   0.139  1.00  0.00     0.074 A 
HETATM    6  C4  UNL     1      -2.551  -1.223   0.336  1.00  0.00     0.006 A 
HETATM    7  C5  UNL     1      -3.737  -0.514   0.039  1.00  0.00     0.000 A 
HETATM    8  C6  UNL     1      -3.668   0.810  -0.453  1.00  0.00     0.002 A 
HETATM    9  C7  UNL     1      -2.415   1.435  -0.653  1.00  0.00     0.019 A 
HETATM   10  C8  UNL     1      -1.213   0.740  -0.360  1.00  0.00     0.087 A 
HETATM   11  O1  UNL     1       0.072  -2.473   0.873  1.00  0.00    -0.267 OA
HETATM   12  C9  UNL     1       2.504  -1.057   0.416  1.00  0.00     0.111 C 
HETATM   13  C10 UNL     1       3.357   0.213   0.365  1.00  0.00     0.033 C 
HETATM   14  C11 UNL     1       2.488   1.203  -0.428  1.00  0.00     0.066 C 
ENDROOT
TORSDOF 0
