REMARK  2 active torsions:
REMARK  status: ('A' for Active; 'I' for Inactive)
REMARK    1  A    between atoms: C1_1  and  C2_2 
REMARK    2  A    between atoms: C2_2  and  C3_4 
ROOT
HETATM    1  C2  UNL     1      -0.241  -0.258   0.000  1.00  0.00     0.280 C 
HETATM    2  O1  UNL     1       0.056  -1.635  -0.002  1.00  0.00    -0.204 OA
HETATM    3  C4  UNL     1      -1.770  -0.258   0.000  1.00  0.00     0.056 C 
ENDROOT
BRANCH   1   4
HETATM    4  C1  UNL     1       0.334   0.379   1.239  1.00  0.00     0.225 C 
HETATM    5  O4  UNL     1      -0.383   0.898   2.059  1.00  0.00    -0.645 OA
HETATM    6  O5  UNL     1       1.658   0.316   1.342  1.00  0.00    -0.645 OA
ENDBRANCH   1   4
BRANCH   1   7
HETATM    7  C3  UNL     1       0.334   0.383  -1.236  1.00  0.00     0.225 C 
HETATM    8  O2  UNL     1      -0.383   0.910  -2.054  1.00  0.00    -0.645 OA
HETATM    9  O3  UNL     1       1.658   0.318  -1.344  1.00  0.00    -0.645 OA
ENDBRANCH   1   7
TORSDOF 2
