REMARK  2 active torsions:
REMARK  status: ('A' for Active; 'I' for Inactive)
REMARK    1  A    between atoms: O1_1  and  C1_2 
REMARK    2  A    between atoms: C4_7  and  C7_10 
ROOT
HETATM    1  C1  UNL     1      -1.439  -0.277  -0.018  1.00  0.00     0.121 A 
HETATM    2  C2  UNL     1      -0.676  -1.460  -0.018  1.00  0.00     0.178 A 
HETATM    3  O2  UNL     1      -1.280  -2.632  -0.018  1.00  0.00    -0.186 OA
HETATM    4  C3  UNL     1       0.731  -1.392  -0.018  1.00  0.00     0.158 A 
HETATM    5  O3  UNL     1       1.440  -2.505  -0.018  1.00  0.00    -0.188 OA
HETATM    6  C4  UNL     1       1.372  -0.138  -0.018  1.00  0.00     0.028 A 
HETATM    7  C5  UNL     1       0.608   1.042  -0.018  1.00  0.00     0.004 A 
HETATM    8  C6  UNL     1      -0.794   0.972  -0.018  1.00  0.00     0.026 A 
ENDROOT
BRANCH   1   9
HETATM    9  O1  UNL     1      -2.756  -0.335  -0.018  1.00  0.00    -0.326 OA
HETATM   10  C9  UNL     1      -3.478   0.883   0.084  1.00  0.00     0.181 C 
ENDBRANCH   1   9
BRANCH   6  11
HETATM   11  C7  UNL     1       2.864  -0.051  -0.018  1.00  0.00     0.002 C 
HETATM   12  C8  UNL     1       3.439   1.163  -0.018  1.00  0.00     0.000 C 
ENDBRANCH   6  11
TORSDOF 2
