REMARK  2 active torsions:
REMARK  status: ('A' for Active; 'I' for Inactive)
REMARK    1  A    between atoms: C4_4  and  C7_7 
REMARK    2  A    between atoms: C8_8  and  C9_9 
ROOT
HETATM    1  C1  UNL     1      -1.510  -2.254  -0.205  1.00  0.00     0.156 A 
HETATM    2  C2  UNL     1      -2.256  -1.063  -0.205  1.00  0.00     0.156 A 
HETATM    3  C3  UNL     1      -1.594   0.180  -0.205  1.00  0.00     0.029 A 
HETATM    4  C4  UNL     1      -0.190   0.232  -0.205  1.00  0.00     0.002 A 
HETATM    5  C5  UNL     1       0.557  -0.959  -0.205  1.00  0.00     0.002 A 
HETATM    6  C6  UNL     1      -0.104  -2.199  -0.205  1.00  0.00     0.029 A 
HETATM    7  O3  UNL     1      -3.574  -1.104  -0.205  1.00  0.00    -0.188 OA
HETATM    8  O4  UNL     1      -2.121  -3.422  -0.205  1.00  0.00    -0.188 OA
ENDROOT
BRANCH   4   9
HETATM    9  C7  UNL     1       0.510   1.553  -0.205  1.00  0.00     0.006 C 
HETATM   10  C8  UNL     1       1.715   1.644   0.379  1.00  0.00     0.070 C 
BRANCH  10  11
HETATM   11  C9  UNL     1       2.439   2.920   0.404  1.00  0.00     0.211 C 
HETATM   12  O1  UNL     1       1.959   3.906  -0.103  1.00  0.00    -0.644 OA
HETATM   13  O2  UNL     1       3.623   2.900   1.008  1.00  0.00    -0.644 OA
ENDBRANCH  10  11
ENDBRANCH   4   9
TORSDOF 2
