REMARK  1 active torsions:
REMARK  status: ('A' for Active; 'I' for Inactive)
REMARK    1  A    between atoms: C5_5  and  C6_7 
ROOT
HETATM    1  C1  UNL     1      -0.686   0.369   0.734  1.00  0.00     0.127 C 
HETATM    2  C2  UNL     1       0.715  -0.129   1.248  1.00  0.00     0.123 C 
HETATM    3  C3  UNL     1       1.285   1.285   1.180  1.00  0.00     0.136 C 
HETATM    4  C4  UNL     1       0.928   1.506  -0.342  1.00  0.00     0.061 C 
HETATM    5  C5  UNL     1      -0.252   0.547  -0.738  1.00  0.00     0.137 C 
HETATM    6  O1  UNL     1      -1.162   1.203  -1.606  1.00  0.00    -0.226 OA
HETATM    7  O2  UNL     1       2.691   1.244   1.404  1.00  0.00    -0.304 OA
HETATM    8  C10 UNL     1       3.098   0.033   1.064  1.00  0.00     0.272 C 
HETATM    9  C11 UNL     1       1.971  -0.838   0.611  1.00  0.00     0.108 C 
HETATM   10  O3  UNL     1       4.242  -0.356   1.113  1.00  0.00    -0.264 OA
HETATM   11  C12 UNL     1       0.342  -1.117   2.318  1.00  0.00     0.276 C 
HETATM   12  O4  UNL     1      -0.795  -1.736   1.975  1.00  0.00    -0.275 OA
HETATM   13  C13 UNL     1      -1.568  -0.633   1.551  1.00  0.00     0.255 C 
HETATM   14  O5  UNL     1      -2.828  -0.647   0.908  1.00  0.00    -0.273 OA
HETATM   15  C14 UNL     1      -3.016   0.676   0.758  1.00  0.00     0.305 C 
HETATM   16  C15 UNL     1      -1.762   1.457   1.148  1.00  0.00     0.245 C 
HETATM   17  O6  UNL     1      -1.674   2.744   0.562  1.00  0.00    -0.212 OA
HETATM   18  O7  UNL     1      -4.031   1.193   0.355  1.00  0.00    -0.261 OA
HETATM   19  O8  UNL     1       0.994  -1.322   3.314  1.00  0.00    -0.264 OA
ENDROOT
BRANCH   5  20
HETATM   20  C6  UNL     1      -0.047  -0.789  -1.453  1.00  0.00     0.026 C 
HETATM   21  C7  UNL     1      -1.268  -1.094  -2.324  1.00  0.00     0.002 C 
HETATM   22  C8  UNL     1       0.229  -1.883  -0.422  1.00  0.00     0.002 C 
HETATM   23  C9  UNL     1       1.190  -0.430  -2.277  1.00  0.00     0.002 C 
ENDBRANCH   5  20
TORSDOF 1
