REMARK  5 active torsions:
REMARK  status: ('A' for Active; 'I' for Inactive)
REMARK    1  A    between atoms: C15_18  and  C18_22 
REMARK    2  A    between atoms: C18_22  and  C19_23 
REMARK    3  A    between atoms: C19_23  and  C20_24 
REMARK    4  A    between atoms: C20_24  and  C21_25 
REMARK    5  A    between atoms: C22_26  and  C24_28 
ROOT
HETATM    1  C1  UNL     1       5.639   0.365  -1.623  1.00  0.00     0.033 C 
HETATM    2  C2  UNL     1       6.090   1.414  -0.596  1.00  0.00     0.152 C 
HETATM    3  C3  UNL     1       5.398   1.217   0.777  1.00  0.00     0.029 C 
HETATM    4  C4  UNL     1       3.850   1.219   0.588  1.00  0.00     0.009 C 
HETATM    5  C5  UNL     1       3.344   0.193  -0.475  1.00  0.00     0.021 C 
HETATM    6  C6  UNL     1       4.115   0.379  -1.807  1.00  0.00     0.007 C 
HETATM    7  C7  UNL     1       1.842   0.320  -0.764  1.00  0.00     0.009 C 
HETATM    8  C8  UNL     1       1.129   1.426  -0.406  1.00  0.00    -0.009 C 
HETATM    9  C9  UNL     1       1.754   2.604   0.320  1.00  0.00     0.171 C 
HETATM   10  C10 UNL     1       3.285   2.615   0.266  1.00  0.00     0.038 C 
HETATM   11  O1  UNL     1       1.359   2.568   1.680  1.00  0.00    -0.219 OA
HETATM   12  C11 UNL     1      -0.356   1.463  -0.758  1.00  0.00     0.071 C 
HETATM   13  C12 UNL     1      -0.969   0.080  -0.437  1.00  0.00     0.045 C 
HETATM   14  C13 UNL     1      -0.363  -0.906  -1.451  1.00  0.00     0.213 C 
HETATM   15  C14 UNL     1       1.156  -0.818  -1.461  1.00  0.00     0.199 C 
HETATM   16  O2  UNL     1       1.801  -1.668  -2.031  1.00  0.00    -0.289 OA
HETATM   17  O3  UNL     1      -0.781  -2.225  -1.148  1.00  0.00    -0.215 OA
HETATM   18  C15 UNL     1      -2.483   0.375  -0.484  1.00  0.00     0.011 C 
HETATM   19  C16 UNL     1      -2.570   1.689   0.305  1.00  0.00     0.065 C 
HETATM   20  C17 UNL     1      -1.266   2.381   0.022  1.00  0.00     0.153 C 
HETATM   21  O4  UNL     1      -1.014   3.514   0.365  1.00  0.00    -0.296 OA
HETATM   22  C26 UNL     1      -0.631  -0.328   1.014  1.00  0.00     0.004 C 
HETATM   23  C27 UNL     1      -0.500   1.863  -2.229  1.00  0.00     0.012 C 
HETATM   24  C28 UNL     1       3.588  -1.225   0.063  1.00  0.00     0.004 C 
HETATM   25  C29 UNL     1       5.846  -0.105   1.422  1.00  0.00     0.003 C 
HETATM   26  C30 UNL     1       5.818   2.330   1.748  1.00  0.00     0.003 C 
HETATM   27  O8  UNL     1       7.500   1.350  -0.463  1.00  0.00    -0.224 OA
ENDROOT
BRANCH  18  28
HETATM   28  C18 UNL     1      -3.371  -0.715   0.109  1.00  0.00     0.003 C 
HETATM   29  C25 UNL     1      -3.504  -1.865  -0.889  1.00  0.00     0.000 C 
BRANCH  28  30
HETATM   30  C19 UNL     1      -4.721  -0.115   0.504  1.00  0.00     0.038 C 
BRANCH  30  31
HETATM   31  C20 UNL     1      -5.428  -0.922   1.594  1.00  0.00     0.174 C 
HETATM   32  O7  UNL     1      -4.707  -0.768   2.795  1.00  0.00    -0.219 OA
BRANCH  31  33
HETATM   33  C21 UNL     1      -5.529  -2.383   1.254  1.00  0.00     0.008 C 
HETATM   34  C22 UNL     1      -6.635  -2.822   0.631  1.00  0.00     0.041 C 
HETATM   35  C23 UNL     1      -7.719  -1.828   0.307  1.00  0.00     0.037 C 
BRANCH  34  36
HETATM   36  C24 UNL     1      -6.838  -4.227   0.254  1.00  0.00     0.206 C 
HETATM   37  O5  UNL     1      -7.953  -4.674   0.135  1.00  0.00    -0.644 OA
HETATM   38  O6  UNL     1      -5.731  -4.938   0.063  1.00  0.00    -0.644 OA
ENDBRANCH  34  36
ENDBRANCH  31  33
ENDBRANCH  30  31
ENDBRANCH  28  30
ENDBRANCH  18  28
TORSDOF 5
