REMARK  4 active torsions:
REMARK  status: ('A' for Active; 'I' for Inactive)
REMARK    1  A    between atoms: C16_17  and  C19_20 
REMARK    2  A    between atoms: C19_20  and  C21_23 
REMARK    3  A    between atoms: C22_24  and  C23_26 
REMARK    4  A    between atoms: C23_26  and  C24_27 
ROOT
HETATM    1  C1  UNL     1      -6.305  -0.461  -0.471  1.00  0.00     0.033 C 
HETATM    2  C2  UNL     1      -6.270   0.148   0.951  1.00  0.00     0.153 C 
HETATM    3  C3  UNL     1      -6.303   1.686   0.939  1.00  0.00     0.041 C 
HETATM    4  C4  UNL     1      -5.193   2.322   0.062  1.00  0.00     0.065 C 
HETATM    5  C5  UNL     1      -4.561   1.371  -0.996  1.00  0.00     0.011 C 
HETATM    6  C6  UNL     1      -5.680   0.455  -1.541  1.00  0.00     0.003 C 
HETATM    7  C7  UNL     1      -3.377   0.508  -0.436  1.00  0.00     0.021 C 
HETATM    8  C8  UNL     1      -2.502   1.219   0.594  1.00  0.00    -0.015 C 
HETATM    9  C9  UNL     1      -2.865   2.387   1.160  1.00  0.00     0.031 C 
HETATM   10  C10 UNL     1      -4.148   3.045   0.883  1.00  0.00     0.172 C 
HETATM   11  O1  UNL     1      -4.357   4.156   1.309  1.00  0.00    -0.291 OA
HETATM   12  C11 UNL     1      -1.209   0.519   0.973  1.00  0.00     0.142 C 
HETATM   13  C12 UNL     1      -0.424   0.076  -0.277  1.00  0.00     0.032 C 
HETATM   14  C13 UNL     1      -1.277  -0.904  -1.098  1.00  0.00     0.003 C 
HETATM   15  C14 UNL     1      -2.553  -0.172  -1.568  1.00  0.00     0.004 C 
HETATM   16  C15 UNL     1      -0.037   1.297  -1.131  1.00  0.00     0.003 C 
HETATM   17  C16 UNL     1       0.865  -0.492   0.334  1.00  0.00     0.033 C 
HETATM   18  C17 UNL     1       1.174   0.494   1.475  1.00  0.00     0.005 C 
HETATM   19  C18 UNL     1      -0.117   1.283   1.740  1.00  0.00     0.035 C 
HETATM   20  O5  UNL     1      -1.582  -0.596   1.775  1.00  0.00    -0.222 OA
HETATM   21  C28 UNL     1      -4.051   2.258  -2.147  1.00  0.00     0.001 C 
HETATM   22  O6  UNL     1      -7.357  -0.342   1.707  1.00  0.00    -0.223 OA
ENDROOT
BRANCH  17  23
HETATM   23  C19 UNL     1       2.033  -0.641  -0.639  1.00  0.00     0.154 C 
HETATM   24  C20 UNL     1       1.584  -1.451  -1.854  1.00  0.00     0.036 C 
HETATM   25  O2  UNL     1       2.473   0.650  -1.002  1.00  0.00    -0.223 OA
BRANCH  23  26
HETATM   26  C21 UNL     1       3.184  -1.357   0.053  1.00  0.00     0.173 A 
HETATM   27  C22 UNL     1       4.584  -0.676   0.248  1.00  0.00     0.173 A 
HETATM   28  O3  UNL     1       4.238  -1.463  -0.846  1.00  0.00    -0.349 OA
BRANCH  27  29
HETATM   29  C23 UNL     1       5.713  -1.367   0.998  1.00  0.00     0.154 C 
HETATM   30  O4  UNL     1       6.133  -0.520   2.043  1.00  0.00    -0.223 OA
HETATM   31  C27 UNL     1       5.195  -2.672   1.607  1.00  0.00     0.036 C 
BRANCH  29  32
HETATM   32  C24 UNL     1       6.895  -1.586   0.053  1.00  0.00     0.031 C 
HETATM   33  C25 UNL     1       7.485  -0.273  -0.465  1.00  0.00     0.003 C 
HETATM   34  C26 UNL     1       7.955  -2.520   0.641  1.00  0.00     0.003 C 
ENDBRANCH  29  32
ENDBRANCH  27  29
ENDBRANCH  23  26
ENDBRANCH  17  23
TORSDOF 4
