REMARK  4 active torsions:
REMARK  status: ('A' for Active; 'I' for Inactive)
REMARK    1  A    between atoms: C4_4  and  O3_9 
REMARK    2  A    between atoms: C5_6  and  C6_7 
REMARK    3  A    between atoms: O3_9  and  C7_10 
REMARK    4  A    between atoms: C13_17  and  C16_21 
ROOT
HETATM    1  C7  UNL     1      -1.141   0.246   0.764  1.00  0.00     0.101 A 
HETATM    2  C8  UNL     1      -0.988  -1.061   1.281  1.00  0.00     0.052 A 
HETATM    3  C9  UNL     1       0.305  -1.598   1.490  1.00  0.00     0.138 A 
HETATM    4  C10 UNL     1       1.447  -0.816   1.176  1.00  0.00     0.087 A 
HETATM    5  C11 UNL     1       1.295   0.498   0.658  1.00  0.00     0.107 A 
HETATM    6  C12 UNL     1      -0.002   1.025   0.453  1.00  0.00     0.049 A 
HETATM    7  O4  UNL     1       2.381   1.244   0.359  1.00  0.00    -0.307 OA
HETATM    8  C13 UNL     1       3.649   0.814   0.525  1.00  0.00     0.103 A 
HETATM    9  C14 UNL     1       3.916  -0.420   1.012  1.00  0.00     0.067 A 
HETATM   10  C15 UNL     1       2.824  -1.346   1.379  1.00  0.00     0.202 A 
HETATM   11  O5  UNL     1       3.141  -2.432   1.805  1.00  0.00    -0.286 OA
HETATM   12  O8  UNL     1       0.432  -2.840   1.981  1.00  0.00    -0.190 OA
ENDROOT
BRANCH   1  13
HETATM   13  O3  UNL     1      -2.367   0.750   0.570  1.00  0.00    -0.305 OA
BRANCH  13  14
HETATM   14  C4  UNL     1      -3.455  -0.160   0.473  1.00  0.00     0.242 C 
HETATM   15  C3  UNL     1      -4.752   0.619   0.176  1.00  0.00     0.098 C 
HETATM   16  C2  UNL     1      -5.941  -0.326  -0.062  1.00  0.00     0.190 C 
HETATM   17  C1  UNL     1      -5.539  -1.393  -1.107  1.00  0.00     0.212 C 
HETATM   18  O9  UNL     1      -6.289  -0.928   1.174  1.00  0.00    -0.221 OA
HETATM   19  C5  UNL     1      -4.201  -2.086  -0.752  1.00  0.00     0.184 C 
HETATM   20  O10 UNL     1      -6.561  -2.361  -1.262  1.00  0.00    -0.218 OA
HETATM   21  O1  UNL     1      -3.195  -1.094  -0.566  1.00  0.00    -0.328 OA
BRANCH  19  22
HETATM   22  C6  UNL     1      -3.701  -3.024  -1.855  1.00  0.00     0.214 C 
HETATM   23  O2  UNL     1      -2.568  -3.709  -1.373  1.00  0.00    -0.218 OA
ENDBRANCH  19  22
ENDBRANCH  13  14
ENDBRANCH   1  13
BRANCH   8  24
HETATM   24  C16 UNL     1       4.791   1.711   0.172  1.00  0.00     0.025 A 
HETATM   25  C17 UNL     1       4.619   2.719  -0.793  1.00  0.00     0.032 A 
HETATM   26  C18 UNL     1       5.692   3.566  -1.131  1.00  0.00     0.156 A 
HETATM   27  C19 UNL     1       6.940   3.402  -0.500  1.00  0.00     0.156 A 
HETATM   28  O7  UNL     1       5.524   4.510  -2.035  1.00  0.00    -0.188 OA
HETATM   29  C20 UNL     1       7.108   2.393   0.465  1.00  0.00     0.030 A 
HETATM   30  O6  UNL     1       7.949   4.189  -0.811  1.00  0.00    -0.188 OA
HETATM   31  C21 UNL     1       6.037   1.547   0.801  1.00  0.00     0.004 A 
ENDBRANCH   8  24
TORSDOF 4
