REMARK  0 active torsions:
REMARK  status: ('A' for Active; 'I' for Inactive)
ROOT
HETATM    1  C1  UNL     1       2.986  -1.148  -0.188  1.00  0.00     0.035 C 
HETATM    2  C2  UNL     1       2.906   0.127  -1.031  1.00  0.00     0.033 C 
HETATM    3  C3  UNL     1       1.777   1.064  -0.555  1.00  0.00     0.127 C 
HETATM    4  C4  UNL     1       0.416   0.314  -0.494  1.00  0.00     0.035 C 
HETATM    5  C5  UNL     1       0.479  -0.988   0.375  1.00  0.00     0.036 C 
HETATM    6  C6  UNL     1       1.631  -1.881  -0.162  1.00  0.00     0.152 C 
HETATM    7  O1  UNL     1       1.772  -3.053   0.621  1.00  0.00    -0.224 OA
HETATM    8  C7  UNL     1      -0.877  -1.758   0.281  1.00  0.00     0.067 C 
HETATM    9  C8  UNL     1      -2.090  -0.889   0.648  1.00  0.00     0.242 C 
HETATM   10  C9  UNL     1      -2.029   0.418  -0.086  1.00  0.00     0.011 C 
HETATM   11  C10 UNL     1      -0.768   1.238  -0.100  1.00  0.00     0.029 C 
HETATM   12  C11 UNL     1      -3.191   0.635  -0.699  1.00  0.00     0.038 C 
HETATM   13  C12 UNL     1      -4.020  -0.541  -0.484  1.00  0.00     0.293 C 
HETATM   14  O2  UNL     1      -3.338  -1.463   0.217  1.00  0.00    -0.271 OA
HETATM   15  O3  UNL     1      -5.150  -0.652  -0.895  1.00  0.00    -0.259 OA
HETATM   16  C13 UNL     1      -3.574   1.859  -1.490  1.00  0.00     0.036 C 
HETATM   17  O4  UNL     1      -2.146  -0.664   2.045  1.00  0.00    -0.191 OA
HETATM   18  C14 UNL     1       0.760  -0.625   1.846  1.00  0.00     0.003 C 
HETATM   19  C15 UNL     1       2.143   1.744   0.771  1.00  0.00     0.033 C 
HETATM   20  O5  UNL     1       1.684   2.109  -1.506  1.00  0.00    -0.226 OA
ENDROOT
TORSDOF 0
