REMARK  1 active torsions:
REMARK  status: ('A' for Active; 'I' for Inactive)
REMARK    1  A    between atoms: C6_6  and  O1_7 
ROOT
HETATM    1  C1  UNL     1      -1.426  -0.078  -0.029  1.00  0.00     0.049 A 
HETATM    2  C2  UNL     1      -1.293  -0.922  -1.094  1.00  0.00     0.129 A 
HETATM    3  C3  UNL     1      -0.055  -1.396  -1.580  1.00  0.00     0.176 A 
HETATM    4  C4  UNL     1       1.094  -0.935  -0.877  1.00  0.00     0.132 A 
HETATM    5  C5  UNL     1       0.967  -0.051   0.244  1.00  0.00     0.048 A 
HETATM    6  C6  UNL     1      -0.311   0.402   0.697  1.00  0.00     0.098 A 
HETATM    7  C8  UNL     1       2.213   0.389   0.932  1.00  0.00     0.009 A 
HETATM    8  C9  UNL     1       3.402  -0.057   0.485  1.00  0.00     0.069 A 
HETATM    9  C10 UNL     1       3.463  -0.969  -0.678  1.00  0.00     0.300 A 
HETATM   10  O2  UNL     1       2.318  -1.348  -1.279  1.00  0.00    -0.271 OA
HETATM   11  O3  UNL     1       4.547  -1.350  -1.055  1.00  0.00    -0.259 OA
HETATM   12  O4  UNL     1       0.172  -2.219  -2.611  1.00  0.00    -0.186 OA
HETATM   13  O5  UNL     1      -2.537  -1.232  -1.615  1.00  0.00    -0.303 OA
HETATM   14  C11 UNL     1      -3.442  -0.514  -0.783  1.00  0.00     0.123 A 
HETATM   15  C12 UNL     1      -2.731   0.203   0.203  1.00  0.00     0.031 A 
ENDROOT
BRANCH   6  16
HETATM   16  O1  UNL     1      -0.315   1.231   1.754  1.00  0.00    -0.328 OA
HETATM   17  C7  UNL     1      -1.299   2.252   1.799  1.00  0.00     0.181 C 
ENDBRANCH   6  16
TORSDOF 1
