REMARK  7 active torsions:
REMARK  status: ('A' for Active; 'I' for Inactive)
REMARK    1  A    between atoms: C5_7  and  C8_10 
REMARK    2  A    between atoms: C9_11  and  C10_12 
REMARK    3  A    between atoms: C10_12  and  C11_13 
REMARK    4  A    between atoms: C11_13  and  C12_14 
REMARK    5  A    between atoms: C12_14  and  C13_15 
REMARK    6  A    between atoms: C13_15  and  C14_16 
REMARK    7  A    between atoms: C15_17  and  C16_18 
REMARK       I    between atoms: C16_18  and  N1_19 
ROOT
HETATM    1  C11 UNL     1       0.086   0.916   0.666  1.00  0.00     0.005 C 
ENDROOT
BRANCH   1   2
HETATM    2  C10 UNL     1      -0.459   1.527   1.957  1.00  0.00     0.026 C 
BRANCH   2   3
HETATM    3  C9  UNL     1      -0.010   2.951   2.153  1.00  0.00    -0.026 C 
HETATM    4  C8  UNL     1      -0.941   3.893   2.373  1.00  0.00    -0.004 C 
BRANCH   4   5
HETATM    5  C5  UNL     1      -0.504   5.291   2.565  1.00  0.00     0.002 A 
HETATM    6  C4  UNL     1      -1.256   6.162   3.383  1.00  0.00     0.026 A 
HETATM    7  C3  UNL     1      -0.852   7.508   3.582  1.00  0.00     0.119 A 
HETATM    8  C2  UNL     1       0.309   7.979   2.957  1.00  0.00     0.119 A 
HETATM    9  O2  UNL     1      -1.391   8.494   4.299  1.00  0.00    -0.300 OA
HETATM   10  O1  UNL     1       0.490   9.258   3.285  1.00  0.00    -0.300 OA
HETATM   11  C7  UNL     1       1.061   7.102   2.133  1.00  0.00     0.026 A 
HETATM   12  C1  UNL     1      -0.574   9.680   4.166  1.00  0.00     0.304 A 
HETATM   13  C6  UNL     1       0.664   5.760   1.932  1.00  0.00     0.002 A 
ENDBRANCH   4   5
ENDBRANCH   2   3
ENDBRANCH   1   2
BRANCH   1  14
HETATM   14  C12 UNL     1      -0.359  -0.533   0.467  1.00  0.00     0.005 C 
BRANCH  14  15
HETATM   15  C13 UNL     1       0.182  -1.144  -0.826  1.00  0.00     0.026 C 
BRANCH  15  16
HETATM   16  C14 UNL     1      -0.254  -2.574  -1.012  1.00  0.00    -0.021 C 
HETATM   17  C15 UNL     1      -0.857  -2.914  -2.162  1.00  0.00     0.056 C 
BRANCH  17  18
HETATM   18  C16 UNL     1      -1.301  -4.295  -2.394  1.00  0.00     0.257 C 
HETATM   19  N1  UNL     1      -0.445  -5.205  -2.953  1.00  0.00    -0.317 N 
HETATM   20  C17 UNL     1      -0.871  -6.605  -3.189  1.00  0.00     0.104 C 
HETATM   21  C21 UNL     1       0.936  -4.816  -3.338  1.00  0.00     0.104 C 
HETATM   22  C18 UNL     1       0.182  -7.607  -2.683  1.00  0.00     0.024 C 
HETATM   23  C19 UNL     1       1.590  -7.277  -3.199  1.00  0.00     0.004 C 
HETATM   24  C20 UNL     1       1.969  -5.836  -2.830  1.00  0.00     0.024 C 
HETATM   25  O3  UNL     1      -2.422  -4.635  -2.094  1.00  0.00    -0.267 OA
ENDBRANCH  17  18
ENDBRANCH  15  16
ENDBRANCH  14  15
ENDBRANCH   1  14
TORSDOF 7
