REMARK  5 active torsions:
REMARK  status: ('A' for Active; 'I' for Inactive)
REMARK    1  A    between atoms: C5_5  and  C7_8 
REMARK    2  A    between atoms: C7_8  and  C8_9 
REMARK    3  A    between atoms: C8_9  and  C9_10 
REMARK    4  A    between atoms: C11_12  and  O3_18 
REMARK    5  A    between atoms: C14_15  and  O2_16 
ROOT
HETATM    1  C7  UNL     1      -0.268   0.053   0.711  1.00  0.00     0.033 C 
ENDROOT
BRANCH   1   2
HETATM    2  C5  UNL     1      -1.756   0.000   0.709  1.00  0.00     0.003 A 
HETATM    3  C4  UNL     1      -2.490   1.113   1.151  1.00  0.00    -0.004 A 
HETATM    4  C3  UNL     1      -3.897   1.074   1.153  1.00  0.00     0.003 A 
HETATM    5  C2  UNL     1      -4.571  -0.082   0.715  1.00  0.00     0.125 A 
HETATM    6  C17 UNL     1      -4.662   2.260   1.621  1.00  0.00     0.033 C 
HETATM    7  C1  UNL     1      -3.832  -1.197   0.274  1.00  0.00     0.028 A 
HETATM    8  O4  UNL     1      -5.889  -0.119   0.717  1.00  0.00    -0.191 OA
HETATM    9  C6  UNL     1      -2.424  -1.160   0.270  1.00  0.00     0.125 A 
HETATM   10  C18 UNL     1      -4.541  -2.420  -0.189  1.00  0.00     0.035 C 
HETATM   11  O1  UNL     1      -1.733  -2.205  -0.142  1.00  0.00    -0.191 OA
ENDBRANCH   1   2
BRANCH   1  12
HETATM   12  C8  UNL     1       0.287   0.291  -0.693  1.00  0.00     0.033 C 
BRANCH  12  13
HETATM   13  C9  UNL     1       1.775   0.334  -0.693  1.00  0.00     0.002 A 
HETATM   14  C10 UNL     1       2.435   1.576  -0.693  1.00  0.00     0.022 A 
HETATM   15  C11 UNL     1       3.840   1.631  -0.693  1.00  0.00     0.094 A 
HETATM   16  C12 UNL     1       4.584   0.439  -0.693  1.00  0.00     0.026 A 
HETATM   17  C13 UNL     1       3.926  -0.803  -0.693  1.00  0.00     0.026 A 
HETATM   18  C14 UNL     1       2.521  -0.859  -0.693  1.00  0.00     0.090 A 
BRANCH  15  19
HETATM   19  O3  UNL     1       4.457   2.795  -0.693  1.00  0.00    -0.328 OA
HETATM   20  C16 UNL     1       5.875   2.797  -0.631  1.00  0.00     0.181 C 
ENDBRANCH  15  19
BRANCH  18  21
HETATM   21  O2  UNL     1       1.914  -2.029  -0.693  1.00  0.00    -0.328 OA
HETATM   22  C15 UNL     1       2.719  -3.199  -0.693  1.00  0.00     0.181 C 
ENDBRANCH  18  21
ENDBRANCH  12  13
ENDBRANCH   1  12
TORSDOF 5
