REMARK  10 active torsions:
REMARK  status: ('A' for Active; 'I' for Inactive)
REMARK    1  A    between atoms: C1_2  and  C22_34 
REMARK    2  A    between atoms: C4_5  and  O6_22 
REMARK    3  A    between atoms: C5_6  and  O2_7 
REMARK    4  A    between atoms: O2_7  and  C6_8 
REMARK    5  A    between atoms: C7_9  and  O5_20 
REMARK    6  A    between atoms: C9_11  and  C13_16 
REMARK    7  A    between atoms: C11_13  and  O3_14 
REMARK    8  A    between atoms: C14_17  and  C15_18 
REMARK    9  A    between atoms: O6_22  and  C17_23 
REMARK   10  A    between atoms: C19_26  and  C21_30 
ROOT
HETATM    1  O1  UNL     1      -2.174  -0.477  -0.168  1.00  0.00    -0.326 OA
HETATM    2  C1  UNL     1      -3.354  -0.172   0.566  1.00  0.00     0.184 C 
HETATM    3  C2  UNL     1      -3.797   1.275   0.250  1.00  0.00     0.215 C 
HETATM    4  C3  UNL     1      -2.656   2.285   0.504  1.00  0.00     0.217 C 
HETATM    5  C4  UNL     1      -1.373   1.811  -0.213  1.00  0.00     0.207 C 
HETATM    6  C5  UNL     1      -1.053   0.342   0.133  1.00  0.00     0.271 C 
HETATM    7  O11 UNL     1      -3.029   3.566   0.023  1.00  0.00    -0.218 OA
HETATM    8  O12 UNL     1      -4.910   1.596   1.064  1.00  0.00    -0.218 OA
ENDROOT
BRANCH   6   9
HETATM    9  O2  UNL     1       0.061  -0.107  -0.629  1.00  0.00    -0.300 OA
BRANCH   9  10
HETATM   10  C6  UNL     1       0.557  -1.299  -0.357  1.00  0.00     0.141 A 
HETATM   11  C7  UNL     1       1.166  -1.539   0.889  1.00  0.00     0.118 A 
HETATM   12  C8  UNL     1       1.693  -2.811   1.174  1.00  0.00     0.026 A 
HETATM   13  C9  UNL     1       1.617  -3.840   0.221  1.00  0.00     0.004 A 
HETATM   14  C10 UNL     1       1.008  -3.596  -1.023  1.00  0.00     0.026 A 
HETATM   15  C11 UNL     1       0.478  -2.328  -1.315  1.00  0.00     0.118 A 
BRANCH  11  16
HETATM   16  O5  UNL     1       1.242  -0.578   1.787  1.00  0.00    -0.326 OA
HETATM   17  C16 UNL     1       1.750  -0.906   3.072  1.00  0.00     0.181 C 
ENDBRANCH  11  16
BRANCH  13  18
HETATM   18  C13 UNL     1       2.180  -5.190   0.527  1.00  0.00    -0.002 C 
HETATM   19  C14 UNL     1       1.691  -5.865   1.580  1.00  0.00     0.009 C 
BRANCH  19  20
HETATM   20  C15 UNL     1       0.602  -5.231   2.400  1.00  0.00     0.209 C 
HETATM   21  O4  UNL     1      -0.082  -6.229   3.125  1.00  0.00    -0.215 OA
ENDBRANCH  19  20
ENDBRANCH  13  18
BRANCH  15  22
HETATM   22  O3  UNL     1      -0.090  -2.106  -2.482  1.00  0.00    -0.326 OA
HETATM   23  C12 UNL     1      -0.145  -3.178  -3.412  1.00  0.00     0.181 C 
ENDBRANCH  15  22
ENDBRANCH   9  10
ENDBRANCH   6   9
BRANCH   5  24
HETATM   24  O6  UNL     1      -0.275   2.617   0.176  1.00  0.00    -0.324 OA
BRANCH  24  25
HETATM   25  C17 UNL     1       0.682   2.789  -0.850  1.00  0.00     0.270 C 
HETATM   26  O7  UNL     1       0.203   3.660  -1.854  1.00  0.00    -0.326 OA
HETATM   27  C18 UNL     1       1.002   4.824  -1.936  1.00  0.00     0.181 C 
HETATM   28  C19 UNL     1       2.393   4.383  -1.473  1.00  0.00     0.217 C 
HETATM   29  C20 UNL     1       1.953   3.465  -0.313  1.00  0.00     0.241 C 
HETATM   30  O9  UNL     1       3.049   3.682  -2.520  1.00  0.00    -0.218 OA
HETATM   31  O8  UNL     1       2.938   2.514   0.055  1.00  0.00    -0.215 OA
BRANCH  28  32
HETATM   32  C21 UNL     1       3.281   5.547  -1.045  1.00  0.00     0.218 C 
HETATM   33  O10 UNL     1       3.344   6.467  -2.109  1.00  0.00    -0.218 OA
ENDBRANCH  28  32
ENDBRANCH  24  25
ENDBRANCH   5  24
BRANCH   2  34
HETATM   34  C22 UNL     1      -4.402  -1.217   0.172  1.00  0.00     0.214 C 
HETATM   35  O13 UNL     1      -3.975  -2.471   0.652  1.00  0.00    -0.218 OA
ENDBRANCH   2  34
TORSDOF 10
