REMARK  1 active torsions:
REMARK  status: ('A' for Active; 'I' for Inactive)
REMARK    1  A    between atoms: C9_9  and  C11_11 
ROOT
HETATM    1  C1  UNL     1       3.041  -1.268  -0.443  1.00  0.00     0.008 C 
HETATM    2  C2  UNL     1       3.108   0.258  -0.557  1.00  0.00     0.065 C 
HETATM    3  C3  UNL     1       2.309   0.941   0.529  1.00  0.00     0.150 C 
HETATM    4  C4  UNL     1       0.885   0.455   0.760  1.00  0.00     0.051 C 
HETATM    5  C5  UNL     1       0.856  -1.102   0.879  1.00  0.00     0.006 C 
HETATM    6  C6  UNL     1       1.594  -1.762  -0.311  1.00  0.00     0.001 C 
HETATM    7  C7  UNL     1      -0.605  -1.608   0.941  1.00  0.00     0.000 C 
HETATM    8  C8  UNL     1      -1.476  -1.104  -0.219  1.00  0.00     0.000 C 
HETATM    9  C9  UNL     1      -1.445   0.426  -0.330  1.00  0.00     0.000 C 
HETATM   10  C10 UNL     1       0.002   0.937  -0.418  1.00  0.00     0.007 C 
HETATM   11  C14 UNL     1       1.559  -1.543   2.174  1.00  0.00     0.000 C 
HETATM   12  C15 UNL     1       0.348   1.086   2.057  1.00  0.00     0.007 C 
HETATM   13  O1  UNL     1       2.799   1.836   1.184  1.00  0.00    -0.296 OA
ENDROOT
BRANCH   9  14
HETATM   14  C11 UNL     1      -2.279   0.912  -1.520  1.00  0.00     0.000 C 
HETATM   15  C12 UNL     1      -3.730   0.435  -1.457  1.00  0.00     0.000 C 
HETATM   16  C13 UNL     1      -2.164   2.420  -1.744  1.00  0.00     0.000 C 
ENDBRANCH   9  14
TORSDOF 1
