REMARK  15 active torsions:
REMARK  status: ('A' for Active; 'I' for Inactive)
REMARK    1  A    between atoms: C2_2  and  O24_67 
REMARK    2  A    between atoms: C7_8  and  C38_58 
REMARK    3  A    between atoms: C8_9  and  O3_12 
REMARK    4  A    between atoms: O3_12  and  C10_13 
REMARK    5  A    between atoms: C11_15  and  C15_22 
REMARK    6  A    between atoms: C15_22  and  O8_23 
REMARK    7  A    between atoms: O8_23  and  C16_24 
REMARK    8  A    between atoms: C17_26  and  C37_56 
REMARK    9  A    between atoms: C19_28  and  O13_43 
REMARK   10  A    between atoms: C20_29  and  C21_30 
REMARK   11  A    between atoms: C21_30  and  C22_31 
REMARK   12  A    between atoms: C22_31  and  C23_33 
REMARK   13  A    between atoms: C24_34  and  C25_35 
REMARK   14  A    between atoms: O13_43  and  C31_44 
REMARK   15  A    between atoms: C32_46  and  C36_53 
ROOT
HETATM    1  O8  UNL     1       1.148  -0.885   1.529  1.00  0.00    -0.328 OA
ENDROOT
BRANCH   1   2
HETATM    2  C15 UNL     1       2.328  -0.318   2.051  1.00  0.00     0.177 C 
BRANCH   2   3
HETATM    3  C11 UNL     1       2.090   1.180   2.258  1.00  0.00     0.180 C 
HETATM    4  O4  UNL     1       1.824   1.734   0.975  1.00  0.00    -0.326 OA
HETATM    5  C10 UNL     1       1.486   3.115   0.979  1.00  0.00     0.274 C 
HETATM    6  C14 UNL     1       2.662   3.941   1.541  1.00  0.00     0.241 C 
HETATM    7  C13 UNL     1       3.084   3.432   2.938  1.00  0.00     0.220 C 
HETATM    8  O5  UNL     1       2.262   5.297   1.625  1.00  0.00    -0.215 OA
HETATM    9  C12 UNL     1       3.303   1.902   2.889  1.00  0.00     0.215 C 
HETATM   10  O6  UNL     1       4.281   4.076   3.342  1.00  0.00    -0.218 OA
HETATM   11  O7  UNL     1       3.494   1.404   4.201  1.00  0.00    -0.218 OA
BRANCH   5  12
HETATM   12  O3  UNL     1       1.201   3.520  -0.353  1.00  0.00    -0.298 OA
BRANCH  12  13
HETATM   13  C8  UNL     1      -0.057   3.936  -0.500  1.00  0.00     0.158 A 
HETATM   14  C7  UNL     1      -0.334   5.168  -0.996  1.00  0.00     0.125 A 
HETATM   15  O1  UNL     1      -1.604   5.602  -1.150  1.00  0.00    -0.305 OA
HETATM   16  C5  UNL     1      -2.691   4.867  -0.830  1.00  0.00     0.107 A 
HETATM   17  C4  UNL     1      -2.539   3.561  -0.301  1.00  0.00     0.091 A 
HETATM   18  C6  UNL     1      -3.986   5.402  -1.023  1.00  0.00     0.054 A 
HETATM   19  C3  UNL     1      -3.680   2.789   0.039  1.00  0.00     0.160 A 
HETATM   20  C9  UNL     1      -1.162   3.027  -0.111  1.00  0.00     0.224 A 
HETATM   21  C2  UNL     1      -4.975   3.330  -0.156  1.00  0.00     0.145 A 
HETATM   22  O23 UNL     1      -3.549   1.551   0.541  1.00  0.00    -0.188 OA
HETATM   23  C1  UNL     1      -5.127   4.635  -0.686  1.00  0.00     0.157 A 
HETATM   24  O25 UNL     1      -6.352   5.145  -0.871  1.00  0.00    -0.188 OA
HETATM   25  O2  UNL     1      -0.853   1.941   0.322  1.00  0.00    -0.284 OA
BRANCH  14  26
HETATM   26  C38 UNL     1       0.789   6.072  -1.383  1.00  0.00     0.027 A 
HETATM   27  C39 UNL     1       1.916   5.555  -2.045  1.00  0.00     0.004 A 
HETATM   28  C40 UNL     1       2.971   6.408  -2.408  1.00  0.00     0.030 A 
HETATM   29  C41 UNL     1       2.906   7.781  -2.113  1.00  0.00     0.156 A 
HETATM   30  C42 UNL     1       1.777   8.301  -1.449  1.00  0.00     0.156 A 
HETATM   31  O22 UNL     1       3.900   8.574  -2.457  1.00  0.00    -0.188 OA
HETATM   32  C43 UNL     1       0.723   7.445  -1.088  1.00  0.00     0.032 A 
HETATM   33  O21 UNL     1       1.709   9.586  -1.168  1.00  0.00    -0.188 OA
ENDBRANCH  14  26
BRANCH  21  34
HETATM   34  O24 UNL     1      -6.057   2.605   0.160  1.00  0.00    -0.324 OA
HETATM   35  C44 UNL     1      -6.869   3.057   1.234  1.00  0.00     0.182 C 
ENDBRANCH  21  34
ENDBRANCH  12  13
ENDBRANCH   5  12
ENDBRANCH   2   3
ENDBRANCH   1   2
BRANCH   1  36
HETATM   36  C16 UNL     1       1.125  -2.295   1.609  1.00  0.00     0.238 C 
HETATM   37  O9  UNL     1       0.879  -2.674   2.957  1.00  0.00    -0.328 OA
HETATM   38  C17 UNL     1       0.879  -4.074   3.195  1.00  0.00     0.183 C 
HETATM   39  C18 UNL     1      -0.246  -4.733   2.367  1.00  0.00     0.209 C 
HETATM   40  C19 UNL     1      -0.113  -4.383   0.867  1.00  0.00     0.156 C 
HETATM   41  O19 UNL     1      -0.180  -6.137   2.541  1.00  0.00    -0.218 OA
HETATM   42  C20 UNL     1       0.022  -2.858   0.680  1.00  0.00     0.094 C 
BRANCH  38  43
HETATM   43  C37 UNL     1       0.701  -4.268   4.705  1.00  0.00     0.214 C 
HETATM   44  O20 UNL     1       1.854  -3.775   5.352  1.00  0.00    -0.218 OA
ENDBRANCH  38  43
BRANCH  40  45
HETATM   45  O13 UNL     1      -1.250  -4.846   0.158  1.00  0.00    -0.329 OA
BRANCH  45  46
HETATM   46  C31 UNL     1      -1.230  -6.238  -0.078  1.00  0.00     0.270 C 
HETATM   47  O14 UNL     1      -2.193  -6.852   0.770  1.00  0.00    -0.326 OA
HETATM   48  C32 UNL     1      -2.258  -8.268   0.682  1.00  0.00     0.184 C 
HETATM   49  C33 UNL     1      -2.660  -8.674  -0.754  1.00  0.00     0.215 C 
HETATM   50  C34 UNL     1      -1.701  -8.063  -1.799  1.00  0.00     0.220 C 
HETATM   51  O17 UNL     1      -2.635 -10.088  -0.848  1.00  0.00    -0.218 OA
HETATM   52  C35 UNL     1      -1.562  -6.541  -1.561  1.00  0.00     0.241 C 
HETATM   53  O16 UNL     1      -2.199  -8.303  -3.105  1.00  0.00    -0.218 OA
HETATM   54  O15 UNL     1      -0.529  -6.029  -2.389  1.00  0.00    -0.215 OA
BRANCH  48  55
HETATM   55  C36 UNL     1      -3.268  -8.731   1.738  1.00  0.00     0.214 C 
HETATM   56  O18 UNL     1      -2.729  -8.457   3.012  1.00  0.00    -0.218 OA
ENDBRANCH  48  55
ENDBRANCH  45  46
ENDBRANCH  40  45
BRANCH  42  57
HETATM   57  C21 UNL     1       0.289  -2.496  -0.789  1.00  0.00     0.077 C 
BRANCH  57  58
HETATM   58  C22 UNL     1      -0.061  -1.066  -1.103  1.00  0.00     0.173 C 
HETATM   59  O10 UNL     1      -1.121  -0.598  -0.766  1.00  0.00    -0.291 OA
BRANCH  58  60
HETATM   60  C23 UNL     1       0.916  -0.248  -1.832  1.00  0.00     0.037 C 
HETATM   61  C24 UNL     1       0.547   0.906  -2.408  1.00  0.00     0.003 C 
BRANCH  61  62
HETATM   62  C25 UNL     1       1.576   1.705  -3.139  1.00  0.00     0.002 A 
HETATM   63  C26 UNL     1       2.914   1.693  -2.709  1.00  0.00     0.002 A 
HETATM   64  C27 UNL     1       3.881   2.445  -3.398  1.00  0.00     0.029 A 
HETATM   65  C28 UNL     1       3.514   3.211  -4.518  1.00  0.00     0.156 A 
HETATM   66  C29 UNL     1       2.174   3.225  -4.949  1.00  0.00     0.156 A 
HETATM   67  O12 UNL     1       4.426   3.914  -5.160  1.00  0.00    -0.188 OA
HETATM   68  C30 UNL     1       1.207   2.473  -4.260  1.00  0.00     0.029 A 
HETATM   69  O11 UNL     1       1.822   3.941  -6.000  1.00  0.00    -0.188 OA
ENDBRANCH  61  62
ENDBRANCH  58  60
ENDBRANCH  57  58
ENDBRANCH  42  57
ENDBRANCH   1  36
TORSDOF 15
