REMARK  6 active torsions:
REMARK  status: ('A' for Active; 'I' for Inactive)
REMARK    1  A    between atoms: C15_15  and  C18_18 
REMARK    2  A    between atoms: C18_18  and  C20_20 
REMARK    3  A    between atoms: C20_20  and  C21_21 
REMARK    4  A    between atoms: C21_21  and  C22_22 
REMARK    5  A    between atoms: C22_22  and  C23_23 
REMARK    6  A    between atoms: C23_23  and  C26_26 
ROOT
HETATM    1  C1  UNL     1       6.666  -0.072   1.080  1.00  0.00     0.033 C 
HETATM    2  C2  UNL     1       6.893  -0.891  -0.213  1.00  0.00     0.152 C 
HETATM    3  C3  UNL     1       5.748  -0.721  -1.266  1.00  0.00     0.029 C 
HETATM    4  C4  UNL     1       5.111   0.693  -1.100  1.00  0.00     0.010 C 
HETATM    5  C5  UNL     1       4.420   0.891   0.291  1.00  0.00     0.019 C 
HETATM    6  C6  UNL     1       5.178   0.090   1.391  1.00  0.00     0.007 C 
HETATM    7  C7  UNL     1       2.945   0.480   0.277  1.00  0.00    -0.031 C 
HETATM    8  C8  UNL     1       2.266   0.178  -1.014  1.00  0.00    -0.031 C 
HETATM    9  C9  UNL     1       2.836   0.459  -2.201  1.00  0.00    -0.031 C 
HETATM   10  C10 UNL     1       4.186   1.127  -2.256  1.00  0.00     0.026 C 
HETATM   11  C11 UNL     1       0.895  -0.467  -0.941  1.00  0.00     0.019 C 
HETATM   12  C12 UNL     1       0.074   0.203   0.178  1.00  0.00     0.007 C 
HETATM   13  C13 UNL     1       0.807  -0.039   1.504  1.00  0.00     0.026 C 
HETATM   14  C14 UNL     1       2.262   0.393   1.443  1.00  0.00    -0.031 C 
HETATM   15  C15 UNL     1      -1.287  -0.481   0.014  1.00  0.00     0.001 C 
HETATM   16  C16 UNL     1      -1.461  -0.547  -1.512  1.00  0.00     0.000 C 
HETATM   17  C17 UNL     1      -0.072  -0.307  -2.121  1.00  0.00     0.004 C 
HETATM   18  C27 UNL     1      -0.086   1.713  -0.070  1.00  0.00     0.001 C 
HETATM   19  C28 UNL     1       1.088  -1.975  -0.733  1.00  0.00     0.004 C 
HETATM   20  C29 UNL     1       4.461   2.387   0.641  1.00  0.00     0.004 C 
HETATM   21  C30 UNL     1       4.694  -1.811  -1.033  1.00  0.00     0.003 C 
HETATM   22  C31 UNL     1       6.270  -0.932  -2.699  1.00  0.00     0.003 C 
HETATM   23  O3  UNL     1       8.151  -0.502  -0.738  1.00  0.00    -0.224 OA
ENDROOT
BRANCH  15  24
HETATM   24  C18 UNL     1      -2.445   0.228   0.713  1.00  0.00     0.000 C 
HETATM   25  C19 UNL     1      -2.156   0.318   2.211  1.00  0.00     0.000 C 
BRANCH  24  26
HETATM   26  C20 UNL     1      -3.752  -0.502   0.406  1.00  0.00     0.003 C 
BRANCH  26  27
HETATM   27  C21 UNL     1      -4.986   0.351   0.699  1.00  0.00     0.033 C 
BRANCH  27  28
HETATM   28  C22 UNL     1      -6.293  -0.424   0.527  1.00  0.00     0.154 C 
HETATM   29  O2  UNL     1      -6.396  -0.822  -0.822  1.00  0.00    -0.223 OA
BRANCH  28  30
HETATM   30  C23 UNL     1      -7.525   0.412   0.873  1.00  0.00     0.059 C 
HETATM   31  C24 UNL     1      -8.020   1.252  -0.305  1.00  0.00     0.005 C 
HETATM   32  C25 UNL     1      -7.342   1.234   2.148  1.00  0.00     0.005 C 
BRANCH  30  33
HETATM   33  C26 UNL     1      -8.371  -0.844   1.098  1.00  0.00     0.185 C 
HETATM   34  O1  UNL     1      -8.117  -1.318   2.400  1.00  0.00    -0.221 OA
ENDBRANCH  30  33
ENDBRANCH  28  30
ENDBRANCH  27  28
ENDBRANCH  26  27
ENDBRANCH  24  26
ENDBRANCH  15  24
TORSDOF 6
