REMARK  2 active torsions:
REMARK  status: ('A' for Active; 'I' for Inactive)
REMARK    1  A    between atoms: C3_3  and  C19_22 
REMARK    2  A    between atoms: C19_22  and  O5_24 
ROOT
HETATM    1  C1  UNL     1       2.936  -2.199  -0.338  1.00  0.00     0.005 C 
HETATM    2  C2  UNL     1       3.437  -1.006  -1.141  1.00  0.00     0.014 C 
HETATM    3  C3  UNL     1       2.978   0.316  -0.494  1.00  0.00     0.097 C 
HETATM    4  C4  UNL     1       1.512   0.318  -0.174  1.00  0.00    -0.018 A 
HETATM    5  C5  UNL     1       0.746  -0.893  -0.090  1.00  0.00    -0.022 A 
HETATM    6  C6  UNL     1       1.402  -2.219  -0.297  1.00  0.00     0.026 C 
HETATM    7  C7  UNL     1      -0.658  -0.824   0.191  1.00  0.00     0.040 A 
HETATM    8  C8  UNL     1      -1.272   0.445   0.422  1.00  0.00     0.025 A 
HETATM    9  C9  UNL     1      -0.506   1.627   0.357  1.00  0.00     0.002 A 
HETATM   10  C10 UNL     1       0.869   1.563   0.062  1.00  0.00    -0.004 A 
HETATM   11  C11 UNL     1      -2.727   0.545   0.736  1.00  0.00     0.093 A 
HETATM   12  C12 UNL     1      -3.469  -0.566   0.812  1.00  0.00     0.044 A 
HETATM   13  C13 UNL     1      -2.936  -1.914   0.574  1.00  0.00     0.232 A 
HETATM   14  C14 UNL     1      -1.502  -2.072   0.238  1.00  0.00     0.234 A 
HETATM   15  O1  UNL     1      -1.147  -3.209   0.029  1.00  0.00    -0.283 OA
HETATM   16  O2  UNL     1      -3.664  -2.877   0.652  1.00  0.00    -0.283 OA
HETATM   17  C15 UNL     1      -4.891  -0.256   1.164  1.00  0.00     0.058 C 
HETATM   18  C16 UNL     1      -4.840   1.272   1.088  1.00  0.00     0.153 C 
HETATM   19  O3  UNL     1      -3.461   1.635   0.976  1.00  0.00    -0.331 OA
HETATM   20  C17 UNL     1      -5.262  -0.734   2.564  1.00  0.00     0.007 C 
HETATM   21  C18 UNL     1       3.764   0.555   0.803  1.00  0.00     0.014 C 
ENDROOT
BRANCH   3  22
HETATM   22  C19 UNL     1       3.350   1.418  -1.463  1.00  0.00     0.275 C 
HETATM   23  O4  UNL     1       4.352   2.076  -1.301  1.00  0.00    -0.264 OA
BRANCH  22  24
HETATM   24  O5  UNL     1       2.504   1.594  -2.473  1.00  0.00    -0.299 OA
HETATM   25  C20 UNL     1       2.908   2.643  -3.340  1.00  0.00     0.184 C 
ENDBRANCH  22  24
ENDBRANCH   3  22
TORSDOF 2
