REMARK  9 active torsions:
REMARK  status: ('A' for Active; 'I' for Inactive)
REMARK    1  A    between atoms: C4_4  and  O7_20 
REMARK    2  A    between atoms: C5_6  and  C6_7 
REMARK    3  A    between atoms: C6_7  and  O2_8 
REMARK    4  A    between atoms: O2_8  and  C7_9 
REMARK    5  A    between atoms: C7_9  and  C8_10 
REMARK    6  A    between atoms: O7_20  and  C14_21 
REMARK    7  A    between atoms: C17_24  and  C20_27 
REMARK    8  A    between atoms: C20_27  and  C21_28 
REMARK    9  A    between atoms: C21_28  and  C22_29 
ROOT
HETATM    1  C1  UNL     1      -2.055   4.266  -1.410  1.00  0.00     0.215 C 
HETATM    2  C2  UNL     1      -1.018   5.334  -1.002  1.00  0.00     0.220 C 
HETATM    3  C3  UNL     1       0.402   4.844  -1.363  1.00  0.00     0.241 C 
HETATM    4  C4  UNL     1       0.656   3.422  -0.818  1.00  0.00     0.274 C 
HETATM    5  O1  UNL     1      -0.357   2.541  -1.283  1.00  0.00    -0.326 OA
HETATM    6  C5  UNL     1      -1.676   2.869  -0.863  1.00  0.00     0.181 C 
HETATM    7  O9  UNL     1       1.371   5.719  -0.814  1.00  0.00    -0.215 OA
HETATM    8  O10 UNL     1      -1.289   6.553  -1.674  1.00  0.00    -0.218 OA
HETATM    9  O11 UNL     1      -3.332   4.619  -0.904  1.00  0.00    -0.218 OA
ENDROOT
BRANCH   6  10
HETATM   10  C6  UNL     1      -2.592   1.756  -1.379  1.00  0.00     0.184 C 
BRANCH  10  11
HETATM   11  O2  UNL     1      -2.199   0.518  -0.807  1.00  0.00    -0.296 OA
BRANCH  11  12
HETATM   12  C7  UNL     1      -2.969  -0.492  -1.205  1.00  0.00     0.296 C 
HETATM   13  O6  UNL     1      -3.807  -0.397  -2.070  1.00  0.00    -0.259 OA
BRANCH  12  14
HETATM   14  C8  UNL     1      -2.734  -1.787  -0.502  1.00  0.00     0.067 A 
HETATM   15  C9  UNL     1      -3.432  -2.941  -0.900  1.00  0.00     0.035 A 
HETATM   16  C10 UNL     1      -3.211  -4.164  -0.240  1.00  0.00     0.158 A 
HETATM   17  O3  UNL     1      -3.867  -5.242  -0.619  1.00  0.00    -0.188 OA
HETATM   18  C11 UNL     1      -2.291  -4.231   0.824  1.00  0.00     0.181 A 
HETATM   19  O4  UNL     1      -2.084  -5.375   1.443  1.00  0.00    -0.186 OA
HETATM   20  C12 UNL     1      -1.594  -3.076   1.225  1.00  0.00     0.158 A 
HETATM   21  O5  UNL     1      -0.730  -3.135   2.219  1.00  0.00    -0.188 OA
HETATM   22  C13 UNL     1      -1.816  -1.857   0.561  1.00  0.00     0.035 A 
ENDBRANCH  12  14
ENDBRANCH  11  12
ENDBRANCH  10  11
ENDBRANCH   6  10
BRANCH   4  23
HETATM   23  O7  UNL     1       1.918   2.947  -1.266  1.00  0.00    -0.304 OA
BRANCH  23  24
HETATM   24  C14 UNL     1       2.328   1.773  -0.830  1.00  0.00     0.097 A 
HETATM   25  C15 UNL     1       3.482   1.180  -1.373  1.00  0.00     0.024 A 
HETATM   26  C16 UNL     1       3.920  -0.072  -0.908  1.00  0.00    -0.002 A 
HETATM   27  C17 UNL     1       3.201  -0.736   0.102  1.00  0.00    -0.022 A 
HETATM   28  C18 UNL     1       2.049  -0.147   0.646  1.00  0.00    -0.002 A 
HETATM   29  C19 UNL     1       1.613   1.105   0.182  1.00  0.00     0.024 A 
BRANCH  27  30
HETATM   30  C20 UNL     1       3.664  -2.061   0.594  1.00  0.00     0.034 C 
BRANCH  30  31
HETATM   31  C21 UNL     1       2.754  -2.600   1.697  1.00  0.00     0.069 C 
BRANCH  31  32
HETATM   32  C22 UNL     1       3.213  -3.936   2.219  1.00  0.00     0.151 C 
HETATM   33  C23 UNL     1       2.387  -4.600   3.289  1.00  0.00     0.072 C 
HETATM   34  O8  UNL     1       4.215  -4.459   1.793  1.00  0.00    -0.296 OA
ENDBRANCH  31  32
ENDBRANCH  30  31
ENDBRANCH  27  30
ENDBRANCH  23  24
ENDBRANCH   4  23
TORSDOF 9
