REMARK  5 active torsions:
REMARK  status: ('A' for Active; 'I' for Inactive)
REMARK    1  A    between atoms: C16_17  and  C19_20 
REMARK    2  A    between atoms: C19_20  and  C21_22 
REMARK    3  A    between atoms: C21_22  and  C22_23 
REMARK    4  A    between atoms: C22_23  and  C23_24 
REMARK    5  A    between atoms: C23_24  and  C24_25 
ROOT
HETATM    1  C1  UNL     1       6.697   0.231  -0.705  1.00  0.00     0.182 C 
HETATM    2  C2  UNL     1       7.188  -0.787   0.350  1.00  0.00     0.185 C 
HETATM    3  C3  UNL     1       6.344  -2.084   0.402  1.00  0.00     0.074 C 
HETATM    4  C4  UNL     1       4.832  -1.879   0.078  1.00  0.00     0.184 C 
HETATM    5  C5  UNL     1       4.375  -0.408   0.336  1.00  0.00     0.039 C 
HETATM    6  C6  UNL     1       5.201   0.598  -0.524  1.00  0.00     0.039 C 
HETATM    7  C7  UNL     1       2.836  -0.221   0.137  1.00  0.00     0.024 C 
HETATM    8  C8  UNL     1       2.000  -1.338   0.728  1.00  0.00    -0.014 C 
HETATM    9  C9  UNL     1       2.541  -2.527   1.072  1.00  0.00     0.034 C 
HETATM   10  C10 UNL     1       3.955  -2.861   0.834  1.00  0.00     0.200 C 
HETATM   11  O1  UNL     1       4.393  -3.914   1.242  1.00  0.00    -0.289 OA
HETATM   12  C11 UNL     1       0.518  -1.039   0.877  1.00  0.00     0.142 C 
HETATM   13  C12 UNL     1      -0.004   0.000  -0.168  1.00  0.00     0.032 C 
HETATM   14  C13 UNL     1       0.811  -0.185  -1.473  1.00  0.00     0.003 C 
HETATM   15  C14 UNL     1       2.326   0.065  -1.297  1.00  0.00     0.004 C 
HETATM   16  C15 UNL     1       0.105   1.459   0.303  1.00  0.00     0.003 C 
HETATM   17  C16 UNL     1      -1.479  -0.394  -0.457  1.00  0.00     0.033 C 
HETATM   18  C17 UNL     1      -1.775  -1.603   0.428  1.00  0.00     0.005 C 
HETATM   19  C18 UNL     1      -0.404  -2.238   0.613  1.00  0.00     0.035 C 
HETATM   20  O5  UNL     1       0.291  -0.584   2.203  1.00  0.00    -0.222 OA
HETATM   21  C27 UNL     1       4.650  -0.092   1.820  1.00  0.00     0.003 C 
HETATM   22  O6  UNL     1       4.652  -2.180  -1.297  1.00  0.00    -0.218 OA
HETATM   23  O7  UNL     1       8.555  -1.107   0.160  1.00  0.00    -0.221 OA
HETATM   24  O8  UNL     1       6.900  -0.283  -2.012  1.00  0.00    -0.221 OA
ENDROOT
BRANCH  17  25
HETATM   25  C19 UNL     1      -2.531   0.682  -0.190  1.00  0.00     0.155 C 
HETATM   26  C20 UNL     1      -2.639   0.926   1.316  1.00  0.00     0.036 C 
HETATM   27  O4  UNL     1      -2.111   1.875  -0.811  1.00  0.00    -0.223 OA
BRANCH  25  28
HETATM   28  C21 UNL     1      -3.861   0.260  -0.816  1.00  0.00     0.180 C 
HETATM   29  O3  UNL     1      -3.678   0.152  -2.209  1.00  0.00    -0.221 OA
BRANCH  28  30
HETATM   30  C22 UNL     1      -4.981   1.268  -0.557  1.00  0.00     0.038 C 
BRANCH  30  31
HETATM   31  C23 UNL     1      -6.371   0.680  -0.799  1.00  0.00     0.033 C 
BRANCH  31  32
HETATM   32  C24 UNL     1      -7.494   1.656  -0.445  1.00  0.00     0.127 C 
HETATM   33  C25 UNL     1      -7.563   1.965   1.051  1.00  0.00     0.033 C 
HETATM   34  C26 UNL     1      -7.471   2.920  -1.307  1.00  0.00     0.033 C 
HETATM   35  O2  UNL     1      -8.727   1.006  -0.654  1.00  0.00    -0.226 OA
ENDBRANCH  31  32
ENDBRANCH  30  31
ENDBRANCH  28  30
ENDBRANCH  25  28
ENDBRANCH  17  25
TORSDOF 5
