REMARK  0 active torsions:
REMARK  status: ('A' for Active; 'I' for Inactive)
ROOT
HETATM    1  C1  UNL     1      -2.644   0.993   0.176  1.00  0.00     0.300 A 
HETATM    2  O1  UNL     1      -3.645   1.650   0.346  1.00  0.00    -0.259 OA
HETATM    3  C2  UNL     1      -2.783  -0.388  -0.342  1.00  0.00     0.069 A 
HETATM    4  C3  UNL     1      -1.687  -1.147  -0.545  1.00  0.00     0.007 A 
HETATM    5  C4  UNL     1      -0.352  -0.573  -0.238  1.00  0.00     0.023 A 
HETATM    6  C5  UNL     1       0.827  -1.330  -0.433  1.00  0.00     0.004 A 
HETATM    7  C6  UNL     1       2.084  -0.754  -0.129  1.00  0.00     0.028 A 
HETATM    8  C7  UNL     1       2.158   0.570   0.366  1.00  0.00     0.133 A 
HETATM    9  O2  UNL     1       3.351   1.111   0.653  1.00  0.00    -0.190 OA
HETATM   10  C8  UNL     1       0.976   1.325   0.559  1.00  0.00     0.052 A 
HETATM   11  C9  UNL     1      -0.284   0.757   0.258  1.00  0.00     0.105 A 
HETATM   12  O3  UNL     1      -1.413   1.477   0.442  1.00  0.00    -0.273 OA
ENDROOT
TORSDOF 0
