REMARK  1 active torsions:
REMARK  status: ('A' for Active; 'I' for Inactive)
REMARK    1  A    between atoms: C1_1  and  C2_2 
ROOT
HETATM    1  C2  UNL     1      -0.637   0.608   0.000  1.00  0.00     0.068 A 
HETATM    2  C3  UNL     1       0.771   0.660   0.000  1.00  0.00     0.134 A 
HETATM    3  C4  UNL     1       1.512  -0.535   0.000  1.00  0.00     0.028 A 
HETATM    4  C5  UNL     1       0.855  -1.777   0.000  1.00  0.00     0.002 A 
HETATM    5  C6  UNL     1      -0.549  -1.828   0.000  1.00  0.00     0.000 A 
HETATM    6  C7  UNL     1      -1.295  -0.637   0.000  1.00  0.00     0.005 A 
HETATM    7  O1  UNL     1       1.402   1.819   0.000  1.00  0.00    -0.190 OA
ENDROOT
BRANCH   1   8
HETATM    8  C1  UNL     1      -1.441   1.867   0.000  1.00  0.00     0.236 C 
HETATM    9  O2  UNL     1      -2.650   1.832   0.000  1.00  0.00    -0.283 OA
ENDBRANCH   1   8
TORSDOF 1
