REMARK  7 active torsions:
REMARK  status: ('A' for Active; 'I' for Inactive)
REMARK    1  A    between atoms: C4_4  and  O3_9 
REMARK    2  A    between atoms: C5_6  and  C6_7 
REMARK    3  A    between atoms: O3_9  and  C7_10 
REMARK    4  A    between atoms: C9_12  and  O6_18 
REMARK    5  A    between atoms: O6_18  and  C13_19 
REMARK    6  A    between atoms: C14_20  and  C41_48 
REMARK    7  A    between atoms: C28_34  and  C37_43 
ROOT
HETATM    1  C13 UNL     1      -2.602   0.096   1.090  1.00  0.00     0.120 C 
HETATM    2  C14 UNL     1      -1.963   1.330   1.805  1.00  0.00     0.056 C 
HETATM    3  C15 UNL     1      -0.545   0.996   2.379  1.00  0.00     0.005 C 
HETATM    4  C16 UNL     1       0.285   0.037   1.482  1.00  0.00     0.004 C 
HETATM    5  C17 UNL     1      -0.476  -1.316   1.336  1.00  0.00     0.003 C 
HETATM    6  C18 UNL     1      -1.998  -1.229   1.578  1.00  0.00     0.030 C 
HETATM    7  C19 UNL     1       1.684  -0.225   2.125  1.00  0.00     0.022 C 
HETATM    8  C20 UNL     1       2.481   1.061   2.502  1.00  0.00     0.007 C 
HETATM    9  C21 UNL     1       1.596   1.924   3.430  1.00  0.00     0.001 C 
HETATM   10  C22 UNL     1       0.244   2.260   2.785  1.00  0.00     0.000 C 
HETATM   11  C23 UNL     1       3.826   0.652   3.188  1.00  0.00     0.019 C 
HETATM   12  C24 UNL     1       4.645  -0.191   2.207  1.00  0.00    -0.031 C 
HETATM   13  C25 UNL     1       3.883  -1.164   1.379  1.00  0.00    -0.009 C 
HETATM   14  C26 UNL     1       2.537  -1.186   1.320  1.00  0.00    -0.027 C 
HETATM   15  C27 UNL     1       5.996  -0.068   2.090  1.00  0.00    -0.046 C 
HETATM   16  C28 UNL     1       6.803   0.975   2.861  1.00  0.00     0.046 C 
HETATM   17  C29 UNL     1       6.031   1.506   4.080  1.00  0.00     0.007 C 
HETATM   18  C30 UNL     1       4.606   1.889   3.688  1.00  0.00     0.004 C 
HETATM   19  C31 UNL     1       8.119   0.330   3.340  1.00  0.00     0.006 C 
HETATM   20  C32 UNL     1       8.996  -0.289   2.232  1.00  0.00     0.001 C 
HETATM   21  C33 UNL     1       8.258  -0.627   0.916  1.00  0.00     0.004 C 
HETATM   22  C34 UNL     1       6.781  -0.998   1.170  1.00  0.00     0.022 C 
HETATM   23  C35 UNL     1       8.334   0.559  -0.055  1.00  0.00     0.000 C 
HETATM   24  C36 UNL     1       8.959  -1.803   0.227  1.00  0.00     0.000 C 
HETATM   25  C38 UNL     1       3.561  -0.244   4.410  1.00  0.00     0.004 C 
HETATM   26  C39 UNL     1       2.807   1.883   1.240  1.00  0.00     0.001 C 
HETATM   27  C40 UNL     1       0.465   0.662   0.088  1.00  0.00     0.000 C 
HETATM   28  C42 UNL     1      -1.918   2.561   0.877  1.00  0.00     0.005 C 
ENDROOT
BRANCH   1  29
HETATM   29  O6  UNL     1      -2.455   0.148  -0.318  1.00  0.00    -0.332 OA
BRANCH  29  30
HETATM   30  C9  UNL     1      -3.268  -0.787  -1.000  1.00  0.00     0.270 C 
HETATM   31  C8  UNL     1      -3.832  -0.168  -2.305  1.00  0.00     0.238 C 
HETATM   32  C7  UNL     1      -4.586  -1.232  -3.135  1.00  0.00     0.186 C 
HETATM   33  O9  UNL     1      -4.721   0.889  -1.977  1.00  0.00    -0.215 OA
HETATM   34  C11 UNL     1      -3.709  -2.490  -3.330  1.00  0.00     0.209 C 
HETATM   35  C10 UNL     1      -3.174  -2.986  -1.963  1.00  0.00     0.151 C 
HETATM   36  O5  UNL     1      -2.619  -2.219  -4.199  1.00  0.00    -0.218 OA
HETATM   37  O4  UNL     1      -2.480  -1.936  -1.295  1.00  0.00    -0.329 OA
HETATM   38  C12 UNL     1      -2.221  -4.182  -2.074  1.00  0.00     0.035 C 
BRANCH  32  39
HETATM   39  O3  UNL     1      -5.006  -0.707  -4.387  1.00  0.00    -0.326 OA
BRANCH  39  40
HETATM   40  C4  UNL     1      -6.328  -0.211  -4.365  1.00  0.00     0.270 C 
HETATM   41  C3  UNL     1      -6.592   0.686  -5.604  1.00  0.00     0.241 C 
HETATM   42  C2  UNL     1      -8.076   1.107  -5.676  1.00  0.00     0.220 C 
HETATM   43  O10 UNL     1      -5.775   1.844  -5.525  1.00  0.00    -0.215 OA
HETATM   44  C1  UNL     1      -8.984  -0.133  -5.535  1.00  0.00     0.215 C 
HETATM   45  O11 UNL     1      -8.330   1.752  -6.914  1.00  0.00    -0.218 OA
HETATM   46  C5  UNL     1      -8.600  -0.975  -4.299  1.00  0.00     0.184 C 
HETATM   47  O12 UNL     1     -10.336   0.273  -5.404  1.00  0.00    -0.218 OA
HETATM   48  O1  UNL     1      -7.223  -1.314  -4.369  1.00  0.00    -0.326 OA
BRANCH  46  49
HETATM   49  C6  UNL     1      -9.375  -2.293  -4.207  1.00  0.00     0.214 C 
HETATM   50  O2  UNL     1      -9.090  -2.889  -2.963  1.00  0.00    -0.218 OA
ENDBRANCH  46  49
ENDBRANCH  39  40
ENDBRANCH  32  39
ENDBRANCH  29  30
ENDBRANCH   1  29
BRANCH   2  51
HETATM   51  C41 UNL     1      -2.863   1.719   2.986  1.00  0.00     0.184 C 
HETATM   52  O8  UNL     1      -3.021   0.588   3.813  1.00  0.00    -0.221 OA
ENDBRANCH   2  51
BRANCH  16  53
HETATM   53  C37 UNL     1       7.096   2.166   1.939  1.00  0.00     0.186 C 
HETATM   54  O7  UNL     1       8.418   2.594   2.180  1.00  0.00    -0.220 OA
ENDBRANCH  16  53
TORSDOF 7
