REMARK  3 active torsions:
REMARK  status: ('A' for Active; 'I' for Inactive)
REMARK    1  A    between atoms: C6_6  and  C7_7 
REMARK    2  A    between atoms: C7_7  and  C8_8 
REMARK    3  A    between atoms: C8_8  and  N1_9 
ROOT
HETATM    1  C1  UNL     1      -2.127  -0.703  -0.719  1.00  0.00    -0.002 A 
HETATM    2  C2  UNL     1      -2.785  -1.945  -0.719  1.00  0.00     0.027 A 
HETATM    3  C3  UNL     1      -2.041  -3.139  -0.719  1.00  0.00     0.131 A 
HETATM    4  C4  UNL     1      -0.637  -3.084  -0.719  1.00  0.00     0.027 A 
HETATM    5  C5  UNL     1       0.023  -1.842  -0.719  1.00  0.00    -0.002 A 
HETATM    6  C6  UNL     1      -0.723  -0.650  -0.719  1.00  0.00    -0.020 A 
HETATM    7  O1  UNL     1      -2.658  -4.303  -0.719  1.00  0.00    -0.190 OA
ENDROOT
BRANCH   6   8
HETATM    8  C7  UNL     1      -0.027   0.662  -0.719  1.00  0.00     0.062 C 
BRANCH   8   9
HETATM    9  C8  UNL     1       0.603   0.965   0.641  1.00  0.00     0.255 C 
BRANCH   9  10
HETATM   10  N1  UNL     1       1.096   2.332   0.682  1.00  0.00     0.142 N 
HETATM   11  C9  UNL     1       1.344   2.744   2.053  1.00  0.00     0.285 C 
HETATM   12  C10 UNL     1       2.303   2.463  -0.115  1.00  0.00     0.285 C 
ENDBRANCH   9  10
ENDBRANCH   8   9
ENDBRANCH   6   8
TORSDOF 3
