REMARK  2 active torsions:
REMARK  status: ('A' for Active; 'I' for Inactive)
REMARK    1  A    between atoms: C7_9  and  C8_10 
REMARK    2  A    between atoms: C14_17  and  C17_20 
ROOT
HETATM    1  C1  UNL     1       5.231   0.146  -0.389  1.00  0.00     0.273 C 
HETATM    2  C2  UNL     1       5.486   1.023   0.799  1.00  0.00     0.091 C 
HETATM    3  C3  UNL     1       4.397   0.570   1.768  1.00  0.00     0.067 C 
HETATM    4  C4  UNL     1       3.358  -0.035   0.809  1.00  0.00     0.195 C 
HETATM    5  O1  UNL     1       4.068  -0.498  -0.342  1.00  0.00    -0.281 OA
HETATM    6  O2  UNL     1       2.680  -1.115   1.416  1.00  0.00    -0.337 OA
HETATM    7  C5  UNL     1       1.350  -1.219   0.945  1.00  0.00     0.120 C 
HETATM    8  C6  UNL     1       1.217  -0.133  -0.129  1.00  0.00     0.052 C 
HETATM    9  C7  UNL     1       2.221   0.906   0.383  1.00  0.00     0.056 C 
HETATM   10  C10 UNL     1      -0.195   0.428  -0.367  1.00  0.00     0.079 C 
HETATM   11  N1  UNL     1      -1.184  -0.555  -0.828  1.00  0.00    -0.369 N 
HETATM   12  C11 UNL     1      -0.805  -1.928  -1.199  1.00  0.00     0.097 C 
HETATM   13  C12 UNL     1      -0.363  -2.818  -0.019  1.00  0.00     0.026 C 
HETATM   14  C13 UNL     1       1.098  -2.629   0.412  1.00  0.00     0.032 C 
HETATM   15  C14 UNL     1      -2.414  -0.365  -0.066  1.00  0.00     0.105 C 
HETATM   16  C15 UNL     1      -2.320   1.049   0.500  1.00  0.00     0.026 C 
HETATM   17  C16 UNL     1      -0.836   1.125   0.838  1.00  0.00     0.024 C 
HETATM   18  C22 UNL     1       5.363   2.504   0.461  1.00  0.00     0.011 C 
HETATM   19  O5  UNL     1       6.027   0.045  -1.291  1.00  0.00    -0.264 OA
ENDROOT
BRANCH  15  20
HETATM   20  C17 UNL     1      -3.645  -0.523  -0.951  1.00  0.00     0.145 C 
HETATM   21  O3  UNL     1      -3.742  -1.865  -1.418  1.00  0.00    -0.302 OA
HETATM   22  C18 UNL     1      -5.033  -2.145  -1.553  1.00  0.00     0.271 C 
HETATM   23  C19 UNL     1      -5.930  -1.057  -1.037  1.00  0.00     0.089 C 
HETATM   24  O4  UNL     1      -5.467  -3.166  -2.029  1.00  0.00    -0.264 OA
HETATM   25  C20 UNL     1      -4.953  -0.219  -0.213  1.00  0.00     0.042 C 
HETATM   26  C21 UNL     1      -7.090  -1.561  -0.187  1.00  0.00     0.011 C 
ENDBRANCH  15  20
BRANCH   9  27
HETATM   27  C8  UNL     1       2.582   1.922  -0.697  1.00  0.00     0.005 C 
HETATM   28  C9  UNL     1       2.377   3.336  -0.154  1.00  0.00     0.000 C 
ENDBRANCH   9  27
TORSDOF 2
