REMARK  0 active torsions:
REMARK  status: ('A' for Active; 'I' for Inactive)
ROOT
HETATM    1  C1  UNL     1      -2.779   1.674   0.412  1.00  0.00     0.000 A 
HETATM    2  C2  UNL     1      -3.541   0.500   0.227  1.00  0.00     0.000 A 
HETATM    3  C3  UNL     1      -2.894  -0.731  -0.025  1.00  0.00     0.000 A 
HETATM    4  C4  UNL     1      -1.478  -0.787  -0.090  1.00  0.00     0.000 A 
HETATM    5  C5  UNL     1      -0.689   0.396   0.098  1.00  0.00     0.000 A 
HETATM    6  C6  UNL     1      -1.369   1.627   0.348  1.00  0.00     0.000 A 
HETATM    7  C7  UNL     1       0.743   0.301   0.028  1.00  0.00     0.000 A 
HETATM    8  C8  UNL     1       1.346  -0.975  -0.232  1.00  0.00     0.000 A 
HETATM    9  C9  UNL     1       0.545  -2.129  -0.416  1.00  0.00     0.000 A 
HETATM   10  C10 UNL     1      -0.859  -2.035  -0.344  1.00  0.00     0.000 A 
HETATM   11  C11 UNL     1       2.758  -1.102  -0.310  1.00  0.00     0.000 A 
HETATM   12  C12 UNL     1       3.580   0.029  -0.129  1.00  0.00     0.000 A 
HETATM   13  C13 UNL     1       3.002   1.291   0.129  1.00  0.00     0.000 A 
HETATM   14  C14 UNL     1       1.598   1.428   0.209  1.00  0.00     0.000 A 
ENDROOT
TORSDOF 0
