REMARK  3 active torsions:
REMARK  status: ('A' for Active; 'I' for Inactive)
REMARK    1  A    between atoms: C7_8  and  C10_12 
REMARK    2  A    between atoms: C10_12  and  C11_13 
REMARK    3  A    between atoms: C11_13  and  C12_14 
ROOT
HETATM    1  C1  UNL     1      -5.074  -1.518  -0.006  1.00  0.00     0.002 A 
HETATM    2  C2  UNL     1      -4.918  -2.824   0.512  1.00  0.00     0.000 A 
HETATM    3  C3  UNL     1      -3.623  -3.357   0.719  1.00  0.00     0.005 A 
HETATM    4  C4  UNL     1      -2.486  -2.574   0.404  1.00  0.00     0.062 A 
HETATM    5  C5  UNL     1      -2.639  -1.260  -0.115  1.00  0.00     0.103 A 
HETATM    6  C6  UNL     1      -3.938  -0.736  -0.318  1.00  0.00     0.025 A 
HETATM    7  O1  UNL     1      -1.553  -0.512  -0.412  1.00  0.00    -0.311 OA
HETATM    8  C7  UNL     1      -0.287  -0.945  -0.246  1.00  0.00     0.081 A 
HETATM    9  C8  UNL     1      -0.020  -2.180   0.240  1.00  0.00     0.062 A 
HETATM   10  C9  UNL     1      -1.111  -3.106   0.607  1.00  0.00     0.199 A 
HETATM   11  O2  UNL     1      -0.799  -4.193   1.033  1.00  0.00    -0.286 OA
ENDROOT
BRANCH   8  12
HETATM   12  C10 UNL     1       0.871  -0.049  -0.600  1.00  0.00     0.056 C 
BRANCH  12  13
HETATM   13  C11 UNL     1       1.117   1.029   0.455  1.00  0.00     0.033 C 
BRANCH  13  14
HETATM   14  C12 UNL     1       2.267   1.897   0.090  1.00  0.00    -0.022 A 
HETATM   15  C13 UNL     1       3.564   1.570   0.527  1.00  0.00    -0.004 A 
HETATM   16  C14 UNL     1       4.652   2.391   0.184  1.00  0.00    -0.000 A 
HETATM   17  C15 UNL     1       4.445   3.539  -0.600  1.00  0.00    -0.000 A 
HETATM   18  C16 UNL     1       3.150   3.867  -1.037  1.00  0.00    -0.000 A 
HETATM   19  C17 UNL     1       2.062   3.047  -0.693  1.00  0.00    -0.004 A 
ENDBRANCH  13  14
ENDBRANCH  12  13
ENDBRANCH   8  12
TORSDOF 3
