REMARK  1 active torsions:
REMARK  status: ('A' for Active; 'I' for Inactive)
REMARK    1  A    between atoms: C1_1  and  C2_2 
ROOT
HETATM    1  C2  UNL     1       3.941   0.186  -0.658  1.00  0.00     0.082 C 
HETATM    2  C3  UNL     1       3.406   1.611  -0.887  1.00  0.00     0.011 C 
HETATM    3  C4  UNL     1       1.904   1.619  -1.160  1.00  0.00     0.004 C 
HETATM    4  C5  UNL     1       1.055   0.988  -0.027  1.00  0.00     0.015 C 
HETATM    5  C6  UNL     1      -0.334   0.551  -0.606  1.00  0.00     0.004 C 
HETATM    6  C7  UNL     1      -1.041   1.738  -1.313  1.00  0.00     0.000 C 
HETATM    7  C8  UNL     1      -2.574   1.727  -1.190  1.00  0.00     0.000 C 
HETATM    8  C9  UNL     1      -3.188   0.309  -1.182  1.00  0.00     0.005 C 
HETATM    9  C10 UNL     1      -4.754   0.352  -1.254  1.00  0.00     0.055 C 
HETATM   10  C11 UNL     1      -5.373  -1.008  -0.817  1.00  0.00     0.277 C 
HETATM   11  O1  UNL     1      -6.785  -0.978  -0.977  1.00  0.00    -0.190 OA
HETATM   12  C12 UNL     1      -4.957  -1.393   0.650  1.00  0.00     0.209 C 
HETATM   13  C13 UNL     1      -3.629  -0.728   1.103  1.00  0.00     0.038 C 
HETATM   14  C14 UNL     1      -2.598  -0.592  -0.035  1.00  0.00     0.003 C 
HETATM   15  C15 UNL     1      -1.258  -0.002   0.519  1.00  0.00     0.005 C 
HETATM   16  C16 UNL     1      -0.531  -0.965   1.496  1.00  0.00     0.025 C 
HETATM   17  C17 UNL     1       0.963  -1.109   1.312  1.00  0.00    -0.035 C 
HETATM   18  C18 UNL     1       1.719  -0.217   0.637  1.00  0.00    -0.049 C 
HETATM   19  C19 UNL     1       3.227  -0.457   0.568  1.00  0.00     0.028 C 
HETATM   20  C20 UNL     1       3.959  -0.076   1.883  1.00  0.00     0.004 C 
HETATM   21  C21 UNL     1       5.393  -0.664   1.910  1.00  0.00     0.000 C 
HETATM   22  C22 UNL     1       5.994  -0.824   0.500  1.00  0.00     0.001 C 
HETATM   23  C23 UNL     1       5.480   0.260  -0.453  1.00  0.00     0.011 C 
HETATM   24  C24 UNL     1       6.309   0.166   2.818  1.00  0.00     0.000 C 
HETATM   25  C25 UNL     1       3.211  -0.478   3.160  1.00  0.00     0.000 C 
HETATM   26  C26 UNL     1      -2.322  -2.006  -0.588  1.00  0.00     0.000 C 
HETATM   27  O2  UNL     1      -5.936  -1.027   1.611  1.00  0.00    -0.218 OA
HETATM   28  O3  UNL     1      -4.938  -2.021  -1.705  1.00  0.00    -0.190 OA
HETATM   29  C27 UNL     1      -5.313   1.461  -0.346  1.00  0.00     0.005 C 
HETATM   30  C28 UNL     1      -5.168   0.715  -2.693  1.00  0.00     0.005 C 
HETATM   31  C29 UNL     1      -0.100  -0.559  -1.652  1.00  0.00     0.000 C 
HETATM   32  C30 UNL     1       0.887   2.033   1.088  1.00  0.00     0.004 C 
ENDROOT
BRANCH   1  33
HETATM   33  C1  UNL     1       3.672  -0.664  -1.881  1.00  0.00     0.184 C 
HETATM   34  O4  UNL     1       3.057  -1.701  -1.795  1.00  0.00    -0.647 OA
HETATM   35  O5  UNL     1       4.154  -0.182  -3.024  1.00  0.00    -0.647 OA
ENDBRANCH   1  33
TORSDOF 1
