REMARK  2 active torsions:
REMARK  status: ('A' for Active; 'I' for Inactive)
REMARK    1  A    between atoms: O1_1  and  C2_3 
REMARK    2  A    between atoms: C2_3  and  C3_4 
ROOT
HETATM    1  C3  UNL     1       0.057   0.039  -0.293  1.00  0.00     0.007 A 
HETATM    2  C4  UNL     1      -1.348  -0.014  -0.293  1.00  0.00     0.000 A 
HETATM    3  C5  UNL     1      -2.006  -1.256  -0.293  1.00  0.00     0.027 A 
HETATM    4  C6  UNL     1      -1.262  -2.449  -0.293  1.00  0.00     0.131 A 
HETATM    5  C7  UNL     1       0.142  -2.395  -0.293  1.00  0.00     0.027 A 
HETATM    6  C8  UNL     1       0.803  -1.154  -0.293  1.00  0.00     0.000 A 
HETATM    7  O2  UNL     1      -1.879  -3.615  -0.293  1.00  0.00    -0.190 OA
ENDROOT
BRANCH   1   8
HETATM    8  C2  UNL     1       0.752   1.352  -0.293  1.00  0.00     0.169 C 
BRANCH   8   9
HETATM    9  O1  UNL     1       0.699   1.910   1.000  1.00  0.00    -0.347 OA
HETATM   10  C1  UNL     1       1.342   3.162   1.090  1.00  0.00     0.175 C 
ENDBRANCH   8   9
ENDBRANCH   1   8
TORSDOF 2
