REMARK  7 active torsions:
REMARK  status: ('A' for Active; 'I' for Inactive)
REMARK    1  A    between atoms: C1_1  and  O6_12 
REMARK    2  A    between atoms: C5_8  and  C6_10 
REMARK    3  A    between atoms: O6_12  and  C7_13 
REMARK    4  A    between atoms: C8_14  and  O7_15 
REMARK    5  A    between atoms: O7_15  and  O8_16 
REMARK    6  A    between atoms: O8_16  and  C9_17 
REMARK    7  A    between atoms: C17_26  and  C18_27 
ROOT
HETATM    1  O7  UNL     1      -0.748  -0.414  -0.582  1.00  0.00    -0.185 OA
ENDROOT
BRANCH   1   2
HETATM    2  C8  UNL     1       0.598  -0.771  -0.332  1.00  0.00     0.300 C 
HETATM    3  C7  UNL     1       0.885  -2.180  -0.912  1.00  0.00     0.210 C 
HETATM    4  C26 UNL     1       0.955  -2.148  -2.459  1.00  0.00     0.217 C 
HETATM    5  C25 UNL     1       1.902  -1.025  -2.932  1.00  0.00     0.212 C 
HETATM    6  O16 UNL     1       1.354  -3.408  -2.977  1.00  0.00    -0.218 OA
HETATM    7  C24 UNL     1       1.531   0.328  -2.279  1.00  0.00     0.151 C 
HETATM    8  O17 UNL     1       1.822  -0.887  -4.338  1.00  0.00    -0.218 OA
HETATM    9  O15 UNL     1       1.508   0.195  -0.859  1.00  0.00    -0.327 OA
HETATM   10  C27 UNL     1       2.535   1.440  -2.602  1.00  0.00     0.035 C 
BRANCH   3  11
HETATM   11  O6  UNL     1       2.109  -2.646  -0.361  1.00  0.00    -0.323 OA
BRANCH  11  12
HETATM   12  C1  UNL     1       2.031  -2.916   1.023  1.00  0.00     0.270 C 
HETATM   13  C2  UNL     1       2.725  -4.262   1.354  1.00  0.00     0.241 C 
HETATM   14  O1  UNL     1       2.006  -5.322   0.744  1.00  0.00    -0.215 OA
HETATM   15  C3  UNL     1       2.783  -4.496   2.881  1.00  0.00     0.220 C 
HETATM   16  O2  UNL     1       3.594  -5.625   3.162  1.00  0.00    -0.218 OA
HETATM   17  C4  UNL     1       3.363  -3.248   3.582  1.00  0.00     0.215 C 
HETATM   18  O3  UNL     1       3.234  -3.385   4.986  1.00  0.00    -0.218 OA
HETATM   19  C5  UNL     1       2.629  -1.963   3.139  1.00  0.00     0.184 C 
HETATM   20  O4  UNL     1       2.672  -1.857   1.723  1.00  0.00    -0.326 OA
BRANCH  19  21
HETATM   21  C6  UNL     1       3.272  -0.686   3.693  1.00  0.00     0.214 C 
HETATM   22  O5  UNL     1       2.441   0.404   3.365  1.00  0.00    -0.218 OA
ENDBRANCH  19  21
ENDBRANCH  11  12
ENDBRANCH   3  11
ENDBRANCH   1   2
BRANCH   1  23
HETATM   23  O8  UNL     1      -0.945   0.789   0.135  1.00  0.00    -0.187 OA
BRANCH  23  24
HETATM   24  C9  UNL     1      -2.205   1.205  -0.012  1.00  0.00     0.192 A 
HETATM   25  C10 UNL     1      -3.309   0.295   0.379  1.00  0.00     0.227 A 
HETATM   26  C11 UNL     1      -4.686   0.828   0.191  1.00  0.00     0.089 A 
HETATM   27  O14 UNL     1      -2.998  -0.791   0.812  1.00  0.00    -0.284 OA
HETATM   28  C12 UNL     1      -5.826   0.055   0.529  1.00  0.00     0.138 A 
HETATM   29  C16 UNL     1      -4.840   2.135  -0.340  1.00  0.00     0.107 A 
HETATM   30  C13 UNL     1      -7.119   0.594   0.336  1.00  0.00     0.055 A 
HETATM   31  O13 UNL     1      -5.697  -1.182   1.033  1.00  0.00    -0.190 OA
HETATM   32  C14 UNL     1      -7.275   1.897  -0.193  1.00  0.00     0.135 A 
HETATM   33  C15 UNL     1      -6.137   2.666  -0.531  1.00  0.00     0.052 A 
HETATM   34  O12 UNL     1      -8.502   2.404  -0.377  1.00  0.00    -0.190 OA
HETATM   35  O9  UNL     1      -3.754   2.869  -0.660  1.00  0.00    -0.305 OA
HETATM   36  C17 UNL     1      -2.484   2.438  -0.506  1.00  0.00     0.128 A 
BRANCH  36  37
HETATM   37  C18 UNL     1      -1.361   3.344  -0.895  1.00  0.00     0.027 A 
HETATM   38  C19 UNL     1      -0.209   3.420  -0.094  1.00  0.00     0.004 A 
HETATM   39  C20 UNL     1       0.846   4.274  -0.463  1.00  0.00     0.030 A 
HETATM   40  C21 UNL     1       0.752   5.053  -1.629  1.00  0.00     0.156 A 
HETATM   41  C22 UNL     1      -0.402   4.977  -2.430  1.00  0.00     0.156 A 
HETATM   42  O11 UNL     1       1.744   5.850  -1.967  1.00  0.00    -0.188 OA
HETATM   43  C23 UNL     1      -1.457   4.123  -2.061  1.00  0.00     0.032 A 
HETATM   44  O10 UNL     1      -0.498   5.705  -3.525  1.00  0.00    -0.188 OA
ENDBRANCH  36  37
ENDBRANCH  23  24
ENDBRANCH   1  23
TORSDOF 7
