REMARK  1 active torsions:
REMARK  status: ('A' for Active; 'I' for Inactive)
REMARK    1  A    between atoms: C6_6  and  C7_7 
ROOT
HETATM    1  C1  UNL     1       1.785  -0.340   0.574  1.00  0.00     0.008 C 
HETATM    2  C2  UNL     1       1.762  -1.785   0.047  1.00  0.00     0.001 C 
HETATM    3  C3  UNL     1       0.486  -2.537   0.478  1.00  0.00     0.004 C 
HETATM    4  C4  UNL     1      -0.732  -1.781  -0.088  1.00  0.00     0.018 C 
HETATM    5  C5  UNL     1      -0.703  -0.307   0.201  1.00  0.00    -0.048 C 
HETATM    6  C6  UNL     1       0.578   0.494   0.101  1.00  0.00     0.039 C 
HETATM    7  C11 UNL     1      -1.912   0.154   0.543  1.00  0.00    -0.051 C 
HETATM    8  C12 UNL     1      -2.937  -0.942   0.516  1.00  0.00     0.022 C 
HETATM    9  C13 UNL     1      -2.113  -2.236   0.432  1.00  0.00     0.008 C 
HETATM   10  C14 UNL     1      -2.238   1.576   0.910  1.00  0.00     0.026 C 
HETATM   11  C15 UNL     1       0.418  -2.676   2.006  1.00  0.00     0.000 C 
ENDROOT
BRANCH   6  12
HETATM   12  C7  UNL     1       0.750   0.957  -1.324  1.00  0.00    -0.031 C 
HETATM   13  C8  UNL     1       1.149   2.221  -1.543  1.00  0.00    -0.047 C 
HETATM   14  C9  UNL     1       1.514   3.215  -0.473  1.00  0.00     0.026 C 
HETATM   15  C10 UNL     1       1.248   2.707  -2.963  1.00  0.00     0.026 C 
ENDBRANCH   6  12
TORSDOF 1
