REMARK  5 active torsions:
REMARK  status: ('A' for Active; 'I' for Inactive)
REMARK    1  A    between atoms: C1_1  and  O6_12 
REMARK    2  A    between atoms: C2_3  and  C6_10 
REMARK    3  A    between atoms: O6_12  and  C7_13 
REMARK    4  A    between atoms: C7_13  and  C8_14 
REMARK    5  A    between atoms: C9_15  and  C10_16 
ROOT
HETATM    1  C7  UNL     1       1.867  -0.605   0.281  1.00  0.00     0.140 C 
HETATM    2  C19 UNL     1       3.221  -1.275   0.045  1.00  0.00     0.037 C 
ENDROOT
BRANCH   1   3
HETATM    3  O6  UNL     1       2.088   0.613   0.953  1.00  0.00    -0.327 OA
BRANCH   3   4
HETATM    4  C1  UNL     1       2.242   0.461   2.350  1.00  0.00     0.270 C 
HETATM    5  O1  UNL     1       0.984   0.088   2.926  1.00  0.00    -0.326 OA
HETATM    6  C2  UNL     1       0.191   1.121   3.512  1.00  0.00     0.184 C 
HETATM    7  C3  UNL     1       0.375   2.463   2.770  1.00  0.00     0.215 C 
HETATM    8  C4  UNL     1       1.842   2.957   2.875  1.00  0.00     0.220 C 
HETATM    9  O4  UNL     1      -0.486   3.438   3.328  1.00  0.00    -0.218 OA
HETATM   10  C5  UNL     1       2.836   1.766   2.939  1.00  0.00     0.241 C 
HETATM   11  O3  UNL     1       2.139   3.752   1.740  1.00  0.00    -0.218 OA
HETATM   12  O2  UNL     1       3.197   1.527   4.289  1.00  0.00    -0.215 OA
BRANCH   6  13
HETATM   13  C6  UNL     1      -1.252   0.609   3.514  1.00  0.00     0.214 C 
HETATM   14  O5  UNL     1      -1.324  -0.502   4.379  1.00  0.00    -0.218 OA
ENDBRANCH   6  13
ENDBRANCH   3   4
ENDBRANCH   1   3
BRANCH   1  15
HETATM   15  C8  UNL     1       1.123  -0.346  -1.002  1.00  0.00    -0.001 C 
HETATM   16  C9  UNL     1      -0.092  -0.895  -1.162  1.00  0.00    -0.025 C 
BRANCH  16  17
HETATM   17  C10 UNL     1      -0.836  -0.633  -2.449  1.00  0.00     0.040 C 
HETATM   18  C11 UNL     1      -2.092   0.188  -2.189  1.00  0.00    -0.037 C 
HETATM   19  C12 UNL     1      -2.131   1.137  -1.016  1.00  0.00     0.027 C 
HETATM   20  C13 UNL     1      -3.168   0.084  -2.994  1.00  0.00     0.029 C 
HETATM   21  C14 UNL     1      -3.199  -0.816  -4.160  1.00  0.00     0.172 C 
HETATM   22  C15 UNL     1      -1.965  -1.627  -4.479  1.00  0.00     0.070 C 
HETATM   23  O7  UNL     1      -4.195  -0.904  -4.842  1.00  0.00    -0.291 OA
HETATM   24  C16 UNL     1      -1.137  -1.947  -3.217  1.00  0.00     0.015 C 
HETATM   25  C17 UNL     1      -1.920  -2.926  -2.328  1.00  0.00     0.001 C 
HETATM   26  C18 UNL     1       0.174  -2.623  -3.639  1.00  0.00     0.001 C 
ENDBRANCH  16  17
ENDBRANCH   1  15
TORSDOF 5
