REMARK WARNING: 32 MAX_TORS EXCEEDED!!!
REMARK  36 active torsions:
REMARK  status: ('A' for Active; 'I' for Inactive)
REMARK    1  A    between atoms: C1_1  and  S1_2 
REMARK    2  A    between atoms: C1_1  and  C2_6 
REMARK    3  A    between atoms: C3_8  and  O8_15 
REMARK    4  A    between atoms: O8_15  and  C7_16 
REMARK    5  A    between atoms: C7_16  and  C8_17 
REMARK    6  A    between atoms: C8_17  and  O9_18 
REMARK    7  A    between atoms: C8_17  and  O11_40 
REMARK    8  A    between atoms: O9_18  and  C9_19 
REMARK    9  A    between atoms: C9_19  and  C10_20 
REMARK   10  A    between atoms: C10_20  and  C11_21 
REMARK   11  A    between atoms: C11_21  and  C12_22 
REMARK   12  A    between atoms: C12_22  and  C13_23 
REMARK   13  A    between atoms: C14_24  and  C15_25 
REMARK   14  A    between atoms: C15_25  and  C16_26 
REMARK   15  A    between atoms: C17_27  and  C18_28 
REMARK   16  A    between atoms: C18_28  and  C19_29 
REMARK   17  A    between atoms: C20_30  and  C21_31 
REMARK   18  A    between atoms: C21_31  and  C22_32 
REMARK   19  A    between atoms: C23_33  and  C24_34 
REMARK   20  A    between atoms: C24_34  and  C25_35 
REMARK   21  A    between atoms: C26_36  and  C27_37 
REMARK   22  A    between atoms: O11_40  and  C29_41 
REMARK   23  A    between atoms: C29_41  and  C30_42 
REMARK   24  A    between atoms: C30_42  and  C31_43 
REMARK   25  A    between atoms: C31_43  and  C32_44 
REMARK   26  A    between atoms: C32_44  and  C33_45 
REMARK   27  A    between atoms: C33_45  and  C34_46 
REMARK   28  A    between atoms: C34_46  and  C35_47 
REMARK   29  A    between atoms: C35_47  and  C36_48 
REMARK   30  A    between atoms: C36_48  and  C37_49 
REMARK   31  A    between atoms: C37_49  and  C38_50 
REMARK   32  A    between atoms: C38_50  and  C39_51 
REMARK   33  A    between atoms: C39_51  and  C40_52 
REMARK   34  A    between atoms: C40_52  and  C41_53 
REMARK   35  A    between atoms: C41_53  and  C42_54 
REMARK   36  A    between atoms: C42_54  and  C43_55 
ROOT
HETATM    1  C8  UNL     1      -4.477   0.867   0.527  1.00  0.00     0.279 C 
ENDROOT
BRANCH   1   2
HETATM    2  C7  UNL     1      -5.678   1.234   1.398  1.00  0.00     0.207 C 
BRANCH   2   3
HETATM    3  O8  UNL     1      -6.162   2.488   0.975  1.00  0.00    -0.324 OA
BRANCH   3   4
HETATM    4  C3  UNL     1      -7.260   2.949   1.738  1.00  0.00     0.270 C 
HETATM    5  O4  UNL     1      -8.387   2.135   1.441  1.00  0.00    -0.328 OA
HETATM    6  C2  UNL     1      -9.563   2.441   2.178  1.00  0.00     0.170 C 
HETATM    7  C6  UNL     1     -10.006   3.887   1.856  1.00  0.00     0.213 C 
HETATM    8  C5  UNL     1      -8.865   4.896   2.109  1.00  0.00     0.220 C 
HETATM    9  O5  UNL     1     -11.121   4.209   2.668  1.00  0.00    -0.218 OA
HETATM   10  C4  UNL     1      -7.576   4.428   1.397  1.00  0.00     0.241 C 
HETATM   11  O6  UNL     1      -9.242   6.178   1.631  1.00  0.00    -0.218 OA
HETATM   12  O7  UNL     1      -6.490   5.248   1.799  1.00  0.00    -0.215 OA
BRANCH   6  13
HETATM   13  C1  UNL     1     -10.614   1.396   1.791  1.00  0.00     0.178 C 
BRANCH  13  14
HETATM   14  S1  UNL     1     -10.055  -0.244   2.231  1.00  0.00     0.118 S 
HETATM   15  O1  UNL     1      -9.631  -0.238   3.621  1.00  0.00    -0.594 OA
HETATM   16  O2  UNL     1      -9.002  -0.645   1.315  1.00  0.00    -0.594 OA
HETATM   17  O3  UNL     1     -11.227  -1.281   2.094  1.00  0.00    -0.594 OA
ENDBRANCH  13  14
ENDBRANCH   6  13
ENDBRANCH   3   4
ENDBRANCH   2   3
ENDBRANCH   1   2
BRANCH   1  18
HETATM   18  O9  UNL     1      -4.072  -0.463   0.816  1.00  0.00    -0.273 OA
BRANCH  18  19
HETATM   19  C9  UNL     1      -3.299  -0.977  -0.137  1.00  0.00     0.274 C 
HETATM   20  O10 UNL     1      -3.379  -0.672  -1.303  1.00  0.00    -0.264 OA
BRANCH  19  21
HETATM   21  C10 UNL     1      -2.289  -1.988   0.334  1.00  0.00     0.096 C 
BRANCH  21  22
HETATM   22  C11 UNL     1      -1.434  -2.533  -0.811  1.00  0.00     0.015 C 
BRANCH  22  23
HETATM   23  C12 UNL     1      -0.410  -3.567  -0.342  1.00  0.00     0.026 C 
BRANCH  23  24
HETATM   24  C13 UNL     1       0.473  -4.049  -1.461  1.00  0.00    -0.030 C 
HETATM   25  C14 UNL     1       1.385  -5.000  -1.193  1.00  0.00    -0.026 C 
BRANCH  25  26
HETATM   26  C15 UNL     1       1.477  -5.533   0.211  1.00  0.00     0.051 C 
BRANCH  26  27
HETATM   27  C16 UNL     1       2.592  -6.537   0.322  1.00  0.00    -0.026 C 
HETATM   28  C17 UNL     1       2.773  -7.166   1.494  1.00  0.00    -0.026 C 
BRANCH  28  29
HETATM   29  C18 UNL     1       1.852  -6.836   2.637  1.00  0.00     0.051 C 
BRANCH  29  30
HETATM   30  C19 UNL     1       2.353  -7.453   3.916  1.00  0.00    -0.026 C 
HETATM   31  C20 UNL     1       1.568  -7.399   5.004  1.00  0.00    -0.026 C 
BRANCH  31  32
HETATM   32  C21 UNL     1       0.228  -6.725   4.891  1.00  0.00     0.051 C 
BRANCH  32  33
HETATM   33  C22 UNL     1      -0.418  -6.604   6.244  1.00  0.00    -0.026 C 
HETATM   34  C23 UNL     1      -1.676  -6.141   6.317  1.00  0.00    -0.026 C 
BRANCH  34  35
HETATM   35  C24 UNL     1      -2.377  -5.764   5.037  1.00  0.00     0.051 C 
BRANCH  35  36
HETATM   36  C25 UNL     1      -3.766  -5.260   5.326  1.00  0.00    -0.026 C 
HETATM   37  C26 UNL     1      -4.516  -4.826   4.301  1.00  0.00    -0.030 C 
BRANCH  37  38
HETATM   38  C27 UNL     1      -3.928  -4.863   2.914  1.00  0.00     0.026 C 
HETATM   39  C28 UNL     1      -4.928  -4.428   1.844  1.00  0.00     0.005 C 
ENDBRANCH  37  38
ENDBRANCH  35  36
ENDBRANCH  34  35
ENDBRANCH  32  33
ENDBRANCH  31  32
ENDBRANCH  29  30
ENDBRANCH  28  29
ENDBRANCH  26  27
ENDBRANCH  25  26
ENDBRANCH  23  24
ENDBRANCH  22  23
ENDBRANCH  21  22
ENDBRANCH  19  21
ENDBRANCH  18  19
ENDBRANCH   1  18
BRANCH   1  40
HETATM   40  O11 UNL     1      -3.404   1.758   0.801  1.00  0.00    -0.273 OA
BRANCH  40  41
HETATM   41  C29 UNL     1      -2.611   1.934  -0.252  1.00  0.00     0.274 C 
HETATM   42  O12 UNL     1      -3.000   1.920  -1.396  1.00  0.00    -0.264 OA
BRANCH  41  43
HETATM   43  C30 UNL     1      -1.158   2.158   0.070  1.00  0.00     0.096 C 
BRANCH  43  44
HETATM   44  C31 UNL     1      -0.307   2.361  -1.184  1.00  0.00     0.010 C 
BRANCH  44  45
HETATM   45  C32 UNL     1       1.168   2.600  -0.863  1.00  0.00     0.001 C 
BRANCH  45  46
HETATM   46  C33 UNL     1       2.019   2.801  -2.117  1.00  0.00     0.000 C 
BRANCH  46  47
HETATM   47  C34 UNL     1       3.496   3.039  -1.795  1.00  0.00     0.000 C 
BRANCH  47  48
HETATM   48  C35 UNL     1       4.348   3.240  -3.049  1.00  0.00     0.000 C 
BRANCH  48  49
HETATM   49  C36 UNL     1       5.824   3.479  -2.729  1.00  0.00     0.000 C 
BRANCH  49  50
HETATM   50  C37 UNL     1       6.676   3.680  -3.982  1.00  0.00     0.000 C 
BRANCH  50  51
HETATM   51  C38 UNL     1       8.150   3.918  -3.660  1.00  0.00     0.000 C 
BRANCH  51  52
HETATM   52  C39 UNL     1       9.002   4.119  -4.914  1.00  0.00     0.000 C 
BRANCH  52  53
HETATM   53  C40 UNL     1      10.479   4.357  -4.594  1.00  0.00     0.000 C 
BRANCH  53  54
HETATM   54  C41 UNL     1      11.330   4.559  -5.848  1.00  0.00     0.000 C 
BRANCH  54  55
HETATM   55  C42 UNL     1      12.805   4.797  -5.527  1.00  0.00     0.000 C 
BRANCH  55  56
HETATM   56  C43 UNL     1      13.656   4.998  -6.781  1.00  0.00     0.000 C 
HETATM   57  C44 UNL     1      15.133   5.236  -6.459  1.00  0.00     0.000 C 
ENDBRANCH  55  56
ENDBRANCH  54  55
ENDBRANCH  53  54
ENDBRANCH  52  53
ENDBRANCH  51  52
ENDBRANCH  50  51
ENDBRANCH  49  50
ENDBRANCH  48  49
ENDBRANCH  47  48
ENDBRANCH  46  47
ENDBRANCH  45  46
ENDBRANCH  44  45
ENDBRANCH  43  44
ENDBRANCH  41  43
ENDBRANCH  40  41
ENDBRANCH   1  40
TORSDOF 36
