REMARK  0 active torsions:
REMARK  status: ('A' for Active; 'I' for Inactive)
ROOT
HETATM    1  C1  UNL     1      -1.836   2.805  -0.141  1.00  0.00    -0.001 A 
HETATM    2  C2  UNL     1      -3.029   2.066   0.014  1.00  0.00    -0.005 A 
HETATM    3  C3  UNL     1      -3.008   0.656  -0.072  1.00  0.00    -0.026 A 
HETATM    4  C4  UNL     1      -1.781  -0.020  -0.318  1.00  0.00    -0.025 A 
HETATM    5  C5  UNL     1      -0.578   0.723  -0.506  1.00  0.00    -0.015 A 
HETATM    6  C6  UNL     1      -0.617   2.141  -0.396  1.00  0.00    -0.004 A 
HETATM    7  C7  UNL     1       0.670  -0.057  -0.813  1.00  0.00     0.111 A 
HETATM    8  C8  UNL     1       0.732  -1.340   0.057  1.00  0.00     0.024 A 
HETATM    9  C9  UNL     1      -0.420  -2.031   0.213  1.00  0.00    -0.022 C 
HETATM   10  C10 UNL     1      -1.709  -1.506  -0.383  1.00  0.00     0.051 C 
HETATM   11  C11 UNL     1       1.990  -1.807   0.721  1.00  0.00     0.194 A 
HETATM   12  C12 UNL     1       3.172  -0.938   0.605  1.00  0.00     0.066 A 
HETATM   13  C13 UNL     1       3.121   0.211  -0.123  1.00  0.00     0.138 A 
HETATM   14  C14 UNL     1       1.983   0.742  -0.883  1.00  0.00     0.203 A 
HETATM   15  O1  UNL     1       2.108   1.748  -1.543  1.00  0.00    -0.288 OA
HETATM   16  O2  UNL     1       4.338   0.877  -0.102  1.00  0.00    -0.302 OA
HETATM   17  C15 UNL     1       5.168   0.066   0.695  1.00  0.00     0.123 A 
HETATM   18  C16 UNL     1       4.428  -1.045   1.117  1.00  0.00     0.032 A 
HETATM   19  O3  UNL     1       2.047  -2.850   1.334  1.00  0.00    -0.287 OA
HETATM   20  C17 UNL     1      -4.268  -0.088   0.096  1.00  0.00     0.031 C 
ENDROOT
TORSDOF 0
