REMARK  1 active torsions:
REMARK  status: ('A' for Active; 'I' for Inactive)
REMARK    1  A    between atoms: C21_21  and  C24_24 
ROOT
HETATM    1  C1  UNL     1       5.326  -1.856  -1.414  1.00  0.00     0.065 C 
HETATM    2  C2  UNL     1       6.090  -1.168  -0.312  1.00  0.00     0.150 C 
HETATM    3  C3  UNL     1       5.512   0.148   0.160  1.00  0.00     0.058 C 
HETATM    4  C4  UNL     1       4.014   0.018   0.547  1.00  0.00     0.006 C 
HETATM    5  C5  UNL     1       3.207  -0.660  -0.598  1.00  0.00     0.001 C 
HETATM    6  C6  UNL     1       3.850  -1.998  -1.043  1.00  0.00     0.008 C 
HETATM    7  C7  UNL     1       1.668  -0.801  -0.299  1.00  0.00     0.000 C 
HETATM    8  C8  UNL     1       1.170   0.277   0.723  1.00  0.00     0.000 C 
HETATM    9  C9  UNL     1       1.944   1.594   0.473  1.00  0.00     0.000 C 
HETATM   10  C10 UNL     1       3.438   1.436   0.807  1.00  0.00     0.000 C 
HETATM   11  C11 UNL     1      -0.402   0.355   0.840  1.00  0.00     0.000 C 
HETATM   12  C12 UNL     1      -1.094   0.549  -0.543  1.00  0.00     0.000 C 
HETATM   13  C13 UNL     1      -0.619  -0.574  -1.498  1.00  0.00     0.000 C 
HETATM   14  C14 UNL     1       0.908  -0.648  -1.637  1.00  0.00     0.000 C 
HETATM   15  C15 UNL     1      -2.672   0.621  -0.441  1.00  0.00     0.001 C 
HETATM   16  C16 UNL     1      -3.248   0.939   0.969  1.00  0.00     0.000 C 
HETATM   17  C17 UNL     1      -2.326   1.959   1.650  1.00  0.00     0.000 C 
HETATM   18  C18 UNL     1      -0.879   1.445   1.854  1.00  0.00     0.000 C 
HETATM   19  C19 UNL     1      -4.676   1.482   0.772  1.00  0.00     0.001 C 
HETATM   20  C20 UNL     1      -5.580   0.437   0.080  1.00  0.00     0.010 C 
HETATM   21  C21 UNL     1      -5.000  -0.105  -1.248  1.00  0.00     0.078 C 
HETATM   22  C22 UNL     1      -3.506  -0.502  -1.105  1.00  0.00     0.010 C 
HETATM   23  C23 UNL     1      -5.809  -1.322  -1.707  1.00  0.00     0.011 C 
HETATM   24  C25 UNL     1      -3.385  -0.291   1.881  1.00  0.00     0.000 C 
HETATM   25  C26 UNL     1      -0.613   1.889  -1.133  1.00  0.00     0.000 C 
HETATM   26  C27 UNL     1      -0.832  -1.006   1.420  1.00  0.00     0.000 C 
HETATM   27  C28 UNL     1       1.377  -2.201   0.272  1.00  0.00     0.000 C 
HETATM   28  C29 UNL     1       3.904  -0.838   1.822  1.00  0.00     0.000 C 
HETATM   29  C30 UNL     1       6.350   0.764   1.291  1.00  0.00     0.008 C 
HETATM   30  O3  UNL     1       7.094  -1.650   0.162  1.00  0.00    -0.296 OA
ENDROOT
BRANCH  21  31
HETATM   31  C24 UNL     1      -5.152   0.947  -2.322  1.00  0.00     0.184 C 
HETATM   32  O1  UNL     1      -5.687   2.004  -2.084  1.00  0.00    -0.647 OA
HETATM   33  O2  UNL     1      -4.660   0.617  -3.512  1.00  0.00    -0.647 OA
ENDBRANCH  21  31
TORSDOF 1
