REMARK  2 active torsions:
REMARK  status: ('A' for Active; 'I' for Inactive)
REMARK    1  A    between atoms: C6_7  and  C10_13 
REMARK    2  A    between atoms: C13_16  and  O4_19 
ROOT
HETATM    1  C1  UNL     1       4.965   0.713  -0.010  1.00  0.00     0.055 A 
HETATM    2  C2  UNL     1       4.820   2.121  -0.010  1.00  0.00     0.135 A 
HETATM    3  C3  UNL     1       3.529   2.701   0.018  1.00  0.00     0.052 A 
HETATM    4  C4  UNL     1       2.381   1.877   0.047  1.00  0.00     0.107 A 
HETATM    5  O1  UNL     1       1.152   2.437   0.076  1.00  0.00    -0.305 OA
HETATM    6  C5  UNL     1       0.014   1.715   0.105  1.00  0.00     0.126 A 
HETATM    7  C6  UNL     1       0.014   0.361   0.102  1.00  0.00     0.064 A 
HETATM    8  C7  UNL     1       1.299  -0.383   0.068  1.00  0.00     0.201 A 
HETATM    9  C8  UNL     1       2.527   0.463   0.043  1.00  0.00     0.087 A 
HETATM   10  C9  UNL     1       3.820  -0.119   0.016  1.00  0.00     0.138 A 
HETATM   11  O2  UNL     1       3.979  -1.451   0.016  1.00  0.00    -0.190 OA
HETATM   12  O3  UNL     1       1.254  -1.594   0.066  1.00  0.00    -0.286 OA
HETATM   13  O5  UNL     1       5.906   2.904  -0.037  1.00  0.00    -0.190 OA
ENDROOT
BRANCH   7  14
HETATM   14  C10 UNL     1      -1.289  -0.377   0.133  1.00  0.00     0.005 A 
HETATM   15  C11 UNL     1      -2.397   0.117  -0.582  1.00  0.00     0.002 A 
HETATM   16  C12 UNL     1      -3.617  -0.576  -0.553  1.00  0.00     0.024 A 
HETATM   17  C13 UNL     1      -3.740  -1.764   0.191  1.00  0.00     0.094 A 
HETATM   18  C14 UNL     1      -2.633  -2.254   0.906  1.00  0.00     0.024 A 
HETATM   19  C15 UNL     1      -1.410  -1.563   0.879  1.00  0.00     0.002 A 
BRANCH  17  20
HETATM   20  O4  UNL     1      -4.887  -2.412   0.219  1.00  0.00    -0.328 OA
HETATM   21  C16 UNL     1      -5.994  -1.840  -0.459  1.00  0.00     0.181 C 
ENDBRANCH  17  20
ENDBRANCH   7  14
TORSDOF 2
