REMARK  7 active torsions:
REMARK  status: ('A' for Active; 'I' for Inactive)
REMARK    1  A    between atoms: C5_5  and  O1_7 
REMARK    2  A    between atoms: O1_7  and  C7_8 
REMARK    3  A    between atoms: C11_12  and  C13_14 
REMARK    4  A    between atoms: C13_14  and  O2_15 
REMARK    5  A    between atoms: O2_15  and  C14_16 
REMARK    6  A    between atoms: C14_16  and  C15_18 
REMARK    7  A    between atoms: C16_19  and  C20_23 
ROOT
HETATM    1  C13 UNL     1       3.170  -0.166  -0.164  1.00  0.00     0.236 C 
HETATM    2  C22 UNL     1       4.250   0.010   0.805  1.00  0.00     0.108 C 
HETATM    3  N1  UNL     1       5.108   0.146   1.572  1.00  0.00    -0.193 NA
ENDROOT
BRANCH   1   4
HETATM    4  C11 UNL     1       2.059  -1.008   0.352  1.00  0.00     0.022 A 
HETATM    5  C10 UNL     1       2.199  -1.690   1.572  1.00  0.00    -0.001 A 
HETATM    6  C9  UNL     1       1.148  -2.486   2.057  1.00  0.00     0.002 A 
HETATM    7  C8  UNL     1      -0.045  -2.598   1.322  1.00  0.00     0.025 A 
HETATM    8  C7  UNL     1      -0.189  -1.918   0.102  1.00  0.00     0.100 A 
HETATM    9  C12 UNL     1       0.863  -1.121  -0.383  1.00  0.00     0.024 A 
BRANCH   8  10
HETATM   10  O1  UNL     1      -1.309  -2.024  -0.586  1.00  0.00    -0.307 OA
BRANCH  10  11
HETATM   11  C5  UNL     1      -1.926  -3.188  -0.586  1.00  0.00     0.100 A 
HETATM   12  C4  UNL     1      -1.182  -4.383  -0.586  1.00  0.00     0.025 A 
HETATM   13  C3  UNL     1      -1.840  -5.625  -0.586  1.00  0.00     0.002 A 
HETATM   14  C2  UNL     1      -3.244  -5.676  -0.586  1.00  0.00     0.000 A 
HETATM   15  C1  UNL     1      -3.990  -4.484  -0.586  1.00  0.00     0.002 A 
HETATM   16  C6  UNL     1      -3.332  -3.244  -0.586  1.00  0.00     0.025 A 
ENDBRANCH  10  11
ENDBRANCH   8  10
ENDBRANCH   1   4
BRANCH   1  17
HETATM   17  O2  UNL     1       2.664   1.105  -0.543  1.00  0.00    -0.284 OA
BRANCH  17  18
HETATM   18  C14 UNL     1       2.076   1.740   0.469  1.00  0.00     0.273 C 
HETATM   19  O3  UNL     1       2.004   1.295   1.590  1.00  0.00    -0.264 OA
BRANCH  18  20
HETATM   20  C15 UNL     1       1.490   3.094   0.113  1.00  0.00     0.091 A 
HETATM   21  C16 UNL     1       0.482   3.188  -1.014  1.00  0.00     0.033 A 
HETATM   22  C17 UNL     1       0.033   3.402   0.422  1.00  0.00     0.013 A 
HETATM   23  C18 UNL     1      -0.830   2.314   1.053  1.00  0.00     0.001 C 
HETATM   24  C19 UNL     1      -0.297   4.816   0.887  1.00  0.00     0.001 C 
BRANCH  21  25
HETATM   25  C20 UNL     1       0.555   4.359  -1.975  1.00  0.00    -0.013 C 
HETATM   26  C21 UNL     1      -0.547   4.758  -2.635  1.00  0.00     0.065 C 
HETATM   27 BR1  UNL     1      -0.477   6.238  -3.848  1.00  0.00    -0.042 Br
HETATM   28 BR2  UNL     1      -2.199   3.828  -2.352  1.00  0.00    -0.042 Br
ENDBRANCH  21  25
ENDBRANCH  18  20
ENDBRANCH  17  18
ENDBRANCH   1  17
TORSDOF 7
