REMARK  5 active torsions:
REMARK  status: ('A' for Active; 'I' for Inactive)
REMARK    1  A    between atoms: C4_4  and  C7_7 
REMARK    2  A    between atoms: C7_7  and  C8_8 
REMARK    3  A    between atoms: C8_8  and  C9_9 
REMARK    4  A    between atoms: C9_9  and  C10_10 
REMARK    5  A    between atoms: C11_11  and  C12_12 
ROOT
HETATM    1  C7  UNL     1       0.127   1.668   0.807  1.00  0.00    -0.044 C 
HETATM    2  C14 UNL     1      -0.254   2.683   1.596  1.00  0.00    -0.009 C 
ENDROOT
BRANCH   1   3
HETATM    3  C4  UNL     1      -0.887   0.605   0.461  1.00  0.00     0.018 C 
HETATM    4  C3  UNL     1      -2.240   0.892   1.135  1.00  0.00     0.007 C 
HETATM    5  C2  UNL     1      -3.275  -0.205   0.834  1.00  0.00     0.031 C 
HETATM    6  C1  UNL     1      -2.752  -1.602   1.225  1.00  0.00     0.127 C 
HETATM    7  C6  UNL     1      -1.406  -1.891   0.529  1.00  0.00     0.031 C 
HETATM    8  O2  UNL     1      -3.691  -2.567   0.793  1.00  0.00    -0.226 OA
HETATM    9  C15 UNL     1      -2.641  -1.754   2.746  1.00  0.00     0.033 C 
HETATM   10  C5  UNL     1      -0.367  -0.797   0.830  1.00  0.00     0.007 C 
ENDBRANCH   1   3
BRANCH   1  11
HETATM   11  C8  UNL     1       1.547   1.639   0.307  1.00  0.00     0.027 C 
BRANCH  11  12
HETATM   12  C9  UNL     1       1.643   1.908  -1.195  1.00  0.00     0.030 C 
BRANCH  12  13
HETATM   13  C10 UNL     1       1.383   0.674  -2.016  1.00  0.00    -0.032 C 
HETATM   14  C11 UNL     1       2.414  -0.145  -2.285  1.00  0.00    -0.015 C 
HETATM   15  C13 UNL     1       2.154  -1.379  -3.108  1.00  0.00     0.029 C 
BRANCH  14  16
HETATM   16  C12 UNL     1       3.776   0.215  -1.752  1.00  0.00     0.204 C 
HETATM   17  O1  UNL     1       4.387   1.146  -2.615  1.00  0.00    -0.216 OA
ENDBRANCH  14  16
ENDBRANCH  12  13
ENDBRANCH  11  12
ENDBRANCH   1  11
TORSDOF 5
