REMARK  3 active torsions:
REMARK  status: ('A' for Active; 'I' for Inactive)
REMARK    1  A    between atoms: C1_2  and  C29_32 
REMARK    2  A    between atoms: C15_16  and  C24_25 
REMARK    3  A    between atoms: C20_21  and  C21_22 
ROOT
HETATM    1  O1  UNL     1      -3.541   1.106  -1.176  1.00  0.00    -0.356 OA
HETATM    2  C1  UNL     1      -4.234  -0.113  -0.938  1.00  0.00     0.123 C 
HETATM    3  C2  UNL     1      -3.631  -0.850   0.312  1.00  0.00     0.028 C 
HETATM    4  C3  UNL     1      -2.736   0.041   1.223  1.00  0.00     0.005 C 
HETATM    5  C4  UNL     1      -3.393   1.436   1.262  1.00  0.00     0.032 C 
HETATM    6  C5  UNL     1      -3.588   2.072  -0.131  1.00  0.00     0.142 C 
HETATM    7  C6  UNL     1      -1.256   0.145   0.705  1.00  0.00     0.000 C 
HETATM    8  C7  UNL     1      -0.594  -1.217   0.344  1.00  0.00     0.000 C 
HETATM    9  C8  UNL     1      -1.547  -2.025  -0.572  1.00  0.00     0.000 C 
HETATM   10  C9  UNL     1      -2.945  -2.201   0.023  1.00  0.00     0.002 C 
HETATM   11  C10 UNL     1       0.816  -0.998  -0.363  1.00  0.00     0.000 C 
HETATM   12  C11 UNL     1       1.453   0.371   0.035  1.00  0.00     0.001 C 
HETATM   13  C12 UNL     1       1.143   0.725   1.492  1.00  0.00     0.000 C 
HETATM   14  C13 UNL     1      -0.365   0.977   1.668  1.00  0.00     0.000 C 
HETATM   15  C14 UNL     1       2.934   0.443  -0.402  1.00  0.00     0.013 C 
HETATM   16  C15 UNL     1       3.809  -0.717   0.078  1.00  0.00     0.079 C 
HETATM   17  C16 UNL     1       3.225  -1.994  -0.539  1.00  0.00     0.010 C 
HETATM   18  C17 UNL     1       1.781  -2.180  -0.033  1.00  0.00     0.001 C 
HETATM   19  C18 UNL     1       5.141  -0.291  -0.547  1.00  0.00     0.011 C 
HETATM   20  C19 UNL     1       5.188   1.231  -0.365  1.00  0.00     0.005 C 
HETATM   21  C20 UNL     1       3.760   1.672  -0.010  1.00  0.00     0.019 C 
HETATM   22  C25 UNL     1       0.672  -0.959  -1.897  1.00  0.00     0.000 C 
HETATM   23  C26 UNL     1      -0.443  -2.008   1.656  1.00  0.00     0.000 C 
HETATM   24  C27 UNL     1      -2.762  -0.537   2.648  1.00  0.00     0.000 C 
HETATM   25  C28 UNL     1      -5.719   0.234  -0.738  1.00  0.00     0.032 C 
ENDROOT
BRANCH   2  26
HETATM   26  C29 UNL     1      -4.104  -0.902  -2.246  1.00  0.00     0.209 C 
HETATM   27  O4  UNL     1      -4.867  -0.248  -3.234  1.00  0.00    -0.218 OA
ENDBRANCH   2  26
BRANCH  16  28
HETATM   28  C24 UNL     1       3.947  -0.828   1.582  1.00  0.00     0.184 C 
HETATM   29  O2  UNL     1       3.779   0.133   2.295  1.00  0.00    -0.647 OA
HETATM   30  O3  UNL     1       4.258  -2.041   2.033  1.00  0.00    -0.647 OA
ENDBRANCH  16  28
BRANCH  21  31
HETATM   31  C21 UNL     1       3.326   2.945  -0.695  1.00  0.00    -0.044 C 
HETATM   32  C22 UNL     1       3.018   4.008   0.066  1.00  0.00    -0.009 C 
HETATM   33  C23 UNL     1       3.221   3.076  -2.190  1.00  0.00     0.026 C 
ENDBRANCH  21  31
TORSDOF 3
