REMARK  3 active torsions:
REMARK  status: ('A' for Active; 'I' for Inactive)
REMARK    1  A    between atoms: C5_5  and  C7_7 
REMARK    2  A    between atoms: C8_8  and  C9_9 
REMARK    3  A    between atoms: C9_9  and  O1_10 
ROOT
HETATM    1  C1  UNL     1      -3.137  -1.818   0.283  1.00  0.00     0.027 A 
HETATM    2  C2  UNL     1      -2.393  -3.014   0.283  1.00  0.00     0.131 A 
HETATM    3  C3  UNL     1      -0.988  -2.957   0.283  1.00  0.00     0.027 A 
HETATM    4  C4  UNL     1      -0.328  -1.717   0.283  1.00  0.00     0.002 A 
HETATM    5  C5  UNL     1      -1.074  -0.523   0.283  1.00  0.00    -0.000 A 
HETATM    6  C6  UNL     1      -2.478  -0.576   0.283  1.00  0.00     0.002 A 
HETATM    7  O2  UNL     1      -3.010  -4.178   0.283  1.00  0.00    -0.190 OA
ENDROOT
BRANCH   5   8
HETATM    8  C7  UNL     1      -0.375   0.795   0.283  1.00  0.00    -0.002 C 
HETATM    9  C8  UNL     1       0.830   0.887  -0.303  1.00  0.00     0.006 C 
BRANCH   9  10
HETATM   10  C9  UNL     1       1.531   2.219  -0.301  1.00  0.00     0.169 C 
BRANCH  10  11
HETATM   11  O1  UNL     1       2.906   2.026  -0.547  1.00  0.00    -0.347 OA
HETATM   12  C10 UNL     1       3.643   3.229  -0.559  1.00  0.00     0.175 C 
ENDBRANCH  10  11
ENDBRANCH   9  10
ENDBRANCH   5   8
TORSDOF 3
