REMARK  9 active torsions:
REMARK  status: ('A' for Active; 'I' for Inactive)
REMARK    1  A    between atoms: S1_1  and  O3_4 
REMARK    2  A    between atoms: S1_1  and  O4_8 
REMARK    3  A    between atoms: O3_4  and  C1_5 
REMARK    4  A    between atoms: C1_5  and  C2_6 
REMARK    5  A    between atoms: O4_8  and  C4_9 
REMARK    6  A    between atoms: C4_9  and  C5_10 
REMARK    7  A    between atoms: C6_11  and  S2_12 
REMARK    8  A    between atoms: S2_12  and  C7_13 
REMARK    9  A    between atoms: C7_13  and  C8_14 
ROOT
HETATM    1  O4  UNL     1      -0.766  -0.957   0.045  1.00  0.00    -0.230 OA
ENDROOT
BRANCH   1   2
HETATM    2  S1  UNL     1      -2.330  -1.063  -0.024  1.00  0.00     0.404 S 
HETATM    3  O1  UNL     1      -2.850  -0.820   1.310  1.00  0.00    -0.169 OA
HETATM    4  O2  UNL     1      -2.795  -0.096  -1.004  1.00  0.00    -0.169 OA
BRANCH   2   5
HETATM    5  O3  UNL     1      -2.826  -2.481  -0.479  1.00  0.00    -0.230 OA
BRANCH   5   6
HETATM    6  C1  UNL     1      -4.215  -2.695  -0.578  1.00  0.00     0.192 C 
BRANCH   6   7
HETATM    7  C2  UNL     1      -4.475  -4.110  -1.026  1.00  0.00     0.007 C 
HETATM    8  C3  UNL     1      -5.676  -4.651  -0.774  1.00  0.00    -0.002 C 
ENDBRANCH   6   7
ENDBRANCH   5   6
ENDBRANCH   2   5
ENDBRANCH   1   2
BRANCH   1   9
HETATM    9  C4  UNL     1      -0.201   0.271   0.443  1.00  0.00     0.192 C 
BRANCH   9  10
HETATM   10  C5  UNL     1       1.301   0.160   0.443  1.00  0.00     0.014 C 
HETATM   11  C6  UNL     1       2.027   1.287   0.443  1.00  0.00     0.029 C 
BRANCH  11  12
HETATM   12  S2  UNL     1       3.715   1.287   0.443  1.00  0.00    -0.109 SA
BRANCH  12  13
HETATM   13  C7  UNL     1       4.098   2.996   0.443  1.00  0.00     0.088 C 
BRANCH  13  14
HETATM   14  C8  UNL     1       5.592   3.176   0.443  1.00  0.00    -0.014 C 
HETATM   15  C9  UNL     1       6.092   4.379   0.113  1.00  0.00    -0.004 C 
ENDBRANCH  13  14
ENDBRANCH  12  13
ENDBRANCH  11  12
ENDBRANCH   9  10
ENDBRANCH   1   9
TORSDOF 9
