REMARK  6 active torsions:
REMARK  status: ('A' for Active; 'I' for Inactive)
REMARK    1  A    between atoms: C2_2  and  C13_17 
REMARK    2  A    between atoms: C3_3  and  C12_15 
REMARK    3  A    between atoms: C4_4  and  C5_6 
REMARK    4  A    between atoms: C7_8  and  O3_13 
REMARK    5  A    between atoms: C13_17  and  C14_18 
REMARK    6  A    between atoms: C18_22  and  O5_24 
ROOT
HETATM    1  C1  UNL     1       1.010   1.586   1.066  1.00  0.00     0.143 C 
HETATM    2  C2  UNL     1       0.918   0.086   0.746  1.00  0.00     0.039 C 
HETATM    3  C3  UNL     1      -0.563  -0.123   0.379  1.00  0.00     0.067 C 
HETATM    4  C4  UNL     1      -0.926   1.266  -0.145  1.00  0.00     0.140 C 
HETATM    5  O1  UNL     1      -0.266   2.104   0.771  1.00  0.00    -0.352 OA
ENDROOT
BRANCH   2   6
HETATM    6  C13 UNL     1       1.863  -0.242  -0.412  1.00  0.00     0.029 C 
BRANCH   6   7
HETATM    7  C14 UNL     1       3.156  -0.793   0.074  1.00  0.00    -0.020 A 
HETATM    8  C15 UNL     1       4.180   0.076   0.488  1.00  0.00    -0.002 A 
HETATM    9  C16 UNL     1       5.400  -0.447   0.949  1.00  0.00     0.029 A 
HETATM   10  C17 UNL     1       5.602  -1.838   0.998  1.00  0.00     0.153 A 
HETATM   11  C18 UNL     1       4.576  -2.709   0.582  1.00  0.00     0.119 A 
HETATM   12  O6  UNL     1       6.748  -2.320   1.430  1.00  0.00    -0.188 OA
HETATM   13  C19 UNL     1       3.355  -2.184   0.123  1.00  0.00     0.022 A 
BRANCH  11  14
HETATM   14  O5  UNL     1       4.756  -4.014   0.625  1.00  0.00    -0.326 OA
HETATM   15  C20 UNL     1       3.629  -4.850   0.402  1.00  0.00     0.181 C 
ENDBRANCH  11  14
ENDBRANCH   6   7
ENDBRANCH   2   6
BRANCH   3  16
HETATM   16  C12 UNL     1      -0.826  -1.232  -0.637  1.00  0.00     0.185 C 
HETATM   17  O4  UNL     1      -0.193  -2.408  -0.182  1.00  0.00    -0.221 OA
ENDBRANCH   3  16
BRANCH   4  18
HETATM   18  C5  UNL     1      -2.385   1.555  -0.154  1.00  0.00     0.007 A 
HETATM   19  C6  UNL     1      -2.858   2.783  -0.651  1.00  0.00     0.024 A 
HETATM   20  C7  UNL     1      -4.236   3.061  -0.660  1.00  0.00     0.119 A 
HETATM   21  C8  UNL     1      -5.147   2.104  -0.172  1.00  0.00     0.153 A 
HETATM   22  C9  UNL     1      -4.674   0.877   0.324  1.00  0.00     0.029 A 
HETATM   23  O2  UNL     1      -6.440   2.355  -0.178  1.00  0.00    -0.188 OA
HETATM   24  C10 UNL     1      -3.295   0.602   0.334  1.00  0.00     0.000 A 
BRANCH  20  25
HETATM   25  O3  UNL     1      -4.670   4.213  -1.127  1.00  0.00    -0.326 OA
HETATM   26  C11 UNL     1      -5.818   4.205  -1.963  1.00  0.00     0.181 C 
ENDBRANCH  20  25
ENDBRANCH   4  18
TORSDOF 6
