REMARK  4 active torsions:
REMARK  status: ('A' for Active; 'I' for Inactive)
REMARK    1  A    between atoms: C11_13  and  C12_15 
REMARK    2  A    between atoms: C12_15  and  O4_17 
REMARK    3  A    between atoms: O4_17  and  C14_18 
REMARK    4  A    between atoms: C18_22  and  C19_24 
ROOT
HETATM    1  C1  UNL     1       2.990   0.898  -2.539  1.00  0.00     0.024 A 
HETATM    2  C2  UNL     1       2.090  -0.109  -2.119  1.00  0.00     0.095 A 
HETATM    3  C3  UNL     1       2.598  -1.190  -1.381  1.00  0.00     0.055 A 
HETATM    4  C4  UNL     1       3.983  -1.299  -1.061  1.00  0.00     0.104 A 
HETATM    5  C5  UNL     1       4.856  -0.264  -1.506  1.00  0.00     0.023 A 
HETATM    6  C6  UNL     1       4.365   0.832  -2.240  1.00  0.00     0.004 A 
HETATM    7  C7  UNL     1       6.307  -0.344  -1.188  1.00  0.00     0.007 A 
HETATM    8  C8  UNL     1       6.772  -1.391  -0.484  1.00  0.00     0.069 A 
HETATM    9  C9  UNL     1       5.834  -2.438  -0.043  1.00  0.00     0.300 A 
HETATM   10  O1  UNL     1       4.531  -2.320  -0.357  1.00  0.00    -0.273 OA
HETATM   11  O2  UNL     1       6.268  -3.373   0.590  1.00  0.00    -0.259 OA
HETATM   12  C10 UNL     1       1.451  -2.113  -1.041  1.00  0.00     0.208 A 
HETATM   13  C11 UNL     1       0.254  -1.430  -1.789  1.00  0.00     0.181 A 
HETATM   14  O3  UNL     1       0.776  -0.199  -2.322  1.00  0.00    -0.328 OA
HETATM   15  O10 UNL     1       1.254  -2.149   0.359  1.00  0.00    -0.216 OA
ENDROOT
BRANCH  13  16
HETATM   16  C12 UNL     1      -1.010  -1.137  -0.982  1.00  0.00     0.124 C 
HETATM   17  C13 UNL     1      -1.523  -2.430  -0.350  1.00  0.00     0.032 C 
HETATM   18  C20 UNL     1      -2.049  -0.469  -1.885  1.00  0.00     0.032 C 
BRANCH  16  19
HETATM   19  O4  UNL     1      -0.678  -0.233   0.047  1.00  0.00    -0.331 OA
BRANCH  19  20
HETATM   20  C14 UNL     1      -1.791   0.168   0.818  1.00  0.00     0.270 C 
HETATM   21  C15 UNL     1      -1.373   0.406   2.293  1.00  0.00     0.241 C 
HETATM   22  C16 UNL     1      -2.547   0.990   3.113  1.00  0.00     0.220 C 
HETATM   23  O9  UNL     1      -0.959  -0.822   2.871  1.00  0.00    -0.215 OA
HETATM   24  C17 UNL     1      -3.143   2.211   2.381  1.00  0.00     0.215 C 
HETATM   25  O8  UNL     1      -2.088   1.377   4.400  1.00  0.00    -0.218 OA
HETATM   26  C18 UNL     1      -3.477   1.875   0.910  1.00  0.00     0.184 C 
HETATM   27  O7  UNL     1      -4.328   2.631   3.031  1.00  0.00    -0.218 OA
HETATM   28  O5  UNL     1      -2.314   1.369   0.266  1.00  0.00    -0.326 OA
BRANCH  26  29
HETATM   29  C19 UNL     1      -3.932   3.102   0.111  1.00  0.00     0.214 C 
HETATM   30  O6  UNL     1      -4.394   2.660  -1.147  1.00  0.00    -0.218 OA
ENDBRANCH  26  29
ENDBRANCH  19  20
ENDBRANCH  16  19
ENDBRANCH  13  16
TORSDOF 4
