REMARK  8 active torsions:
REMARK  status: ('A' for Active; 'I' for Inactive)
REMARK    1  A    between atoms: C3_3  and  O3_20 
REMARK    2  A    between atoms: C5_5  and  C7_7 
REMARK    3  A    between atoms: C7_7  and  C8_8 
REMARK    4  A    between atoms: C8_8  and  C9_9 
REMARK    5  A    between atoms: C11_11  and  C13_15 
REMARK    6  A    between atoms: C13_15  and  C14_16 
REMARK    7  A    between atoms: C14_16  and  C15_17 
REMARK    8  A    between atoms: C15_17  and  C16_18 
ROOT
HETATM    1  C9  UNL     1      -0.651   1.643   1.176  1.00  0.00     0.121 C 
HETATM    2  C10 UNL     1       0.826   1.389   1.576  1.00  0.00     0.059 C 
HETATM    3  C11 UNL     1       1.385   0.082   0.978  1.00  0.00     0.120 C 
HETATM    4  O1  UNL     1       0.539  -1.012   1.334  1.00  0.00    -0.330 OA
HETATM    5  C12 UNL     1      -0.856  -0.721   1.432  1.00  0.00     0.294 C 
HETATM    6  O2  UNL     1      -1.252   0.437   0.713  1.00  0.00    -0.330 OA
ENDROOT
BRANCH   1   7
HETATM    7  C8  UNL     1      -0.805   2.678   0.060  1.00  0.00     0.035 C 
BRANCH   7   8
HETATM    8  C7  UNL     1      -2.223   3.240  -0.029  1.00  0.00     0.029 C 
BRANCH   8   9
HETATM    9  C5  UNL     1      -3.180   2.228  -0.549  1.00  0.00    -0.020 A 
HETATM   10  C4  UNL     1      -3.111   1.818  -1.891  1.00  0.00     0.022 A 
HETATM   11  C3  UNL     1      -4.016   0.861  -2.387  1.00  0.00     0.119 A 
HETATM   12  C2  UNL     1      -4.992   0.314  -1.535  1.00  0.00     0.153 A 
HETATM   13  C1  UNL     1      -5.061   0.726  -0.192  1.00  0.00     0.029 A 
HETATM   14  O4  UNL     1      -5.844  -0.584  -1.990  1.00  0.00    -0.188 OA
HETATM   15  C6  UNL     1      -4.156   1.684   0.301  1.00  0.00    -0.002 A 
BRANCH  11  16
HETATM   16  O3  UNL     1      -3.944   0.480  -3.647  1.00  0.00    -0.326 OA
HETATM   17  C18 UNL     1      -4.197  -0.885  -3.945  1.00  0.00     0.181 C 
ENDBRANCH  11  16
ENDBRANCH   8   9
ENDBRANCH   7   8
ENDBRANCH   1   7
BRANCH   3  18
HETATM   18  C13 UNL     1       2.805  -0.242   1.445  1.00  0.00     0.030 C 
BRANCH  18  19
HETATM   19  C14 UNL     1       3.434  -1.399   0.668  1.00  0.00     0.003 C 
BRANCH  19  20
HETATM   20  C15 UNL     1       4.873  -1.682   1.094  1.00  0.00     0.000 C 
BRANCH  20  21
HETATM   21  C16 UNL     1       5.502  -2.838   0.314  1.00  0.00     0.000 C 
HETATM   22  C17 UNL     1       6.941  -3.125   0.744  1.00  0.00     0.000 C 
ENDBRANCH  20  21
ENDBRANCH  19  20
ENDBRANCH  18  19
ENDBRANCH   3  18
TORSDOF 8
