REMARK  4 active torsions:
REMARK  status: ('A' for Active; 'I' for Inactive)
REMARK    1  A    between atoms: C7_7  and  C13_14 
REMARK    2  A    between atoms: C13_14  and  C14_15 
REMARK    3  A    between atoms: C14_15  and  C15_16 
REMARK    4  A    between atoms: C15_16  and  C16_17 
ROOT
HETATM    1  C1  UNL     1      -3.252   0.244  -0.580  1.00  0.00     0.026 C 
HETATM    2  C2  UNL     1      -3.359   1.725  -0.955  1.00  0.00     0.009 C 
HETATM    3  C3  UNL     1      -2.383   2.600  -0.148  1.00  0.00     0.019 C 
HETATM    4  C4  UNL     1      -0.969   2.027  -0.221  1.00  0.00    -0.029 C 
HETATM    5  C5  UNL     1      -0.771   0.572  -0.498  1.00  0.00    -0.031 C 
HETATM    6  C6  UNL     1      -1.830  -0.252  -0.678  1.00  0.00    -0.031 C 
HETATM    7  C7  UNL     1       0.643   0.002  -0.586  1.00  0.00     0.021 C 
HETATM    8  C8  UNL     1       1.633   0.865   0.236  1.00  0.00     0.038 C 
HETATM    9  C9  UNL     1       1.514   2.369  -0.088  1.00  0.00     0.174 C 
HETATM   10  C10 UNL     1       0.086   2.856  -0.025  1.00  0.00     0.002 C 
HETATM   11  O1  UNL     1       2.047   2.648  -1.367  1.00  0.00    -0.219 OA
HETATM   12  C11 UNL     1       1.438   0.654   1.746  1.00  0.00     0.003 C 
HETATM   13  C12 UNL     1       1.037  -0.021  -2.066  1.00  0.00     0.004 C 
HETATM   14  C19 UNL     1      -2.455   4.025  -0.711  1.00  0.00     0.004 C 
HETATM   15  C20 UNL     1      -2.803   2.631   1.326  1.00  0.00     0.004 C 
ENDROOT
BRANCH   7  16
HETATM   16  C13 UNL     1       0.713  -1.447  -0.072  1.00  0.00     0.007 C 
BRANCH  16  17
HETATM   17  C14 UNL     1       2.141  -1.988  -0.027  1.00  0.00     0.035 C 
BRANCH  17  18
HETATM   18  C15 UNL     1       2.201  -3.463   0.371  1.00  0.00     0.145 C 
HETATM   19  C18 UNL     1       1.592  -4.385  -0.686  1.00  0.00     0.038 C 
HETATM   20  O2  UNL     1       3.555  -3.820   0.539  1.00  0.00    -0.222 OA
BRANCH  18  21
HETATM   21  C16 UNL     1       1.637  -3.711   1.744  1.00  0.00     0.003 C 
HETATM   22  C17 UNL     1       0.373  -4.154   1.846  1.00  0.00    -0.002 C 
ENDBRANCH  18  21
ENDBRANCH  17  18
ENDBRANCH  16  17
ENDBRANCH   7  16
TORSDOF 4
