REMARK  2 active torsions:
REMARK  status: ('A' for Active; 'I' for Inactive)
REMARK    1  A    between atoms: S1_1  and  S2_2 
REMARK    2  A    between atoms: S1_1  and  C2_4 
ROOT
HETATM    1  S1  UNL     1       0.418  -0.838  -0.582  1.00  0.00    -0.055 SA
ENDROOT
BRANCH   1   2
HETATM    2  S2  UNL     1      -1.076  -2.227  -0.582  1.00  0.00    -0.077 SA
HETATM    3  C1  UNL     1      -1.375  -2.506   1.185  1.00  0.00     0.082 C 
ENDBRANCH   1   2
BRANCH   1   4
HETATM    4  C2  UNL     1      -0.393   0.642  -0.582  1.00  0.00     0.037 C 
HETATM    5  C3  UNL     1       0.248   1.822  -0.582  1.00  0.00    -0.018 C 
HETATM    6  C4  UNL     1       1.754   1.822  -0.582  1.00  0.00     0.031 C 
ENDBRANCH   1   4
TORSDOF 2
