REMARK  4 active torsions:
REMARK  status: ('A' for Active; 'I' for Inactive)
REMARK    1  A    between atoms: C5_5  and  C7_7 
REMARK    2  A    between atoms: C7_7  and  O1_8 
REMARK    3  A    between atoms: O1_8  and  C8_9 
REMARK    4  A    between atoms: C8_9  and  C9_10 
ROOT
HETATM    1  O1  UNL     1       0.873   0.094  -0.141  1.00  0.00    -0.298 OA
ENDROOT
BRANCH   1   2
HETATM    2  C7  UNL     1       2.125  -0.192  -0.490  1.00  0.00     0.296 C 
HETATM    3  O6  UNL     1       2.750   0.428  -1.320  1.00  0.00    -0.259 OA
BRANCH   2   4
HETATM    4  C5  UNL     1       2.734  -1.358   0.217  1.00  0.00     0.067 A 
HETATM    5  C4  UNL     1       1.992  -2.067   1.178  1.00  0.00     0.035 A 
HETATM    6  C3  UNL     1       2.562  -3.164   1.844  1.00  0.00     0.158 A 
HETATM    7  C2  UNL     1       3.883  -3.553   1.549  1.00  0.00     0.181 A 
HETATM    8  O7  UNL     1       1.861  -3.824   2.744  1.00  0.00    -0.188 OA
HETATM    9  C1  UNL     1       4.629  -2.846   0.588  1.00  0.00     0.158 A 
HETATM   10  O8  UNL     1       4.422  -4.582   2.174  1.00  0.00    -0.186 OA
HETATM   11  C6  UNL     1       4.053  -1.748  -0.076  1.00  0.00     0.035 A 
HETATM   12  O9  UNL     1       5.865  -3.207   0.309  1.00  0.00    -0.188 OA
ENDBRANCH   2   4
ENDBRANCH   1   2
BRANCH   1  13
HETATM   13  C8  UNL     1       0.353   1.209  -0.848  1.00  0.00     0.155 C 
BRANCH  13  14
HETATM   14  C9  UNL     1      -1.086   1.478  -0.393  1.00  0.00     0.066 C 
HETATM   15  C10 UNL     1      -1.670   2.771  -0.998  1.00  0.00     0.188 C 
HETATM   16  C11 UNL     1      -3.063   3.117  -0.398  1.00  0.00     0.215 C 
HETATM   17  O5  UNL     1      -1.793   2.607  -2.400  1.00  0.00    -0.221 OA
HETATM   18  C12 UNL     1      -3.824   1.877   0.148  1.00  0.00     0.215 C 
HETATM   19  O4  UNL     1      -2.881   4.037   0.664  1.00  0.00    -0.218 OA
HETATM   20  C13 UNL     1      -3.504   0.603  -0.670  1.00  0.00     0.185 C 
HETATM   21  O3  UNL     1      -5.215   2.148   0.131  1.00  0.00    -0.218 OA
HETATM   22  C14 UNL     1      -1.996   0.252  -0.631  1.00  0.00     0.041 C 
HETATM   23  O2  UNL     1      -4.240  -0.510  -0.190  1.00  0.00    -0.221 OA
ENDBRANCH  13  14
ENDBRANCH   1  13
TORSDOF 4
