REMARK  17 active torsions:
REMARK  status: ('A' for Active; 'I' for Inactive)
REMARK    1  A    between atoms: C3_3  and  O21_74 
REMARK    2  A    between atoms: C4_4  and  O2_7 
REMARK    3  A    between atoms: O2_7  and  C6_8 
REMARK    4  A    between atoms: C7_9  and  C53_72 
REMARK    5  A    between atoms: C21_23  and  C30_32 
REMARK    6  A    between atoms: C30_32  and  O4_34 
REMARK    7  A    between atoms: O4_34  and  C31_35 
REMARK    8  A    between atoms: C35_42  and  C36_44 
REMARK    9  A    between atoms: C36_44  and  O10_46 
REMARK   10  A    between atoms: O10_46  and  C37_47 
REMARK   11  A    between atoms: C40_52  and  O13_53 
REMARK   12  A    between atoms: O13_53  and  C41_54 
REMARK   13  A    between atoms: C47_64  and  C48_66 
REMARK   14  A    between atoms: O21_74  and  C54_75 
REMARK   15  A    between atoms: C57_79  and  O24_82 
REMARK   16  A    between atoms: O24_82  and  C59_83 
REMARK   17  A    between atoms: C63_90  and  C64_92 
ROOT
HETATM    1  C6  UNL     1       5.076   0.129  -2.846  1.00  0.00     0.120 C 
HETATM    2  C7  UNL     1       3.824  -0.270  -2.029  1.00  0.00     0.056 C 
HETATM    3  C8  UNL     1       2.984   1.012  -1.711  1.00  0.00     0.005 C 
HETATM    4  C9  UNL     1       3.029   2.117  -2.820  1.00  0.00     0.000 C 
HETATM    5  C10 UNL     1       3.361   1.486  -4.191  1.00  0.00     0.003 C 
HETATM    6  C11 UNL     1       4.713   0.748  -4.213  1.00  0.00     0.030 C 
HETATM    7  C12 UNL     1       1.713   2.975  -2.871  1.00  0.00     0.000 C 
HETATM    8  C13 UNL     1       1.090   3.230  -1.465  1.00  0.00     0.000 C 
HETATM    9  C14 UNL     1       0.729   1.869  -0.807  1.00  0.00     0.000 C 
HETATM   10  C15 UNL     1       1.549   0.660  -1.285  1.00  0.00     0.000 C 
HETATM   11  C16 UNL     1      -0.119   4.240  -1.582  1.00  0.00     0.000 C 
HETATM   12  C17 UNL     1      -1.184   3.842  -2.647  1.00  0.00     0.001 C 
HETATM   13  C18 UNL     1      -0.506   3.502  -3.994  1.00  0.00     0.000 C 
HETATM   14  C19 UNL     1       0.627   2.482  -3.856  1.00  0.00     0.000 C 
HETATM   15  C20 UNL     1      -2.273   2.799  -2.238  1.00  0.00     0.009 C 
HETATM   16  C21 UNL     1      -2.850   3.016  -0.797  1.00  0.00     0.078 C 
HETATM   17  C22 UNL     1      -1.795   3.465   0.242  1.00  0.00     0.009 C 
HETATM   18  C23 UNL     1      -0.834   4.547  -0.246  1.00  0.00     0.001 C 
HETATM   19  C24 UNL     1      -3.996   4.043  -0.881  1.00  0.00     0.009 C 
HETATM   20  C25 UNL     1      -5.199   3.551  -1.713  1.00  0.00     0.001 C 
HETATM   21  C26 UNL     1      -4.842   2.578  -2.869  1.00  0.00     0.000 C 
HETATM   22  C27 UNL     1      -3.389   2.801  -3.336  1.00  0.00     0.001 C 
HETATM   23  C28 UNL     1      -5.791   2.830  -4.047  1.00  0.00     0.000 C 
HETATM   24  C29 UNL     1      -5.041   1.115  -2.455  1.00  0.00     0.000 C 
HETATM   25  C49 UNL     1       0.467   5.592  -2.043  1.00  0.00     0.000 C 
HETATM   26  C50 UNL     1       2.158   3.885  -0.564  1.00  0.00     0.000 C 
HETATM   27  C51 UNL     1       4.192   3.078  -2.500  1.00  0.00     0.000 C 
HETATM   28  C52 UNL     1       4.238  -0.934  -0.707  1.00  0.00     0.005 C 
ENDROOT
BRANCH  16  29
HETATM   29  C30 UNL     1      -3.396   1.723  -0.232  1.00  0.00     0.273 C 
HETATM   30  O3  UNL     1      -2.895   0.660  -0.512  1.00  0.00    -0.264 OA
BRANCH  29  31
HETATM   31  O4  UNL     1      -4.445   1.857   0.574  1.00  0.00    -0.273 OA
BRANCH  31  32
HETATM   32  C31 UNL     1      -4.086   1.779   1.947  1.00  0.00     0.276 C 
HETATM   33  C32 UNL     1      -4.947   2.766   2.773  1.00  0.00     0.241 C 
HETATM   34  O5  UNL     1      -4.383   2.896   4.066  1.00  0.00    -0.215 OA
HETATM   35  C33 UNL     1      -6.410   2.291   2.916  1.00  0.00     0.220 C 
HETATM   36  O6  UNL     1      -7.063   2.469   1.668  1.00  0.00    -0.218 OA
HETATM   37  C34 UNL     1      -6.438   0.807   3.352  1.00  0.00     0.217 C 
HETATM   38  O7  UNL     1      -7.760   0.301   3.379  1.00  0.00    -0.218 OA
HETATM   39  C35 UNL     1      -5.531  -0.100   2.480  1.00  0.00     0.210 C 
HETATM   40  O8  UNL     1      -4.211   0.441   2.434  1.00  0.00    -0.323 OA
BRANCH  39  41
HETATM   41  C36 UNL     1      -6.043  -0.342   1.053  1.00  0.00     0.301 C 
HETATM   42  O9  UNL     1      -5.059  -1.065   0.348  1.00  0.00    -0.187 OA
BRANCH  41  43
HETATM   43  O10 UNL     1      -7.227  -1.104   1.131  1.00  0.00    -0.300 OA
BRANCH  43  44
HETATM   44  C37 UNL     1      -7.877  -1.254  -0.115  1.00  0.00     0.272 C 
HETATM   45  C38 UNL     1      -7.938  -2.729  -0.633  1.00  0.00     0.241 C 
HETATM   46  O11 UNL     1      -6.824  -3.486  -0.188  1.00  0.00    -0.215 OA
HETATM   47  C39 UNL     1      -9.254  -3.475  -0.270  1.00  0.00     0.217 C 
HETATM   48  O12 UNL     1     -10.150  -3.383  -1.361  1.00  0.00    -0.218 OA
HETATM   49  C40 UNL     1      -9.947  -2.852   0.959  1.00  0.00     0.181 C 
HETATM   50  C47 UNL     1     -10.078  -1.297   0.887  1.00  0.00     0.181 C 
HETATM   51  O18 UNL     1      -9.193  -0.719  -0.076  1.00  0.00    -0.326 OA
BRANCH  49  52
HETATM   52  O13 UNL     1      -9.209  -3.209   2.113  1.00  0.00    -0.326 OA
BRANCH  52  53
HETATM   53  C41 UNL     1      -9.543  -4.487   2.615  1.00  0.00     0.270 C 
HETATM   54  C42 UNL     1      -8.361  -5.063   3.443  1.00  0.00     0.241 C 
HETATM   55  O14 UNL     1      -8.549  -6.461   3.584  1.00  0.00    -0.215 OA
HETATM   56  C43 UNL     1      -8.254  -4.442   4.854  1.00  0.00     0.220 C 
HETATM   57  O15 UNL     1      -7.723  -3.131   4.736  1.00  0.00    -0.218 OA
HETATM   58  C44 UNL     1      -9.647  -4.428   5.524  1.00  0.00     0.212 C 
HETATM   59  O16 UNL     1      -9.608  -3.758   6.774  1.00  0.00    -0.218 OA
HETATM   60  C45 UNL     1     -10.756  -3.830   4.627  1.00  0.00     0.151 C 
HETATM   61  O17 UNL     1     -10.766  -4.490   3.359  1.00  0.00    -0.329 OA
HETATM   62  C46 UNL     1     -10.682  -2.309   4.434  1.00  0.00     0.035 C 
ENDBRANCH  52  53
ENDBRANCH  49  52
BRANCH  50  63
HETATM   63  C48 UNL     1     -11.486  -0.854   0.484  1.00  0.00     0.214 C 
HETATM   64  O19 UNL     1     -11.592   0.535   0.703  1.00  0.00    -0.218 OA
ENDBRANCH  50  63
ENDBRANCH  43  44
ENDBRANCH  41  43
ENDBRANCH  39  41
ENDBRANCH  31  32
ENDBRANCH  29  31
ENDBRANCH  16  29
BRANCH   2  65
HETATM   65  C53 UNL     1       3.002  -1.297  -2.826  1.00  0.00     0.184 C 
HETATM   66  O20 UNL     1       3.697  -2.524  -2.816  1.00  0.00    -0.221 OA
ENDBRANCH   2  65
BRANCH   1  67
HETATM   67  O2  UNL     1       5.926  -0.986  -3.057  1.00  0.00    -0.332 OA
BRANCH  67  68
HETATM   68  C4  UNL     1       7.121  -0.654  -3.736  1.00  0.00     0.267 C 
HETATM   69  C3  UNL     1       8.297  -1.582  -3.326  1.00  0.00     0.207 C 
HETATM   70  C2  UNL     1       8.102  -3.024  -3.846  1.00  0.00     0.217 C 
HETATM   71  C1  UNL     1       7.805  -2.979  -5.361  1.00  0.00     0.214 C 
HETATM   72  O31 UNL     1       9.272  -3.789  -3.607  1.00  0.00    -0.218 OA
HETATM   73  C5  UNL     1       6.656  -2.002  -5.682  1.00  0.00     0.181 C 
HETATM   74  O32 UNL     1       7.442  -4.266  -5.828  1.00  0.00    -0.218 OA
HETATM   75  O1  UNL     1       6.942  -0.711  -5.150  1.00  0.00    -0.326 OA
BRANCH  69  76
HETATM   76  O21 UNL     1       8.463  -1.572  -1.918  1.00  0.00    -0.324 OA
BRANCH  76  77
HETATM   77  C54 UNL     1       9.074  -0.393  -1.436  1.00  0.00     0.270 C 
HETATM   78  O22 UNL     1      10.496  -0.508  -1.451  1.00  0.00    -0.329 OA
HETATM   79  C55 UNL     1      11.061  -1.543  -0.643  1.00  0.00     0.151 C 
HETATM   80  C56 UNL     1      10.272  -1.758   0.682  1.00  0.00     0.209 C 
HETATM   81  C65 UNL     1      11.162  -2.824  -1.481  1.00  0.00     0.035 C 
HETATM   82  C57 UNL     1       9.539  -0.477   1.127  1.00  0.00     0.186 C 
HETATM   83  O30 UNL     1      11.178  -2.195   1.682  1.00  0.00    -0.218 OA
HETATM   84  C58 UNL     1       8.594   0.027  -0.006  1.00  0.00     0.238 C 
HETATM   85  O23 UNL     1       7.235  -0.346   0.197  1.00  0.00    -0.215 OA
BRANCH  82  86
HETATM   86  O24 UNL     1       8.867  -0.662   2.365  1.00  0.00    -0.326 OA
BRANCH  86  87
HETATM   87  C59 UNL     1       9.672  -0.358   3.486  1.00  0.00     0.270 C 
HETATM   88  C60 UNL     1       9.317   1.017   4.113  1.00  0.00     0.241 C 
HETATM   89  O25 UNL     1       9.385   2.059   3.152  1.00  0.00    -0.215 OA
HETATM   90  C61 UNL     1       7.961   1.017   4.859  1.00  0.00     0.220 C 
HETATM   91  O26 UNL     1       6.881   0.934   3.940  1.00  0.00    -0.218 OA
HETATM   92  C62 UNL     1       7.944  -0.188   5.830  1.00  0.00     0.215 C 
HETATM   93  O27 UNL     1       6.680  -0.311   6.461  1.00  0.00    -0.218 OA
HETATM   94  C63 UNL     1       8.319  -1.514   5.127  1.00  0.00     0.184 C 
HETATM   95  O28 UNL     1       9.584  -1.375   4.482  1.00  0.00    -0.326 OA
BRANCH  94  96
HETATM   96  C64 UNL     1       8.453  -2.686   6.106  1.00  0.00     0.214 C 
HETATM   97  O29 UNL     1       8.639  -3.865   5.357  1.00  0.00    -0.218 OA
ENDBRANCH  94  96
ENDBRANCH  86  87
ENDBRANCH  82  86
ENDBRANCH  76  77
ENDBRANCH  69  76
ENDBRANCH  67  68
ENDBRANCH   1  67
TORSDOF 17
