REMARK  3 active torsions:
REMARK  status: ('A' for Active; 'I' for Inactive)
REMARK    1  A    between atoms: C2_2  and  O4_20 
REMARK    2  A    between atoms: C4_4  and  O2_17 
REMARK    3  A    between atoms: C9_9  and  O1_15 
ROOT
HETATM    1  C1  UNL     1       2.697   1.072   0.145  1.00  0.00     0.022 A 
HETATM    2  C2  UNL     1       3.332  -0.168  -0.072  1.00  0.00     0.121 A 
HETATM    3  C3  UNL     1       2.557  -1.322  -0.312  1.00  0.00     0.175 A 
HETATM    4  C4  UNL     1       1.143  -1.246  -0.336  1.00  0.00     0.121 A 
HETATM    5  C5  UNL     1       0.482   0.002  -0.092  1.00  0.00     0.020 A 
HETATM    6  C6  UNL     1      -1.002   0.154  -0.068  1.00  0.00    -0.002 A 
HETATM    7  C7  UNL     1      -1.887  -0.943   0.143  1.00  0.00     0.002 A 
HETATM    8  C8  UNL     1      -3.287  -0.752   0.133  1.00  0.00     0.024 A 
HETATM    9  C9  UNL     1      -3.830   0.535  -0.068  1.00  0.00     0.094 A 
HETATM   10  C10 UNL     1      -2.969   1.637  -0.256  1.00  0.00     0.020 A 
HETATM   11  C11 UNL     1      -1.563   1.457  -0.250  1.00  0.00    -0.020 A 
HETATM   12  C12 UNL     1      -0.670   2.627  -0.437  1.00  0.00     0.031 C 
HETATM   13  C13 UNL     1       0.639   2.481   0.361  1.00  0.00     0.031 C 
HETATM   14  C14 UNL     1       1.285   1.164   0.133  1.00  0.00    -0.018 A 
HETATM   15  O3  UNL     1       3.166  -2.496  -0.527  1.00  0.00    -0.186 OA
ENDROOT
BRANCH   2  16
HETATM   16  O4  UNL     1       4.670  -0.244  -0.051  1.00  0.00    -0.326 OA
HETATM   17  C17 UNL     1       5.402   0.940   0.227  1.00  0.00     0.181 C 
ENDBRANCH   2  16
BRANCH   4  18
HETATM   18  O2  UNL     1       0.471  -2.371  -0.615  1.00  0.00    -0.326 OA
HETATM   19  C16 UNL     1       0.807  -3.545   0.107  1.00  0.00     0.181 C 
ENDBRANCH   4  18
BRANCH   9  20
HETATM   20  O1  UNL     1      -5.158   0.709  -0.078  1.00  0.00    -0.328 OA
HETATM   21  C15 UNL     1      -5.983  -0.443   0.004  1.00  0.00     0.181 C 
ENDBRANCH   9  20
TORSDOF 3
