REMARK  2 active torsions:
REMARK  status: ('A' for Active; 'I' for Inactive)
REMARK    1  A    between atoms: C5_5  and  C7_7 
REMARK    2  A    between atoms: C9_11  and  C12_14 
ROOT
HETATM    1  C1  UNL     1      -3.725  -0.664   0.916  1.00  0.00     0.026 C 
HETATM    2  C2  UNL     1      -2.959  -1.693   0.078  1.00  0.00     0.005 C 
HETATM    3  C3  UNL     1      -1.838  -1.025  -0.735  1.00  0.00     0.004 C 
HETATM    4  C4  UNL     1      -0.830  -0.375   0.250  1.00  0.00     0.024 C 
HETATM    5  C5  UNL     1      -1.512   0.469   1.330  1.00  0.00     0.037 C 
HETATM    6  C6  UNL     1      -2.820   0.315   1.631  1.00  0.00    -0.024 C 
HETATM    7  C8  UNL     1       0.217   0.420  -0.570  1.00  0.00     0.007 C 
HETATM    8  C9  UNL     1       1.572   0.121   0.060  1.00  0.00     0.028 C 
HETATM    9  C10 UNL     1       1.430  -1.377   0.271  1.00  0.00     0.003 C 
HETATM   10  C11 UNL     1       0.045  -1.475   0.902  1.00  0.00     0.004 C 
HETATM   11  C15 UNL     1      -2.416   0.012  -1.709  1.00  0.00     0.000 C 
ENDROOT
BRANCH   5  12
HETATM   12  C7  UNL     1      -0.719   1.469   2.066  1.00  0.00     0.206 C 
HETATM   13  O1  UNL     1      -0.147   1.164   3.086  1.00  0.00    -0.644 OA
HETATM   14  O2  UNL     1      -0.688   2.688   1.533  1.00  0.00    -0.644 OA
ENDBRANCH   5  12
BRANCH   8  15
HETATM   15  C12 UNL     1       2.738   0.467  -0.860  1.00  0.00     0.127 C 
HETATM   16  C13 UNL     1       2.721   1.965  -1.166  1.00  0.00     0.033 C 
HETATM   17  C14 UNL     1       4.049   0.010  -0.217  1.00  0.00     0.033 C 
HETATM   18  O3  UNL     1       2.576  -0.234  -2.072  1.00  0.00    -0.226 OA
ENDBRANCH   8  15
TORSDOF 2
