REMARK  8 active torsions:
REMARK  status: ('A' for Active; 'I' for Inactive)
REMARK    1  A    between atoms: C1_1  and  C7_8 
REMARK    2  A    between atoms: C7_8  and  C8_9 
REMARK    3  A    between atoms: C15_20  and  C16_21 
REMARK    4  A    between atoms: C16_21  and  C18_23 
REMARK    5  A    between atoms: C21_27  and  C29_39 
REMARK    6  A    between atoms: C23_30  and  C25_34 
REMARK    7  A    between atoms: C25_34  and  C26_35 
REMARK    8  A    between atoms: C29_39  and  C30_40 
ROOT
HETATM    1  C8  UNL     1       0.469   3.754  -0.152  1.00  0.00     0.191 C 
HETATM    2  C9  UNL     1       1.906   3.270  -0.084  1.00  0.00     0.275 C 
HETATM    3  N1  UNL     1       2.227   1.978   0.285  1.00  0.00    -0.229 NA
HETATM    4  C10 UNL     1       3.641   1.533   0.357  1.00  0.00     0.186 C 
HETATM    5  C11 UNL     1       3.822   0.471   1.447  1.00  0.00     0.037 C 
HETATM    6  C12 UNL     1       4.178   1.205  -1.029  1.00  0.00     0.274 C 
HETATM    7  O2  UNL     1       4.570   2.129  -1.707  1.00  0.00    -0.268 OA
HETATM    8  N2  UNL     1       4.248  -0.063  -1.572  1.00  0.00    -0.226 NA
HETATM    9  C13 UNL     1       3.850  -1.322  -0.901  1.00  0.00     0.218 C 
HETATM   10  C14 UNL     1       2.379  -1.414  -0.543  1.00  0.00     0.277 C 
HETATM   11  N3  UNL     1       2.022  -2.102   0.596  1.00  0.00    -0.229 NA
HETATM   12  C15 UNL     1       0.609  -2.254   1.014  1.00  0.00     0.186 C 
HETATM   13  C20 UNL     1       0.080  -0.977   1.646  1.00  0.00     0.274 C 
HETATM   14  N4  UNL     1      -1.004  -0.293   1.137  1.00  0.00    -0.228 NA
HETATM   15  C21 UNL     1      -1.752  -0.711  -0.074  1.00  0.00     0.191 C 
HETATM   16  C22 UNL     1      -2.672   0.394  -0.568  1.00  0.00     0.275 C 
HETATM   17  N5  UNL     1      -2.227   1.396  -1.404  1.00  0.00    -0.229 NA
HETATM   18  C23 UNL     1      -0.826   1.518  -1.885  1.00  0.00     0.186 C 
HETATM   19  C24 UNL     1      -0.553   2.936  -2.360  1.00  0.00     0.274 C 
HETATM   20  N6  UNL     1       0.018   3.908  -1.561  1.00  0.00    -0.228 NA
HETATM   21  O3  UNL     1      -0.850   3.234  -3.494  1.00  0.00    -0.268 OA
HETATM   22  O4  UNL     1      -3.832   0.400  -0.225  1.00  0.00    -0.268 OA
HETATM   23  O5  UNL     1       0.625  -0.541   2.637  1.00  0.00    -0.268 OA
HETATM   24  O6  UNL     1       1.535  -0.899  -1.238  1.00  0.00    -0.268 OA
HETATM   25  O7  UNL     1       2.789   4.051  -0.358  1.00  0.00    -0.268 OA
ENDROOT
BRANCH   1  26
HETATM   26  C7  UNL     1      -0.545   3.020   0.730  1.00  0.00     0.060 C 
BRANCH  26  27
HETATM   27  C1  UNL     1      -0.467   3.469   2.144  1.00  0.00    -0.020 A 
HETATM   28  C2  UNL     1      -1.098   4.662   2.541  1.00  0.00    -0.002 A 
HETATM   29  C3  UNL     1      -1.023   5.086   3.879  1.00  0.00     0.027 A 
HETATM   30  C4  UNL     1      -0.318   4.322   4.824  1.00  0.00     0.131 A 
HETATM   31  C5  UNL     1       0.313   3.129   4.426  1.00  0.00     0.027 A 
HETATM   32  O1  UNL     1      -0.248   4.721   6.078  1.00  0.00    -0.190 OA
HETATM   33  C6  UNL     1       0.238   2.703   3.090  1.00  0.00    -0.002 A 
ENDBRANCH  26  27
ENDBRANCH   1  26
BRANCH  18  34
HETATM   34  C25 UNL     1      -0.576   0.516  -3.020  1.00  0.00     0.034 C 
BRANCH  34  35
HETATM   35  C26 UNL     1       0.857   0.568  -3.549  1.00  0.00     0.002 C 
HETATM   36  C27 UNL     1       1.342  -0.783  -4.072  1.00  0.00     0.000 C 
HETATM   37  C28 UNL     1       1.074   1.701  -4.551  1.00  0.00     0.000 C 
ENDBRANCH  34  35
ENDBRANCH  18  34
BRANCH  15  38
HETATM   38  C29 UNL     1      -2.549  -1.990   0.221  1.00  0.00     0.060 C 
BRANCH  38  39
HETATM   39  C30 UNL     1      -3.395  -2.385  -0.936  1.00  0.00    -0.020 A 
HETATM   40  C31 UNL     1      -4.797  -2.336  -0.830  1.00  0.00    -0.004 A 
HETATM   41  C32 UNL     1      -5.598  -2.709  -1.924  1.00  0.00    -0.000 A 
HETATM   42  C33 UNL     1      -4.998  -3.133  -3.123  1.00  0.00    -0.000 A 
HETATM   43  C34 UNL     1      -3.598  -3.182  -3.229  1.00  0.00    -0.000 A 
HETATM   44  C35 UNL     1      -2.797  -2.809  -2.137  1.00  0.00    -0.004 A 
ENDBRANCH  38  39
ENDBRANCH  15  38
BRANCH  12  45
HETATM   45  C16 UNL     1       0.475  -3.420   1.998  1.00  0.00     0.032 C 
HETATM   46  C17 UNL     1       0.899  -4.758   1.387  1.00  0.00     0.003 C 
BRANCH  45  47
HETATM   47  C18 UNL     1      -0.904  -3.483   2.654  1.00  0.00     0.002 C 
HETATM   48  C19 UNL     1      -0.863  -4.088   4.057  1.00  0.00     0.000 C 
ENDBRANCH  45  47
ENDBRANCH  12  45
TORSDOF 8
