REMARK  8 active torsions:
REMARK  status: ('A' for Active; 'I' for Inactive)
REMARK    1  A    between atoms: C7_8  and  C22_35 
REMARK    2  A    between atoms: C8_9  and  O3_12 
REMARK    3  A    between atoms: O3_12  and  C10_13 
REMARK    4  A    between atoms: C13_16  and  O6_21 
REMARK    5  A    between atoms: C14_17  and  C15_19 
REMARK    6  A    between atoms: O6_21  and  C16_22 
REMARK    7  A    between atoms: C20_26  and  C21_28 
REMARK    8  A    between atoms: C25_38  and  O15_42 
ROOT
HETATM    1  C1  UNL     1      -7.369   0.804  -0.249  1.00  0.00     0.135 A 
HETATM    2  C2  UNL     1      -7.103  -0.556   0.037  1.00  0.00     0.055 A 
HETATM    3  C3  UNL     1      -5.839  -1.114  -0.269  1.00  0.00     0.138 A 
HETATM    4  C4  UNL     1      -4.841  -0.301  -0.865  1.00  0.00     0.089 A 
HETATM    5  C5  UNL     1      -5.105   1.063  -1.151  1.00  0.00     0.107 A 
HETATM    6  C6  UNL     1      -6.371   1.612  -0.842  1.00  0.00     0.052 A 
HETATM    7  O1  UNL     1      -4.153   1.835  -1.717  1.00  0.00    -0.305 OA
HETATM    8  C7  UNL     1      -2.921   1.390  -2.041  1.00  0.00     0.126 A 
HETATM    9  C8  UNL     1      -2.546   0.105  -1.818  1.00  0.00     0.158 A 
HETATM   10  C9  UNL     1      -3.499  -0.850  -1.204  1.00  0.00     0.224 A 
HETATM   11  O2  UNL     1      -3.110  -1.983  -1.032  1.00  0.00    -0.284 OA
HETATM   12  O17 UNL     1      -5.604  -2.405   0.008  1.00  0.00    -0.190 OA
HETATM   13  O18 UNL     1      -8.568   1.327   0.043  1.00  0.00    -0.190 OA
ENDROOT
BRANCH   9  14
HETATM   14  O3  UNL     1      -1.326  -0.325  -2.144  1.00  0.00    -0.298 OA
BRANCH  14  15
HETATM   15  C10 UNL     1      -0.359  -0.013  -1.150  1.00  0.00     0.274 C 
HETATM   16  C11 UNL     1       1.048  -0.421  -1.633  1.00  0.00     0.241 C 
HETATM   17  C12 UNL     1       2.101  -0.222  -0.521  1.00  0.00     0.217 C 
HETATM   18  O13 UNL     1       1.384   0.367  -2.762  1.00  0.00    -0.215 OA
HETATM   19  C13 UNL     1       1.618  -0.899   0.781  1.00  0.00     0.181 C 
HETATM   20  O12 UNL     1       3.339  -0.783  -0.925  1.00  0.00    -0.218 OA
HETATM   21  C14 UNL     1       0.179  -0.463   1.142  1.00  0.00     0.181 C 
HETATM   22  O4  UNL     1      -0.683  -0.718   0.041  1.00  0.00    -0.326 OA
BRANCH  19  23
HETATM   23  O6  UNL     1       2.480  -0.552   1.851  1.00  0.00    -0.326 OA
BRANCH  23  24
HETATM   24  C16 UNL     1       2.834  -1.654   2.662  1.00  0.00     0.270 C 
HETATM   25  C17 UNL     1       3.489  -1.169   3.980  1.00  0.00     0.241 C 
HETATM   26  C18 UNL     1       4.025  -2.361   4.805  1.00  0.00     0.220 C 
HETATM   27  O11 UNL     1       2.530  -0.459   4.748  1.00  0.00    -0.215 OA
HETATM   28  C19 UNL     1       4.897  -3.271   3.912  1.00  0.00     0.215 C 
HETATM   29  O10 UNL     1       4.791  -1.884   5.900  1.00  0.00    -0.218 OA
HETATM   30  C20 UNL     1       4.159  -3.652   2.609  1.00  0.00     0.184 C 
HETATM   31  O9  UNL     1       5.225  -4.458   4.612  1.00  0.00    -0.218 OA
HETATM   32  O7  UNL     1       3.747  -2.469   1.938  1.00  0.00    -0.326 OA
BRANCH  30  33
HETATM   33  C21 UNL     1       5.042  -4.430   1.628  1.00  0.00     0.214 C 
HETATM   34  O8  UNL     1       4.234  -4.871   0.561  1.00  0.00    -0.218 OA
ENDBRANCH  30  33
ENDBRANCH  23  24
ENDBRANCH  19  23
BRANCH  21  35
HETATM   35  C15 UNL     1      -0.395  -1.227   2.340  1.00  0.00     0.214 C 
HETATM   36  O5  UNL     1      -1.690  -0.733   2.599  1.00  0.00    -0.218 OA
ENDBRANCH  21  35
ENDBRANCH  14  15
ENDBRANCH   9  14
BRANCH   8  37
HETATM   37  C22 UNL     1      -1.948   2.342  -2.661  1.00  0.00     0.029 A 
HETATM   38  C23 UNL     1      -1.829   3.651  -2.164  1.00  0.00     0.032 A 
HETATM   39  C24 UNL     1      -0.915   4.547  -2.745  1.00  0.00     0.155 A 
HETATM   40  C25 UNL     1      -0.117   4.132  -3.828  1.00  0.00     0.145 A 
HETATM   41  O16 UNL     1      -0.808   5.774  -2.274  1.00  0.00    -0.188 OA
HETATM   42  C26 UNL     1      -0.235   2.822  -4.327  1.00  0.00     0.155 A 
HETATM   43  C27 UNL     1      -1.150   1.929  -3.743  1.00  0.00     0.032 A 
HETATM   44  O14 UNL     1       0.510   2.429  -5.341  1.00  0.00    -0.188 OA
BRANCH  40  45
HETATM   45  O15 UNL     1       0.740   4.972  -4.375  1.00  0.00    -0.324 OA
HETATM   46  C28 UNL     1       0.346   5.652  -5.557  1.00  0.00     0.182 C 
ENDBRANCH  40  45
ENDBRANCH   8  37
TORSDOF 8
