REMARK  10 active torsions:
REMARK  status: ('A' for Active; 'I' for Inactive)
REMARK    1  A    between atoms: C1_2  and  C2_3 
REMARK    2  A    between atoms: C2_3  and  N1_4 
REMARK    3  A    between atoms: C4_6  and  C9_13 
REMARK    4  A    between atoms: C6_8  and  C8_10 
REMARK    5  A    between atoms: C10_14  and  C11_15 
REMARK    6  A    between atoms: C12_16  and  C23_36 
REMARK    7  A    between atoms: C13_17  and  O7_24 
REMARK    8  A    between atoms: C15_20  and  C16_21 
REMARK    9  A    between atoms: O7_24  and  C17_25 
REMARK   10  A    between atoms: C18_27  and  C22_34 
ROOT
HETATM    1  C11 UNL     1       2.635   0.189   1.055  1.00  0.00     0.061 C 
HETATM    2  C12 UNL     1       2.244   1.486   0.318  1.00  0.00     0.087 C 
HETATM    3  C13 UNL     1       0.887   1.979   0.861  1.00  0.00     0.246 C 
HETATM    4  O4  UNL     1       0.963   2.205   2.274  1.00  0.00    -0.303 OA
HETATM    5  C14 UNL     1       1.627   1.312   3.031  1.00  0.00     0.121 C 
HETATM    6  C15 UNL     1       2.428   0.336   2.549  1.00  0.00     0.071 C 
ENDROOT
BRANCH   1   7
HETATM    7  C10 UNL     1       1.854  -1.014   0.580  1.00  0.00    -0.021 C 
HETATM    8  C9  UNL     1       2.527  -2.129   0.254  1.00  0.00    -0.003 C 
BRANCH   8   9
HETATM    9  C4  UNL     1       1.758  -3.320  -0.217  1.00  0.00     0.017 A 
HETATM   10  C3  UNL     1       0.475  -3.156  -0.766  1.00  0.00     0.076 A 
HETATM   11  N1  UNL     1      -0.250  -4.277  -1.209  1.00  0.00    -0.322 N 
HETATM   12  C7  UNL     1       0.311  -5.563  -1.104  1.00  0.00     0.082 A 
HETATM   13  C6  UNL     1       1.596  -5.727  -0.553  1.00  0.00     0.082 A 
HETATM   14  C5  UNL     1       2.318  -4.606  -0.109  1.00  0.00     0.009 A 
BRANCH  11  15
HETATM   15  C2  UNL     1      -1.594  -4.106  -1.785  1.00  0.00     0.142 C 
BRANCH  15  16
HETATM   16  C1  UNL     1      -1.607  -4.475  -3.268  1.00  0.00     0.207 C 
HETATM   17  O1  UNL     1      -2.926  -4.336  -3.746  1.00  0.00    -0.218 OA
ENDBRANCH  15  16
ENDBRANCH  11  15
BRANCH  13  18
HETATM   18  C8  UNL     1       2.190  -7.092  -0.441  1.00  0.00     0.212 C 
HETATM   19  O2  UNL     1       3.291  -7.254   0.029  1.00  0.00    -0.644 OA
HETATM   20  O3  UNL     1       1.424  -8.082  -0.889  1.00  0.00    -0.644 OA
ENDBRANCH  13  18
ENDBRANCH   8   9
ENDBRANCH   1   7
BRANCH   2  21
HETATM   21  C23 UNL     1       2.264   1.312  -1.184  1.00  0.00    -0.021 C 
HETATM   22  C24 UNL     1       3.149   2.025  -1.900  1.00  0.00    -0.005 C 
ENDBRANCH   2  21
BRANCH   6  23
HETATM   23  C16 UNL     1       3.119  -0.594   3.455  1.00  0.00     0.209 C 
HETATM   24  O5  UNL     1       4.445  -0.611   3.363  1.00  0.00    -0.644 OA
HETATM   25  O6  UNL     1       2.488  -1.285   4.223  1.00  0.00    -0.644 OA
ENDBRANCH   6  23
BRANCH   3  26
HETATM   26  O7  UNL     1       0.504   3.186   0.234  1.00  0.00    -0.303 OA
BRANCH  26  27
HETATM   27  C17 UNL     1      -0.746   3.672   0.682  1.00  0.00     0.272 C 
HETATM   28  O8  UNL     1      -1.764   2.791   0.223  1.00  0.00    -0.326 OA
HETATM   29  C18 UNL     1      -3.082   3.123   0.639  1.00  0.00     0.184 C 
HETATM   30  C19 UNL     1      -3.459   4.518   0.088  1.00  0.00     0.215 C 
HETATM   31  C20 UNL     1      -2.422   5.584   0.500  1.00  0.00     0.220 C 
HETATM   32  O11 UNL     1      -4.736   4.873   0.586  1.00  0.00    -0.218 OA
HETATM   33  C21 UNL     1      -1.000   5.100   0.135  1.00  0.00     0.241 C 
HETATM   34  O10 UNL     1      -2.699   6.807  -0.164  1.00  0.00    -0.218 OA
HETATM   35  O9  UNL     1      -0.043   5.994   0.684  1.00  0.00    -0.215 OA
BRANCH  29  36
HETATM   36  C22 UNL     1      -4.004   2.014   0.125  1.00  0.00     0.214 C 
HETATM   37  O12 UNL     1      -3.695   0.826   0.818  1.00  0.00    -0.218 OA
ENDBRANCH  29  36
ENDBRANCH  26  27
ENDBRANCH   3  26
TORSDOF 10
