REMARK  1 active torsions:
REMARK  status: ('A' for Active; 'I' for Inactive)
REMARK    1  A    between atoms: C1_1  and  C2_2 
ROOT
HETATM    1  C2  UNL     1       3.416   0.533   1.387  1.00  0.00     0.082 C 
HETATM    2  C3  UNL     1       2.352  -0.240   2.203  1.00  0.00     0.011 C 
HETATM    3  C4  UNL     1       1.600  -1.283   1.363  1.00  0.00     0.004 C 
HETATM    4  C5  UNL     1       0.793  -0.664   0.182  1.00  0.00     0.015 C 
HETATM    5  C6  UNL     1      -0.689  -0.346   0.584  1.00  0.00     0.004 C 
HETATM    6  C7  UNL     1      -1.428  -1.654   0.994  1.00  0.00     0.000 C 
HETATM    7  C8  UNL     1      -2.795  -1.850   0.328  1.00  0.00     0.000 C 
HETATM    8  C9  UNL     1      -3.641  -0.566   0.373  1.00  0.00     0.000 C 
HETATM    9  C10 UNL     1      -5.111  -0.815  -0.072  1.00  0.00     0.000 C 
HETATM   10  C11 UNL     1      -5.801   0.535  -0.336  1.00  0.00     0.000 C 
HETATM   11  C12 UNL     1      -5.137   1.322  -1.478  1.00  0.00     0.000 C 
HETATM   12  C13 UNL     1      -3.644   0.984  -1.660  1.00  0.00     0.000 C 
HETATM   13  C14 UNL     1      -2.934   0.643  -0.330  1.00  0.00     0.000 C 
HETATM   14  C15 UNL     1      -1.422   0.342  -0.609  1.00  0.00     0.005 C 
HETATM   15  C16 UNL     1      -0.656   1.584  -1.133  1.00  0.00     0.025 C 
HETATM   16  C17 UNL     1       0.842   1.572  -0.957  1.00  0.00    -0.035 C 
HETATM   17  C18 UNL     1       1.506   0.578  -0.330  1.00  0.00    -0.049 C 
HETATM   18  C19 UNL     1       3.008   0.693  -0.117  1.00  0.00     0.028 C 
HETATM   19  C20 UNL     1       3.764  -0.281  -1.045  1.00  0.00     0.004 C 
HETATM   20  C21 UNL     1       5.297  -0.082  -1.008  1.00  0.00     0.000 C 
HETATM   21  C22 UNL     1       5.772   0.281   0.420  1.00  0.00     0.001 C 
HETATM   22  C23 UNL     1       4.785  -0.182   1.504  1.00  0.00     0.011 C 
HETATM   23  C24 UNL     1       5.977  -1.375  -1.471  1.00  0.00     0.000 C 
HETATM   24  C25 UNL     1       5.697   1.035  -1.977  1.00  0.00     0.000 C 
HETATM   25  C26 UNL     1      -3.070   1.879   0.584  1.00  0.00     0.000 C 
HETATM   26  C27 UNL     1      -5.867  -1.557   1.039  1.00  0.00     0.000 C 
HETATM   27  C28 UNL     1      -5.189  -1.678  -1.340  1.00  0.00     0.000 C 
HETATM   28  C29 UNL     1      -0.709   0.623   1.779  1.00  0.00     0.000 C 
HETATM   29  C30 UNL     1       0.803  -1.666  -0.988  1.00  0.00     0.004 C 
ENDROOT
BRANCH   1  30
HETATM   30  C1  UNL     1       3.561   1.906   2.008  1.00  0.00     0.184 C 
HETATM   31  O1  UNL     1       4.553   2.207   2.629  1.00  0.00    -0.647 OA
HETATM   32  O2  UNL     1       2.529   2.727   1.817  1.00  0.00    -0.647 OA
ENDBRANCH   1  30
TORSDOF 1
