REMARK  0 active torsions:
REMARK  status: ('A' for Active; 'I' for Inactive)
ROOT
HETATM    1  C1  UNL     1      -0.293   0.856   1.905  1.00  0.00     0.033 C 
HETATM    2  C2  UNL     1      -0.392  -0.624   1.720  1.00  0.00     0.033 C 
HETATM    3  C3  UNL     1      -0.684  -0.826   0.198  1.00  0.00     0.125 C 
HETATM    4  C4  UNL     1       0.546  -0.371  -0.607  1.00  0.00     0.114 C 
HETATM    5  C5  UNL     1       0.433   1.081  -0.565  1.00  0.00     0.114 C 
HETATM    6  C6  UNL     1      -0.627   1.324   0.506  1.00  0.00     0.125 C 
HETATM    7  O1  UNL     1      -1.660   0.285  -0.027  1.00  0.00    -0.358 OA
HETATM    8  C7  UNL     1       1.830   1.570  -0.438  1.00  0.00     0.280 C 
HETATM    9  O2  UNL     1       2.660   0.512  -0.034  1.00  0.00    -0.243 OA
HETATM   10  C8  UNL     1       1.895  -0.663  -0.025  1.00  0.00     0.280 C 
HETATM   11  O3  UNL     1       2.323  -1.789   0.248  1.00  0.00    -0.264 OA
HETATM   12  O4  UNL     1       2.180   2.749  -0.540  1.00  0.00    -0.264 OA
HETATM   13  C9  UNL     1      -0.391   1.675  -1.739  1.00  0.00     0.013 C 
HETATM   14  C10 UNL     1       0.593  -0.759  -2.104  1.00  0.00     0.013 C 
ENDROOT
TORSDOF 0
