REMARK  5 active torsions:
REMARK  status: ('A' for Active; 'I' for Inactive)
REMARK    1  A    between atoms: C1_1  and  O12_34 
REMARK    2  A    between atoms: C2_2  and  O6_22 
REMARK    3  A    between atoms: C14_16  and  O3_17 
REMARK    4  A    between atoms: O6_22  and  C17_23 
REMARK    5  A    between atoms: C21_30  and  C22_32 
ROOT
HETATM    1  C1  UNL     1       1.809  -2.109   0.430  1.00  0.00     0.142 A 
HETATM    2  C2  UNL     1       1.713  -0.994  -0.434  1.00  0.00     0.121 A 
HETATM    3  C3  UNL     1       0.586  -0.147  -0.371  1.00  0.00     0.029 A 
HETATM    4  C4  UNL     1      -0.455  -0.406   0.557  1.00  0.00     0.042 A 
HETATM    5  C5  UNL     1      -0.387  -1.559   1.391  1.00  0.00     0.065 A 
HETATM    6  C6  UNL     1       0.764  -2.393   1.340  1.00  0.00     0.158 A 
HETATM    7  O1  UNL     1       0.869  -3.463   2.141  1.00  0.00    -0.188 OA
HETATM    8  C7  UNL     1      -1.514  -1.904   2.309  1.00  0.00     0.182 C 
HETATM    9  C8  UNL     1      -2.809  -1.133   2.152  1.00  0.00     0.120 C 
HETATM   10  C9  UNL     1      -2.586   0.352   1.791  1.00  0.00     0.097 C 
HETATM   11  C10 UNL     1      -1.602   0.547   0.645  1.00  0.00     0.178 C 
HETATM   12  O2  UNL     1      -1.801   1.469  -0.113  1.00  0.00    -0.291 OA
HETATM   13  C11 UNL     1      -3.914   1.020   1.484  1.00  0.00    -0.020 C 
HETATM   14  C12 UNL     1      -4.904   0.314   0.904  1.00  0.00     0.001 C 
HETATM   15  C13 UNL     1      -4.738  -1.123   0.602  1.00  0.00     0.145 C 
HETATM   16  C14 UNL     1      -3.734  -1.828   1.164  1.00  0.00     0.104 C 
HETATM   17  O4  UNL     1      -5.586  -1.725  -0.232  1.00  0.00    -0.189 OA
HETATM   18  C16 UNL     1      -6.199   1.004   0.559  1.00  0.00     0.033 C 
HETATM   19  O5  UNL     1      -1.500  -2.756   3.168  1.00  0.00    -0.291 OA
ENDROOT
BRANCH   2  20
HETATM   20  O6  UNL     1       2.693  -0.736  -1.311  1.00  0.00    -0.302 OA
BRANCH  20  21
HETATM   21  C17 UNL     1       2.844   0.603  -1.770  1.00  0.00     0.274 C 
HETATM   22  C18 UNL     1       4.104   0.758  -2.668  1.00  0.00     0.241 C 
HETATM   23  O7  UNL     1       5.149  -0.088  -2.211  1.00  0.00    -0.215 OA
HETATM   24  C19 UNL     1       4.633   2.219  -2.711  1.00  0.00     0.220 C 
HETATM   25  O8  UNL     1       5.154   2.492  -4.000  1.00  0.00    -0.218 OA
HETATM   26  C20 UNL     1       3.494   3.201  -2.359  1.00  0.00     0.215 C 
HETATM   27  O9  UNL     1       3.969   4.535  -2.338  1.00  0.00    -0.218 OA
HETATM   28  C21 UNL     1       2.844   2.877  -0.984  1.00  0.00     0.184 C 
HETATM   29  O10 UNL     1       2.940   1.490  -0.662  1.00  0.00    -0.326 OA
BRANCH  28  30
HETATM   30  C22 UNL     1       1.363   3.270  -0.934  1.00  0.00     0.214 C 
HETATM   31  O11 UNL     1       1.281   4.676  -0.897  1.00  0.00    -0.218 OA
ENDBRANCH  28  30
ENDBRANCH  20  21
ENDBRANCH   2  20
BRANCH   1  32
HETATM   32  O12 UNL     1       2.889  -2.902   0.381  1.00  0.00    -0.324 OA
HETATM   33  C23 UNL     1       3.459  -3.326   1.609  1.00  0.00     0.182 C 
ENDBRANCH   1  32
BRANCH  16  34
HETATM   34  O3  UNL     1      -3.570  -3.115   0.855  1.00  0.00    -0.330 OA
HETATM   35  C15 UNL     1      -4.227  -3.979   1.771  1.00  0.00     0.181 C 
ENDBRANCH  16  34
TORSDOF 5
