REMARK  9 active torsions:
REMARK  status: ('A' for Active; 'I' for Inactive)
REMARK    1  A    between atoms: C5_5  and  C9_11 
REMARK    2  A    between atoms: C6_6  and  C7_7 
REMARK    3  A    between atoms: C7_7  and  C8_8 
REMARK    4  A    between atoms: C10_12  and  C11_13 
REMARK    5  A    between atoms: C11_13  and  O4_15 
REMARK    6  A    between atoms: O4_15  and  C12_16 
REMARK    7  A    between atoms: C12_16  and  C13_17 
REMARK    8  A    between atoms: C12_16  and  C20_26 
REMARK    9  A    between atoms: C13_17  and  C14_18 
ROOT
HETATM    1  C11 UNL     1      -1.180   0.678   0.074  1.00  0.00     0.296 C 
HETATM    2  O3  UNL     1      -1.701   1.733  -0.197  1.00  0.00    -0.259 OA
ENDROOT
BRANCH   1   3
HETATM    3  C10 UNL     1      -1.910  -0.582  -0.107  1.00  0.00     0.068 C 
HETATM    4  C9  UNL     1      -1.254  -1.750  -0.201  1.00  0.00     0.005 C 
BRANCH   4   5
HETATM    5  C5  UNL     1      -2.043  -3.006  -0.385  1.00  0.00    -0.001 A 
HETATM    6  C4  UNL     1      -3.330  -2.936  -0.947  1.00  0.00     0.002 A 
HETATM    7  C3  UNL     1      -4.084  -4.107  -1.125  1.00  0.00     0.029 A 
HETATM    8  C2  UNL     1      -3.557  -5.354  -0.746  1.00  0.00     0.156 A 
HETATM    9  C1  UNL     1      -2.270  -5.428  -0.183  1.00  0.00     0.153 A 
HETATM   10  O9  UNL     1      -4.272  -6.447  -0.918  1.00  0.00    -0.188 OA
HETATM   11  C6  UNL     1      -1.510  -4.254  -0.002  1.00  0.00     0.016 A 
HETATM   12  O10 UNL     1      -1.777  -6.600   0.172  1.00  0.00    -0.188 OA
BRANCH  11  13
HETATM   13  C7  UNL     1      -0.148  -4.342   0.594  1.00  0.00     0.126 C 
BRANCH  13  14
HETATM   14  C8  UNL     1      -0.125  -3.875   2.026  1.00  0.00     0.190 C 
HETATM   15  O1  UNL     1      -1.150  -3.646   2.621  1.00  0.00    -0.647 OA
HETATM   16  O2  UNL     1       1.088  -3.742   2.557  1.00  0.00    -0.647 OA
ENDBRANCH  13  14
ENDBRANCH  11  13
ENDBRANCH   4   5
ENDBRANCH   1   3
BRANCH   1  17
HETATM   17  O4  UNL     1       0.061   0.563   0.543  1.00  0.00    -0.290 OA
BRANCH  17  18
HETATM   18  C12 UNL     1       0.734   1.811   0.598  1.00  0.00     0.215 C 
BRANCH  18  19
HETATM   19  C13 UNL     1       1.147   2.229  -0.814  1.00  0.00     0.068 C 
BRANCH  19  20
HETATM   20  C14 UNL     1       1.844   3.541  -0.814  1.00  0.00    -0.017 A 
HETATM   21  C15 UNL     1       1.100   4.735  -0.814  1.00  0.00     0.025 A 
HETATM   22  C16 UNL     1       1.754   5.979  -0.814  1.00  0.00     0.156 A 
HETATM   23  C17 UNL     1       3.160   6.029  -0.814  1.00  0.00     0.156 A 
HETATM   24  O6  UNL     1       1.049   7.092  -0.814  1.00  0.00    -0.188 OA
HETATM   25  C18 UNL     1       3.904   4.836  -0.814  1.00  0.00     0.029 A 
HETATM   26  O5  UNL     1       3.783   7.192  -0.814  1.00  0.00    -0.188 OA
HETATM   27  C19 UNL     1       3.248   3.594  -0.814  1.00  0.00    -0.002 A 
ENDBRANCH  19  20
ENDBRANCH  18  19
BRANCH  18  28
HETATM   28  C20 UNL     1       1.912   1.703   1.531  1.00  0.00     0.215 C 
HETATM   29  O7  UNL     1       2.674   0.768   1.469  1.00  0.00    -0.646 OA
HETATM   30  O8  UNL     1       2.033   2.701   2.403  1.00  0.00    -0.646 OA
ENDBRANCH  18  28
ENDBRANCH  17  18
ENDBRANCH   1  17
TORSDOF 9
