REMARK  15 active torsions:
REMARK  status: ('A' for Active; 'I' for Inactive)
REMARK    1  A    between atoms: C3_3  and  O3_24 
REMARK    2  A    between atoms: C5_5  and  C7_7 
REMARK    3  A    between atoms: C7_7  and  C8_8 
REMARK    4  A    between atoms: C8_8  and  C9_9 
REMARK    5  A    between atoms: C9_9  and  C10_10 
REMARK    6  A    between atoms: C10_10  and  C11_11 
REMARK    7  A    between atoms: C11_11  and  C12_12 
REMARK    8  A    between atoms: C11_11  and  O1_21 
REMARK    9  A    between atoms: C12_12  and  C13_13 
REMARK   10  A    between atoms: C13_13  and  C14_14 
REMARK   11  A    between atoms: C14_14  and  C15_15 
REMARK   12  A    between atoms: C15_15  and  C16_16 
REMARK   13  A    between atoms: C16_16  and  C17_17 
REMARK   14  A    between atoms: C17_17  and  C18_18 
REMARK   15  A    between atoms: C18_18  and  C19_19 
ROOT
HETATM    1  C9  UNL     1      -0.750   2.428   1.092  1.00  0.00     0.153 C 
HETATM    2  O2  UNL     1      -1.955   2.348   1.100  1.00  0.00    -0.296 OA
ENDROOT
BRANCH   1   3
HETATM    3  C8  UNL     1      -0.063   3.768   1.084  1.00  0.00     0.069 C 
BRANCH   3   4
HETATM    4  C7  UNL     1      -1.053   4.932   1.098  1.00  0.00     0.034 C 
BRANCH   4   5
HETATM    5  C5  UNL     1      -0.356   6.244   1.098  1.00  0.00    -0.020 A 
HETATM    6  C4  UNL     1      -1.102   7.436   1.098  1.00  0.00     0.022 A 
HETATM    7  C3  UNL     1      -0.447   8.680   1.098  1.00  0.00     0.119 A 
HETATM    8  C2  UNL     1       0.961   8.733   1.098  1.00  0.00     0.153 A 
HETATM    9  C1  UNL     1       1.705   7.539   1.098  1.00  0.00     0.029 A 
HETATM   10  O4  UNL     1       1.582   9.893   1.098  1.00  0.00    -0.188 OA
HETATM   11  C6  UNL     1       1.049   6.295   1.098  1.00  0.00    -0.002 A 
BRANCH   7  12
HETATM   12  O3  UNL     1      -1.150   9.793   1.098  1.00  0.00    -0.326 OA
HETATM   13  C22 UNL     1      -0.449  11.028   1.098  1.00  0.00     0.181 C 
ENDBRANCH   7  12
ENDBRANCH   4   5
ENDBRANCH   3   4
ENDBRANCH   1   3
BRANCH   1  14
HETATM   14  C10 UNL     1       0.109   1.191   1.086  1.00  0.00     0.094 C 
BRANCH  14  15
HETATM   15  C11 UNL     1      -0.717  -0.094   1.129  1.00  0.00     0.123 C 
BRANCH  15  16
HETATM   16  C12 UNL     1       0.143  -1.352   0.996  1.00  0.00     0.030 C 
BRANCH  16  17
HETATM   17  C13 UNL     1      -0.459  -2.377   0.033  1.00  0.00     0.003 C 
BRANCH  17  18
HETATM   18  C14 UNL     1       0.428  -3.609  -0.147  1.00  0.00     0.000 C 
BRANCH  18  19
HETATM   19  C15 UNL     1      -0.172  -4.635  -1.108  1.00  0.00     0.000 C 
BRANCH  19  20
HETATM   20  C16 UNL     1       0.715  -5.867  -1.287  1.00  0.00     0.000 C 
BRANCH  20  21
HETATM   21  C17 UNL     1       0.113  -6.893  -2.248  1.00  0.00     0.000 C 
BRANCH  21  22
HETATM   22  C18 UNL     1       1.002  -8.123  -2.428  1.00  0.00     0.000 C 
BRANCH  22  23
HETATM   23  C19 UNL     1       0.400  -9.149  -3.391  1.00  0.00     0.000 C 
HETATM   24  C20 UNL     1       1.287 -10.381  -3.569  1.00  0.00     0.000 C 
ENDBRANCH  22  23
ENDBRANCH  21  22
ENDBRANCH  20  21
ENDBRANCH  19  20
ENDBRANCH  18  19
ENDBRANCH  17  18
ENDBRANCH  16  17
ENDBRANCH  15  16
BRANCH  15  25
HETATM   25  O1  UNL     1      -1.387  -0.146   2.367  1.00  0.00    -0.354 OA
HETATM   26  C21 UNL     1      -2.340  -1.182   2.439  1.00  0.00     0.174 C 
ENDBRANCH  15  25
ENDBRANCH  14  15
ENDBRANCH   1  14
TORSDOF 15
