REMARK  0 active torsions:
REMARK  status: ('A' for Active; 'I' for Inactive)
ROOT
HETATM    1  C1  UNL     1       0.535  -1.882  -1.121  1.00  0.00     0.006 C 
HETATM    2  C2  UNL     1       2.098  -1.433  -0.990  1.00  0.00     0.035 C 
HETATM    3  C3  UNL     1       2.360  -0.334   0.161  1.00  0.00     0.250 C 
HETATM    4  N1  UNL     1       1.206   0.456   0.040  1.00  0.00     0.135 N 
HETATM    5  C4  UNL     1      -0.008  -0.228   0.585  1.00  0.00     0.223 C 
HETATM    6  C5  UNL     1       0.050  -1.765   0.289  1.00  0.00     0.054 C 
HETATM    7  C6  UNL     1      -1.333  -2.394   0.651  1.00  0.00     0.106 C 
HETATM    8  N2  UNL     1      -2.504  -1.634   0.203  1.00  0.00    -0.318 N 
HETATM    9  C7  UNL     1      -2.492  -0.197   0.336  1.00  0.00     0.107 C 
HETATM   10  C8  UNL     1      -1.191   0.449  -0.142  1.00  0.00     0.056 C 
HETATM   11  C9  UNL     1      -1.211   1.948   0.219  1.00  0.00     0.006 C 
HETATM   12  C10 UNL     1       0.114   2.611  -0.184  1.00  0.00     0.035 C 
HETATM   13  C11 UNL     1       1.297   1.855   0.471  1.00  0.00     0.250 C 
HETATM   14  C12 UNL     1      -3.676   0.470  -0.313  1.00  0.00    -0.008 C 
HETATM   15  C13 UNL     1      -4.811  -0.177  -0.575  1.00  0.00    -0.019 C 
HETATM   16  C14 UNL     1      -4.992  -1.636  -0.306  1.00  0.00     0.114 C 
HETATM   17  C15 UNL     1      -3.686  -2.356  -0.046  1.00  0.00     0.238 C 
HETATM   18  O1  UNL     1      -3.678  -3.570   0.003  1.00  0.00    -0.272 OA
ENDROOT
TORSDOF 0
