REMARK  6 active torsions:
REMARK  status: ('A' for Active; 'I' for Inactive)
REMARK    1  A    between atoms: C3_4  and  O4_9 
REMARK    2  A    between atoms: O4_9  and  C6_10 
REMARK    3  A    between atoms: C6_10  and  C7_11 
REMARK    4  A    between atoms: C8_13  and  O8_19 
REMARK    5  A    between atoms: O8_19  and  C12_20 
REMARK    6  A    between atoms: C18_27  and  C21_31 
ROOT
HETATM    1  O8  UNL     1      -1.883  -2.650  -0.889  1.00  0.00    -0.305 OA
ENDROOT
BRANCH   1   2
HETATM    2  C8  UNL     1      -3.045  -1.877  -1.150  1.00  0.00     0.242 C 
HETATM    3  O5  UNL     1      -3.010  -0.693  -0.363  1.00  0.00    -0.328 OA
HETATM    4  C7  UNL     1      -4.105   0.191  -0.562  1.00  0.00     0.180 C 
HETATM    5  C11 UNL     1      -5.424  -0.527  -0.193  1.00  0.00     0.212 C 
HETATM    6  C10 UNL     1      -5.572  -1.856  -0.969  1.00  0.00     0.190 C 
HETATM    7  O6  UNL     1      -6.512   0.328  -0.494  1.00  0.00    -0.218 OA
HETATM    8  C9  UNL     1      -4.297  -2.697  -0.803  1.00  0.00     0.098 C 
HETATM    9  O7  UNL     1      -6.678  -2.596  -0.484  1.00  0.00    -0.221 OA
BRANCH   4  10
HETATM   10  C6  UNL     1      -3.840   1.430   0.303  1.00  0.00     0.177 C 
BRANCH  10  11
HETATM   11  O4  UNL     1      -2.746   2.127  -0.250  1.00  0.00    -0.326 OA
BRANCH  11  12
HETATM   12  C3  UNL     1      -2.441   3.322   0.441  1.00  0.00     0.270 C 
HETATM   13  O1  UNL     1      -1.926   2.979   1.721  1.00  0.00    -0.329 OA
HETATM   14  C2  UNL     1      -1.617   4.084   2.561  1.00  0.00     0.151 C 
HETATM   15  C1  UNL     1      -0.516   4.939   1.895  1.00  0.00     0.212 C 
HETATM   16  C27 UNL     1      -1.185   3.504   3.912  1.00  0.00     0.035 C 
HETATM   17  C5  UNL     1      -0.930   5.377   0.473  1.00  0.00     0.220 C 
HETATM   18  O14 UNL     1      -0.279   6.080   2.699  1.00  0.00    -0.218 OA
HETATM   19  C4  UNL     1      -1.392   4.150  -0.346  1.00  0.00     0.241 C 
HETATM   20  O2  UNL     1       0.166   6.002  -0.178  1.00  0.00    -0.218 OA
HETATM   21  O3  UNL     1      -1.963   4.588  -1.568  1.00  0.00    -0.215 OA
ENDBRANCH  11  12
ENDBRANCH  10  11
ENDBRANCH   4  10
ENDBRANCH   1   2
BRANCH   1  22
HETATM   22  C12 UNL     1      -0.687  -2.096  -1.139  1.00  0.00     0.101 A 
HETATM   23  C13 UNL     1      -0.611  -0.873  -1.846  1.00  0.00     0.052 A 
HETATM   24  C14 UNL     1       0.645  -0.277  -2.102  1.00  0.00     0.138 A 
HETATM   25  C15 UNL     1       1.832  -0.906  -1.641  1.00  0.00     0.083 A 
HETATM   26  O13 UNL     1       0.695   0.885  -2.768  1.00  0.00    -0.190 OA
HETATM   27  C16 UNL     1       1.758  -2.156  -0.963  1.00  0.00     0.101 A 
HETATM   28  C20 UNL     1       3.162  -0.266  -1.850  1.00  0.00     0.180 C 
HETATM   29  C17 UNL     1       0.494  -2.734  -0.699  1.00  0.00     0.049 A 
HETATM   30  O9  UNL     1       2.873  -2.805  -0.564  1.00  0.00    -0.328 OA
HETATM   31  C18 UNL     1       4.145  -2.483  -1.141  1.00  0.00     0.151 C 
HETATM   32  C19 UNL     1       4.342  -0.955  -1.197  1.00  0.00     0.104 C 
HETATM   33  O10 UNL     1       3.391   0.744  -2.477  1.00  0.00    -0.291 OA
BRANCH  31  34
HETATM   34  C21 UNL     1       5.217  -3.164  -0.369  1.00  0.00     0.008 A 
HETATM   35  C22 UNL     1       6.465  -2.543  -0.197  1.00  0.00     0.000 A 
HETATM   36  C23 UNL     1       7.477  -3.190   0.531  1.00  0.00     0.029 A 
HETATM   37  C24 UNL     1       7.244  -4.457   1.092  1.00  0.00     0.156 A 
HETATM   38  C25 UNL     1       5.994  -5.082   0.922  1.00  0.00     0.156 A 
HETATM   39  O12 UNL     1       8.197  -5.059   1.775  1.00  0.00    -0.188 OA
HETATM   40  C26 UNL     1       4.983  -4.434   0.190  1.00  0.00     0.028 A 
HETATM   41  O11 UNL     1       5.768  -6.270   1.443  1.00  0.00    -0.188 OA
ENDBRANCH  31  34
ENDBRANCH   1  22
TORSDOF 6
