REMARK  6 active torsions:
REMARK  status: ('A' for Active; 'I' for Inactive)
REMARK    1  A    between atoms: C2_2  and  C10_12 
REMARK    2  A    between atoms: C10_12  and  C11_13 
REMARK    3  A    between atoms: C11_13  and  C12_14 
REMARK    4  A    between atoms: C12_14  and  C13_15 
REMARK    5  A    between atoms: C13_15  and  O3_16 
REMARK    6  A    between atoms: O3_16  and  C14_17 
ROOT
HETATM    1  C1  UNL     1      -2.107  -1.408   1.123  1.00  0.00     0.144 C 
HETATM    2  C2  UNL     1      -1.295  -0.139   0.934  1.00  0.00    -0.021 C 
HETATM    3  C3  UNL     1      -0.016  -0.037   1.352  1.00  0.00    -0.030 C 
HETATM    4  C4  UNL     1       0.711  -1.176   2.037  1.00  0.00     0.059 C 
HETATM    5  C5  UNL     1      -0.144  -2.408   2.383  1.00  0.00     0.132 C 
HETATM    6  C6  UNL     1      -1.215  -2.654   1.313  1.00  0.00     0.065 C 
HETATM    7  O1  UNL     1       0.740  -3.525   2.443  1.00  0.00    -0.304 OA
HETATM    8  C7  UNL     1       1.834  -3.221   1.758  1.00  0.00     0.272 C 
HETATM    9  C8  UNL     1       1.850  -1.814   1.234  1.00  0.00     0.093 C 
HETATM   10  C9  UNL     1       1.639  -1.795  -0.277  1.00  0.00     0.011 C 
HETATM   11  O2  UNL     1       2.754  -3.982   1.565  1.00  0.00    -0.264 OA
HETATM   12  C17 UNL     1      -3.090  -1.629  -0.033  1.00  0.00     0.037 C 
HETATM   13  O5  UNL     1      -2.900  -1.250   2.283  1.00  0.00    -0.222 OA
ENDROOT
BRANCH   2  14
HETATM   14  C10 UNL     1      -1.945   1.041   0.252  1.00  0.00     0.020 C 
HETATM   15  C16 UNL     1      -3.092   1.629   1.074  1.00  0.00     0.004 C 
BRANCH  14  16
HETATM   16  C11 UNL     1      -0.928   2.096  -0.184  1.00  0.00     0.007 C 
BRANCH  16  17
HETATM   17  C12 UNL     1       0.020   1.590  -1.269  1.00  0.00     0.033 C 
BRANCH  17  18
HETATM   18  C13 UNL     1       1.131   2.588  -1.596  1.00  0.00     0.152 C 
BRANCH  18  19
HETATM   19  O3  UNL     1       1.965   2.053  -2.611  1.00  0.00    -0.302 OA
BRANCH  19  20
HETATM   20  C14 UNL     1       2.955   2.877  -2.941  1.00  0.00     0.272 C 
HETATM   21  C15 UNL     1       3.881   2.369  -4.016  1.00  0.00     0.106 C 
HETATM   22  O4  UNL     1       3.125   3.961  -2.434  1.00  0.00    -0.264 OA
ENDBRANCH  19  20
ENDBRANCH  18  19
ENDBRANCH  17  18
ENDBRANCH  16  17
ENDBRANCH  14  16
ENDBRANCH   2  14
TORSDOF 6
