REMARK  8 active torsions:
REMARK  status: ('A' for Active; 'I' for Inactive)
REMARK    1  A    between atoms: C4_4  and  C16_19 
REMARK    2  A    between atoms: C5_6  and  O2_7 
REMARK    3  A    between atoms: O2_7  and  C6_8 
REMARK    4  A    between atoms: C6_8  and  C7_9 
REMARK    5  A    between atoms: C8_10  and  C9_11 
REMARK    6  A    between atoms: C9_11  and  C10_12 
REMARK    7  A    between atoms: C10_12  and  C11_13 
REMARK    8  A    between atoms: C11_13  and  C12_14 
ROOT
HETATM    1  O2  UNL     1       3.025  -0.350  -0.328  1.00  0.00    -0.325 OA
ENDROOT
BRANCH   1   2
HETATM    2  C5  UNL     1       3.180  -0.504   1.068  1.00  0.00     0.270 C 
HETATM    3  C1  UNL     1       3.774   0.801   1.658  1.00  0.00     0.241 C 
HETATM    4  C2  UNL     1       2.779   1.992   1.594  1.00  0.00     0.220 C 
HETATM    5  O7  UNL     1       4.135   0.563   3.008  1.00  0.00    -0.215 OA
HETATM    6  C3  UNL     1       1.315   1.500   1.488  1.00  0.00     0.215 C 
HETATM    7  O6  UNL     1       3.076   2.787   0.459  1.00  0.00    -0.218 OA
HETATM    8  C4  UNL     1       1.131   0.158   2.230  1.00  0.00     0.184 C 
HETATM    9  O5  UNL     1       0.451   2.475   2.047  1.00  0.00    -0.218 OA
HETATM   10  O1  UNL     1       1.924  -0.875   1.645  1.00  0.00    -0.326 OA
BRANCH   8  11
HETATM   11  C16 UNL     1      -0.314  -0.355   2.232  1.00  0.00     0.214 C 
HETATM   12  O4  UNL     1      -0.379  -1.488   3.068  1.00  0.00    -0.218 OA
ENDBRANCH   8  11
ENDBRANCH   1   2
BRANCH   1  13
HETATM   13  C6  UNL     1       2.733  -1.561  -0.990  1.00  0.00     0.167 C 
BRANCH  13  14
HETATM   14  C7  UNL     1       1.240  -1.705  -1.131  1.00  0.00    -0.019 C 
HETATM   15  C8  UNL     1       0.555  -0.719  -1.732  1.00  0.00    -0.032 C 
HETATM   16  C15 UNL     1       0.482  -2.904  -0.629  1.00  0.00     0.029 C 
BRANCH  15  17
HETATM   17  C9  UNL     1      -0.937  -0.865  -1.873  1.00  0.00     0.028 C 
BRANCH  17  18
HETATM   18  C10 UNL     1      -1.629   0.469  -2.156  1.00  0.00     0.039 C 
BRANCH  18  19
HETATM   19  C11 UNL     1      -3.146   0.397  -1.984  1.00  0.00     0.146 C 
HETATM   20  O3  UNL     1      -3.623  -0.693  -2.740  1.00  0.00    -0.222 OA
HETATM   21  C14 UNL     1      -3.857   1.662  -2.463  1.00  0.00     0.038 C 
BRANCH  19  22
HETATM   22  C12 UNL     1      -3.547   0.008  -0.586  1.00  0.00     0.003 C 
HETATM   23  C13 UNL     1      -4.742   0.412  -0.125  1.00  0.00    -0.002 C 
ENDBRANCH  19  22
ENDBRANCH  18  19
ENDBRANCH  17  18
ENDBRANCH  15  17
ENDBRANCH  13  14
ENDBRANCH   1  13
TORSDOF 8
