REMARK  0 active torsions:
REMARK  status: ('A' for Active; 'I' for Inactive)
ROOT
HETATM    1  C1  UNL     1      -1.617   1.480  -0.303  1.00  0.00     0.159 A 
HETATM    2  C2  UNL     1      -2.857   0.807  -0.391  1.00  0.00     0.152 A 
HETATM    3  C3  UNL     1      -2.910  -0.600  -0.264  1.00  0.00     0.006 A 
HETATM    4  C4  UNL     1      -1.721  -1.330  -0.047  1.00  0.00     0.001 A 
HETATM    5  C5  UNL     1      -0.467  -0.668   0.041  1.00  0.00     0.044 A 
HETATM    6  C6  UNL     1       0.764  -1.490   0.269  1.00  0.00     0.196 A 
HETATM    7  O1  UNL     1       0.713  -2.695   0.389  1.00  0.00    -0.287 OA
HETATM    8  C7  UNL     1       2.061  -0.748   0.340  1.00  0.00     0.042 A 
HETATM    9  C8  UNL     1       3.260  -1.480   0.541  1.00  0.00     0.003 A 
HETATM   10  C9  UNL     1       4.506  -0.818   0.611  1.00  0.00     0.000 A 
HETATM   11  C10 UNL     1       4.565   0.584   0.482  1.00  0.00     0.000 A 
HETATM   12  C11 UNL     1       3.379   1.324   0.283  1.00  0.00     0.003 A 
HETATM   13  C12 UNL     1       2.119   0.670   0.209  1.00  0.00     0.042 A 
HETATM   14  C13 UNL     1       0.891   1.496  -0.002  1.00  0.00     0.198 A 
HETATM   15  O2  UNL     1       0.953   2.703  -0.102  1.00  0.00    -0.286 OA
HETATM   16  C14 UNL     1      -0.410   0.752  -0.088  1.00  0.00     0.069 A 
HETATM   17  C15 UNL     1      -4.197  -1.309  -0.354  1.00  0.00     0.033 C 
HETATM   18  O3  UNL     1      -3.982   1.508  -0.596  1.00  0.00    -0.188 OA
HETATM   19  O4  UNL     1      -1.605   2.816  -0.428  1.00  0.00    -0.188 OA
ENDROOT
TORSDOF 0
