REMARK  0 active torsions:
REMARK  status: ('A' for Active; 'I' for Inactive)
ROOT
HETATM    1  C1  UNL     1       0.762  -1.107   0.000  1.00  0.00     0.133 A 
HETATM    2  C2  UNL     1      -0.644  -1.085   0.000  1.00  0.00     0.055 A 
HETATM    3  C3  UNL     1      -1.336   0.139   0.000  1.00  0.00     0.133 A 
HETATM    4  C4  UNL     1      -0.615   1.346   0.000  1.00  0.00     0.028 A 
HETATM    5  C5  UNL     1       0.789   1.329   0.000  1.00  0.00     0.004 A 
HETATM    6  C6  UNL     1       1.477   0.104   0.000  1.00  0.00     0.028 A 
HETATM    7  O1  UNL     1      -2.654   0.156   0.000  1.00  0.00    -0.190 OA
HETATM    8  O2  UNL     1       1.407  -2.256   0.000  1.00  0.00    -0.190 OA
ENDROOT
TORSDOF 0
