REMARK  5 active torsions:
REMARK  status: ('A' for Active; 'I' for Inactive)
REMARK    1  A    between atoms: C2_3  and  O5_20 
REMARK    2  A    between atoms: O5_20  and  C16_21 
REMARK    3  A    between atoms: C16_21  and  C17_23 
REMARK    4  A    between atoms: C17_23  and  C18_24 
REMARK    5  A    between atoms: C18_24  and  C19_25 
ROOT
HETATM    1  C1  UNL     1      -1.303  -1.236  -0.387  1.00  0.00     0.268 C 
HETATM    2  O1  UNL     1      -0.254  -1.428   0.543  1.00  0.00    -0.304 OA
HETATM    3  C2  UNL     1       0.971  -1.844  -0.062  1.00  0.00     0.244 C 
HETATM    4  C3  UNL     1       1.115  -1.305  -1.519  1.00  0.00     0.060 C 
HETATM    5  C4  UNL     1       0.473   0.098  -1.685  1.00  0.00     0.038 C 
HETATM    6  C5  UNL     1      -1.041   0.068  -1.211  1.00  0.00     0.178 C 
HETATM    7  C6  UNL     1      -1.504   1.385  -0.469  1.00  0.00     0.033 C 
HETATM    8  C7  UNL     1      -0.633   2.607  -0.799  1.00  0.00     0.003 C 
HETATM    9  C8  UNL     1       0.787   2.340  -0.332  1.00  0.00     0.000 C 
HETATM   10  C9  UNL     1       1.426   1.162  -1.062  1.00  0.00     0.003 C 
HETATM   11  C10 UNL     1      -0.688   3.008  -2.281  1.00  0.00     0.000 C 
HETATM   12  C11 UNL     1      -2.992   1.785  -0.642  1.00  0.00     0.008 C 
HETATM   13  C12 UNL     1      -4.000   0.691  -0.271  1.00  0.00     0.059 C 
HETATM   14  C13 UNL     1      -3.606  -0.723  -0.742  1.00  0.00     0.221 C 
HETATM   15  O2  UNL     1      -2.607  -1.213   0.158  1.00  0.00    -0.306 OA
HETATM   16  O3  UNL     1      -3.201  -0.678  -2.119  1.00  0.00    -0.198 OA
HETATM   17  O4  UNL     1      -1.871  -0.090  -2.373  1.00  0.00    -0.219 OA
HETATM   18  C14 UNL     1      -4.789  -1.689  -0.650  1.00  0.00     0.064 C 
HETATM   19  C15 UNL     1       2.559  -1.377  -2.033  1.00  0.00     0.005 C 
ENDROOT
BRANCH   3  20
HETATM   20  O5  UNL     1       2.055  -1.422   0.752  1.00  0.00    -0.276 OA
BRANCH  20  21
HETATM   21  C16 UNL     1       2.111  -2.088   1.902  1.00  0.00     0.274 C 
HETATM   22  O6  UNL     1       1.344  -2.971   2.209  1.00  0.00    -0.264 OA
BRANCH  21  23
HETATM   23  C17 UNL     1       3.221  -1.670   2.830  1.00  0.00     0.107 C 
BRANCH  23  24
HETATM   24  C18 UNL     1       2.758  -0.646   3.867  1.00  0.00     0.108 C 
BRANCH  24  25
HETATM   25  C19 UNL     1       3.861  -0.242   4.809  1.00  0.00     0.186 C 
HETATM   26  O7  UNL     1       3.910  -0.678   5.934  1.00  0.00    -0.647 OA
HETATM   27  O8  UNL     1       4.748   0.613   4.305  1.00  0.00    -0.647 OA
ENDBRANCH  24  25
ENDBRANCH  23  24
ENDBRANCH  21  23
ENDBRANCH  20  21
ENDBRANCH   3  20
TORSDOF 5
