REMARK  2 active torsions:
REMARK  status: ('A' for Active; 'I' for Inactive)
REMARK    1  A    between atoms: C8_9  and  C10_12 
REMARK    2  A    between atoms: C10_12  and  C11_13 
ROOT
HETATM    1  C1  UNL     1      -4.144   1.349   1.457  1.00  0.00     0.133 A 
HETATM    2  C2  UNL     1      -3.564   0.259   2.149  1.00  0.00     0.028 A 
HETATM    3  C3  UNL     1      -2.174   0.018   2.054  1.00  0.00     0.007 A 
HETATM    4  C4  UNL     1      -1.362   0.870   1.264  1.00  0.00     0.057 A 
HETATM    5  C5  UNL     1      -1.936   1.988   0.600  1.00  0.00     0.099 A 
HETATM    6  C6  UNL     1      -3.330   2.210   0.684  1.00  0.00     0.052 A 
HETATM    7  O1  UNL     1      -1.173   2.844  -0.111  1.00  0.00    -0.330 OA
HETATM    8  C7  UNL     1       0.242   2.894   0.104  1.00  0.00     0.157 C 
HETATM    9  C8  UNL     1       0.846   1.479   0.142  1.00  0.00     0.097 C 
HETATM   10  C9  UNL     1       0.095   0.594   1.116  1.00  0.00     0.177 C 
HETATM   11  O2  UNL     1       0.727  -0.264   1.690  1.00  0.00    -0.291 OA
HETATM   12  O5  UNL     1      -5.464   1.567   1.537  1.00  0.00    -0.190 OA
ENDROOT
BRANCH   9  13
HETATM   13  C10 UNL     1       0.856   0.839  -1.250  1.00  0.00     0.037 C 
BRANCH  13  14
HETATM   14  C11 UNL     1       1.578  -0.460  -1.250  1.00  0.00    -0.019 A 
HETATM   15  C12 UNL     1       0.857  -1.667  -1.250  1.00  0.00     0.025 A 
HETATM   16  C13 UNL     1       1.536  -2.898  -1.250  1.00  0.00     0.156 A 
HETATM   17  C14 UNL     1       2.943  -2.922  -1.250  1.00  0.00     0.156 A 
HETATM   18  O4  UNL     1       0.853  -4.025  -1.250  1.00  0.00    -0.188 OA
HETATM   19  C15 UNL     1       3.664  -1.714  -1.250  1.00  0.00     0.029 A 
HETATM   20  O3  UNL     1       3.588  -4.071  -1.250  1.00  0.00    -0.188 OA
HETATM   21  C16 UNL     1       2.983  -0.485  -1.250  1.00  0.00    -0.002 A 
ENDBRANCH  13  14
ENDBRANCH   9  13
TORSDOF 2
