REMARK  1 active torsions:
REMARK  status: ('A' for Active; 'I' for Inactive)
REMARK    1  A    between atoms: C9_10  and  C10_11 
ROOT
HETATM    1  C1  UNL     1      -1.982   1.301   0.371  1.00  0.00     0.120 C 
HETATM    2  C2  UNL     1      -1.566   2.389   1.377  1.00  0.00     0.032 C 
HETATM    3  C3  UNL     1      -0.404   3.279   0.924  1.00  0.00     0.037 C 
HETATM    4  C4  UNL     1       0.922   2.558   0.652  1.00  0.00     0.174 C 
HETATM    5  C5  UNL     1       0.877   1.562  -0.529  1.00  0.00     0.130 C 
HETATM    6  N1  UNL     1       0.285   0.236  -0.270  1.00  0.00    -0.365 N 
HETATM    7  C6  UNL     1      -1.053   0.056   0.310  1.00  0.00     0.103 C 
HETATM    8  C7  UNL     1      -0.809  -0.676   1.633  1.00  0.00     0.026 C 
HETATM    9  C8  UNL     1       0.299  -1.643   1.221  1.00  0.00     0.026 C 
HETATM   10  C9  UNL     1       1.172  -0.768   0.322  1.00  0.00     0.105 C 
HETATM   11  O3  UNL     1       1.400   1.969   1.844  1.00  0.00    -0.221 OA
HETATM   12  C15 UNL     1      -3.414   0.824   0.721  1.00  0.00     0.040 C 
HETATM   13  C16 UNL     1      -3.978   0.478  -0.656  1.00  0.00     0.089 C 
HETATM   14  C17 UNL     1      -3.154   1.369  -1.537  1.00  0.00     0.271 C 
HETATM   15  O4  UNL     1      -2.088   1.877  -0.934  1.00  0.00    -0.305 OA
HETATM   16  O5  UNL     1      -3.459   1.594  -2.686  1.00  0.00    -0.264 OA
HETATM   17  C18 UNL     1      -5.479   0.750  -0.736  1.00  0.00     0.011 C 
ENDROOT
BRANCH  10  18
HETATM   18  C10 UNL     1       1.848  -1.598  -0.764  1.00  0.00     0.145 C 
HETATM   19  O1  UNL     1       2.656  -0.762  -1.586  1.00  0.00    -0.302 OA
HETATM   20  C11 UNL     1       3.684  -1.494  -2.000  1.00  0.00     0.271 C 
HETATM   21  C12 UNL     1       3.738  -2.852  -1.365  1.00  0.00     0.089 C 
HETATM   22  O2  UNL     1       4.510  -1.121  -2.801  1.00  0.00    -0.264 OA
HETATM   23  C13 UNL     1       2.770  -2.682  -0.195  1.00  0.00     0.042 C 
HETATM   24  C14 UNL     1       5.127  -3.258  -0.887  1.00  0.00     0.011 C 
ENDBRANCH  10  18
TORSDOF 1
