REMARK  1 active torsions:
REMARK  status: ('A' for Active; 'I' for Inactive)
REMARK    1  A    between atoms: C17_24  and  C25_37 
ROOT
HETATM    1  C1  UNL     1       6.324  -0.779   2.086  1.00  0.00     0.183 A 
HETATM    2  C2  UNL     1       6.572   0.605   2.018  1.00  0.00     0.159 A 
HETATM    3  C3  UNL     1       5.764   1.422   1.199  1.00  0.00     0.037 A 
HETATM    4  C4  UNL     1       4.697   0.871   0.434  1.00  0.00     0.090 A 
HETATM    5  C5  UNL     1       4.451  -0.531   0.500  1.00  0.00     0.133 A 
HETATM    6  C6  UNL     1       5.271  -1.340   1.330  1.00  0.00     0.181 A 
HETATM    7  O1  UNL     1       5.049  -2.660   1.398  1.00  0.00    -0.186 OA
HETATM    8  O2  UNL     1       3.500  -1.219  -0.154  1.00  0.00    -0.301 OA
HETATM    9  C7  UNL     1       2.559  -0.920  -1.066  1.00  0.00     0.148 A 
HETATM   10  C8  UNL     1       2.260   0.367  -1.598  1.00  0.00     0.128 A 
HETATM   11  O3  UNL     1       2.869   1.510  -1.223  1.00  0.00    -0.271 OA
HETATM   12  C9  UNL     1       3.883   1.799  -0.404  1.00  0.00     0.302 A 
HETATM   13  O4  UNL     1       4.117   2.986  -0.393  1.00  0.00    -0.259 OA
HETATM   14  C10 UNL     1       1.240   0.504  -2.598  1.00  0.00     0.032 A 
HETATM   15  C11 UNL     1       0.533  -0.656  -3.047  1.00  0.00     0.067 A 
HETATM   16  C12 UNL     1       0.814  -1.916  -2.481  1.00  0.00     0.035 A 
HETATM   17  C13 UNL     1       1.820  -2.045  -1.508  1.00  0.00     0.156 A 
HETATM   18  O5  UNL     1       2.078  -3.258  -0.998  1.00  0.00    -0.188 OA
HETATM   19  C14 UNL     1      -0.529  -0.564  -4.084  1.00  0.00     0.296 C 
HETATM   20  O6  UNL     1      -0.498   0.256  -4.973  1.00  0.00    -0.259 OA
HETATM   21  O7  UNL     1      -1.586  -1.393  -4.053  1.00  0.00    -0.296 OA
HETATM   22  C15 UNL     1      -2.871  -0.766  -4.182  1.00  0.00     0.188 C 
HETATM   23  C16 UNL     1      -3.559  -0.516  -2.809  1.00  0.00     0.210 C 
HETATM   24  C17 UNL     1      -2.684  -0.154  -1.563  1.00  0.00     0.160 C 
HETATM   25  O8  UNL     1      -1.504   0.605  -1.857  1.00  0.00    -0.298 OA
HETATM   26  C18 UNL     1      -1.553   1.830  -2.402  1.00  0.00     0.296 C 
HETATM   27  C19 UNL     1      -0.356   2.488  -3.041  1.00  0.00     0.067 A 
HETATM   28  C20 UNL     1       0.945   1.861  -3.141  1.00  0.00     0.035 A 
HETATM   29  C21 UNL     1       1.988   2.570  -3.781  1.00  0.00     0.158 A 
HETATM   30  C22 UNL     1       1.775   3.861  -4.289  1.00  0.00     0.181 A 
HETATM   31  C23 UNL     1       0.516   4.465  -4.182  1.00  0.00     0.158 A 
HETATM   32  C24 UNL     1      -0.537   3.779  -3.565  1.00  0.00     0.035 A 
HETATM   33  O9  UNL     1       0.318   5.678  -4.662  1.00  0.00    -0.188 OA
HETATM   34  O10 UNL     1       2.766   4.512  -4.869  1.00  0.00    -0.186 OA
HETATM   35  O11 UNL     1       3.184   2.025  -3.920  1.00  0.00    -0.188 OA
HETATM   36  O12 UNL     1      -2.623   2.395  -2.359  1.00  0.00    -0.259 OA
HETATM   37  O23 UNL     1      -4.570   0.451  -3.006  1.00  0.00    -0.218 OA
HETATM   38  O24 UNL     1       7.572   1.148   2.729  1.00  0.00    -0.188 OA
HETATM   39  O25 UNL     1       7.086  -1.563   2.863  1.00  0.00    -0.186 OA
ENDROOT
BRANCH  24  40
HETATM   40  C25 UNL     1      -3.447   0.482  -0.389  1.00  0.00     0.069 C 
HETATM   41  C26 UNL     1      -4.537  -0.486   0.213  1.00  0.00     0.162 C 
HETATM   42  C27 UNL     1      -4.274  -2.037   0.150  1.00  0.00     0.204 C 
HETATM   43  O17 UNL     1      -4.844  -0.100   1.559  1.00  0.00    -0.298 OA
HETATM   44  C28 UNL     1      -3.246  -2.467   1.131  1.00  0.00     0.043 C 
HETATM   45  O22 UNL     1      -5.486  -2.719   0.414  1.00  0.00    -0.216 OA
HETATM   46  C29 UNL     1      -2.533  -3.693   1.049  1.00  0.00     0.157 C 
HETATM   47  C41 UNL     1      -2.959  -1.584   2.186  1.00  0.00     0.066 C 
HETATM   48  C30 UNL     1      -1.483  -3.961   1.967  1.00  0.00     0.181 C 
HETATM   49  O21 UNL     1      -2.848  -4.594   0.105  1.00  0.00    -0.188 OA
HETATM   50  C31 UNL     1      -1.057  -2.959   2.879  1.00  0.00     0.158 C 
HETATM   51  O20 UNL     1      -0.863  -5.150   1.943  1.00  0.00    -0.186 OA
HETATM   52  C32 UNL     1      -1.734  -1.711   2.893  1.00  0.00     0.035 C 
HETATM   53  O19 UNL     1       0.008  -3.184   3.664  1.00  0.00    -0.188 OA
HETATM   54  C33 UNL     1      -1.193  -0.494   3.525  1.00  0.00     0.033 A 
HETATM   55  C34 UNL     1      -1.088   0.660   2.680  1.00  0.00     0.039 A 
HETATM   56  C40 UNL     1      -0.815  -0.406   4.877  1.00  0.00     0.158 A 
HETATM   57  C35 UNL     1      -1.336   0.535   1.199  1.00  0.00     0.173 C 
HETATM   58  C37 UNL     1      -0.742   1.900   3.229  1.00  0.00     0.033 A 
HETATM   59  C36 UNL     1      -2.500   1.291   0.570  1.00  0.00     0.074 C 
HETATM   60  O13 UNL     1      -0.690  -0.162   0.453  1.00  0.00    -0.291 OA
HETATM   61  C38 UNL     1      -0.406   1.990   4.590  1.00  0.00     0.158 A 
HETATM   62  C39 UNL     1      -0.420   0.840   5.404  1.00  0.00     0.181 A 
HETATM   63  O16 UNL     1      -0.074   3.158   5.104  1.00  0.00    -0.188 OA
HETATM   64  O15 UNL     1      -0.068   0.932   6.672  1.00  0.00    -0.186 OA
HETATM   65  O14 UNL     1      -0.846  -1.471   5.654  1.00  0.00    -0.188 OA
HETATM   66  C42 UNL     1      -3.947  -0.494   2.473  1.00  0.00     0.296 C 
HETATM   67  O18 UNL     1      -3.998   0.090   3.533  1.00  0.00    -0.259 OA
ENDBRANCH  24  40
TORSDOF 1
