REMARK  5 active torsions:
REMARK  status: ('A' for Active; 'I' for Inactive)
REMARK    1  A    between atoms: C1_1  and  C17_18 
REMARK    2  A    between atoms: C5_5  and  C7_7 
REMARK    3  A    between atoms: C7_7  and  C8_8 
REMARK    4  A    between atoms: C18_19  and  C19_20 
REMARK    5  A    between atoms: C19_20  and  C20_21 
ROOT
HETATM    1  C1  UNL     1       2.291   0.881   0.820  1.00  0.00    -0.000 A 
HETATM    2  C2  UNL     1       3.574   0.586   1.338  1.00  0.00     0.002 A 
HETATM    3  C3  UNL     1       4.424  -0.297   0.631  1.00  0.00     0.022 A 
HETATM    4  C4  UNL     1       4.000  -0.887  -0.588  1.00  0.00     0.090 A 
HETATM    5  C5  UNL     1       2.715  -0.580  -1.104  1.00  0.00     0.004 A 
HETATM    6  C6  UNL     1       1.861   0.303  -0.399  1.00  0.00    -0.002 A 
HETATM    7  O1  UNL     1       4.819  -1.723  -1.264  1.00  0.00    -0.332 OA
HETATM    8  C12 UNL     1       5.944  -2.357  -0.629  1.00  0.00     0.117 C 
HETATM    9  C13 UNL     1       6.516  -1.555   0.525  1.00  0.00     0.001 C 
HETATM   10  C14 UNL     1       5.778  -0.613   1.140  1.00  0.00    -0.000 C 
HETATM   11  C15 UNL     1       7.016  -2.574  -1.699  1.00  0.00     0.035 C 
HETATM   12  C16 UNL     1       5.469  -3.709  -0.090  1.00  0.00     0.035 C 
ENDROOT
BRANCH   1  13
HETATM   13  C17 UNL     1       1.397   1.801   1.553  1.00  0.00     0.003 C 
HETATM   14  C18 UNL     1       0.072   1.717   1.344  1.00  0.00     0.042 C 
BRANCH  14  15
HETATM   15  C19 UNL     1      -0.855   2.609   2.049  1.00  0.00     0.198 C 
HETATM   16  O4  UNL     1      -0.490   3.697   2.424  1.00  0.00    -0.286 OA
BRANCH  15  17
HETATM   17  C20 UNL     1      -2.184   1.977   2.191  1.00  0.00     0.064 A 
HETATM   18  C21 UNL     1      -3.359   2.758   2.062  1.00  0.00     0.132 A 
HETATM   19  C22 UNL     1      -4.633   2.145   2.203  1.00  0.00     0.026 A 
HETATM   20  O3  UNL     1      -3.271   4.072   1.810  1.00  0.00    -0.190 OA
HETATM   21  C23 UNL     1      -5.873   2.953   2.084  1.00  0.00     0.033 C 
HETATM   22  C26 UNL     1      -4.723   0.746   2.459  1.00  0.00     0.092 A 
HETATM   23  C24 UNL     1      -7.096   2.234   2.680  1.00  0.00     0.033 C 
HETATM   24  C25 UNL     1      -7.141   0.766   2.221  1.00  0.00     0.099 C 
HETATM   25  O2  UNL     1      -5.914   0.119   2.588  1.00  0.00    -0.336 OA
HETATM   26  C29 UNL     1      -8.283   0.014   2.908  1.00  0.00     0.030 C 
HETATM   27  C30 UNL     1      -7.307   0.662   0.699  1.00  0.00     0.030 C 
HETATM   28  C27 UNL     1      -3.539  -0.020   2.592  1.00  0.00     0.024 A 
HETATM   29  C28 UNL     1      -2.273   0.592   2.459  1.00  0.00     0.007 A 
ENDBRANCH  15  17
ENDBRANCH  14  15
ENDBRANCH   1  13
BRANCH   5  30
HETATM   30  C7  UNL     1       2.262  -1.176  -2.373  1.00  0.00     0.054 C 
BRANCH  30  31
HETATM   31  C8  UNL     1       2.809  -0.443  -3.569  1.00  0.00    -0.030 C 
HETATM   32  C9  UNL     1       2.666  -1.002  -4.781  1.00  0.00    -0.048 C 
HETATM   33  C10 UNL     1       3.240  -0.285  -5.975  1.00  0.00     0.026 C 
HETATM   34  C11 UNL     1       1.938  -2.314  -4.887  1.00  0.00     0.026 C 
ENDBRANCH  30  31
ENDBRANCH   5  30
TORSDOF 5
