REMARK  7 active torsions:
REMARK  status: ('A' for Active; 'I' for Inactive)
REMARK    1  A    between atoms: C3_3  and  C13_15 
REMARK    2  A    between atoms: C4_4  and  O1_8 
REMARK    3  A    between atoms: O1_8  and  C8_9 
REMARK    4  A    between atoms: C8_9  and  C9_10 
REMARK    5  A    between atoms: C13_15  and  C14_16 
REMARK    6  A    between atoms: C14_16  and  O3_17 
REMARK    7  A    between atoms: O3_17  and  C15_18 
ROOT
HETATM    1  C1  UNL     1       1.641  -3.279   0.697  1.00  0.00    -0.004 A 
HETATM    2  C2  UNL     1       2.297  -2.037   0.697  1.00  0.00    -0.003 A 
HETATM    3  C3  UNL     1       1.553  -0.846   0.697  1.00  0.00     0.003 A 
HETATM    4  C4  UNL     1       0.145  -0.893   0.697  1.00  0.00     0.099 A 
HETATM    5  C5  UNL     1      -0.510  -2.139   0.697  1.00  0.00     0.020 A 
HETATM    6  C6  UNL     1       0.236  -3.330   0.697  1.00  0.00    -0.020 A 
HETATM    7  C7  UNL     1      -0.461  -4.645   0.697  1.00  0.00     0.031 C 
ENDROOT
BRANCH   3   8
HETATM    8  C13 UNL     1       2.258   0.465   0.697  1.00  0.00     0.055 C 
HETATM    9  C17 UNL     1       1.938   1.277   1.953  1.00  0.00     0.007 C 
BRANCH   8  10
HETATM   10  C14 UNL     1       1.998   1.244  -0.592  1.00  0.00     0.156 C 
BRANCH  10  11
HETATM   11  O3  UNL     1       2.313   0.428  -1.711  1.00  0.00    -0.301 OA
BRANCH  11  12
HETATM   12  C15 UNL     1       2.123   1.059  -2.865  1.00  0.00     0.272 C 
HETATM   13  O4  UNL     1       1.729   2.197  -2.955  1.00  0.00    -0.264 OA
HETATM   14  C16 UNL     1       2.434   0.248  -4.096  1.00  0.00     0.106 C 
ENDBRANCH  11  12
ENDBRANCH  10  11
ENDBRANCH   8  10
ENDBRANCH   3   8
BRANCH   4  15
HETATM   15  O1  UNL     1      -0.564   0.219   0.697  1.00  0.00    -0.274 OA
BRANCH  15  16
HETATM   16  C8  UNL     1      -1.680   0.271  -0.025  1.00  0.00     0.296 C 
HETATM   17  O2  UNL     1      -1.937  -0.496  -0.922  1.00  0.00    -0.259 OA
BRANCH  16  18
HETATM   18  C9  UNL     1      -2.617   1.346   0.328  1.00  0.00     0.037 C 
HETATM   19  C10 UNL     1      -3.715   1.687  -0.644  1.00  0.00     0.036 C 
HETATM   20  C11 UNL     1      -2.541   2.035   1.477  1.00  0.00    -0.025 C 
HETATM   21  C12 UNL     1      -3.557   3.115   1.736  1.00  0.00     0.030 C 
ENDBRANCH  16  18
ENDBRANCH  15  16
ENDBRANCH   4  15
TORSDOF 7
