REMARK  3 active torsions:
REMARK  status: ('A' for Active; 'I' for Inactive)
REMARK    1  A    between atoms: C3_3  and  C20_22 
REMARK    2  A    between atoms: C12_12  and  C15_15 
REMARK    3  A    between atoms: C15_15  and  C16_17 
ROOT
HETATM    1  C1  UNL     1       2.283   1.147  -0.945  1.00  0.00     0.153 C 
HETATM    2  C2  UNL     1       3.188  -0.103  -1.055  1.00  0.00     0.043 C 
HETATM    3  C3  UNL     1       3.369  -0.871   0.273  1.00  0.00     0.081 C 
HETATM    4  C4  UNL     1       2.004  -1.123   0.990  1.00  0.00     0.010 C 
HETATM    5  C5  UNL     1       1.133   0.176   1.213  1.00  0.00     0.006 C 
HETATM    6  C6  UNL     1       1.748   1.402   0.473  1.00  0.00     0.033 C 
HETATM    7  C7  UNL     1      -0.385  -0.059   0.879  1.00  0.00     0.018 C 
HETATM    8  C8  UNL     1      -0.656  -0.814  -0.416  1.00  0.00    -0.049 C 
HETATM    9  C9  UNL     1       0.305  -1.914  -0.793  1.00  0.00     0.022 C 
HETATM   10  C10 UNL     1       1.193  -2.301   0.389  1.00  0.00     0.005 C 
HETATM   11  C11 UNL     1      -1.721  -0.557  -1.209  1.00  0.00    -0.033 C 
HETATM   12  C12 UNL     1      -2.760   0.500  -0.896  1.00  0.00     0.049 C 
HETATM   13  C13 UNL     1      -2.713   0.904   0.588  1.00  0.00     0.007 C 
HETATM   14  C14 UNL     1      -1.275   1.197   1.021  1.00  0.00     0.004 C 
HETATM   15  C17 UNL     1      -2.481   1.713  -1.791  1.00  0.00     0.007 C 
HETATM   16  C18 UNL     1       1.187   0.527   2.713  1.00  0.00     0.000 C 
HETATM   17  C19 UNL     1       4.117  -2.184   0.000  1.00  0.00     0.011 C 
HETATM   18  O5  UNL     1       1.207   1.068  -1.857  1.00  0.00    -0.223 OA
ENDROOT
BRANCH  12  19
HETATM   19  C15 UNL     1      -4.149  -0.055  -1.236  1.00  0.00     0.189 C 
HETATM   20  O1  UNL     1      -4.328  -1.258  -0.523  1.00  0.00    -0.220 OA
BRANCH  19  21
HETATM   21  C16 UNL     1      -5.276   0.904  -0.852  1.00  0.00     0.215 C 
HETATM   22  O2  UNL     1      -6.481   0.404  -1.387  1.00  0.00    -0.218 OA
ENDBRANCH  19  21
ENDBRANCH  12  19
BRANCH   3  23
HETATM   23  C20 UNL     1       4.297  -0.101   1.184  1.00  0.00     0.184 C 
HETATM   24  O3  UNL     1       4.863   0.895   0.799  1.00  0.00    -0.647 OA
HETATM   25  O4  UNL     1       4.430  -0.602   2.410  1.00  0.00    -0.647 OA
ENDBRANCH   3  23
TORSDOF 3
