REMARK  0 active torsions:
REMARK  status: ('A' for Active; 'I' for Inactive)
ROOT
HETATM    1  C1  UNL     1      -1.277  -0.709  -5.268  1.00  0.00     0.181 A 
HETATM    2  C2  UNL     1      -0.070  -0.170  -4.789  1.00  0.00     0.158 A 
HETATM    3  C3  UNL     1       0.150  -0.051  -3.406  1.00  0.00     0.035 A 
HETATM    4  C4  UNL     1      -0.828  -0.469  -2.488  1.00  0.00     0.067 A 
HETATM    5  C5  UNL     1      -2.076  -0.947  -2.981  1.00  0.00     0.035 A 
HETATM    6  C6  UNL     1      -2.285  -1.100  -4.367  1.00  0.00     0.158 A 
HETATM    7  O1  UNL     1      -3.422  -1.588  -4.826  1.00  0.00    -0.188 OA
HETATM    8  C7  UNL     1      -3.123  -1.230  -2.000  1.00  0.00     0.035 C 
HETATM    9  C8  UNL     1      -4.037  -0.211  -1.621  1.00  0.00     0.068 C 
HETATM   10  C9  UNL     1      -4.410   0.973  -2.473  1.00  0.00     0.300 C 
HETATM   11  O2  UNL     1      -5.182   1.971  -1.973  1.00  0.00    -0.271 OA
HETATM   12  C10 UNL     1      -5.483   2.039  -0.652  1.00  0.00     0.131 C 
HETATM   13  C11 UNL     1      -5.180   0.945   0.193  1.00  0.00     0.032 C 
HETATM   14  C12 UNL     1      -4.590  -0.273  -0.336  1.00  0.00     0.032 C 
HETATM   15  C13 UNL     1      -4.508  -1.443   0.463  1.00  0.00     0.131 C 
HETATM   16  C14 UNL     1      -3.893  -2.594  -0.094  1.00  0.00     0.179 C 
HETATM   17  C15 UNL     1      -3.186  -2.484  -1.324  1.00  0.00     0.158 C 
HETATM   18  O3  UNL     1      -2.514  -3.545  -1.795  1.00  0.00    -0.188 OA
HETATM   19  O4  UNL     1      -3.916  -3.758   0.568  1.00  0.00    -0.186 OA
HETATM   20  O5  UNL     1      -4.981  -1.428   1.734  1.00  0.00    -0.271 OA
HETATM   21  C16 UNL     1      -5.320  -0.268   2.348  1.00  0.00     0.300 C 
HETATM   22  C17 UNL     1      -5.352   1.020   1.578  1.00  0.00     0.068 C 
HETATM   23  C18 UNL     1      -5.455   2.315   2.160  1.00  0.00     0.035 C 
HETATM   24  C19 UNL     1      -6.043   3.342   1.357  1.00  0.00     0.158 C 
HETATM   25  C20 UNL     1      -6.061   3.193  -0.061  1.00  0.00     0.179 C 
HETATM   26  O6  UNL     1      -6.545   4.174  -0.836  1.00  0.00    -0.186 OA
HETATM   27  O7  UNL     1      -6.477   4.490   1.893  1.00  0.00    -0.188 OA
HETATM   28  C21 UNL     1      -4.822   2.576   3.469  1.00  0.00     0.030 A 
HETATM   29  C22 UNL     1      -5.342   3.393   4.498  1.00  0.00     0.158 A 
HETATM   30  O8  UNL     1      -6.563   3.887   4.426  1.00  0.00    -0.188 OA
HETATM   31  C23 UNL     1      -4.535   3.682   5.621  1.00  0.00     0.181 A 
HETATM   32  C24 UNL     1      -3.225   3.164   5.727  1.00  0.00     0.163 A 
HETATM   33  C25 UNL     1      -2.715   2.318   4.715  1.00  0.00     0.091 A 
HETATM   34  C26 UNL     1      -3.549   1.990   3.647  1.00  0.00     0.010 A 
HETATM   35  C27 UNL     1      -1.305   1.752   4.744  1.00  0.00     0.298 C 
HETATM   36  O9  UNL     1      -0.619   1.379   3.631  1.00  0.00    -0.296 OA
HETATM   37  C28 UNL     1      -0.723   2.129   2.400  1.00  0.00     0.184 C 
HETATM   38  C29 UNL     1       0.574   2.010   1.559  1.00  0.00     0.178 C 
HETATM   39  C30 UNL     1       0.697   0.691   0.734  1.00  0.00     0.184 C 
HETATM   40  C31 UNL     1       2.131   0.434   0.213  1.00  0.00     0.188 C 
HETATM   41  C32 UNL     1       3.193   0.705   1.318  1.00  0.00     0.214 C 
HETATM   42  C33 UNL     1       2.951   2.102   1.922  1.00  0.00     0.300 C 
HETATM   43  O10 UNL     1       1.652   2.154   2.479  1.00  0.00    -0.324 OA
HETATM   44  O11 UNL     1       3.895   2.350   2.943  1.00  0.00    -0.187 OA
HETATM   45  O12 UNL     1       4.531   0.705   0.791  1.00  0.00    -0.293 OA
HETATM   46  C34 UNL     1       5.125  -0.469   0.521  1.00  0.00     0.296 C 
HETATM   47  C35 UNL     1       6.061  -0.578  -0.637  1.00  0.00     0.067 A 
HETATM   48  C36 UNL     1       6.072  -1.730  -1.498  1.00  0.00     0.035 A 
HETATM   49  C37 UNL     1       5.123  -2.865  -1.291  1.00  0.00     0.035 A 
HETATM   50  C38 UNL     1       5.598  -4.197  -1.238  1.00  0.00     0.158 A 
HETATM   51  C39 UNL     1       4.709  -5.268  -1.029  1.00  0.00     0.181 A 
HETATM   52  C40 UNL     1       3.340  -5.027  -0.842  1.00  0.00     0.158 A 
HETATM   53  C41 UNL     1       2.848  -3.715  -0.877  1.00  0.00     0.035 A 
HETATM   54  C42 UNL     1       3.713  -2.641  -1.117  1.00  0.00     0.067 A 
HETATM   55  C43 UNL     1       3.125  -1.270  -1.152  1.00  0.00     0.296 C 
HETATM   56  O13 UNL     1       2.178  -0.922  -0.266  1.00  0.00    -0.296 OA
HETATM   57  O14 UNL     1       3.486  -0.430  -1.947  1.00  0.00    -0.259 OA
HETATM   58  O15 UNL     1       2.514  -6.031  -0.631  1.00  0.00    -0.188 OA
HETATM   59  O16 UNL     1       5.166  -6.506  -1.000  1.00  0.00    -0.186 OA
HETATM   60  O17 UNL     1       6.885  -4.459  -1.369  1.00  0.00    -0.188 OA
HETATM   61  C44 UNL     1       6.994  -1.752  -2.572  1.00  0.00     0.158 A 
HETATM   62  C45 UNL     1       7.877  -0.676  -2.781  1.00  0.00     0.181 A 
HETATM   63  C46 UNL     1       7.834   0.449  -1.945  1.00  0.00     0.158 A 
HETATM   64  C47 UNL     1       6.924   0.498  -0.883  1.00  0.00     0.035 A 
HETATM   65  O18 UNL     1       8.650   1.463  -2.154  1.00  0.00    -0.188 OA
HETATM   66  O19 UNL     1       8.742  -0.719  -3.775  1.00  0.00    -0.186 OA
HETATM   67  O20 UNL     1       7.035  -2.775  -3.404  1.00  0.00    -0.188 OA
HETATM   68  O21 UNL     1       4.854  -1.412   1.230  1.00  0.00    -0.259 OA
HETATM   69  O22 UNL     1      -0.164   0.756  -0.422  1.00  0.00    -0.296 OA
HETATM   70  C48 UNL     1      -0.516  -0.410  -1.006  1.00  0.00     0.296 C 
HETATM   71  O23 UNL     1      -0.584  -1.439  -0.373  1.00  0.00    -0.259 OA
HETATM   72  O24 UNL     1      -0.773   1.621   5.824  1.00  0.00    -0.259 OA
HETATM   73  O25 UNL     1      -2.484   3.477   6.774  1.00  0.00    -0.188 OA
HETATM   74  O26 UNL     1      -5.008   4.457   6.578  1.00  0.00    -0.186 OA
HETATM   75  O27 UNL     1      -5.588  -0.340   3.525  1.00  0.00    -0.259 OA
HETATM   76  O28 UNL     1      -4.061   1.106  -3.621  1.00  0.00    -0.259 OA
HETATM   77  O29 UNL     1       0.863   0.221  -5.635  1.00  0.00    -0.188 OA
HETATM   78  O30 UNL     1      -1.471  -0.840  -6.565  1.00  0.00    -0.186 OA
ENDROOT
TORSDOF 0
