REMARK  5 active torsions:
REMARK  status: ('A' for Active; 'I' for Inactive)
REMARK    1  A    between atoms: C15_16  and  C18_19 
REMARK    2  A    between atoms: C18_19  and  C19_20 
REMARK    3  A    between atoms: C19_20  and  C20_21 
REMARK    4  A    between atoms: C20_21  and  C21_22 
REMARK    5  A    between atoms: C22_23  and  C24_25 
ROOT
HETATM    1  C1  UNL     1      -5.867   1.045  -0.191  1.00  0.00     0.033 C 
HETATM    2  C2  UNL     1      -6.203  -0.408  -0.600  1.00  0.00     0.152 C 
HETATM    3  C3  UNL     1      -5.074  -1.432  -0.248  1.00  0.00     0.029 C 
HETATM    4  C4  UNL     1      -4.309  -0.926   1.012  1.00  0.00     0.013 C 
HETATM    5  C5  UNL     1      -3.566   0.434   0.773  1.00  0.00     0.015 C 
HETATM    6  C6  UNL     1      -4.359   1.303  -0.242  1.00  0.00     0.006 C 
HETATM    7  C7  UNL     1      -2.115   0.275   0.295  1.00  0.00    -0.046 C 
HETATM    8  C8  UNL     1      -1.477  -0.926   0.299  1.00  0.00     0.004 C 
HETATM    9  C9  UNL     1      -2.123  -2.141   0.838  1.00  0.00     0.169 C 
HETATM   10  C10 UNL     1      -3.373  -1.963   1.652  1.00  0.00     0.069 C 
HETATM   11  O1  UNL     1      -1.676  -3.244   0.631  1.00  0.00    -0.292 OA
HETATM   12  C11 UNL     1      -0.070  -1.021  -0.268  1.00  0.00     0.021 C 
HETATM   13  C12 UNL     1       0.736   0.268  -0.022  1.00  0.00     0.004 C 
HETATM   14  C13 UNL     1       0.008   1.385  -0.770  1.00  0.00     0.005 C 
HETATM   15  C14 UNL     1      -1.406   1.547  -0.174  1.00  0.00     0.022 C 
HETATM   16  C15 UNL     1       2.119  -0.117  -0.559  1.00  0.00     0.000 C 
HETATM   17  C16 UNL     1       2.305  -1.535  -0.006  1.00  0.00     0.000 C 
HETATM   18  C17 UNL     1       0.898  -2.047   0.342  1.00  0.00     0.004 C 
HETATM   19  C26 UNL     1       0.855   0.600   1.477  1.00  0.00     0.000 C 
HETATM   20  C27 UNL     1      -0.193  -1.397  -1.752  1.00  0.00     0.004 C 
HETATM   21  C28 UNL     1      -3.492   1.176   2.115  1.00  0.00     0.004 C 
HETATM   22  C29 UNL     1      -4.115  -1.547  -1.439  1.00  0.00     0.003 C 
HETATM   23  C30 UNL     1      -5.645  -2.844  -0.022  1.00  0.00     0.003 C 
HETATM   24  O3  UNL     1      -7.430  -0.746   0.027  1.00  0.00    -0.224 OA
ENDROOT
BRANCH  16  25
HETATM   25  C18 UNL     1       3.246   0.832  -0.152  1.00  0.00     0.000 C 
HETATM   26  C25 UNL     1       2.971   2.223  -0.723  1.00  0.00     0.000 C 
BRANCH  25  27
HETATM   27  C19 UNL     1       4.586   0.260  -0.613  1.00  0.00     0.005 C 
BRANCH  27  28
HETATM   28  C20 UNL     1       5.779   0.936   0.061  1.00  0.00     0.026 C 
BRANCH  28  29
HETATM   29  C21 UNL     1       7.092   0.324  -0.346  1.00  0.00    -0.027 C 
HETATM   30  C22 UNL     1       8.221   1.014  -0.117  1.00  0.00     0.016 C 
HETATM   31  C23 UNL     1       8.115   2.367   0.537  1.00  0.00     0.034 C 
BRANCH  30  32
HETATM   32  C24 UNL     1       9.553   0.512  -0.473  1.00  0.00     0.230 C 
HETATM   33  O2  UNL     1      10.535   1.191  -0.283  1.00  0.00    -0.283 OA
ENDBRANCH  30  32
ENDBRANCH  28  29
ENDBRANCH  27  28
ENDBRANCH  25  27
ENDBRANCH  16  25
TORSDOF 5
