REMARK  17 active torsions:
REMARK  status: ('A' for Active; 'I' for Inactive)
REMARK    1  A    between atoms: C12_13  and  C31_35 
REMARK    2  A    between atoms: C13_14  and  O3_17 
REMARK    3  A    between atoms: O3_17  and  C15_18 
REMARK    4  A    between atoms: C15_18  and  C16_20 
REMARK    5  A    between atoms: C16_20  and  C17_21 
REMARK    6  A    between atoms: C17_21  and  C18_22 
REMARK    7  A    between atoms: C18_22  and  C19_23 
REMARK    8  A    between atoms: C19_23  and  C20_24 
REMARK    9  A    between atoms: C20_24  and  C21_25 
REMARK   10  A    between atoms: C21_25  and  C22_26 
REMARK   11  A    between atoms: C22_26  and  C23_27 
REMARK   12  A    between atoms: C23_27  and  C24_28 
REMARK   13  A    between atoms: C24_28  and  C25_29 
REMARK   14  A    between atoms: C25_29  and  C26_30 
REMARK   15  A    between atoms: C26_30  and  C27_31 
REMARK   16  A    between atoms: C27_31  and  C28_32 
REMARK   17  A    between atoms: C28_32  and  C29_33 
ROOT
HETATM    1  C1  UNL     1      -6.033   5.688   2.815  1.00  0.00     0.070 C 
HETATM    2  C2  UNL     1      -6.563   6.840   1.973  1.00  0.00     0.012 C 
HETATM    3  C3  UNL     1      -5.766   8.125   2.242  1.00  0.00     0.019 C 
HETATM    4  C4  UNL     1      -4.281   7.905   2.150  1.00  0.00    -0.020 A 
HETATM    5  C5  UNL     1      -3.674   6.600   2.246  1.00  0.00     0.033 A 
HETATM    6  C6  UNL     1      -4.584   5.414   2.483  1.00  0.00     0.173 C 
HETATM    7  O1  UNL     1      -4.332   4.231   2.440  1.00  0.00    -0.291 OA
HETATM    8  C7  UNL     1      -2.229   6.481   2.107  1.00  0.00     0.030 A 
HETATM    9  C8  UNL     1      -1.469   7.676   1.852  1.00  0.00     0.002 A 
HETATM   10  C9  UNL     1      -2.086   8.944   1.807  1.00  0.00    -0.000 A 
HETATM   11  C10 UNL     1      -3.471   9.053   1.969  1.00  0.00    -0.004 A 
HETATM   12  C11 UNL     1      -0.068   7.641   1.643  1.00  0.00    -0.002 A 
HETATM   13  C12 UNL     1       0.627   6.422   1.705  1.00  0.00     0.002 A 
HETATM   14  C13 UNL     1      -0.076   5.236   1.998  1.00  0.00     0.124 A 
HETATM   15  C14 UNL     1      -1.477   5.256   2.209  1.00  0.00     0.153 A 
HETATM   16  O2  UNL     1      -2.006   4.069   2.520  1.00  0.00    -0.188 OA
HETATM   17  C34 UNL     1      -6.242   9.158   1.205  1.00  0.00     0.004 C 
HETATM   18  C35 UNL     1      -6.098   8.656   3.643  1.00  0.00     0.004 C 
ENDROOT
BRANCH  14  19
HETATM   19  O3  UNL     1       0.590   4.074   2.076  1.00  0.00    -0.275 OA
BRANCH  19  20
HETATM   20  C15 UNL     1       0.342   3.127   1.176  1.00  0.00     0.276 C 
HETATM   21  O4  UNL     1      -0.398   3.274   0.231  1.00  0.00    -0.264 OA
BRANCH  20  22
HETATM   22  C16 UNL     1       1.057   1.822   1.404  1.00  0.00     0.096 C 
BRANCH  22  23
HETATM   23  C17 UNL     1       0.730   0.783   0.332  1.00  0.00     0.010 C 
BRANCH  23  24
HETATM   24  C18 UNL     1       1.459  -0.543   0.555  1.00  0.00     0.001 C 
BRANCH  24  25
HETATM   25  C19 UNL     1       1.131  -1.584  -0.516  1.00  0.00     0.000 C 
BRANCH  25  26
HETATM   26  C20 UNL     1       1.861  -2.910  -0.293  1.00  0.00     0.000 C 
BRANCH  26  27
HETATM   27  C21 UNL     1       1.533  -3.951  -1.363  1.00  0.00     0.000 C 
BRANCH  27  28
HETATM   28  C22 UNL     1       2.262  -5.275  -1.141  1.00  0.00     0.000 C 
BRANCH  28  29
HETATM   29  C23 UNL     1       1.934  -6.316  -2.211  1.00  0.00     0.000 C 
BRANCH  29  30
HETATM   30  C24 UNL     1       2.662  -7.643  -1.988  1.00  0.00     0.000 C 
BRANCH  30  31
HETATM   31  C25 UNL     1       2.334  -8.684  -3.059  1.00  0.00     0.000 C 
BRANCH  31  32
HETATM   32  C26 UNL     1       3.063 -10.010  -2.836  1.00  0.00     0.000 C 
BRANCH  32  33
HETATM   33  C27 UNL     1       2.734 -11.051  -3.906  1.00  0.00     0.000 C 
BRANCH  33  34
HETATM   34  C28 UNL     1       3.465 -12.375  -3.684  1.00  0.00     0.000 C 
BRANCH  34  35
HETATM   35  C29 UNL     1       3.137 -13.416  -4.754  1.00  0.00     0.000 C 
HETATM   36  C30 UNL     1       3.865 -14.742  -4.531  1.00  0.00     0.000 C 
ENDBRANCH  34  35
ENDBRANCH  33  34
ENDBRANCH  32  33
ENDBRANCH  31  32
ENDBRANCH  30  31
ENDBRANCH  29  30
ENDBRANCH  28  29
ENDBRANCH  27  28
ENDBRANCH  26  27
ENDBRANCH  25  26
ENDBRANCH  24  25
ENDBRANCH  23  24
ENDBRANCH  22  23
ENDBRANCH  20  22
ENDBRANCH  19  20
ENDBRANCH  14  19
BRANCH  13  37
HETATM   37  C31 UNL     1       2.080   6.393   1.471  1.00  0.00     0.024 C 
HETATM   38  C32 UNL     1       2.820   5.697   2.613  1.00  0.00     0.005 C 
HETATM   39  C33 UNL     1       2.416   5.799   0.102  1.00  0.00     0.005 C 
ENDBRANCH  13  37
TORSDOF 17
