REMARK  5 active torsions:
REMARK  status: ('A' for Active; 'I' for Inactive)
REMARK    1  A    between atoms: C5_6  and  O2_8 
REMARK    2  A    between atoms: O2_8  and  C7_9 
REMARK    3  A    between atoms: C11_14  and  O4_16 
REMARK    4  A    between atoms: O4_16  and  C13_17 
REMARK    5  A    between atoms: C19_24  and  C22_30 
ROOT
HETATM    1  C1  UNL     1      -4.490   1.588   1.189  1.00  0.00     0.274 C 
HETATM    2  O1  UNL     1      -4.369   0.510   1.982  1.00  0.00    -0.307 OA
HETATM    3  C2  UNL     1      -3.674  -0.666   1.551  1.00  0.00     0.102 C 
HETATM    4  C3  UNL     1      -2.135  -0.428   1.502  1.00  0.00     0.030 C 
HETATM    5  C4  UNL     1      -1.625   0.891   0.824  1.00  0.00     0.029 C 
HETATM    6  C5  UNL     1      -2.457   1.281  -0.432  1.00  0.00     0.134 C 
HETATM    7  C6  UNL     1      -3.945   1.648  -0.223  1.00  0.00     0.126 C 
HETATM    8  C9  UNL     1      -0.113   0.750   0.394  1.00  0.00     0.007 C 
HETATM    9  C10 UNL     1       0.709  -0.182   1.324  1.00  0.00     0.051 C 
HETATM   10  C11 UNL     1       0.129  -1.623   1.217  1.00  0.00     0.127 C 
HETATM   11  C12 UNL     1      -1.390  -1.666   0.971  1.00  0.00     0.033 C 
HETATM   12  C15 UNL     1       2.205  -0.213   0.857  1.00  0.00     0.132 A 
HETATM   13  C16 UNL     1       2.711   0.678  -0.297  1.00  0.00     0.055 C 
HETATM   14  C17 UNL     1       2.119   2.066   0.000  1.00  0.00     0.005 C 
HETATM   15  C18 UNL     1       0.582   2.109   0.103  1.00  0.00     0.000 C 
HETATM   16  C19 UNL     1       4.266   0.717  -0.363  1.00  0.00     0.151 C 
HETATM   17  O6  UNL     1       4.838  -0.596  -0.449  1.00  0.00    -0.298 OA
HETATM   18  C20 UNL     1       4.455  -1.535   0.437  1.00  0.00     0.302 C 
HETATM   19  C21 UNL     1       3.156  -1.408   1.217  1.00  0.00     0.226 A 
HETATM   20  O7  UNL     1       3.100  -0.227   1.941  1.00  0.00    -0.346 OA
HETATM   21  O8  UNL     1       5.135  -2.516   0.625  1.00  0.00    -0.261 OA
HETATM   22  C26 UNL     1       2.156   0.078  -1.598  1.00  0.00     0.005 C 
HETATM   23  C27 UNL     1       0.602   0.340   2.775  1.00  0.00     0.005 C 
HETATM   24  C28 UNL     1      -1.742   2.025   1.859  1.00  0.00     0.003 C 
HETATM   25  C29 UNL     1      -4.267  -1.199   0.238  1.00  0.00     0.030 C 
HETATM   26  C30 UNL     1      -3.976  -1.719   2.625  1.00  0.00     0.030 C 
HETATM   27  O10 UNL     1      -5.057   2.574   1.602  1.00  0.00    -0.264 OA
ENDROOT
BRANCH  16  28
HETATM   28  C22 UNL     1       4.758   1.529  -1.541  1.00  0.00     0.032 A 
HETATM   29  C23 UNL     1       6.086   1.791  -1.891  1.00  0.00     0.121 A 
HETATM   30  O9  UNL     1       6.180   2.561  -3.016  1.00  0.00    -0.303 OA
HETATM   31  C24 UNL     1       4.883   2.783  -3.377  1.00  0.00     0.122 A 
HETATM   32  C25 UNL     1       3.979   2.172  -2.504  1.00  0.00     0.027 A 
ENDBRANCH  16  28
BRANCH  10  33
HETATM   33  O4  UNL     1       0.740  -2.334   0.146  1.00  0.00    -0.304 OA
BRANCH  33  34
HETATM   34  C13 UNL     1       0.588  -3.650   0.260  1.00  0.00     0.272 C 
HETATM   35  O5  UNL     1       0.088  -4.190   1.219  1.00  0.00    -0.264 OA
HETATM   36  C14 UNL     1       1.088  -4.457  -0.908  1.00  0.00     0.106 C 
ENDBRANCH  33  34
ENDBRANCH  10  33
BRANCH   6  37
HETATM   37  O2  UNL     1      -2.377   0.246  -1.404  1.00  0.00    -0.304 OA
BRANCH  37  38
HETATM   38  C7  UNL     1      -2.592   0.693  -2.639  1.00  0.00     0.272 C 
HETATM   39  O3  UNL     1      -2.830   1.848  -2.904  1.00  0.00    -0.264 OA
HETATM   40  C8  UNL     1      -2.521  -0.354  -3.719  1.00  0.00     0.106 C 
ENDBRANCH  37  38
ENDBRANCH   6  37
TORSDOF 5
