REMARK  5 active torsions:
REMARK  status: ('A' for Active; 'I' for Inactive)
REMARK    1  A    between atoms: C6_6  and  C7_7 
REMARK    2  A    between atoms: C7_7  and  C8_8 
REMARK    3  A    between atoms: C12_13  and  C15_18 
REMARK    4  A    between atoms: C19_22  and  C21_24 
REMARK    5  A    between atoms: C21_24  and  C22_25 
ROOT
HETATM    1  C1  UNL     1       3.971   1.748  -1.811  1.00  0.00     0.129 A 
HETATM    2  C2  UNL     1       3.781   2.920  -2.578  1.00  0.00     0.027 A 
HETATM    3  C3  UNL     1       2.475   3.400  -2.830  1.00  0.00     0.007 A 
HETATM    4  C4  UNL     1       1.355   2.703  -2.316  1.00  0.00     0.059 A 
HETATM    5  C5  UNL     1       1.539   1.502  -1.578  1.00  0.00     0.096 A 
HETATM    6  C6  UNL     1       2.852   1.037  -1.312  1.00  0.00     0.030 A 
HETATM    7  O1  UNL     1       0.482   0.795  -1.123  1.00  0.00    -0.326 OA
HETATM    8  C12 UNL     1      -0.813   0.963  -1.709  1.00  0.00     0.181 C 
HETATM    9  C13 UNL     1      -1.147   2.469  -1.861  1.00  0.00     0.245 C 
HETATM   10  C14 UNL     1      -0.018   3.236  -2.537  1.00  0.00     0.208 C 
HETATM   11  O2  UNL     1      -0.299   4.217  -3.189  1.00  0.00    -0.288 OA
HETATM   12  O3  UNL     1      -2.352   2.605  -2.596  1.00  0.00    -0.212 OA
HETATM   13  O5  UNL     1       5.215   1.312  -1.564  1.00  0.00    -0.190 OA
ENDROOT
BRANCH   8  14
HETATM   14  C15 UNL     1      -1.801   0.225  -0.871  1.00  0.00     0.008 A 
HETATM   15  C16 UNL     1      -2.666  -0.711  -1.467  1.00  0.00     0.000 A 
HETATM   16  C17 UNL     1      -3.598  -1.406  -0.676  1.00  0.00     0.027 A 
HETATM   17  C18 UNL     1      -3.668  -1.172   0.709  1.00  0.00     0.127 A 
HETATM   18  C19 UNL     1      -2.799  -0.236   1.303  1.00  0.00     0.007 A 
HETATM   19  O4  UNL     1      -4.545  -1.832   1.441  1.00  0.00    -0.191 OA
HETATM   20  C20 UNL     1      -1.867   0.461   0.512  1.00  0.00    -0.004 A 
BRANCH  18  21
HETATM   21  C21 UNL     1      -2.859   0.021   2.766  1.00  0.00     0.054 C 
BRANCH  21  22
HETATM   22  C22 UNL     1      -2.272  -1.109   3.567  1.00  0.00    -0.030 C 
HETATM   23  C23 UNL     1      -2.065  -0.924   4.881  1.00  0.00    -0.048 C 
HETATM   24  C24 UNL     1      -2.457   0.394   5.492  1.00  0.00     0.026 C 
HETATM   25  C25 UNL     1      -1.449  -2.045   5.676  1.00  0.00     0.026 C 
ENDBRANCH  21  22
ENDBRANCH  18  21
ENDBRANCH   8  14
BRANCH   6  26
HETATM   26  C7  UNL     1       3.053  -0.188  -0.519  1.00  0.00     0.056 C 
BRANCH  26  27
HETATM   27  C8  UNL     1       3.719  -1.277  -1.316  1.00  0.00    -0.030 C 
HETATM   28  C9  UNL     1       2.953  -2.065  -2.090  1.00  0.00    -0.048 C 
HETATM   29  C10 UNL     1       1.463  -1.928  -2.266  1.00  0.00     0.026 C 
HETATM   30  C11 UNL     1       3.611  -3.184  -2.852  1.00  0.00     0.026 C 
ENDBRANCH  26  27
ENDBRANCH   6  26
TORSDOF 5
