REMARK  6 active torsions:
REMARK  status: ('A' for Active; 'I' for Inactive)
REMARK    1  A    between atoms: C1_2  and  C35_47 
REMARK    2  A    between atoms: C5_6  and  O2_7 
REMARK    3  A    between atoms: O2_7  and  C6_8 
REMARK    4  A    between atoms: C7_9  and  C34_41 
REMARK    5  A    between atoms: C16_19  and  C31_36 
REMARK    6  A    between atoms: C21_24  and  C30_33 
ROOT
HETATM    1  C6  UNL     1      -3.705   0.061   0.166  1.00  0.00     0.186 C 
HETATM    2  C7  UNL     1      -3.439  -1.326   0.838  1.00  0.00     0.231 C 
HETATM    3  C8  UNL     1      -1.910  -1.592   0.977  1.00  0.00     0.041 C 
HETATM    4  C9  UNL     1      -1.154  -0.518   1.840  1.00  0.00     0.006 C 
HETATM    5  C10 UNL     1      -1.941   0.826   1.875  1.00  0.00     0.036 C 
HETATM    6  C11 UNL     1      -2.643   1.139   0.545  1.00  0.00     0.182 C 
HETATM    7  O3  UNL     1      -3.168   2.455   0.588  1.00  0.00    -0.221 OA
HETATM    8  C12 UNL     1       0.305  -0.258   1.309  1.00  0.00     0.005 C 
HETATM    9  C13 UNL     1       1.049  -1.533   0.820  1.00  0.00     0.006 C 
HETATM   10  C14 UNL     1       0.193  -2.316  -0.223  1.00  0.00     0.001 C 
HETATM   11  C15 UNL     1      -1.234  -1.793  -0.391  1.00  0.00     0.003 C 
HETATM   12  C16 UNL     1       2.432  -1.145   0.184  1.00  0.00     0.045 C 
HETATM   13  C17 UNL     1       3.238  -0.193   1.066  1.00  0.00    -0.046 C 
HETATM   14  C18 UNL     1       2.652   0.561   2.020  1.00  0.00    -0.035 C 
HETATM   15  C19 UNL     1       1.178   0.520   2.328  1.00  0.00     0.025 C 
HETATM   16  C20 UNL     1       4.744  -0.070   0.863  1.00  0.00     0.028 C 
HETATM   17  C21 UNL     1       5.436  -1.436   0.641  1.00  0.00     0.082 C 
HETATM   18  C22 UNL     1       4.715  -2.189  -0.492  1.00  0.00     0.011 C 
HETATM   19  C23 UNL     1       3.236  -2.432  -0.160  1.00  0.00     0.007 C 
HETATM   20  C24 UNL     1       6.938  -1.244   0.320  1.00  0.00     0.011 C 
HETATM   21  C25 UNL     1       7.196  -0.242  -0.814  1.00  0.00     0.001 C 
HETATM   22  C26 UNL     1       6.551   1.127  -0.539  1.00  0.00     0.000 C 
HETATM   23  C27 UNL     1       5.047   0.938  -0.273  1.00  0.00     0.004 C 
HETATM   24  C28 UNL     1       7.219   1.797   0.666  1.00  0.00     0.000 C 
HETATM   25  C29 UNL     1       6.744   2.035  -1.758  1.00  0.00     0.000 C 
HETATM   26  C32 UNL     1       1.272  -2.436   2.051  1.00  0.00     0.000 C 
HETATM   27  C33 UNL     1      -1.100  -1.049   3.287  1.00  0.00     0.000 C 
HETATM   28  O7  UNL     1      -3.986  -1.367   2.150  1.00  0.00    -0.212 OA
ENDROOT
BRANCH   1  29
HETATM   29  O2  UNL     1      -5.045   0.484   0.397  1.00  0.00    -0.326 OA
BRANCH  29  30
HETATM   30  C5  UNL     1      -5.732   0.830  -0.789  1.00  0.00     0.270 C 
HETATM   31  O1  UNL     1      -5.119   1.988  -1.340  1.00  0.00    -0.326 OA
HETATM   32  C1  UNL     1      -5.670   2.432  -2.572  1.00  0.00     0.184 C 
HETATM   33  C2  UNL     1      -7.152   2.815  -2.363  1.00  0.00     0.215 C 
HETATM   34  C3  UNL     1      -7.953   1.649  -1.742  1.00  0.00     0.220 C 
HETATM   35  O12 UNL     1      -7.711   3.168  -3.615  1.00  0.00    -0.218 OA
HETATM   36  C4  UNL     1      -7.225   1.119  -0.486  1.00  0.00     0.241 C 
HETATM   37  O11 UNL     1      -9.254   2.092  -1.393  1.00  0.00    -0.218 OA
HETATM   38  O10 UNL     1      -7.854  -0.074  -0.047  1.00  0.00    -0.215 OA
BRANCH  32  39
HETATM   39  C35 UNL     1      -4.809   3.608  -3.043  1.00  0.00     0.214 C 
HETATM   40  O13 UNL     1      -3.525   3.115  -3.361  1.00  0.00    -0.218 OA
ENDBRANCH  32  39
ENDBRANCH  29  30
ENDBRANCH   1  29
BRANCH   2  41
HETATM   41  C34 UNL     1      -4.141  -2.434   0.086  1.00  0.00     0.217 C 
HETATM   42  O8  UNL     1      -3.709  -3.564   0.096  1.00  0.00    -0.646 OA
HETATM   43  O9  UNL     1      -5.238  -2.066  -0.570  1.00  0.00    -0.646 OA
ENDBRANCH   2  41
BRANCH  12  44
HETATM   44  C31 UNL     1       2.197  -0.355  -1.117  1.00  0.00     0.186 C 
HETATM   45  O6  UNL     1       2.760  -1.088  -2.184  1.00  0.00    -0.220 OA
ENDBRANCH  12  44
BRANCH  17  46
HETATM   46  C30 UNL     1       5.360  -2.254   1.914  1.00  0.00     0.184 C 
HETATM   47  O4  UNL     1       4.893  -1.789   2.926  1.00  0.00    -0.647 OA
HETATM   48  O5  UNL     1       5.836  -3.492   1.818  1.00  0.00    -0.647 OA
ENDBRANCH  17  46
TORSDOF 6
