REMARK  5 active torsions:
REMARK  status: ('A' for Active; 'I' for Inactive)
REMARK    1  A    between atoms: C2_2  and  C7_10 
REMARK    2  A    between atoms: C2_2  and  C17_23 
REMARK    3  A    between atoms: C7_10  and  C8_11 
REMARK    4  A    between atoms: C8_11  and  C9_12 
REMARK    5  A    between atoms: C10_13  and  C11_14 
ROOT
HETATM    1  C7  UNL     1       0.268  -2.271  -0.080  1.00  0.00     0.080 C 
ENDROOT
BRANCH   1   2
HETATM    2  C2  UNL     1      -1.053  -2.080   0.674  1.00  0.00     0.091 C 
HETATM    3  C1  UNL     1      -1.492  -0.601   0.574  1.00  0.00     0.046 C 
HETATM    4  C6  UNL     1      -2.893  -0.359   1.172  1.00  0.00     0.185 C 
HETATM    5  C5  UNL     1      -3.973  -1.266   0.529  1.00  0.00     0.212 C 
HETATM    6  O1  UNL     1      -3.233   1.008   1.041  1.00  0.00    -0.221 OA
HETATM    7  C4  UNL     1      -3.570  -2.756   0.586  1.00  0.00     0.185 C 
HETATM    8  O2  UNL     1      -4.164  -0.920  -0.834  1.00  0.00    -0.218 OA
HETATM    9  C3  UNL     1      -2.135  -3.008   0.068  1.00  0.00     0.046 C 
HETATM   10  O3  UNL     1      -3.682  -3.215   1.920  1.00  0.00    -0.221 OA
BRANCH   2  11
HETATM   11  C17 UNL     1      -0.779  -2.443   2.115  1.00  0.00     0.185 C 
HETATM   12  O7  UNL     1      -0.762  -3.598   2.473  1.00  0.00    -0.647 OA
HETATM   13  O8  UNL     1      -0.568  -1.412   2.928  1.00  0.00    -0.647 OA
ENDBRANCH   2  11
ENDBRANCH   1   2
BRANCH   1  14
HETATM   14  C8  UNL     1       1.359  -1.371   0.432  1.00  0.00     0.174 C 
HETATM   15  O6  UNL     1       1.945  -1.627   1.457  1.00  0.00    -0.291 OA
BRANCH  14  16
HETATM   16  C9  UNL     1       1.701  -0.172  -0.342  1.00  0.00     0.037 C 
HETATM   17  C10 UNL     1       2.670   0.658   0.076  1.00  0.00     0.003 C 
BRANCH  17  18
HETATM   18  C11 UNL     1       2.980   1.867  -0.744  1.00  0.00     0.002 A 
HETATM   19  C12 UNL     1       2.783   1.844  -2.137  1.00  0.00     0.002 A 
HETATM   20  C13 UNL     1       3.078   2.983  -2.906  1.00  0.00     0.029 A 
HETATM   21  C14 UNL     1       3.570   4.147  -2.289  1.00  0.00     0.156 A 
HETATM   22  C15 UNL     1       3.768   4.170  -0.897  1.00  0.00     0.156 A 
HETATM   23  O5  UNL     1       3.844   5.211  -3.018  1.00  0.00    -0.188 OA
HETATM   24  C16 UNL     1       3.473   3.031  -0.127  1.00  0.00     0.029 A 
HETATM   25  O4  UNL     1       4.229   5.258  -0.309  1.00  0.00    -0.188 OA
ENDBRANCH  17  18
ENDBRANCH  14  16
ENDBRANCH   1  14
TORSDOF 5
