REMARK  4 active torsions:
REMARK  status: ('A' for Active; 'I' for Inactive)
REMARK    1  A    between atoms: C1_1  and  O8_30 
REMARK    2  A    between atoms: C2_2  and  O7_28 
REMARK    3  A    between atoms: C3_3  and  O6_26 
REMARK    4  A    between atoms: C13_13  and  O3_20 
ROOT
HETATM    1  C1  UNL     1       1.852  -2.703  -0.881  1.00  0.00     0.118 A 
HETATM    2  C2  UNL     1       0.529  -2.836  -1.338  1.00  0.00     0.138 A 
HETATM    3  C3  UNL     1      -0.439  -1.875  -0.998  1.00  0.00     0.118 A 
HETATM    4  C4  UNL     1      -0.092  -0.773  -0.188  1.00  0.00     0.022 A 
HETATM    5  C5  UNL     1       1.252  -0.646   0.289  1.00  0.00    -0.018 A 
HETATM    6  C6  UNL     1       2.205  -1.613  -0.070  1.00  0.00     0.022 A 
HETATM    7  C7  UNL     1       1.693   0.481   1.164  1.00  0.00     0.029 C 
HETATM    8  C8  UNL     1       2.391   1.623   0.385  1.00  0.00     0.035 C 
HETATM    9  C9  UNL     1       1.430   2.688  -0.234  1.00  0.00     0.159 C 
HETATM   10  C10 UNL     1       0.242   2.065  -1.059  1.00  0.00     0.202 C 
HETATM   11  C11 UNL     1      -0.918   1.606  -0.217  1.00  0.00     0.014 A 
HETATM   12  C12 UNL     1      -1.096   0.246   0.178  1.00  0.00     0.025 A 
HETATM   13  C13 UNL     1      -2.244  -0.146   0.935  1.00  0.00     0.118 A 
HETATM   14  C14 UNL     1      -3.203   0.832   1.305  1.00  0.00     0.141 A 
HETATM   15  C15 UNL     1      -3.029   2.170   0.957  1.00  0.00     0.121 A 
HETATM   16  C16 UNL     1      -1.893   2.545   0.211  1.00  0.00     0.025 A 
HETATM   17  O1  UNL     1      -4.051   2.885   1.430  1.00  0.00    -0.299 OA
HETATM   18  C17 UNL     1      -4.969   2.004   2.111  1.00  0.00     0.304 A 
HETATM   19  O2  UNL     1      -4.342   0.709   1.988  1.00  0.00    -0.298 OA
HETATM   20  O4  UNL     1      -0.228   2.949  -2.070  1.00  0.00    -0.216 OA
HETATM   21  O5  UNL     1       2.254   3.463  -1.096  1.00  0.00    -0.223 OA
HETATM   22  C19 UNL     1       0.943   3.686   0.828  1.00  0.00     0.036 C 
HETATM   23  C20 UNL     1       3.453   2.285   1.281  1.00  0.00     0.003 C 
ENDROOT
BRANCH   1  24
HETATM   24  O8  UNL     1       2.760  -3.600  -1.207  1.00  0.00    -0.326 OA
HETATM   25  C23 UNL     1       4.113  -3.328  -0.875  1.00  0.00     0.181 C 
ENDBRANCH   1  24
BRANCH   2  26
HETATM   26  O7  UNL     1       0.199  -3.865  -2.094  1.00  0.00    -0.324 OA
HETATM   27  C22 UNL     1       0.719  -5.141  -1.748  1.00  0.00     0.182 C 
ENDBRANCH   2  26
BRANCH   3  28
HETATM   28  O6  UNL     1      -1.672  -2.012  -1.447  1.00  0.00    -0.326 OA
HETATM   29  C21 UNL     1      -2.100  -1.150  -2.492  1.00  0.00     0.181 C 
ENDBRANCH   3  28
BRANCH  13  30
HETATM   30  O3  UNL     1      -2.324  -1.447   1.258  1.00  0.00    -0.326 OA
HETATM   31  C18 UNL     1      -3.439  -1.877   2.023  1.00  0.00     0.181 C 
ENDBRANCH  13  30
TORSDOF 4
