REMARK  6 active torsions:
REMARK  status: ('A' for Active; 'I' for Inactive)
REMARK    1  A    between atoms: C2_3  and  C28_39 
REMARK    2  A    between atoms: C6_9  and  C7_10 
REMARK    3  A    between atoms: C7_10  and  C8_11 
REMARK    4  A    between atoms: C17_22  and  C18_24 
REMARK    5  A    between atoms: C18_24  and  C19_25 
REMARK    6  A    between atoms: C28_39  and  C29_40 
ROOT
HETATM    1  O1  UNL     1       0.150   2.732  -2.270  1.00  0.00    -0.268 OA
HETATM    2  C1  UNL     1       0.510   1.791  -1.600  1.00  0.00     0.275 C 
HETATM    3  C2  UNL     1       1.871   1.168  -1.846  1.00  0.00     0.191 C 
HETATM    4  N1  UNL     1       1.885   0.385  -3.109  1.00  0.00    -0.228 NA
HETATM    5  C3  UNL     1       1.723  -0.983  -3.178  1.00  0.00     0.277 C 
HETATM    6  C4  UNL     1       1.486  -1.811  -1.924  1.00  0.00     0.218 C 
HETATM    7  N2  UNL     1       0.770  -3.090  -2.176  1.00  0.00    -0.226 NA
HETATM    8  C5  UNL     1      -0.160  -3.637  -1.313  1.00  0.00     0.275 C 
HETATM    9  C6  UNL     1      -0.510  -2.996   0.023  1.00  0.00     0.191 C 
HETATM   10  N3  UNL     1      -1.742  -2.158   0.004  1.00  0.00    -0.228 NA
HETATM   11  C14 UNL     1      -2.121  -1.332  -1.033  1.00  0.00     0.272 C 
HETATM   12  C15 UNL     1      -3.389  -0.508  -0.881  1.00  0.00     0.165 C 
HETATM   13  N4  UNL     1      -3.387   0.695  -1.709  1.00  0.00    -0.312 N 
HETATM   14  C16 UNL     1      -2.586   1.851  -1.496  1.00  0.00     0.257 C 
HETATM   15  C17 UNL     1      -1.645   1.861  -0.299  1.00  0.00     0.189 C 
HETATM   16  N5  UNL     1      -0.311   1.289  -0.611  1.00  0.00    -0.228 NA
HETATM   17  O3  UNL     1      -2.666   2.795  -2.248  1.00  0.00    -0.270 OA
HETATM   18  C25 UNL     1      -4.315   0.605  -2.824  1.00  0.00     0.105 C 
HETATM   19  C26 UNL     1      -4.752  -0.858  -2.846  1.00  0.00     0.027 C 
HETATM   20  C27 UNL     1      -4.625  -1.276  -1.371  1.00  0.00     0.034 C 
HETATM   21  O4  UNL     1      -1.461  -1.256  -2.045  1.00  0.00    -0.269 OA
HETATM   22  O5  UNL     1      -0.709  -4.666  -1.633  1.00  0.00    -0.268 OA
HETATM   23  O6  UNL     1       1.768  -1.516  -4.264  1.00  0.00    -0.268 OA
ENDROOT
BRANCH  15  24
HETATM   24  C18 UNL     1      -1.480   3.279   0.260  1.00  0.00     0.060 C 
BRANCH  24  25
HETATM   25  C19 UNL     1      -1.121   3.260   1.701  1.00  0.00    -0.020 A 
HETATM   26  C20 UNL     1      -2.111   3.480   2.676  1.00  0.00    -0.002 A 
HETATM   27  C21 UNL     1      -1.770   3.463   4.039  1.00  0.00     0.027 A 
HETATM   28  C22 UNL     1      -0.441   3.225   4.434  1.00  0.00     0.131 A 
HETATM   29  C23 UNL     1       0.547   3.006   3.457  1.00  0.00     0.027 A 
HETATM   30  O2  UNL     1      -0.121   3.209   5.713  1.00  0.00    -0.190 OA
HETATM   31  C24 UNL     1       0.207   3.023   2.092  1.00  0.00    -0.002 A 
ENDBRANCH  24  25
ENDBRANCH  15  24
BRANCH   3  32
HETATM   32  C28 UNL     1       2.949   2.256  -1.904  1.00  0.00     0.060 C 
BRANCH  32  33
HETATM   33  C29 UNL     1       3.076   2.969  -0.606  1.00  0.00    -0.020 A 
HETATM   34  C30 UNL     1       2.607   4.289  -0.479  1.00  0.00    -0.004 A 
HETATM   35  C31 UNL     1       2.729   4.963   0.748  1.00  0.00    -0.000 A 
HETATM   36  C32 UNL     1       3.318   4.316   1.850  1.00  0.00    -0.000 A 
HETATM   37  C33 UNL     1       3.787   2.998   1.725  1.00  0.00    -0.000 A 
HETATM   38  C34 UNL     1       3.666   2.324   0.496  1.00  0.00    -0.004 A 
ENDBRANCH  32  33
ENDBRANCH   3  32
BRANCH   9  39
HETATM   39  C7  UNL     1      -0.648  -4.084   1.096  1.00  0.00     0.060 C 
BRANCH  39  40
HETATM   40  C8  UNL     1       0.613  -4.848   1.268  1.00  0.00    -0.020 A 
HETATM   41  C9  UNL     1       0.721  -6.156   0.762  1.00  0.00    -0.004 A 
HETATM   42  C10 UNL     1       1.914  -6.877   0.926  1.00  0.00    -0.000 A 
HETATM   43  C11 UNL     1       3.004  -6.293   1.594  1.00  0.00    -0.000 A 
HETATM   44  C12 UNL     1       2.898  -4.987   2.100  1.00  0.00    -0.000 A 
HETATM   45  C13 UNL     1       1.705  -4.264   1.937  1.00  0.00    -0.004 A 
ENDBRANCH  39  40
ENDBRANCH   9  39
TORSDOF 6
