REMARK  5 active torsions:
REMARK  status: ('A' for Active; 'I' for Inactive)
REMARK    1  A    between atoms: C1_1  and  C2_2 
REMARK    2  A    between atoms: C1_1  and  O4_14 
REMARK    3  A    between atoms: C2_2  and  C3_3 
REMARK    4  A    between atoms: C3_3  and  C4_4 
REMARK    5  A    between atoms: C6_6  and  O2_11 
ROOT
HETATM    1  C4  UNL     1       0.955  -0.025  -0.942  1.00  0.00    -0.020 A 
HETATM    2  C5  UNL     1      -0.449  -0.078  -0.942  1.00  0.00     0.022 A 
HETATM    3  C6  UNL     1      -1.111  -1.318  -0.942  1.00  0.00     0.119 A 
HETATM    4  C7  UNL     1      -0.363  -2.512  -0.942  1.00  0.00     0.153 A 
HETATM    5  C8  UNL     1       1.041  -2.457  -0.942  1.00  0.00     0.029 A 
HETATM    6  C9  UNL     1       1.701  -1.217  -0.942  1.00  0.00    -0.002 A 
HETATM    7  O1  UNL     1      -0.975  -3.678  -0.942  1.00  0.00    -0.188 OA
ENDROOT
BRANCH   1   8
HETATM    8  C3  UNL     1       1.650   1.289  -0.942  1.00  0.00     0.037 C 
BRANCH   8   9
HETATM    9  C2  UNL     1       2.113   1.682   0.461  1.00  0.00     0.101 C 
BRANCH   9  10
HETATM   10  C1  UNL     1       0.961   1.912   1.402  1.00  0.00     0.272 C 
HETATM   11  O3  UNL     1       0.463   3.008   1.519  1.00  0.00    -0.264 OA
BRANCH  10  12
HETATM   12  O4  UNL     1       0.553   0.838   2.072  1.00  0.00    -0.299 OA
HETATM   13  C11 UNL     1      -0.529   1.123   2.945  1.00  0.00     0.184 C 
ENDBRANCH  10  12
ENDBRANCH   9  10
ENDBRANCH   8   9
ENDBRANCH   1   8
BRANCH   3  14
HETATM   14  O2  UNL     1      -2.428  -1.361  -0.942  1.00  0.00    -0.326 OA
HETATM   15  C10 UNL     1      -3.135  -0.129  -0.942  1.00  0.00     0.181 C 
ENDBRANCH   3  14
TORSDOF 5
