REMARK  1 active torsions:
REMARK  status: ('A' for Active; 'I' for Inactive)
REMARK    1  A    between atoms: C10_11  and  O2_18 
ROOT
HETATM    1  C1  UNL     1      -4.215   0.723  -0.381  1.00  0.00     0.000 A 
HETATM    2  C2  UNL     1      -4.010  -0.678  -0.238  1.00  0.00     0.002 A 
HETATM    3  C3  UNL     1      -2.697  -1.213  -0.152  1.00  0.00     0.018 A 
HETATM    4  C4  UNL     1      -1.607  -0.317  -0.211  1.00  0.00     0.067 A 
HETATM    5  C5  UNL     1      -1.811   1.066  -0.348  1.00  0.00     0.018 A 
HETATM    6  C6  UNL     1      -3.111   1.615  -0.438  1.00  0.00     0.002 A 
HETATM    7  C7  UNL     1      -0.604   1.705  -0.375  1.00  0.00     0.021 A 
HETATM    8  C8  UNL     1       0.389   0.752  -0.258  1.00  0.00     0.087 A 
HETATM    9  N1  UNL     1      -0.215  -0.475  -0.158  1.00  0.00    -0.272 N 
HETATM   10  C9  UNL     1       0.623  -1.621  -0.031  1.00  0.00     0.289 A 
HETATM   11  C10 UNL     1       2.106  -1.379  -0.016  1.00  0.00     0.178 A 
HETATM   12  C11 UNL     1       2.656  -0.129  -0.115  1.00  0.00     0.177 A 
HETATM   13  C12 UNL     1       1.754   1.070  -0.250  1.00  0.00     0.125 A 
HETATM   14  N2  UNL     1       2.135   2.398  -0.363  1.00  0.00    -0.240 NA
HETATM   15  C13 UNL     1       1.150   3.385  -0.480  1.00  0.00     0.099 A 
HETATM   16  C14 UNL     1      -0.246   3.074  -0.492  1.00  0.00     0.022 A 
HETATM   17  O1  UNL     1       3.986  -0.076  -0.086  1.00  0.00    -0.186 OA
HETATM   18  O3  UNL     1       0.172  -2.740   0.061  1.00  0.00    -0.264 OA
ENDROOT
BRANCH  11  19
HETATM   19  O2  UNL     1       2.910  -2.436   0.102  1.00  0.00    -0.322 OA
HETATM   20  C15 UNL     1       2.918  -2.965   1.418  1.00  0.00     0.182 C 
ENDBRANCH  11  19
TORSDOF 1
