REMARK  15 active torsions:
REMARK  status: ('A' for Active; 'I' for Inactive)
REMARK    1  A    between atoms: C4_4  and  O3_9 
REMARK    2  A    between atoms: C5_6  and  C6_7 
REMARK    3  A    between atoms: O3_9  and  C7_10 
REMARK    4  A    between atoms: C7_10  and  C8_11 
REMARK    5  A    between atoms: C8_11  and  C9_12 
REMARK    6  A    between atoms: C8_11  and  C15_19 
REMARK    7  A    between atoms: C9_12  and  C10_13 
REMARK    8  A    between atoms: C11_14  and  C12_15 
REMARK    9  A    between atoms: C29_33  and  O5_36 
REMARK   10  A    between atoms: O5_36  and  C32_37 
REMARK   11  A    between atoms: C33_39  and  C48_65 
REMARK   12  A    between atoms: C35_41  and  O12_54 
REMARK   13  A    between atoms: C36_42  and  O7_43 
REMARK   14  A    between atoms: O7_43  and  C37_44 
REMARK   15  A    between atoms: O12_54  and  C43_55 
ROOT
HETATM    1  C15 UNL     1      -2.584   0.986  -0.270  1.00  0.00     0.031 C 
HETATM    2  C16 UNL     1      -2.174   2.457  -0.182  1.00  0.00     0.003 C 
HETATM    3  C17 UNL     1      -1.258   2.549   1.055  1.00  0.00     0.000 C 
HETATM    4  C18 UNL     1      -2.084   1.693   2.029  1.00  0.00     0.000 C 
HETATM    5  C19 UNL     1      -2.709   0.568   1.199  1.00  0.00     0.003 C 
HETATM    6  C20 UNL     1       0.203   2.035   0.842  1.00  0.00     0.000 C 
HETATM    7  C21 UNL     1       0.795   2.717  -0.422  1.00  0.00     0.000 C 
HETATM    8  C22 UNL     1      -0.098   2.463  -1.656  1.00  0.00     0.000 C 
HETATM    9  C23 UNL     1      -1.518   3.008  -1.453  1.00  0.00     0.000 C 
HETATM   10  C24 UNL     1       2.309   2.424  -0.690  1.00  0.00     0.000 C 
HETATM   11  C25 UNL     1       3.170   2.594   0.611  1.00  0.00     0.002 C 
HETATM   12  C26 UNL     1       2.516   1.943   1.855  1.00  0.00     0.000 C 
HETATM   13  C27 UNL     1       1.070   2.400   2.059  1.00  0.00     0.000 C 
HETATM   14  C28 UNL     1       4.670   2.172   0.432  1.00  0.00     0.025 C 
HETATM   15  C29 UNL     1       4.820   0.781  -0.242  1.00  0.00     0.118 C 
HETATM   16  C30 UNL     1       4.012   0.691  -1.547  1.00  0.00     0.030 C 
HETATM   17  C31 UNL     1       2.529   1.023  -1.326  1.00  0.00     0.003 C 
HETATM   18  C49 UNL     1       5.426   2.191   1.773  1.00  0.00     0.002 C 
HETATM   19  C50 UNL     1       5.385   3.199  -0.453  1.00  0.00     0.002 C 
HETATM   20  C51 UNL     1       2.775   3.465  -1.723  1.00  0.00     0.000 C 
HETATM   21  C52 UNL     1       0.191   0.506   0.713  1.00  0.00     0.000 C 
HETATM   22  C53 UNL     1      -1.311   4.010   1.517  1.00  0.00     0.000 C 
ENDROOT
BRANCH  15  23
HETATM   23  O5  UNL     1       4.418  -0.264   0.625  1.00  0.00    -0.332 OA
BRANCH  23  24
HETATM   24  C32 UNL     1       4.551  -1.549   0.049  1.00  0.00     0.266 C 
HETATM   25  O6  UNL     1       5.842  -1.682  -0.545  1.00  0.00    -0.326 OA
HETATM   26  C33 UNL     1       6.078  -2.912  -1.231  1.00  0.00     0.184 C 
HETATM   27  C34 UNL     1       5.891  -4.119  -0.276  1.00  0.00     0.211 C 
HETATM   28  C35 UNL     1       4.564  -4.067   0.521  1.00  0.00     0.183 C 
HETATM   29  O17 UNL     1       6.979  -4.170   0.633  1.00  0.00    -0.218 OA
HETATM   30  C36 UNL     1       4.299  -2.660   1.105  1.00  0.00     0.204 C 
BRANCH  26  31
HETATM   31  C48 UNL     1       5.172  -2.981  -2.467  1.00  0.00     0.214 C 
HETATM   32  O18 UNL     1       5.553  -1.949  -3.350  1.00  0.00    -0.218 OA
ENDBRANCH  26  31
BRANCH  28  33
HETATM   33  O12 UNL     1       3.498  -4.400  -0.348  1.00  0.00    -0.326 OA
BRANCH  33  34
HETATM   34  C43 UNL     1       2.277  -4.631   0.330  1.00  0.00     0.270 C 
HETATM   35  O13 UNL     1       1.430  -3.488   0.264  1.00  0.00    -0.326 OA
HETATM   36  C44 UNL     1       0.977  -3.139  -1.041  1.00  0.00     0.181 C 
HETATM   37  C45 UNL     1       0.164  -4.297  -1.652  1.00  0.00     0.215 C 
HETATM   38  C46 UNL     1       0.955  -5.623  -1.641  1.00  0.00     0.220 C 
HETATM   39  O16 UNL     1      -0.180  -3.951  -2.983  1.00  0.00    -0.218 OA
HETATM   40  C47 UNL     1       1.531  -5.873  -0.229  1.00  0.00     0.241 C 
HETATM   41  O15 UNL     1       0.092  -6.693  -1.998  1.00  0.00    -0.218 OA
HETATM   42  O14 UNL     1       2.391  -7.002  -0.238  1.00  0.00    -0.215 OA
ENDBRANCH  33  34
ENDBRANCH  28  33
BRANCH  30  43
HETATM   43  O7  UNL     1       5.125  -2.479   2.244  1.00  0.00    -0.324 OA
BRANCH  43  44
HETATM   44  C37 UNL     1       4.484  -1.779   3.293  1.00  0.00     0.270 C 
HETATM   45  C38 UNL     1       3.770  -2.732   4.311  1.00  0.00     0.241 C 
HETATM   46  C39 UNL     1       4.613  -3.027   5.564  1.00  0.00     0.220 C 
HETATM   47  O11 UNL     1       3.297  -3.936   3.719  1.00  0.00    -0.215 OA
HETATM   48  C40 UNL     1       5.070  -1.693   6.217  1.00  0.00     0.212 C 
HETATM   49  O10 UNL     1       5.762  -3.779   5.205  1.00  0.00    -0.218 OA
HETATM   50  C41 UNL     1       5.141  -0.490   5.228  1.00  0.00     0.151 C 
HETATM   51  O9  UNL     1       4.182  -1.383   7.275  1.00  0.00    -0.218 OA
HETATM   52  O8  UNL     1       5.475  -0.969   3.930  1.00  0.00    -0.329 OA
HETATM   53  C42 UNL     1       3.865   0.367   5.121  1.00  0.00     0.035 C 
ENDBRANCH  43  44
ENDBRANCH  30  43
ENDBRANCH  23  24
ENDBRANCH  15  23
BRANCH   1  54
HETATM   54  C8  UNL     1      -3.877   0.787  -1.053  1.00  0.00     0.158 C 
HETATM   55  O4  UNL     1      -4.293  -0.549  -0.887  1.00  0.00    -0.223 OA
BRANCH  54  56
HETATM   56  C7  UNL     1      -4.963   1.701  -0.481  1.00  0.00     0.175 C 
BRANCH  56  57
HETATM   57  O3  UNL     1      -6.213   1.250  -0.953  1.00  0.00    -0.326 OA
BRANCH  57  58
HETATM   58  C4  UNL     1      -7.303   1.992  -0.445  1.00  0.00     0.270 C 
HETATM   59  C3  UNL     1      -8.631   1.227  -0.672  1.00  0.00     0.241 C 
HETATM   60  C2  UNL     1      -9.844   2.090  -0.262  1.00  0.00     0.220 C 
HETATM   61  O19 UNL     1      -8.621   0.035   0.098  1.00  0.00    -0.215 OA
HETATM   62  C1  UNL     1      -9.748   3.475  -0.938  1.00  0.00     0.215 C 
HETATM   63  O20 UNL     1     -11.049   1.447  -0.652  1.00  0.00    -0.218 OA
HETATM   64  C5  UNL     1      -8.371   4.127  -0.682  1.00  0.00     0.184 C 
HETATM   65  O21 UNL     1     -10.756   4.330  -0.428  1.00  0.00    -0.218 OA
HETATM   66  O1  UNL     1      -7.346   3.244  -1.119  1.00  0.00    -0.326 OA
BRANCH  64  67
HETATM   67  C6  UNL     1      -8.184   5.438  -1.451  1.00  0.00     0.214 C 
HETATM   68  O2  UNL     1      -6.983   6.035  -1.020  1.00  0.00    -0.218 OA
ENDBRANCH  64  67
ENDBRANCH  57  58
ENDBRANCH  56  57
ENDBRANCH  54  56
BRANCH  54  69
HETATM   69  C9  UNL     1      -3.625   1.029  -2.541  1.00  0.00     0.059 C 
BRANCH  69  70
HETATM   70  C10 UNL     1      -4.453   0.129  -3.416  1.00  0.00    -0.024 C 
HETATM   71  C11 UNL     1      -3.822  -0.754  -4.207  1.00  0.00    -0.009 C 
BRANCH  71  72
HETATM   72  C12 UNL     1      -4.582  -1.656  -5.082  1.00  0.00    -0.022 C 
HETATM   73  C13 UNL     1      -4.190  -3.102  -5.229  1.00  0.00     0.031 C 
HETATM   74  C14 UNL     1      -5.647  -1.207  -5.768  1.00  0.00    -0.005 C 
ENDBRANCH  71  72
ENDBRANCH  69  70
ENDBRANCH  54  69
ENDBRANCH   1  54
TORSDOF 15
