REMARK  5 active torsions:
REMARK  status: ('A' for Active; 'I' for Inactive)
REMARK    1  A    between atoms: C1_2  and  C2_3 
REMARK    2  A    between atoms: C2_3  and  C3_4 
REMARK    3  A    between atoms: C3_4  and  C4_6 
REMARK    4  A    between atoms: C4_6  and  C5_8 
REMARK    5  A    between atoms: C5_8  and  C6_10 
ROOT
HETATM    1  C3  UNL     1      -0.344   0.949   0.019  1.00  0.00     0.230 C 
HETATM    2  O2  UNL     1       0.295   1.664   1.051  1.00  0.00    -0.218 OA
ENDROOT
BRANCH   1   3
HETATM    3  C2  UNL     1      -1.855   1.072   0.215  1.00  0.00     0.398 C 
HETATM    4  N1  UNL     1      -2.279   2.451   0.047  1.00  0.00     0.627 N 
BRANCH   3   5
HETATM    5  C1  UNL     1      -2.631   0.174  -0.711  1.00  0.00     0.249 C 
HETATM    6  O1  UNL     1      -3.383  -0.666  -0.278  1.00  0.00    -0.286 OA
ENDBRANCH   3   5
ENDBRANCH   1   3
BRANCH   1   7
HETATM    7  C4  UNL     1       0.141  -0.500   0.070  1.00  0.00     0.218 C 
HETATM    8  O3  UNL     1      -0.197  -1.035   1.330  1.00  0.00    -0.218 OA
BRANCH   7   9
HETATM    9  C5  UNL     1       1.655  -0.623  -0.112  1.00  0.00     0.218 C 
HETATM   10  O4  UNL     1       1.998  -0.045  -1.352  1.00  0.00    -0.218 OA
BRANCH   9  11
HETATM   11  C6  UNL     1       2.133  -2.076  -0.112  1.00  0.00     0.218 C 
HETATM   12  O5  UNL     1       3.543  -2.076  -0.112  1.00  0.00    -0.218 OA
ENDBRANCH   9  11
ENDBRANCH   7   9
ENDBRANCH   1   7
TORSDOF 5
