REMARK  6 active torsions:
REMARK  status: ('A' for Active; 'I' for Inactive)
REMARK    1  A    between atoms: C1_1  and  C2_2 
REMARK    2  A    between atoms: C2_2  and  C3_3 
REMARK    3  A    between atoms: C3_3  and  C4_4 
REMARK    4  A    between atoms: C4_4  and  C5_5 
REMARK    5  A    between atoms: C5_5  and  C6_6 
REMARK    6  A    between atoms: C6_6  and  C7_7 
ROOT
HETATM    1  C4  UNL     1       0.088   0.494  -0.768  1.00  0.00     0.000 C 
ENDROOT
BRANCH   1   2
HETATM    2  C3  UNL     1       1.615   0.566  -0.748  1.00  0.00     0.003 C 
HETATM    3  C10 UNL     1       2.156   1.308   0.475  1.00  0.00     0.000 C 
BRANCH   2   4
HETATM    4  C2  UNL     1       2.197   1.092  -2.061  1.00  0.00     0.036 C 
BRANCH   4   5
HETATM    5  C1  UNL     1       3.680   0.760  -2.225  1.00  0.00     0.182 C 
HETATM    6  O1  UNL     1       4.098   1.217  -3.490  1.00  0.00    -0.221 OA
ENDBRANCH   4   5
ENDBRANCH   2   4
ENDBRANCH   1   2
BRANCH   1   7
HETATM    7  C5  UNL     1      -0.478  -0.291   0.416  1.00  0.00     0.000 C 
BRANCH   7   8
HETATM    8  C6  UNL     1      -1.992  -0.486   0.324  1.00  0.00     0.000 C 
BRANCH   8   9
HETATM    9  C7  UNL     1      -2.549  -1.332   1.469  1.00  0.00     0.000 C 
HETATM   10  C8  UNL     1      -2.496  -0.611   2.816  1.00  0.00     0.000 C 
HETATM   11  C9  UNL     1      -3.933  -1.904   1.160  1.00  0.00     0.000 C 
ENDBRANCH   8   9
ENDBRANCH   7   8
ENDBRANCH   1   7
TORSDOF 6
