REMARK  3 active torsions:
REMARK  status: ('A' for Active; 'I' for Inactive)
REMARK    1  A    between atoms: C1_1  and  O4_28 
REMARK    2  A    between atoms: C2_2  and  O3_26 
REMARK    3  A    between atoms: C20_22  and  C21_23 
ROOT
HETATM    1  C1  UNL     1       0.477   2.699   1.395  1.00  0.00     0.116 A 
HETATM    2  C2  UNL     1      -0.926   2.781   1.504  1.00  0.00     0.118 A 
HETATM    3  C3  UNL     1      -1.727   1.977   0.676  1.00  0.00     0.043 A 
HETATM    4  C4  UNL     1      -1.082   1.109  -0.242  1.00  0.00     0.060 A 
HETATM    5  C5  UNL     1       0.307   1.016  -0.471  1.00  0.00    -0.001 A 
HETATM    6  C6  UNL     1       1.062   1.844   0.428  1.00  0.00     0.024 A 
HETATM    7  C7  UNL     1       0.707   0.102  -1.701  1.00  0.00     0.071 C 
HETATM    8  C8  UNL     1      -0.684  -0.576  -1.961  1.00  0.00     0.094 C 
HETATM    9  N1  UNL     1      -1.666   0.100  -1.109  1.00  0.00    -0.301 N 
HETATM   10  C9  UNL     1      -3.018  -0.301  -0.949  1.00  0.00     0.237 C 
HETATM   11  C10 UNL     1      -3.266  -1.641  -1.602  1.00  0.00     0.088 C 
HETATM   12  C11 UNL     1      -2.152  -2.598  -1.115  1.00  0.00     0.012 C 
HETATM   13  C12 UNL     1      -0.746  -2.068  -1.520  1.00  0.00     0.025 C 
HETATM   14  C13 UNL     1       0.471  -2.514  -0.611  1.00  0.00     0.024 C 
HETATM   15  C14 UNL     1       1.582  -2.602  -1.619  1.00  0.00     0.038 C 
HETATM   16  C15 UNL     1       1.777  -1.096  -1.895  1.00  0.00     0.225 C 
HETATM   17  N2  UNL     1       2.871  -0.678  -1.111  1.00  0.00     0.139 N 
HETATM   18  C16 UNL     1       3.018   0.668  -1.715  1.00  0.00     0.251 C 
HETATM   19  C17 UNL     1       1.684   1.031  -2.461  1.00  0.00     0.043 C 
HETATM   20  C18 UNL     1       2.484  -0.980   0.320  1.00  0.00     0.272 C 
HETATM   21  C19 UNL     1       1.084  -1.652   0.533  1.00  0.00    -0.013 C 
HETATM   22  C20 UNL     1       0.447  -1.471   1.709  1.00  0.00     0.003 C 
HETATM   23  O2  UNL     1      -3.858   0.307  -0.326  1.00  0.00    -0.272 OA
ENDROOT
BRANCH  22  24
HETATM   24  C21 UNL     1      -0.889  -2.094   2.016  1.00  0.00     0.208 C 
HETATM   25  O1  UNL     1      -1.068  -2.150   3.414  1.00  0.00    -0.215 OA
ENDBRANCH  22  24
BRANCH   1  26
HETATM   26  O4  UNL     1       1.258   3.436   2.195  1.00  0.00    -0.326 OA
HETATM   27  C23 UNL     1       2.619   3.057   2.334  1.00  0.00     0.181 C 
ENDBRANCH   1  26
BRANCH   2  28
HETATM   28  O3  UNL     1      -1.490   3.611   2.393  1.00  0.00    -0.326 OA
HETATM   29  C22 UNL     1      -2.908   3.703   2.410  1.00  0.00     0.181 C 
ENDBRANCH   2  28
TORSDOF 3
