REMARK  4 active torsions:
REMARK  status: ('A' for Active; 'I' for Inactive)
REMARK    1  A    between atoms: C1_1  and  O5_20 
REMARK    2  A    between atoms: C4_4  and  C7_8 
REMARK    3  A    between atoms: C7_8  and  C8_9 
REMARK    4  A    between atoms: C9_10  and  C10_11 
ROOT
HETATM    1  C7  UNL     1      -2.451  -0.129  -0.279  1.00  0.00     0.198 C 
HETATM    2  O3  UNL     1      -3.633  -0.164  -0.531  1.00  0.00    -0.286 OA
ENDROOT
BRANCH   1   3
HETATM    3  C4  UNL     1      -1.699  -1.373   0.062  1.00  0.00     0.067 A 
HETATM    4  C3  UNL     1      -0.621  -1.330   0.967  1.00  0.00     0.136 A 
HETATM    5  C2  UNL     1       0.074  -2.512   1.275  1.00  0.00     0.054 A 
HETATM    6  O4  UNL     1      -0.258  -0.193   1.525  1.00  0.00    -0.190 OA
HETATM    7  C1  UNL     1      -0.299  -3.734   0.689  1.00  0.00     0.121 A 
HETATM    8  C6  UNL     1      -1.377  -3.775  -0.215  1.00  0.00     0.153 A 
HETATM    9  C5  UNL     1      -2.074  -2.596  -0.525  1.00  0.00     0.035 A 
HETATM   10  O1  UNL     1      -1.734  -4.916  -0.770  1.00  0.00    -0.188 OA
BRANCH   7  11
HETATM   11  O5  UNL     1       0.361  -4.836   0.986  1.00  0.00    -0.326 OA
HETATM   12  C16 UNL     1       1.582  -4.709   1.701  1.00  0.00     0.181 C 
ENDBRANCH   7  11
ENDBRANCH   1   3
BRANCH   1  13
HETATM   13  C8  UNL     1      -1.725   1.149  -0.305  1.00  0.00     0.042 C 
HETATM   14  C9  UNL     1      -0.514   1.234  -0.877  1.00  0.00     0.003 C 
BRANCH  14  15
HETATM   15  C10 UNL     1       0.186   2.555  -0.877  1.00  0.00     0.000 A 
HETATM   16  C11 UNL     1      -0.560   3.746  -0.877  1.00  0.00     0.002 A 
HETATM   17  C12 UNL     1       0.100   4.988  -0.877  1.00  0.00     0.027 A 
HETATM   18  C13 UNL     1       1.504   5.043  -0.877  1.00  0.00     0.131 A 
HETATM   19  C14 UNL     1       2.246   3.850  -0.877  1.00  0.00     0.027 A 
HETATM   20  O2  UNL     1       2.121   6.207  -0.877  1.00  0.00    -0.190 OA
HETATM   21  C15 UNL     1       1.590   2.608  -0.877  1.00  0.00     0.002 A 
ENDBRANCH  14  15
ENDBRANCH   1  13
TORSDOF 4
