REMARK  3 active torsions:
REMARK  status: ('A' for Active; 'I' for Inactive)
REMARK    1  A    between atoms: C12_13  and  O4_20 
REMARK    2  A    between atoms: C14_15  and  O2_16 
REMARK    3  A    between atoms: O2_16  and  C15_17 
ROOT
HETATM    1  C1  UNL     1       5.129  -0.152   0.488  1.00  0.00     0.000 A 
HETATM    2  C2  UNL     1       5.188   1.252   0.359  1.00  0.00     0.000 A 
HETATM    3  C3  UNL     1       4.002   1.990   0.160  1.00  0.00     0.003 A 
HETATM    4  C4  UNL     1       2.742   1.336   0.086  1.00  0.00     0.042 A 
HETATM    5  C5  UNL     1       2.684  -0.082   0.217  1.00  0.00     0.042 A 
HETATM    6  C6  UNL     1       3.885  -0.815   0.418  1.00  0.00     0.003 A 
HETATM    7  C7  UNL     1       1.389  -0.828   0.146  1.00  0.00     0.198 A 
HETATM    8  C8  UNL     1       0.153  -0.006  -0.082  1.00  0.00     0.065 A 
HETATM    9  C9  UNL     1       0.215   1.414  -0.211  1.00  0.00     0.046 A 
HETATM   10  C10 UNL     1       1.512   2.160  -0.127  1.00  0.00     0.196 A 
HETATM   11  O1  UNL     1       1.561   3.365  -0.227  1.00  0.00    -0.287 OA
HETATM   12  C11 UNL     1      -0.980   2.150  -0.426  1.00  0.00     0.028 A 
HETATM   13  C12 UNL     1      -2.226   1.494  -0.514  1.00  0.00     0.096 A 
HETATM   14  C13 UNL     1      -2.291   0.090  -0.389  1.00  0.00     0.049 A 
HETATM   15  C14 UNL     1      -1.113  -0.658  -0.174  1.00  0.00     0.108 A 
HETATM   16  O5  UNL     1       1.348  -2.033   0.266  1.00  0.00    -0.286 OA
ENDROOT
BRANCH  15  17
HETATM   17  O2  UNL     1      -1.217  -1.990  -0.059  1.00  0.00    -0.276 OA
BRANCH  17  18
HETATM   18  C15 UNL     1      -2.240  -2.500   0.621  1.00  0.00     0.277 C 
HETATM   19  O3  UNL     1      -2.922  -1.865   1.391  1.00  0.00    -0.264 OA
HETATM   20  C16 UNL     1      -2.510  -3.961   0.371  1.00  0.00     0.107 C 
ENDBRANCH  17  18
ENDBRANCH  15  17
BRANCH  13  21
HETATM   21  O4  UNL     1      -3.346   2.201  -0.719  1.00  0.00    -0.328 OA
HETATM   22  C17 UNL     1      -4.580   1.498  -0.756  1.00  0.00     0.181 C 
ENDBRANCH  13  21
TORSDOF 3
