REMARK  19 active torsions:
REMARK  status: ('A' for Active; 'I' for Inactive)
REMARK    1  A    between atoms: C3_3  and  O3_28 
REMARK    2  A    between atoms: C5_5  and  C7_7 
REMARK    3  A    between atoms: C8_8  and  C9_9 
REMARK    4  A    between atoms: C9_9  and  O1_10 
REMARK    5  A    between atoms: O1_10  and  C10_11 
REMARK    6  A    between atoms: C10_11  and  C11_13 
REMARK    7  A    between atoms: C11_13  and  C12_14 
REMARK    8  A    between atoms: C12_14  and  C13_15 
REMARK    9  A    between atoms: C13_15  and  C14_16 
REMARK   10  A    between atoms: C14_16  and  C15_17 
REMARK   11  A    between atoms: C15_17  and  C16_18 
REMARK   12  A    between atoms: C16_18  and  C17_19 
REMARK   13  A    between atoms: C17_19  and  C18_20 
REMARK   14  A    between atoms: C18_20  and  C19_21 
REMARK   15  A    between atoms: C19_21  and  C20_22 
REMARK   16  A    between atoms: C20_22  and  C21_23 
REMARK   17  A    between atoms: C21_23  and  C22_24 
REMARK   18  A    between atoms: C22_24  and  C23_25 
REMARK   19  A    between atoms: C23_25  and  C24_26 
ROOT
HETATM    1  C10 UNL     1      -4.334   3.350  -2.158  1.00  0.00     0.272 C 
HETATM    2  O2  UNL     1      -4.832   4.428  -1.932  1.00  0.00    -0.264 OA
ENDROOT
BRANCH   1   3
HETATM    3  O1  UNL     1      -5.010   2.205  -2.145  1.00  0.00    -0.297 OA
BRANCH   3   4
HETATM    4  C9  UNL     1      -6.383   2.391  -1.834  1.00  0.00     0.178 C 
BRANCH   4   5
HETATM    5  C8  UNL     1      -7.082   1.059  -1.836  1.00  0.00     0.006 C 
HETATM    6  C7  UNL     1      -8.324   0.986  -1.328  1.00  0.00    -0.002 C 
BRANCH   6   7
HETATM    7  C5  UNL     1      -9.022  -0.334  -1.328  1.00  0.00     0.002 A 
HETATM    8  C4  UNL     1     -10.428  -0.389  -1.328  1.00  0.00     0.026 A 
HETATM    9  C3  UNL     1     -11.088  -1.629  -1.328  1.00  0.00     0.119 A 
HETATM   10  C2  UNL     1     -10.342  -2.822  -1.328  1.00  0.00     0.153 A 
HETATM   11  C1  UNL     1      -8.936  -2.768  -1.328  1.00  0.00     0.029 A 
HETATM   12  O4  UNL     1     -10.953  -3.990  -1.328  1.00  0.00    -0.188 OA
HETATM   13  C6  UNL     1      -8.276  -1.527  -1.328  1.00  0.00     0.002 A 
BRANCH   9  14
HETATM   14  O3  UNL     1     -12.406  -1.672  -1.328  1.00  0.00    -0.326 OA
HETATM   15  C26 UNL     1     -13.031  -2.945  -1.334  1.00  0.00     0.181 C 
ENDBRANCH   9  14
ENDBRANCH   6   7
ENDBRANCH   4   5
ENDBRANCH   3   4
ENDBRANCH   1   3
BRANCH   1  16
HETATM   16  C11 UNL     1      -2.869   3.227  -2.478  1.00  0.00     0.096 C 
BRANCH  16  17
HETATM   17  C12 UNL     1      -2.043   2.774  -1.273  1.00  0.00     0.010 C 
BRANCH  17  18
HETATM   18  C13 UNL     1      -0.627   2.344  -1.658  1.00  0.00     0.001 C 
BRANCH  18  19
HETATM   19  C14 UNL     1       0.221   1.957  -0.445  1.00  0.00     0.000 C 
BRANCH  19  20
HETATM   20  C15 UNL     1       1.647   1.555  -0.824  1.00  0.00     0.000 C 
BRANCH  20  21
HETATM   21  C16 UNL     1       2.494   1.170   0.389  1.00  0.00     0.000 C 
BRANCH  21  22
HETATM   22  C17 UNL     1       3.918   0.768   0.008  1.00  0.00     0.000 C 
BRANCH  22  23
HETATM   23  C18 UNL     1       4.766   0.383   1.221  1.00  0.00     0.000 C 
BRANCH  23  24
HETATM   24  C19 UNL     1       6.192  -0.019   0.840  1.00  0.00     0.000 C 
BRANCH  24  25
HETATM   25  C20 UNL     1       7.039  -0.404   2.053  1.00  0.00     0.000 C 
BRANCH  25  26
HETATM   26  C21 UNL     1       8.465  -0.807   1.672  1.00  0.00     0.000 C 
BRANCH  26  27
HETATM   27  C22 UNL     1       9.313  -1.193   2.885  1.00  0.00     0.000 C 
BRANCH  27  28
HETATM   28  C23 UNL     1      10.738  -1.596   2.506  1.00  0.00     0.000 C 
BRANCH  28  29
HETATM   29  C24 UNL     1      11.586  -1.978   3.719  1.00  0.00     0.000 C 
HETATM   30  C25 UNL     1      13.037  -2.293   3.348  1.00  0.00     0.000 C 
ENDBRANCH  28  29
ENDBRANCH  27  28
ENDBRANCH  26  27
ENDBRANCH  25  26
ENDBRANCH  24  25
ENDBRANCH  23  24
ENDBRANCH  22  23
ENDBRANCH  21  22
ENDBRANCH  20  21
ENDBRANCH  19  20
ENDBRANCH  18  19
ENDBRANCH  17  18
ENDBRANCH  16  17
ENDBRANCH   1  16
TORSDOF 19
