REMARK  5 active torsions:
REMARK  status: ('A' for Active; 'I' for Inactive)
REMARK    1  A    between atoms: C2_2  and  O3_14 
REMARK    2  A    between atoms: C3_3  and  O2_12 
REMARK    3  A    between atoms: C4_4  and  O1_10 
REMARK    4  A    between atoms: C6_6  and  C7_7 
REMARK    5  A    between atoms: C7_7  and  C8_8 
ROOT
HETATM    1  C1  UNL     1      -0.222   0.472   1.065  1.00  0.00     0.022 A 
HETATM    2  C2  UNL     1      -0.790   1.139  -0.035  1.00  0.00     0.118 A 
HETATM    3  C3  UNL     1      -0.753   0.546  -1.311  1.00  0.00     0.138 A 
HETATM    4  C4  UNL     1      -0.148  -0.714  -1.484  1.00  0.00     0.118 A 
HETATM    5  C5  UNL     1       0.418  -1.377  -0.381  1.00  0.00     0.022 A 
HETATM    6  C6  UNL     1       0.381  -0.785   0.893  1.00  0.00    -0.014 A 
ENDROOT
BRANCH   6   7
HETATM    7  C7  UNL     1       0.981  -1.489   2.058  1.00  0.00     0.052 C 
BRANCH   7   8
HETATM    8  C8  UNL     1       2.484  -1.406   2.058  1.00  0.00    -0.021 C 
HETATM    9  C9  UNL     1       3.059  -0.193   2.058  1.00  0.00    -0.005 C 
ENDBRANCH   7   8
ENDBRANCH   6   7
BRANCH   2  10
HETATM   10  O3  UNL     1      -1.354   2.319   0.132  1.00  0.00    -0.326 OA
HETATM   11  C12 UNL     1      -1.469   2.821   1.455  1.00  0.00     0.181 C 
ENDBRANCH   2  10
BRANCH   4  12
HETATM   12  O1  UNL     1      -0.111  -1.273  -2.677  1.00  0.00    -0.326 OA
HETATM   13  C10 UNL     1       0.510  -2.544  -2.798  1.00  0.00     0.181 C 
ENDBRANCH   4  12
BRANCH   3  14
HETATM   14  O2  UNL     1      -1.284   1.170  -2.344  1.00  0.00    -0.324 OA
HETATM   15  C11 UNL     1      -2.531   1.823  -2.159  1.00  0.00     0.182 C 
ENDBRANCH   3  14
TORSDOF 5
