REMARK  1 active torsions:
REMARK  status: ('A' for Active; 'I' for Inactive)
REMARK    1  A    between atoms: C14_15  and  O2_16 
ROOT
HETATM    1  C1  UNL     1       4.725   0.010   0.723  1.00  0.00     0.000 A 
HETATM    2  C2  UNL     1       4.666  -1.395   0.852  1.00  0.00     0.000 A 
HETATM    3  C3  UNL     1       3.422  -2.057   0.781  1.00  0.00     0.003 A 
HETATM    4  C4  UNL     1       2.221  -1.324   0.580  1.00  0.00     0.042 A 
HETATM    5  C5  UNL     1       2.279   0.092   0.449  1.00  0.00     0.042 A 
HETATM    6  C6  UNL     1       3.539   0.748   0.523  1.00  0.00     0.003 A 
HETATM    7  C7  UNL     1       1.049   0.918   0.236  1.00  0.00     0.198 A 
HETATM    8  C8  UNL     1      -0.252   0.172   0.152  1.00  0.00     0.064 A 
HETATM    9  C9  UNL     1      -0.305  -1.248   0.281  1.00  0.00     0.046 A 
HETATM   10  C10 UNL     1       0.926  -2.070   0.508  1.00  0.00     0.196 A 
HETATM   11  O1  UNL     1       0.877  -3.274   0.627  1.00  0.00    -0.287 OA
HETATM   12  C11 UNL     1      -1.559  -1.910   0.193  1.00  0.00     0.030 A 
HETATM   13  C12 UNL     1      -2.748  -1.184  -0.021  1.00  0.00     0.129 A 
HETATM   14  C13 UNL     1      -2.701   0.223  -0.150  1.00  0.00     0.026 A 
HETATM   15  C14 UNL     1      -1.461   0.898  -0.063  1.00  0.00     0.095 A 
HETATM   16  C16 UNL     1      -3.943   0.982  -0.375  1.00  0.00     0.035 C 
HETATM   17  O3  UNL     1      -3.916  -1.834  -0.104  1.00  0.00    -0.190 OA
HETATM   18  O4  UNL     1       1.109   2.123   0.139  1.00  0.00    -0.286 OA
ENDROOT
BRANCH  15  19
HETATM   19  O2  UNL     1      -1.443   2.234  -0.188  1.00  0.00    -0.328 OA
HETATM   20  C15 UNL     1      -1.375   2.781  -1.496  1.00  0.00     0.181 C 
ENDBRANCH  15  19
TORSDOF 1
