REMARK  6 active torsions:
REMARK  status: ('A' for Active; 'I' for Inactive)
REMARK    1  A    between atoms: C1_1  and  O4_34 
REMARK    2  A    between atoms: C16_16  and  C17_17 
REMARK    3  A    between atoms: C17_17  and  C18_18 
REMARK    4  A    between atoms: C18_18  and  C19_19 
REMARK    5  A    between atoms: C19_19  and  C20_20 
REMARK    6  A    between atoms: O4_34  and  C31_35 
ROOT
HETATM    1  C1  UNL     1       3.070  -0.199  -0.994  1.00  0.00     0.118 C 
HETATM    2  C2  UNL     1       2.264   1.106  -0.914  1.00  0.00     0.030 C 
HETATM    3  C3  UNL     1       1.883   1.607  -2.311  1.00  0.00     0.003 C 
HETATM    4  C4  UNL     1       1.145   0.506  -3.086  1.00  0.00     0.004 A 
HETATM    5  C5  UNL     1       1.943  -0.811  -3.176  1.00  0.00     0.007 C 
HETATM    6  C6  UNL     1       2.313  -1.318  -1.752  1.00  0.00     0.025 C 
HETATM    7  C7  UNL     1       3.219  -2.551  -1.873  1.00  0.00     0.002 C 
HETATM    8  C8  UNL     1       1.049  -1.727  -0.979  1.00  0.00     0.002 C 
HETATM    9  C9  UNL     1       1.205  -1.857  -4.041  1.00  0.00     0.025 C 
HETATM   10  C10 UNL     1      -0.264  -2.008  -3.733  1.00  0.00    -0.035 C 
HETATM   11  C11 UNL     1      -1.014  -0.982  -3.270  1.00  0.00    -0.049 C 
HETATM   12  C12 UNL     1      -2.500  -1.195  -2.979  1.00  0.00     0.022 C 
HETATM   13  C13 UNL     1      -3.238  -1.160  -4.318  1.00  0.00     0.004 C 
HETATM   14  C14 UNL     1      -2.834  -2.525  -2.256  1.00  0.00     0.068 C 
HETATM   15  C15 UNL     1      -2.730  -2.213  -0.795  1.00  0.00     0.150 C 
HETATM   16  C16 UNL     1      -2.666  -0.730  -0.594  1.00  0.00     0.058 C 
HETATM   17  C25 UNL     1      -3.109  -0.178  -1.969  1.00  0.00     0.010 C 
HETATM   18  C26 UNL     1      -4.645  -0.238  -2.035  1.00  0.00     0.001 C 
HETATM   19  C27 UNL     1      -2.648   1.254  -2.248  1.00  0.00     0.001 C 
HETATM   20  C28 UNL     1      -1.129   1.404  -2.164  1.00  0.00     0.004 C 
HETATM   21  C29 UNL     1      -0.385   0.408  -3.063  1.00  0.00     0.015 A 
HETATM   22  C30 UNL     1       0.328   0.992  -4.272  1.00  0.00     0.004 A 
HETATM   23  O3  UNL     1      -2.701  -3.039   0.090  1.00  0.00    -0.296 OA
ENDROOT
BRANCH   1  24
HETATM   24  O4  UNL     1       3.393  -0.613   0.322  1.00  0.00    -0.332 OA
BRANCH  24  25
HETATM   25  C31 UNL     1       4.287   0.262   0.978  1.00  0.00     0.270 C 
HETATM   26  C32 UNL     1       5.293  -0.539   1.848  1.00  0.00     0.241 C 
HETATM   27  O5  UNL     1       6.117  -1.330   1.008  1.00  0.00    -0.215 OA
HETATM   28  C33 UNL     1       6.180   0.408   2.689  1.00  0.00     0.220 C 
HETATM   29  O6  UNL     1       6.945  -0.346   3.617  1.00  0.00    -0.218 OA
HETATM   30  C34 UNL     1       5.291   1.420   3.445  1.00  0.00     0.215 C 
HETATM   31  O7  UNL     1       6.090   2.410   4.064  1.00  0.00    -0.218 OA
HETATM   32  C35 UNL     1       4.305   2.119   2.490  1.00  0.00     0.181 C 
HETATM   33  O8  UNL     1       3.535   1.147   1.799  1.00  0.00    -0.326 OA
ENDBRANCH  24  25
ENDBRANCH   1  24
BRANCH  16  34
HETATM   34  C17 UNL     1      -3.504  -0.232   0.580  1.00  0.00     0.014 C 
HETATM   35  C24 UNL     1      -4.637  -1.225   0.855  1.00  0.00     0.001 C 
BRANCH  34  36
HETATM   36  C18 UNL     1      -2.602  -0.016   1.797  1.00  0.00     0.068 C 
BRANCH  36  37
HETATM   37  C19 UNL     1      -3.340   0.592   2.959  1.00  0.00     0.180 C 
HETATM   38  O2  UNL     1      -4.492   0.941   2.850  1.00  0.00    -0.293 OA
BRANCH  37  39
HETATM   39  C20 UNL     1      -2.584   0.750   4.264  1.00  0.00     0.197 A 
HETATM   40  C21 UNL     1      -3.092   1.713   5.398  1.00  0.00     0.125 A 
HETATM   41  C22 UNL     1      -4.354   2.541   5.205  1.00  0.00     0.033 C 
HETATM   42  C23 UNL     1      -2.373   1.740   6.740  1.00  0.00     0.033 C 
HETATM   43  O1  UNL     1      -2.180   2.072   4.410  1.00  0.00    -0.349 OA
ENDBRANCH  37  39
ENDBRANCH  36  37
ENDBRANCH  34  36
ENDBRANCH  16  34
TORSDOF 6
