REMARK  8 active torsions:
REMARK  status: ('A' for Active; 'I' for Inactive)
REMARK    1  A    between atoms: C5_5  and  O2_7 
REMARK    2  A    between atoms: O2_7  and  C6_8 
REMARK    3  A    between atoms: C12_15  and  C28_41 
REMARK    4  A    between atoms: C13_16  and  O5_19 
REMARK    5  A    between atoms: O5_19  and  C15_20 
REMARK    6  A    between atoms: C16_22  and  C27_39 
REMARK    7  A    between atoms: C19_25  and  O7_26 
REMARK    8  A    between atoms: O7_26  and  C20_27 
ROOT
HETATM    1  C6  UNL     1       3.359  -0.287  -2.008  1.00  0.00     0.101 A 
HETATM    2  C7  UNL     1       3.147   1.012  -2.521  1.00  0.00     0.052 A 
HETATM    3  C8  UNL     1       1.830   1.490  -2.723  1.00  0.00     0.138 A 
HETATM    4  C9  UNL     1       0.723   0.664  -2.402  1.00  0.00     0.085 A 
HETATM    5  C10 UNL     1       0.938  -0.656  -1.918  1.00  0.00     0.101 A 
HETATM    6  C11 UNL     1       2.256  -1.119  -1.705  1.00  0.00     0.049 A 
HETATM    7  O3  UNL     1      -0.096  -1.486  -1.656  1.00  0.00    -0.326 OA
HETATM    8  C12 UNL     1      -1.383  -1.232  -2.227  1.00  0.00     0.178 C 
HETATM    9  C13 UNL     1      -1.775   0.256  -2.051  1.00  0.00     0.211 C 
HETATM   10  C14 UNL     1      -0.676   1.170  -2.557  1.00  0.00     0.207 C 
HETATM   11  O4  UNL     1      -1.014   2.227  -3.039  1.00  0.00    -0.288 OA
HETATM   12  O15 UNL     1       1.652   2.729  -3.203  1.00  0.00    -0.190 OA
ENDROOT
BRANCH   9  13
HETATM   13  O5  UNL     1      -2.010   0.557  -0.686  1.00  0.00    -0.321 OA
BRANCH  13  14
HETATM   14  C15 UNL     1      -2.764   1.738  -0.498  1.00  0.00     0.267 C 
HETATM   15  O6  UNL     1      -4.121   1.461  -0.818  1.00  0.00    -0.326 OA
HETATM   16  C16 UNL     1      -5.000   2.574  -0.725  1.00  0.00     0.184 C 
HETATM   17  C17 UNL     1      -5.022   3.086   0.732  1.00  0.00     0.215 C 
HETATM   18  C18 UNL     1      -3.598   3.416   1.234  1.00  0.00     0.217 C 
HETATM   19  O12 UNL     1      -5.834   4.246   0.793  1.00  0.00    -0.218 OA
HETATM   20  C19 UNL     1      -2.656   2.219   0.973  1.00  0.00     0.204 C 
HETATM   21  O11 UNL     1      -3.633   3.709   2.621  1.00  0.00    -0.218 OA
BRANCH  16  22
HETATM   22  C27 UNL     1      -6.371   2.096  -1.211  1.00  0.00     0.214 C 
HETATM   23  O13 UNL     1      -6.299   1.889  -2.604  1.00  0.00    -0.218 OA
ENDBRANCH  16  22
BRANCH  20  24
HETATM   24  O7  UNL     1      -1.318   2.606   1.244  1.00  0.00    -0.349 OA
BRANCH  24  25
HETATM   25  C20 UNL     1      -0.963   2.465   2.608  1.00  0.00     0.149 C 
HETATM   26  C21 UNL     1      -0.043   1.234   2.799  1.00  0.00     0.212 C 
HETATM   27  C22 UNL     1       0.475   1.139   4.254  1.00  0.00     0.215 C 
HETATM   28  O10 UNL     1      -0.764   0.055   2.473  1.00  0.00    -0.218 OA
HETATM   29  C23 UNL     1       1.135   2.463   4.719  1.00  0.00     0.185 C 
HETATM   30  O9  UNL     1       1.422   0.084   4.346  1.00  0.00    -0.218 OA
HETATM   31  C24 UNL     1       0.205   3.680   4.518  1.00  0.00     0.036 C 
HETATM   32  O8  UNL     1       1.469   2.369   6.094  1.00  0.00    -0.221 OA
HETATM   33  C25 UNL     1      -0.273   3.764   3.061  1.00  0.00     0.035 C 
HETATM   34  C26 UNL     1       0.883   4.996   4.932  1.00  0.00     0.003 C 
ENDBRANCH  24  25
ENDBRANCH  20  24
ENDBRANCH  13  14
ENDBRANCH   9  13
BRANCH   8  35
HETATM   35  C28 UNL     1      -2.371  -2.193  -1.670  1.00  0.00     0.008 A 
HETATM   36  C29 UNL     1      -1.932  -3.307  -0.936  1.00  0.00     0.000 A 
HETATM   37  C30 UNL     1      -2.867  -4.215  -0.410  1.00  0.00     0.027 A 
HETATM   38  C31 UNL     1      -4.244  -4.012  -0.615  1.00  0.00     0.131 A 
HETATM   39  C32 UNL     1      -4.680  -2.896  -1.352  1.00  0.00     0.027 A 
HETATM   40  O14 UNL     1      -5.121  -4.863  -0.121  1.00  0.00    -0.190 OA
HETATM   41  C33 UNL     1      -3.746  -1.986  -1.879  1.00  0.00     0.000 A 
ENDBRANCH   8  35
BRANCH   1  42
HETATM   42  O2  UNL     1       4.608  -0.734  -1.809  1.00  0.00    -0.303 OA
BRANCH  42  43
HETATM   43  C5  UNL     1       4.781  -2.100  -1.457  1.00  0.00     0.274 C 
HETATM   44  C4  UNL     1       6.276  -2.402  -1.227  1.00  0.00     0.241 C 
HETATM   45  C3  UNL     1       6.510  -3.908  -0.978  1.00  0.00     0.220 C 
HETATM   46  O16 UNL     1       6.721  -1.654  -0.109  1.00  0.00    -0.215 OA
HETATM   47  C2  UNL     1       5.824  -4.732  -2.092  1.00  0.00     0.212 C 
HETATM   48  O17 UNL     1       7.902  -4.182  -0.965  1.00  0.00    -0.218 OA
HETATM   49  C1  UNL     1       4.350  -4.311  -2.275  1.00  0.00     0.151 C 
HETATM   50  O18 UNL     1       5.867  -6.109  -1.762  1.00  0.00    -0.218 OA
HETATM   51  O1  UNL     1       4.283  -2.910  -2.514  1.00  0.00    -0.329 OA
HETATM   52  C34 UNL     1       3.676  -4.994  -3.471  1.00  0.00     0.035 C 
ENDBRANCH  42  43
ENDBRANCH   1  42
TORSDOF 8
