REMARK  8 active torsions:
REMARK  status: ('A' for Active; 'I' for Inactive)
REMARK    1  A    between atoms: C1_1  and  O11_37 
REMARK    2  A    between atoms: C12_13  and  O7_26 
REMARK    3  A    between atoms: C14_15  and  C18_22 
REMARK    4  A    between atoms: C18_22  and  O6_24 
REMARK    5  A    between atoms: O7_26  and  C20_27 
REMARK    6  A    between atoms: C20_27  and  C21_29 
REMARK    7  A    between atoms: O11_37  and  C27_38 
REMARK    8  A    between atoms: C31_42  and  C32_44 
ROOT
HETATM    1  C1  UNL     1       3.985  -0.139  -0.533  1.00  0.00     0.131 C 
HETATM    2  C2  UNL     1       4.047   1.303  -0.272  1.00  0.00     0.213 C 
HETATM    3  C3  UNL     1       2.988   2.174  -0.803  1.00  0.00     0.012 C 
HETATM    4  C4  UNL     1       1.912   1.646  -1.432  1.00  0.00    -0.039 C 
HETATM    5  C5  UNL     1       1.703   0.144  -1.607  1.00  0.00     0.038 C 
HETATM    6  C6  UNL     1       2.920  -0.664  -1.170  1.00  0.00     0.005 C 
HETATM    7  C7  UNL     1       0.416  -0.227  -0.795  1.00  0.00     0.045 C 
HETATM    8  C8  UNL     1      -0.816   0.668  -1.168  1.00  0.00     0.062 C 
HETATM    9  C9  UNL     1      -0.535   2.193  -1.320  1.00  0.00     0.131 C 
HETATM   10  C10 UNL     1       0.803   2.504  -1.998  1.00  0.00     0.052 C 
HETATM   11  O1  UNL     1      -0.613   2.881  -0.066  1.00  0.00    -0.302 OA
HETATM   12  C11 UNL     1      -1.785   2.770   0.582  1.00  0.00     0.300 C 
HETATM   13  C12 UNL     1      -2.726   1.643   0.215  1.00  0.00     0.213 C 
HETATM   14  C13 UNL     1      -1.855   0.410  -0.047  1.00  0.00     0.079 C 
HETATM   15  C14 UNL     1      -2.488  -0.887  -0.561  1.00  0.00     0.203 C 
HETATM   16  C15 UNL     1      -1.445  -2.002  -0.279  1.00  0.00     0.216 C 
HETATM   17  C16 UNL     1      -0.031  -1.725  -0.877  1.00  0.00     0.186 C 
HETATM   18  O2  UNL     1       0.891  -2.547  -0.184  1.00  0.00    -0.221 OA
HETATM   19  O3  UNL     1      -1.920  -3.250  -0.760  1.00  0.00    -0.218 OA
HETATM   20  O4  UNL     1      -2.615  -0.656  -1.947  1.00  0.00    -0.347 OA
HETATM   21  C17 UNL     1      -1.572   0.162  -2.424  1.00  0.00     0.145 C 
HETATM   22  O9  UNL     1      -2.100   3.531   1.465  1.00  0.00    -0.262 OA
HETATM   23  C25 UNL     1       1.545  -0.160  -3.104  1.00  0.00     0.009 C 
HETATM   24  C26 UNL     1       3.133   3.666  -0.623  1.00  0.00     0.034 C 
HETATM   25  O10 UNL     1       4.963   1.764   0.369  1.00  0.00    -0.285 OA
ENDROOT
BRANCH   1  26
HETATM   26  O11 UNL     1       4.983  -0.930  -0.148  1.00  0.00    -0.301 OA
BRANCH  26  27
HETATM   27  C27 UNL     1       4.963  -1.184   1.250  1.00  0.00     0.274 C 
HETATM   28  C28 UNL     1       6.221  -1.979   1.660  1.00  0.00     0.241 C 
HETATM   29  C29 UNL     1       6.160  -2.391   3.148  1.00  0.00     0.220 C 
HETATM   30  O16 UNL     1       7.362  -1.172   1.428  1.00  0.00    -0.215 OA
HETATM   31  C30 UNL     1       4.809  -3.074   3.445  1.00  0.00     0.215 C 
HETATM   32  O15 UNL     1       7.227  -3.277   3.443  1.00  0.00    -0.218 OA
HETATM   33  C31 UNL     1       3.621  -2.219   2.943  1.00  0.00     0.184 C 
HETATM   34  O14 UNL     1       4.668  -3.274   4.842  1.00  0.00    -0.218 OA
HETATM   35  O12 UNL     1       3.797  -1.932   1.562  1.00  0.00    -0.326 OA
BRANCH  33  36
HETATM   36  C32 UNL     1       2.272  -2.932   3.080  1.00  0.00     0.214 C 
HETATM   37  O13 UNL     1       1.250  -1.981   2.883  1.00  0.00    -0.218 OA
ENDBRANCH  33  36
ENDBRANCH  26  27
ENDBRANCH   1  26
BRANCH  13  38
HETATM   38  O7  UNL     1      -3.488   1.990  -0.934  1.00  0.00    -0.291 OA
BRANCH  38  39
HETATM   39  C20 UNL     1      -4.797   2.000  -0.690  1.00  0.00     0.296 C 
HETATM   40  O8  UNL     1      -5.275   2.014   0.420  1.00  0.00    -0.259 OA
BRANCH  39  41
HETATM   41  C21 UNL     1      -5.664   1.990  -1.873  1.00  0.00     0.060 C 
HETATM   42  C22 UNL     1      -6.631   2.912  -2.022  1.00  0.00    -0.038 C 
HETATM   43  C23 UNL     1      -7.588   2.988  -3.180  1.00  0.00     0.026 C 
HETATM   44  C24 UNL     1      -6.789   3.963  -0.955  1.00  0.00     0.026 C 
ENDBRANCH  39  41
ENDBRANCH  38  39
ENDBRANCH  13  38
BRANCH  15  45
HETATM   45  C18 UNL     1      -3.846  -1.176   0.035  1.00  0.00     0.299 C 
HETATM   46  O5  UNL     1      -4.822  -1.285  -0.670  1.00  0.00    -0.262 OA
BRANCH  45  47
HETATM   47  O6  UNL     1      -3.869  -1.297   1.359  1.00  0.00    -0.297 OA
HETATM   48  C19 UNL     1      -5.143  -1.703   1.842  1.00  0.00     0.185 C 
ENDBRANCH  45  47
ENDBRANCH  15  45
TORSDOF 8
