REMARK  3 active torsions:
REMARK  status: ('A' for Active; 'I' for Inactive)
REMARK    1  A    between atoms: C1_1  and  C17_23 
REMARK    2  A    between atoms: C3_3  and  O5_20 
REMARK    3  A    between atoms: C9_10  and  O4_18 
ROOT
HETATM    1  C1  UNL     1      -2.400  -1.227  -0.199  1.00  0.00     0.041 A 
HETATM    2  C2  UNL     1      -3.574  -0.463  -0.416  1.00  0.00     0.152 A 
HETATM    3  C3  UNL     1      -3.494   0.939  -0.539  1.00  0.00     0.119 A 
HETATM    4  C4  UNL     1      -2.244   1.584  -0.447  1.00  0.00     0.030 A 
HETATM    5  C5  UNL     1      -1.055   0.838  -0.234  1.00  0.00     0.044 A 
HETATM    6  C6  UNL     1       0.242   1.578  -0.150  1.00  0.00     0.196 A 
HETATM    7  O1  UNL     1       0.293   2.785  -0.250  1.00  0.00    -0.287 OA
HETATM    8  C7  UNL     1       1.473   0.758   0.065  1.00  0.00     0.046 A 
HETATM    9  C8  UNL     1       2.729   1.420   0.137  1.00  0.00     0.028 A 
HETATM   10  C9  UNL     1       3.918   0.691   0.334  1.00  0.00     0.096 A 
HETATM   11  C10 UNL     1       3.869  -0.711   0.465  1.00  0.00     0.052 A 
HETATM   12  C11 UNL     1       2.629  -1.387   0.397  1.00  0.00     0.136 A 
HETATM   13  C12 UNL     1       1.418  -0.660   0.193  1.00  0.00     0.068 A 
HETATM   14  C13 UNL     1       0.115  -1.406   0.123  1.00  0.00     0.198 A 
HETATM   15  O2  UNL     1       0.074  -2.609   0.246  1.00  0.00    -0.286 OA
HETATM   16  C14 UNL     1      -1.125  -0.584  -0.105  1.00  0.00     0.043 A 
HETATM   17  O3  UNL     1       2.627  -2.721   0.526  1.00  0.00    -0.190 OA
HETATM   18  O6  UNL     1      -4.768  -1.066  -0.504  1.00  0.00    -0.188 OA
ENDROOT
BRANCH   1  19
HETATM   19  C17 UNL     1      -2.545  -2.690  -0.078  1.00  0.00     0.211 C 
HETATM   20  O7  UNL     1      -2.348  -3.070   1.266  1.00  0.00    -0.215 OA
ENDBRANCH   1  19
BRANCH   3  21
HETATM   21  O5  UNL     1      -4.606   1.662  -0.742  1.00  0.00    -0.326 OA
HETATM   22  C16 UNL     1      -4.471   3.070  -0.861  1.00  0.00     0.181 C 
ENDBRANCH   3  21
BRANCH  10  23
HETATM   23  O4  UNL     1       5.096   1.328   0.399  1.00  0.00    -0.328 OA
HETATM   24  C15 UNL     1       6.260   0.555   0.645  1.00  0.00     0.181 C 
ENDBRANCH  10  23
TORSDOF 3
