REMARK  0 active torsions:
REMARK  status: ('A' for Active; 'I' for Inactive)
ROOT
HETATM    1  C1  UNL     1      -4.256  -1.623   0.240  1.00  0.00     0.096 A 
HETATM    2  C2  UNL     1      -5.086  -0.445   0.383  1.00  0.00     0.022 A 
HETATM    3  C3  UNL     1      -4.647   0.869   0.916  1.00  0.00     0.000 A 
HETATM    4  C4  UNL     1      -3.496   1.553   0.412  1.00  0.00    -0.017 A 
HETATM    5  C5  UNL     1      -2.602   0.943  -0.602  1.00  0.00     0.061 C 
HETATM    6  C6  UNL     1      -1.488   0.076   0.051  1.00  0.00     0.181 C 
HETATM    7  C7  UNL     1      -2.078  -0.846   1.148  1.00  0.00     0.181 C 
HETATM    8  O1  UNL     1      -2.961  -1.818   0.592  1.00  0.00    -0.328 OA
HETATM    9  O2  UNL     1      -0.606   0.947   0.771  1.00  0.00    -0.324 OA
HETATM   10  C8  UNL     1       0.566   1.328   0.074  1.00  0.00     0.297 C 
HETATM   11  O3  UNL     1       1.258   2.315   0.811  1.00  0.00    -0.187 OA
HETATM   12  C9  UNL     1       1.457   0.065  -0.211  1.00  0.00     0.181 C 
HETATM   13  O4  UNL     1       0.621  -1.061  -0.553  1.00  0.00    -0.324 OA
HETATM   14  C10 UNL     1      -0.693  -0.769  -1.014  1.00  0.00     0.297 C 
HETATM   15  O5  UNL     1      -0.654  -0.164  -2.295  1.00  0.00    -0.187 OA
HETATM   16  C11 UNL     1       2.414   0.354  -1.395  1.00  0.00     0.061 C 
HETATM   17  C12 UNL     1       3.350  -0.773  -1.635  1.00  0.00    -0.017 A 
HETATM   18  C13 UNL     1       4.602  -0.881  -0.953  1.00  0.00     0.000 A 
HETATM   19  C14 UNL     1       5.117   0.184  -0.057  1.00  0.00     0.022 A 
HETATM   20  C15 UNL     1       4.397   0.789   1.043  1.00  0.00     0.096 A 
HETATM   21  O6  UNL     1       3.164   0.510   1.533  1.00  0.00    -0.328 OA
HETATM   22  C16 UNL     1       2.244  -0.455   1.027  1.00  0.00     0.181 C 
HETATM   23  C17 UNL     1       5.016   1.807   1.783  1.00  0.00     0.052 A 
HETATM   24  C18 UNL     1       6.322   2.231   1.504  1.00  0.00     0.133 A 
HETATM   25  C19 UNL     1       7.029   1.635   0.457  1.00  0.00     0.028 A 
HETATM   26  C20 UNL     1       6.432   0.629  -0.315  1.00  0.00     0.004 A 
HETATM   27  O7  UNL     1       6.879   3.182   2.225  1.00  0.00    -0.190 OA
HETATM   28  C21 UNL     1       5.391  -2.029  -1.178  1.00  0.00     0.029 A 
HETATM   29  C22 UNL     1       4.986  -3.023  -2.082  1.00  0.00     0.156 A 
HETATM   30  C23 UNL     1       3.775  -2.887  -2.779  1.00  0.00     0.156 A 
HETATM   31  C24 UNL     1       2.963  -1.766  -2.553  1.00  0.00     0.025 A 
HETATM   32  O8  UNL     1       3.400  -3.807  -3.643  1.00  0.00    -0.188 OA
HETATM   33  O9  UNL     1       5.746  -4.082  -2.279  1.00  0.00    -0.188 OA
HETATM   34  C25 UNL     1      -3.174   2.834   0.891  1.00  0.00     0.025 A 
HETATM   35  C26 UNL     1      -3.955   3.442   1.883  1.00  0.00     0.156 A 
HETATM   36  C27 UNL     1      -5.067   2.766   2.410  1.00  0.00     0.156 A 
HETATM   37  C28 UNL     1      -5.404   1.490   1.930  1.00  0.00     0.029 A 
HETATM   38  O10 UNL     1      -5.797   3.328   3.352  1.00  0.00    -0.188 OA
HETATM   39  O11 UNL     1      -3.641   4.645   2.320  1.00  0.00    -0.188 OA
HETATM   40  C29 UNL     1      -6.440  -0.535  -0.012  1.00  0.00     0.004 A 
HETATM   41  C30 UNL     1      -6.971  -1.719  -0.543  1.00  0.00     0.028 A 
HETATM   42  C31 UNL     1      -6.158  -2.846  -0.697  1.00  0.00     0.133 A 
HETATM   43  C32 UNL     1      -4.813  -2.789  -0.307  1.00  0.00     0.052 A 
HETATM   44  O12 UNL     1      -6.654  -3.957  -1.205  1.00  0.00    -0.190 OA
ENDROOT
TORSDOF 0
