REMARK  3 active torsions:
REMARK  status: ('A' for Active; 'I' for Inactive)
REMARK    1  A    between atoms: C1_1  and  C2_2 
REMARK    2  A    between atoms: C1_1  and  O2_7 
REMARK    3  A    between atoms: O2_7  and  C6_8 
ROOT
HETATM    1  C6  UNL     1       0.215  -0.557  -0.746  1.00  0.00     0.124 C 
HETATM    2  C7  UNL     1       1.412  -0.557   0.223  1.00  0.00     0.026 C 
HETATM    3  C8  UNL     1       2.639  -1.051  -0.561  1.00  0.00     0.002 C 
HETATM    4  C9  UNL     1       2.338  -2.541  -0.730  1.00  0.00     0.000 C 
HETATM    5  C10 UNL     1       0.996  -2.678   0.004  1.00  0.00     0.003 C 
HETATM    6  C11 UNL     1      -0.100  -2.051  -0.871  1.00  0.00     0.030 C 
HETATM    7  C12 UNL     1       1.123  -1.715   1.189  1.00  0.00     0.002 C 
HETATM    8  C13 UNL     1      -0.168  -1.570   1.996  1.00  0.00     0.000 C 
HETATM    9  C14 UNL     1       2.281  -2.055   2.131  1.00  0.00     0.000 C 
HETATM   10  C15 UNL     1       1.666   0.803   0.873  1.00  0.00     0.002 C 
ENDROOT
BRANCH   1  11
HETATM   11  O2  UNL     1      -0.894   0.135  -0.189  1.00  0.00    -0.301 OA
BRANCH  11  12
HETATM   12  C1  UNL     1      -0.910   1.422  -0.527  1.00  0.00     0.295 C 
HETATM   13  O1  UNL     1      -0.059   1.951  -1.199  1.00  0.00    -0.259 OA
BRANCH  12  14
HETATM   14  C2  UNL     1      -2.051   2.197  -0.025  1.00  0.00     0.060 C 
HETATM   15  C3  UNL     1      -2.832   2.891  -0.871  1.00  0.00    -0.038 C 
HETATM   16  C4  UNL     1      -3.961   3.705  -0.303  1.00  0.00     0.026 C 
HETATM   17  C5  UNL     1      -2.535   2.816  -2.346  1.00  0.00     0.026 C 
ENDBRANCH  12  14
ENDBRANCH  11  12
ENDBRANCH   1  11
TORSDOF 3
