REMARK  8 active torsions:
REMARK  status: ('A' for Active; 'I' for Inactive)
REMARK    1  A    between atoms: C2_2  and  C3_3 
REMARK    2  A    between atoms: C3_3  and  C4_4 
REMARK    3  A    between atoms: C4_4  and  C5_5 
REMARK    4  A    between atoms: C5_5  and  C6_6 
REMARK    5  A    between atoms: C7_7  and  C8_8 
REMARK    6  A    between atoms: C9_9  and  C10_10 
REMARK       I    between atoms: C10_10  and  N1_11 
REMARK    7  A    between atoms: N1_11  and  C11_12 
REMARK    8  A    between atoms: C11_12  and  C12_13 
ROOT
HETATM    1  C8  UNL     1       0.541  -0.510   0.686  1.00  0.00     0.005 C 
HETATM    2  C9  UNL     1       1.225   0.644   0.676  1.00  0.00     0.062 C 
ENDROOT
BRANCH   1   3
HETATM    3  C7  UNL     1      -0.928  -0.510   0.686  1.00  0.00    -0.004 C 
HETATM    4  C6  UNL     1      -1.611  -1.666   0.693  1.00  0.00    -0.026 C 
BRANCH   4   5
HETATM    5  C5  UNL     1      -3.115  -1.610   0.693  1.00  0.00     0.026 C 
BRANCH   5   6
HETATM    6  C4  UNL     1      -3.730  -2.440  -0.434  1.00  0.00     0.005 C 
BRANCH   6   7
HETATM    7  C3  UNL     1      -5.258  -2.395  -0.434  1.00  0.00     0.000 C 
BRANCH   7   8
HETATM    8  C2  UNL     1      -5.873  -3.223  -1.562  1.00  0.00     0.000 C 
HETATM    9  C1  UNL     1      -7.400  -3.178  -1.564  1.00  0.00     0.000 C 
ENDBRANCH   7   8
ENDBRANCH   6   7
ENDBRANCH   5   6
ENDBRANCH   4   5
ENDBRANCH   1   3
BRANCH   2  10
HETATM   10  C10 UNL     1       2.693   0.640   0.676  1.00  0.00     0.275 C 
HETATM   11  N1  UNL     1       3.363   1.832   0.676  1.00  0.00    -0.234 NA
HETATM   12  O1  UNL     1       3.303  -0.402   0.676  1.00  0.00    -0.266 OA
BRANCH  11  13
HETATM   13  C11 UNL     1       4.834   1.832   0.676  1.00  0.00     0.129 C 
BRANCH  13  14
HETATM   14  C12 UNL     1       5.381   3.252   0.543  1.00  0.00     0.025 C 
HETATM   15  C13 UNL     1       6.887   3.330   0.797  1.00  0.00     0.002 C 
HETATM   16  C14 UNL     1       4.969   3.924  -0.768  1.00  0.00     0.002 C 
ENDBRANCH  13  14
ENDBRANCH  11  13
ENDBRANCH   2  10
TORSDOF 8
