REMARK  8 active torsions:
REMARK  status: ('A' for Active; 'I' for Inactive)
REMARK    1  A    between atoms: C2_3  and  C3_4 
REMARK    2  A    between atoms: C3_4  and  C4_5 
REMARK    3  A    between atoms: C4_5  and  C5_6 
REMARK    4  A    between atoms: C14_16  and  C15_18 
REMARK    5  A    between atoms: C17_20  and  C26_30 
REMARK    6  A    between atoms: C19_22  and  C21_24 
REMARK    7  A    between atoms: C21_24  and  C22_25 
REMARK    8  A    between atoms: C26_30  and  C27_31 
ROOT
HETATM    1  O1  UNL     1      -6.492   1.176  -1.338  1.00  0.00    -0.190 OA
HETATM    2  C1  UNL     1      -5.281   1.703  -1.570  1.00  0.00     0.129 A 
HETATM    3  C2  UNL     1      -4.121   1.105  -1.020  1.00  0.00     0.029 A 
HETATM    4  C8  UNL     1      -2.844   1.666  -1.273  1.00  0.00     0.095 A 
HETATM    5  C9  UNL     1      -2.740   2.853  -2.049  1.00  0.00     0.057 A 
HETATM    6  C10 UNL     1      -3.901   3.437  -2.615  1.00  0.00     0.007 A 
HETATM    7  C11 UNL     1      -5.168   2.861  -2.375  1.00  0.00     0.027 A 
HETATM    8  C12 UNL     1      -1.408   3.486  -2.256  1.00  0.00     0.178 C 
HETATM    9  C13 UNL     1      -0.256   2.865  -1.494  1.00  0.00     0.104 C 
HETATM   10  C14 UNL     1      -0.449   1.348  -1.316  1.00  0.00     0.151 C 
HETATM   11  O3  UNL     1      -1.742   1.066  -0.771  1.00  0.00    -0.329 OA
HETATM   12  O5  UNL     1      -1.162   4.439  -2.959  1.00  0.00    -0.291 OA
ENDROOT
BRANCH  10  13
HETATM   13  C15 UNL     1       0.588   0.744  -0.437  1.00  0.00     0.005 A 
HETATM   14  C16 UNL     1       1.564  -0.108  -0.982  1.00  0.00    -0.004 A 
HETATM   15  C17 UNL     1       2.545  -0.680  -0.152  1.00  0.00     0.007 A 
HETATM   16  C18 UNL     1       2.553  -0.401   1.229  1.00  0.00     0.124 A 
HETATM   17  C19 UNL     1       1.572   0.453   1.772  1.00  0.00     0.007 A 
HETATM   18  O4  UNL     1       3.473  -0.938   2.010  1.00  0.00    -0.191 OA
HETATM   19  C20 UNL     1       0.592   1.023   0.939  1.00  0.00    -0.004 A 
BRANCH  15  20
HETATM   20  C26 UNL     1       3.572  -1.578  -0.742  1.00  0.00     0.054 C 
BRANCH  20  21
HETATM   21  C27 UNL     1       3.342  -3.020  -0.377  1.00  0.00    -0.030 C 
HETATM   22  C28 UNL     1       4.055  -3.965  -1.010  1.00  0.00    -0.048 C 
HETATM   23  C29 UNL     1       3.816  -5.406  -0.652  1.00  0.00     0.026 C 
HETATM   24  C30 UNL     1       5.061  -3.531  -2.045  1.00  0.00     0.026 C 
ENDBRANCH  20  21
ENDBRANCH  15  20
BRANCH  17  25
HETATM   25  C21 UNL     1       1.566   0.756   3.229  1.00  0.00     0.054 C 
BRANCH  25  26
HETATM   26  C22 UNL     1       2.582   1.805   3.592  1.00  0.00    -0.030 C 
HETATM   27  C23 UNL     1       2.543   2.334   4.828  1.00  0.00    -0.048 C 
HETATM   28  C24 UNL     1       3.475   3.396   5.348  1.00  0.00     0.026 C 
HETATM   29  C25 UNL     1       1.496   1.840   5.787  1.00  0.00     0.026 C 
ENDBRANCH  25  26
ENDBRANCH  17  25
ENDBRANCH  10  13
BRANCH   3  30
HETATM   30  C3  UNL     1      -4.240  -0.104  -0.186  1.00  0.00     0.068 C 
BRANCH  30  31
HETATM   31  C4  UNL     1      -4.518  -1.346  -1.033  1.00  0.00     0.175 C 
HETATM   32  O2  UNL     1      -4.690  -2.444  -0.164  1.00  0.00    -0.219 OA
BRANCH  31  33
HETATM   33  C5  UNL     1      -3.402  -1.643  -2.000  1.00  0.00    -0.014 C 
HETATM   34  C6  UNL     1      -3.615  -1.768  -3.484  1.00  0.00     0.029 C 
HETATM   35  C7  UNL     1      -2.160  -1.803  -1.516  1.00  0.00    -0.007 C 
ENDBRANCH  31  33
ENDBRANCH  30  31
ENDBRANCH   3  30
TORSDOF 8
