REMARK  0 active torsions:
REMARK  status: ('A' for Active; 'I' for Inactive)
ROOT
HETATM    1  C1  UNL     1       0.086   0.291  -0.783  1.00  0.00     0.035 C 
HETATM    2  C2  UNL     1      -0.543  -1.021  -0.231  1.00  0.00     0.052 C 
HETATM    3  C3  UNL     1       0.338  -1.947   0.607  1.00  0.00    -0.029 C 
HETATM    4  C4  UNL     1       1.684  -2.000   0.560  1.00  0.00    -0.030 C 
HETATM    5  C5  UNL     1       2.510  -1.199  -0.406  1.00  0.00     0.028 C 
HETATM    6  C6  UNL     1       2.561   0.309  -0.108  1.00  0.00     0.035 C 
HETATM    7  C7  UNL     1       1.186   1.006   0.058  1.00  0.00     0.128 C 
HETATM    8  O1  UNL     1       0.824   1.002   1.428  1.00  0.00    -0.226 OA
HETATM    9  C8  UNL     1       1.314   2.484  -0.322  1.00  0.00     0.033 C 
HETATM   10  C9  UNL     1      -1.861  -0.588   0.473  1.00  0.00     0.131 C 
HETATM   11  C10 UNL     1      -2.238   0.797  -0.096  1.00  0.00     0.031 C 
HETATM   12  C11 UNL     1      -1.166   1.109  -1.135  1.00  0.00     0.005 C 
HETATM   13  C12 UNL     1      -3.000  -1.592   0.252  1.00  0.00     0.033 C 
HETATM   14  O2  UNL     1      -1.707  -0.467   1.879  1.00  0.00    -0.226 OA
ENDROOT
TORSDOF 0
