REMARK  2 active torsions:
REMARK  status: ('A' for Active; 'I' for Inactive)
REMARK    1  A    between atoms: C1_1  and  C2_3 
REMARK    2  A    between atoms: C1_1  and  C8_9 
ROOT
HETATM    1  C2  UNL     1       0.312  -0.799   0.289  1.00  0.00     0.035 A 
HETATM    2  C3  UNL     1      -1.094  -0.852   0.289  1.00  0.00     0.003 A 
HETATM    3  C4  UNL     1      -1.752  -2.094   0.289  1.00  0.00     0.000 A 
HETATM    4  C5  UNL     1      -1.006  -3.285   0.289  1.00  0.00     0.000 A 
HETATM    5  C6  UNL     1       0.400  -3.235   0.289  1.00  0.00     0.000 A 
HETATM    6  C7  UNL     1       1.059  -1.992   0.289  1.00  0.00     0.003 A 
ENDROOT
BRANCH   1   7
HETATM    7  C1  UNL     1       1.012   0.519   0.289  1.00  0.00     0.173 C 
HETATM    8  O1  UNL     1       2.203   0.592   0.476  1.00  0.00    -0.291 OA
BRANCH   7   9
HETATM    9  C8  UNL     1       0.189   1.758   0.046  1.00  0.00     0.062 C 
HETATM   10  C9  UNL     1      -0.447   1.771  -1.344  1.00  0.00     0.008 C 
HETATM   11  C10 UNL     1       0.963   3.041   0.355  1.00  0.00     0.008 C 
ENDBRANCH   7   9
ENDBRANCH   1   7
TORSDOF 2
