REMARK  1 active torsions:
REMARK  status: ('A' for Active; 'I' for Inactive)
REMARK    1  A    between atoms: C2_2  and  C27_29 
ROOT
HETATM    1  C1  UNL     1      -2.707  -0.902   1.144  1.00  0.00     0.010 C 
HETATM    2  C2  UNL     1      -4.178  -0.436   1.273  1.00  0.00     0.078 C 
HETATM    3  C3  UNL     1      -4.785  -0.105  -0.113  1.00  0.00     0.010 C 
HETATM    4  C4  UNL     1      -3.965  -0.693  -1.270  1.00  0.00     0.001 C 
HETATM    5  C5  UNL     1      -2.529  -0.113  -1.309  1.00  0.00     0.000 C 
HETATM    6  C6  UNL     1      -1.891  -0.068   0.125  1.00  0.00     0.001 C 
HETATM    7  C7  UNL     1      -0.356  -0.396   0.170  1.00  0.00     0.003 C 
HETATM    8  C8  UNL     1       0.365   0.180  -1.092  1.00  0.00     0.015 C 
HETATM    9  C9  UNL     1      -0.191  -0.557  -2.346  1.00  0.00     0.004 C 
HETATM   10  C10 UNL     1      -1.676  -0.971  -2.258  1.00  0.00     0.000 C 
HETATM   11  C11 UNL     1       1.895   0.109  -0.945  1.00  0.00    -0.042 A 
HETATM   12  C12 UNL     1       2.506   0.664   0.351  1.00  0.00     0.034 A 
HETATM   13  C13 UNL     1       1.777   0.008   1.543  1.00  0.00     0.008 C 
HETATM   14  C14 UNL     1       0.256   0.193   1.463  1.00  0.00     0.001 C 
HETATM   15  C15 UNL     1       4.018   0.453   0.455  1.00  0.00    -0.016 A 
HETATM   16  C16 UNL     1       4.777  -0.172  -0.652  1.00  0.00    -0.002 A 
HETATM   17  C17 UNL     1       4.135  -0.566  -1.764  1.00  0.00    -0.001 A 
HETATM   18  C18 UNL     1       2.684  -0.416  -1.910  1.00  0.00    -0.008 A 
HETATM   19  C19 UNL     1       6.238  -0.348  -0.520  1.00  0.00     0.030 A 
HETATM   20  C20 UNL     1       6.895   0.055   0.586  1.00  0.00     0.170 A 
HETATM   21  C21 UNL     1       6.141   0.682   1.691  1.00  0.00     0.221 A 
HETATM   22  C22 UNL     1       4.682   0.855   1.562  1.00  0.00     0.040 A 
HETATM   23  O1  UNL     1       6.711   1.051   2.691  1.00  0.00    -0.284 OA
HETATM   24  O2  UNL     1       8.211  -0.111   0.682  1.00  0.00    -0.187 OA
HETATM   25  C23 UNL     1       2.307   2.188   0.389  1.00  0.00     0.008 C 
HETATM   26  C24 UNL     1       0.062   1.678  -1.250  1.00  0.00     0.004 C 
HETATM   27  C25 UNL     1      -0.137  -1.922   0.213  1.00  0.00     0.000 C 
HETATM   28  C26 UNL     1      -2.647   1.307  -1.891  1.00  0.00     0.000 C 
HETATM   29  C28 UNL     1      -4.256   0.797   2.184  1.00  0.00     0.011 C 
ENDROOT
BRANCH   2  30
HETATM   30  C27 UNL     1      -4.975  -1.527   1.945  1.00  0.00     0.184 C 
HETATM   31  O3  UNL     1      -5.526  -1.334   3.004  1.00  0.00    -0.647 OA
HETATM   32  O4  UNL     1      -5.016  -2.684   1.289  1.00  0.00    -0.647 OA
ENDBRANCH   2  30
TORSDOF 1
