REMARK  5 active torsions:
REMARK  status: ('A' for Active; 'I' for Inactive)
REMARK    1  A    between atoms: C1_1  and  O1_16 
REMARK    2  A    between atoms: C9_9  and  C11_11 
REMARK    3  A    between atoms: O1_16  and  C16_17 
REMARK    4  A    between atoms: C16_17  and  C17_18 
REMARK    5  A    between atoms: C17_18  and  C18_19 
ROOT
HETATM    1  C1  UNL     1       1.149  -1.740   1.142  1.00  0.00     0.128 C 
HETATM    2  C2  UNL     1       1.242  -0.854   2.394  1.00  0.00     0.052 C 
HETATM    3  C3  UNL     1       0.264   0.302   2.365  1.00  0.00    -0.042 C 
HETATM    4  C4  UNL     1      -0.642   0.401   1.146  1.00  0.00     0.019 C 
HETATM    5  C5  UNL     1      -1.334  -0.966   0.887  1.00  0.00     0.006 C 
HETATM    6  C6  UNL     1      -0.303  -2.134   0.816  1.00  0.00     0.031 C 
HETATM    7  C7  UNL     1      -2.119  -0.882  -0.440  1.00  0.00     0.001 C 
HETATM    8  C8  UNL     1      -3.127   0.277  -0.466  1.00  0.00     0.004 C 
HETATM    9  C9  UNL     1      -2.452   1.625  -0.169  1.00  0.00     0.019 C 
HETATM   10  C10 UNL     1      -1.653   1.568   1.146  1.00  0.00     0.008 C 
HETATM   11  C14 UNL     1      -2.325  -1.254   2.029  1.00  0.00     0.000 C 
HETATM   12  C15 UNL     1       0.228   1.172   3.395  1.00  0.00    -0.009 C 
ENDROOT
BRANCH   1  13
HETATM   13  O1  UNL     1       1.709  -1.053   0.030  1.00  0.00    -0.304 OA
BRANCH  13  14
HETATM   14  C16 UNL     1       2.003  -1.872  -0.976  1.00  0.00     0.274 C 
HETATM   15  O3  UNL     1       1.888  -3.074  -0.921  1.00  0.00    -0.264 OA
BRANCH  14  16
HETATM   16  C17 UNL     1       2.501  -1.198  -2.226  1.00  0.00     0.126 C 
BRANCH  16  17
HETATM   17  C18 UNL     1       4.023  -1.047  -2.240  1.00  0.00     0.136 C 
HETATM   18  C19 UNL     1       4.539  -0.387  -3.519  1.00  0.00     0.034 C 
HETATM   19  C20 UNL     1       4.561  -0.380  -0.974  1.00  0.00     0.034 C 
HETATM   20  O2  UNL     1       4.439  -2.394  -2.240  1.00  0.00    -0.226 OA
ENDBRANCH  16  17
ENDBRANCH  14  16
ENDBRANCH  13  14
ENDBRANCH   1  13
BRANCH   9  21
HETATM   21  C11 UNL     1      -3.458   2.750  -0.153  1.00  0.00    -0.044 C 
HETATM   22  C12 UNL     1      -4.380   3.040  -1.307  1.00  0.00     0.026 C 
HETATM   23  C13 UNL     1      -3.533   3.527   0.939  1.00  0.00    -0.009 C 
ENDBRANCH   9  21
TORSDOF 5
