REMARK  1 active torsions:
REMARK  status: ('A' for Active; 'I' for Inactive)
REMARK    1  A    between atoms: C1_1  and  O2_17 
ROOT
HETATM    1  C1  UNL     1       2.566  -0.494   0.725  1.00  0.00     0.141 C 
HETATM    2  C2  UNL     1       2.277   1.029   0.842  1.00  0.00     0.056 C 
HETATM    3  C3  UNL     1       0.881   1.420   0.375  1.00  0.00    -0.045 C 
HETATM    4  C4  UNL     1      -0.186   1.195   1.178  1.00  0.00    -0.030 C 
HETATM    5  C5  UNL     1      -1.627   1.447   0.793  1.00  0.00     0.053 C 
HETATM    6  C6  UNL     1      -2.268   0.375  -0.103  1.00  0.00    -0.001 A 
HETATM    7  C7  UNL     1      -2.012  -1.000  -0.107  1.00  0.00     0.078 A 
HETATM    8  C8  UNL     1      -1.033  -1.869   0.678  1.00  0.00     0.073 C 
HETATM    9  C9  UNL     1       0.375  -1.557   0.227  1.00  0.00    -0.039 C 
HETATM   10  C10 UNL     1       1.332  -1.268   1.131  1.00  0.00    -0.005 C 
HETATM   11  C11 UNL     1       0.654  -1.512  -1.260  1.00  0.00     0.026 C 
HETATM   12  O1  UNL     1      -2.842  -1.547  -1.051  1.00  0.00    -0.310 OA
HETATM   13  C12 UNL     1      -3.555  -0.492  -1.590  1.00  0.00     0.118 A 
HETATM   14  C13 UNL     1      -3.227   0.752  -1.025  1.00  0.00     0.001 A 
HETATM   15  C14 UNL     1      -3.785   2.121  -1.348  1.00  0.00     0.033 C 
HETATM   16  C15 UNL     1       0.725   2.041  -0.990  1.00  0.00     0.026 C 
ENDROOT
BRANCH   1  17
HETATM   17  O2  UNL     1       3.656  -0.834   1.557  1.00  0.00    -0.349 OA
HETATM   18  C16 UNL     1       4.115  -2.152   1.361  1.00  0.00     0.175 C 
ENDBRANCH   1  17
TORSDOF 1
