REMARK  1 active torsions:
REMARK  status: ('A' for Active; 'I' for Inactive)
REMARK    1  A    between atoms: C3_3  and  C19_22 
ROOT
HETATM    1  C1  UNL     1      -3.242  -1.026  -0.764  1.00  0.00     0.005 C 
HETATM    2  C2  UNL     1      -3.541  -0.735   0.701  1.00  0.00     0.007 C 
HETATM    3  C3  UNL     1      -2.793   0.525   1.178  1.00  0.00     0.049 C 
HETATM    4  C4  UNL     1      -1.344   0.508   0.793  1.00  0.00    -0.024 A 
HETATM    5  C5  UNL     1      -0.832  -0.363  -0.227  1.00  0.00    -0.023 A 
HETATM    6  C6  UNL     1      -1.744  -1.285  -0.967  1.00  0.00     0.026 C 
HETATM    7  C7  UNL     1       0.570  -0.350  -0.533  1.00  0.00     0.040 A 
HETATM    8  C8  UNL     1       1.439   0.574   0.158  1.00  0.00     0.042 A 
HETATM    9  C9  UNL     1       0.910   1.432   1.144  1.00  0.00     0.003 A 
HETATM   10  C10 UNL     1      -0.459   1.396   1.457  1.00  0.00    -0.004 A 
HETATM   11  C11 UNL     1       2.918   0.650  -0.147  1.00  0.00     0.197 A 
HETATM   12  C12 UNL     1       3.432  -0.276  -1.184  1.00  0.00     0.063 A 
HETATM   13  C13 UNL     1       2.588  -1.143  -1.805  1.00  0.00     0.142 A 
HETATM   14  C14 UNL     1       1.145  -1.293  -1.570  1.00  0.00     0.218 A 
HETATM   15  O1  UNL     1       0.572  -2.143  -2.215  1.00  0.00    -0.284 OA
HETATM   16  O2  UNL     1       3.256  -1.924  -2.738  1.00  0.00    -0.302 OA
HETATM   17  C15 UNL     1       4.590  -1.485  -2.666  1.00  0.00     0.119 A 
HETATM   18  C16 UNL     1       4.678  -0.471  -1.703  1.00  0.00     0.008 A 
HETATM   19  C17 UNL     1       5.940   0.273  -1.315  1.00  0.00     0.033 C 
HETATM   20  O3  UNL     1       3.717   1.394   0.375  1.00  0.00    -0.286 OA
HETATM   21  C18 UNL     1      -3.443   1.767   0.553  1.00  0.00     0.007 C 
ENDROOT
BRANCH   3  22
HETATM   22  C19 UNL     1      -2.963   0.607   2.703  1.00  0.00     0.186 C 
HETATM   23  O4  UNL     1      -2.172  -0.401   3.289  1.00  0.00    -0.220 OA
ENDBRANCH   3  22
TORSDOF 1
