REMARK  14 active torsions:
REMARK  status: ('A' for Active; 'I' for Inactive)
REMARK    1  A    between atoms: C1_1  and  O19_59 
REMARK    2  A    between atoms: C3_3  and  O17_55 
REMARK    3  A    between atoms: C5_5  and  C35_50 
REMARK    4  A    between atoms: C6_6  and  O1_7 
REMARK    5  A    between atoms: O1_7  and  C7_8 
REMARK    6  A    between atoms: C9_11  and  O13_46 
REMARK    7  A    between atoms: C10_12  and  O10_38 
REMARK    8  A    between atoms: O10_38  and  C28_39 
REMARK    9  A    between atoms: C28_39  and  C29_40 
REMARK   10  A    between atoms: O13_46  and  C33_47 
REMARK   11  A    between atoms: C35_50  and  O15_51 
REMARK   12  A    between atoms: O15_51  and  C36_52 
REMARK   13  A    between atoms: O17_55  and  C38_56 
REMARK   14  A    between atoms: O19_59  and  C40_60 
ROOT
HETATM    1  C1  UNL     1       0.333   1.276  -2.990  1.00  0.00     0.157 C 
HETATM    2  C2  UNL     1       0.522  -0.246  -2.804  1.00  0.00     0.088 C 
HETATM    3  C3  UNL     1      -0.727  -0.755  -2.078  1.00  0.00     0.156 C 
HETATM    4  C4  UNL     1      -0.391  -0.291  -0.639  1.00  0.00     0.153 C 
HETATM    5  C5  UNL     1      -0.709   1.252  -0.598  1.00  0.00     0.111 C 
HETATM    6  C6  UNL     1       0.177   2.005  -1.636  1.00  0.00     0.159 C 
HETATM    7  C9  UNL     1      -0.434   1.797   0.828  1.00  0.00     0.161 C 
HETATM    8  C10 UNL     1      -1.139   1.008   1.946  1.00  0.00     0.183 C 
HETATM    9  C11 UNL     1      -0.765  -0.481   1.902  1.00  0.00     0.184 C 
HETATM   10  C12 UNL     1      -1.079  -1.101   0.509  1.00  0.00     0.179 C 
HETATM   11  C13 UNL     1      -2.591  -1.173   0.255  1.00  0.00     0.038 C 
HETATM   12  O3  UNL     1      -0.661  -2.456   0.509  1.00  0.00    -0.221 OA
HETATM   13  O4  UNL     1       0.636  -0.535   2.210  1.00  0.00    -0.297 OA
HETATM   14  C14 UNL     1       1.152  -1.608   2.833  1.00  0.00     0.300 C 
HETATM   15  C15 UNL     1       2.577  -1.502   3.342  1.00  0.00     0.204 C 
HETATM   16  C16 UNL     1       3.633  -1.654   2.221  1.00  0.00     0.045 C 
HETATM   17  C17 UNL     1       3.827  -3.096   1.700  1.00  0.00     0.030 C 
HETATM   18  C18 UNL     1       5.157  -3.266   1.014  1.00  0.00    -0.014 A 
HETATM   19  C19 UNL     1       5.419  -2.885  -0.334  1.00  0.00     0.078 A 
HETATM   20  C20 UNL     1       4.365  -2.326  -1.265  1.00  0.00     0.297 C 
HETATM   21  O5  UNL     1       3.066  -2.452  -0.956  1.00  0.00    -0.296 OA
HETATM   22  C21 UNL     1       2.087  -2.098  -1.940  1.00  0.00     0.179 C 
HETATM   23  C22 UNL     1       1.640  -0.626  -1.808  1.00  0.00     0.126 C 
HETATM   24  O6  UNL     1       1.026  -0.466  -0.543  1.00  0.00    -0.356 OA
HETATM   25  C23 UNL     1       2.836   0.321  -1.886  1.00  0.00     0.033 C 
HETATM   26  O7  UNL     1       4.728  -1.788  -2.289  1.00  0.00    -0.259 OA
HETATM   27  C24 UNL     1       6.736  -3.042  -0.830  1.00  0.00     0.104 A 
HETATM   28  N1  UNL     1       7.743  -3.567  -0.080  1.00  0.00    -0.242 NA
HETATM   29  C25 UNL     1       7.493  -3.959   1.197  1.00  0.00     0.099 A 
HETATM   30  C26 UNL     1       6.216  -3.820   1.766  1.00  0.00     0.017 A 
HETATM   31  C27 UNL     1       2.839  -2.456   4.515  1.00  0.00     0.043 C 
HETATM   32  O8  UNL     1       2.741  -0.209   3.894  1.00  0.00    -0.216 OA
HETATM   33  O9  UNL     1       0.538  -2.635   3.018  1.00  0.00    -0.262 OA
ENDROOT
BRANCH   8  34
HETATM   34  O10 UNL     1      -2.548   1.164   1.850  1.00  0.00    -0.294 OA
BRANCH  34  35
HETATM   35  C28 UNL     1      -3.028   2.003   2.763  1.00  0.00     0.319 C 
HETATM   36  O12 UNL     1      -2.470   3.020   3.103  1.00  0.00    -0.257 OA
BRANCH  35  37
HETATM   37  C29 UNL     1      -4.303   1.635   3.362  1.00  0.00     0.163 A 
HETATM   38  O11 UNL     1      -4.837   0.425   3.032  1.00  0.00    -0.300 OA
HETATM   39  C30 UNL     1      -6.002   0.390   3.744  1.00  0.00     0.123 A 
HETATM   40  C31 UNL     1      -6.196   1.550   4.505  1.00  0.00     0.029 A 
HETATM   41  C32 UNL     1      -5.089   2.363   4.257  1.00  0.00     0.032 A 
ENDBRANCH  35  37
ENDBRANCH  34  35
ENDBRANCH   8  34
BRANCH   7  42
HETATM   42  O13 UNL     1      -0.826   3.162   0.908  1.00  0.00    -0.301 OA
BRANCH  42  43
HETATM   43  C33 UNL     1      -0.237   3.799   1.916  1.00  0.00     0.272 C 
HETATM   44  O14 UNL     1       0.457   3.256   2.743  1.00  0.00    -0.264 OA
HETATM   45  C34 UNL     1      -0.491   5.282   1.970  1.00  0.00     0.106 C 
ENDBRANCH  42  43
ENDBRANCH   7  42
BRANCH   5  46
HETATM   46  C35 UNL     1      -2.196   1.477  -0.939  1.00  0.00     0.159 C 
BRANCH  46  47
HETATM   47  O15 UNL     1      -3.006   0.912   0.081  1.00  0.00    -0.301 OA
BRANCH  47  48
HETATM   48  C36 UNL     1      -4.298   1.175  -0.095  1.00  0.00     0.272 C 
HETATM   49  O16 UNL     1      -4.746   2.290  -0.226  1.00  0.00    -0.264 OA
HETATM   50  C37 UNL     1      -5.199  -0.031  -0.122  1.00  0.00     0.106 C 
ENDBRANCH  47  48
ENDBRANCH  46  47
ENDBRANCH   5  46
BRANCH   6  51
HETATM   51  O1  UNL     1      -0.329   3.316  -1.860  1.00  0.00    -0.301 OA
BRANCH  51  52
HETATM   52  C7  UNL     1       0.575   4.119  -2.413  1.00  0.00     0.272 C 
HETATM   53  O2  UNL     1       1.761   4.056  -2.187  1.00  0.00    -0.264 OA
HETATM   54  C8  UNL     1       0.022   5.144  -3.368  1.00  0.00     0.106 C 
ENDBRANCH  51  52
ENDBRANCH   6  51
BRANCH   3  55
HETATM   55  O17 UNL     1      -0.850  -2.165  -2.196  1.00  0.00    -0.302 OA
BRANCH  55  56
HETATM   56  C38 UNL     1      -2.058  -2.534  -2.614  1.00  0.00     0.272 C 
HETATM   57  O18 UNL     1      -2.757  -1.860  -3.333  1.00  0.00    -0.264 OA
HETATM   58  C39 UNL     1      -2.520  -3.881  -2.126  1.00  0.00     0.106 C 
ENDBRANCH  55  56
ENDBRANCH   3  55
BRANCH   1  59
HETATM   59  O19 UNL     1      -0.811   1.515  -3.801  1.00  0.00    -0.302 OA
BRANCH  59  60
HETATM   60  C40 UNL     1      -0.628   1.129  -5.061  1.00  0.00     0.272 C 
HETATM   61  O20 UNL     1       0.419   0.705  -5.490  1.00  0.00    -0.264 OA
HETATM   62  C41 UNL     1      -1.837   1.253  -5.950  1.00  0.00     0.106 C 
ENDBRANCH  59  60
ENDBRANCH   1  59
TORSDOF 14
