REMARK  5 active torsions:
REMARK  status: ('A' for Active; 'I' for Inactive)
REMARK    1  A    between atoms: C5_5  and  C9_9 
REMARK    2  A    between atoms: C10_10  and  C11_11 
REMARK    3  A    between atoms: C11_11  and  O1_13 
REMARK    4  A    between atoms: O1_13  and  C13_14 
REMARK    5  A    between atoms: C17_21  and  C18_23 
ROOT
HETATM    1  C11 UNL     1       1.893  -0.219   0.705  1.00  0.00     0.140 C 
HETATM    2  C12 UNL     1       3.195   0.297   1.322  1.00  0.00     0.037 C 
ENDROOT
BRANCH   1   3
HETATM    3  C10 UNL     1       0.709   0.635   1.072  1.00  0.00    -0.002 C 
HETATM    4  C9  UNL     1       0.111   1.352   0.105  1.00  0.00    -0.029 C 
BRANCH   4   5
HETATM    5  C5  UNL     1      -1.078   2.209   0.475  1.00  0.00     0.022 C 
HETATM    6  C4  UNL     1      -0.777   3.709   0.242  1.00  0.00     0.006 C 
HETATM    7  C3  UNL     1      -1.986   4.584   0.613  1.00  0.00     0.033 C 
HETATM    8  C19 UNL     1       0.465   4.166   1.016  1.00  0.00     0.000 C 
HETATM    9  C2  UNL     1      -3.256   4.133  -0.125  1.00  0.00     0.152 C 
HETATM   10  C1  UNL     1      -3.551   2.645   0.135  1.00  0.00     0.033 C 
HETATM   11  O7  UNL     1      -4.354   4.908   0.316  1.00  0.00    -0.224 OA
HETATM   12  C6  UNL     1      -2.365   1.744  -0.260  1.00  0.00     0.006 C 
HETATM   13  C7  UNL     1      -2.166   1.797  -1.781  1.00  0.00     0.000 C 
HETATM   14  C8  UNL     1      -2.695   0.297   0.129  1.00  0.00     0.000 C 
ENDBRANCH   4   5
ENDBRANCH   1   3
BRANCH   1  15
HETATM   15  O1  UNL     1       1.682  -1.537   1.158  1.00  0.00    -0.327 OA
BRANCH  15  16
HETATM   16  C13 UNL     1       0.664  -2.217   0.441  1.00  0.00     0.270 C 
HETATM   17  C14 UNL     1       0.334  -3.598   1.068  1.00  0.00     0.241 C 
HETATM   18  O2  UNL     1       0.012  -3.451   2.443  1.00  0.00    -0.215 OA
HETATM   19  C15 UNL     1       1.488  -4.606   0.879  1.00  0.00     0.220 C 
HETATM   20  O3  UNL     1       1.076  -5.897   1.299  1.00  0.00    -0.218 OA
HETATM   21  C16 UNL     1       1.887  -4.647  -0.613  1.00  0.00     0.215 C 
HETATM   22  O4  UNL     1       3.060  -5.424  -0.777  1.00  0.00    -0.218 OA
HETATM   23  C17 UNL     1       2.150  -3.229  -1.176  1.00  0.00     0.184 C 
HETATM   24  O5  UNL     1       1.023  -2.391  -0.928  1.00  0.00    -0.326 OA
BRANCH  23  25
HETATM   25  C18 UNL     1       2.373  -3.227  -2.693  1.00  0.00     0.214 C 
HETATM   26  O6  UNL     1       2.803  -1.938  -3.072  1.00  0.00    -0.218 OA
ENDBRANCH  23  25
ENDBRANCH  15  16
ENDBRANCH   1  15
TORSDOF 5
