REMARK  11 active torsions:
REMARK  status: ('A' for Active; 'I' for Inactive)
REMARK    1  A    between atoms: C2_2  and  O8_44 
REMARK    2  A    between atoms: C16_16  and  C25_25 
REMARK    3  A    between atoms: C25_25  and  O2_27 
REMARK    4  A    between atoms: O2_27  and  C26_28 
REMARK    5  A    between atoms: C30_35  and  C31_37 
REMARK    6  A    between atoms: O8_44  and  C37_45 
REMARK    7  A    between atoms: C41_49  and  C42_51 
REMARK    8  A    between atoms: C43_56  and  C47_64 
REMARK    9  A    between atoms: C44_57  and  O15_59 
REMARK   10  A    between atoms: O15_59  and  C45_60 
REMARK   11  A    between atoms: C45_60  and  C46_61 
ROOT
HETATM    1  C1  UNL     1       1.997  -1.608  -1.383  1.00  0.00     0.030 C 
HETATM    2  C2  UNL     1       2.886  -1.362  -0.157  1.00  0.00     0.118 C 
HETATM    3  C3  UNL     1       2.105  -0.780   1.047  1.00  0.00     0.025 C 
HETATM    4  C4  UNL     1       0.861  -1.671   1.341  1.00  0.00     0.002 C 
HETATM    5  C5  UNL     1      -0.078  -1.875   0.112  1.00  0.00     0.001 C 
HETATM    6  C6  UNL     1       0.783  -2.482  -1.029  1.00  0.00     0.003 C 
HETATM    7  C7  UNL     1      -1.251  -2.833   0.512  1.00  0.00     0.005 C 
HETATM    8  C8  UNL     1      -2.046  -2.468   1.808  1.00  0.00     0.004 C 
HETATM    9  C9  UNL     1      -1.053  -2.172   2.960  1.00  0.00     0.000 C 
HETATM   10  C10 UNL     1       0.106  -1.224   2.604  1.00  0.00     0.000 C 
HETATM   11  C11 UNL     1      -3.084  -1.304   1.592  1.00  0.00     0.015 C 
HETATM   12  C12 UNL     1      -3.865  -1.460   0.290  1.00  0.00    -0.049 C 
HETATM   13  C13 UNL     1      -3.434  -2.238  -0.726  1.00  0.00    -0.035 C 
HETATM   14  C14 UNL     1      -2.234  -3.148  -0.633  1.00  0.00     0.025 C 
HETATM   15  C15 UNL     1      -5.202  -0.737   0.130  1.00  0.00     0.027 C 
HETATM   16  C16 UNL     1      -5.434   0.414   1.148  1.00  0.00     0.082 C 
HETATM   17  C17 UNL     1      -5.136  -0.057   2.601  1.00  0.00     0.010 C 
HETATM   18  C18 UNL     1      -4.130  -1.224   2.732  1.00  0.00     0.004 C 
HETATM   19  C19 UNL     1      -6.874   0.969   1.032  1.00  0.00     0.010 C 
HETATM   20  C20 UNL     1      -7.963  -0.107   1.066  1.00  0.00     0.001 C 
HETATM   21  C21 UNL     1      -7.739  -1.187  -0.001  1.00  0.00     0.000 C 
HETATM   22  C22 UNL     1      -6.336  -1.789   0.180  1.00  0.00     0.004 C 
HETATM   23  C23 UNL     1      -7.867  -0.583  -1.403  1.00  0.00     0.000 C 
HETATM   24  C24 UNL     1      -8.796  -2.287   0.148  1.00  0.00     0.000 C 
HETATM   25  C32 UNL     1      -2.381   0.053   1.572  1.00  0.00     0.004 C 
HETATM   26  C33 UNL     1      -2.822  -3.737   2.219  1.00  0.00     0.000 C 
HETATM   27  C34 UNL     1      -0.634  -0.555  -0.429  1.00  0.00     0.000 C 
HETATM   28  C35 UNL     1       1.670   0.669   0.772  1.00  0.00     0.002 C 
HETATM   29  C36 UNL     1       3.032  -0.762   2.273  1.00  0.00     0.002 C 
ENDROOT
BRANCH   2  30
HETATM   30  O8  UNL     1       3.949  -0.503  -0.530  1.00  0.00    -0.332 OA
BRANCH  30  31
HETATM   31  C37 UNL     1       4.825  -1.078  -1.479  1.00  0.00     0.267 C 
HETATM   32  C38 UNL     1       5.984  -0.095  -1.784  1.00  0.00     0.204 C 
HETATM   33  C39 UNL     1       7.007  -0.034  -0.625  1.00  0.00     0.181 C 
HETATM   34  O14 UNL     1       6.642  -0.510  -2.979  1.00  0.00    -0.323 OA
HETATM   35  C40 UNL     1       7.409  -1.457  -0.170  1.00  0.00     0.219 C 
HETATM   36  O13 UNL     1       8.133   0.762  -1.003  1.00  0.00    -0.339 OA
HETATM   37  C41 UNL     1       6.158  -2.323   0.115  1.00  0.00     0.237 C 
HETATM   38  O12 UNL     1       8.193  -1.373   1.007  1.00  0.00    -0.217 OA
HETATM   39  O9  UNL     1       5.321  -2.344  -1.038  1.00  0.00    -0.318 OA
HETATM   40  C43 UNL     1       8.775   0.370  -2.211  1.00  0.00     0.259 C 
HETATM   41  C44 UNL     1       7.728   0.321  -3.355  1.00  0.00     0.275 C 
BRANCH  37  42
HETATM   42  C42 UNL     1       6.499  -3.754   0.453  1.00  0.00     0.217 C 
HETATM   43  O10 UNL     1       7.605  -4.195   0.245  1.00  0.00    -0.646 OA
HETATM   44  O11 UNL     1       5.506  -4.462   0.982  1.00  0.00    -0.646 OA
ENDBRANCH  37  42
BRANCH  40  45
HETATM   45  C47 UNL     1       9.888   1.353  -2.478  1.00  0.00     0.219 C 
HETATM   46  O18 UNL     1       9.879   2.048  -3.466  1.00  0.00    -0.645 OA
HETATM   47  O19 UNL     1      10.847   1.385  -1.558  1.00  0.00    -0.645 OA
ENDBRANCH  40  45
BRANCH  41  48
HETATM   48  O15 UNL     1       8.320  -0.195  -4.528  1.00  0.00    -0.317 OA
BRANCH  48  49
HETATM   49  C45 UNL     1       7.482  -0.106  -5.659  1.00  0.00     0.242 C 
BRANCH  49  50
HETATM   50  C46 UNL     1       8.228  -0.589  -6.874  1.00  0.00     0.217 C 
HETATM   51  O16 UNL     1       9.371  -0.976  -6.790  1.00  0.00    -0.646 OA
HETATM   52  O17 UNL     1       7.540  -0.552  -8.011  1.00  0.00    -0.646 OA
ENDBRANCH  49  50
ENDBRANCH  48  49
ENDBRANCH  41  48
ENDBRANCH  30  31
ENDBRANCH   2  30
BRANCH  16  53
HETATM   53  C25 UNL     1      -4.553   1.592   0.788  1.00  0.00     0.273 C 
HETATM   54  O1  UNL     1      -3.921   1.605  -0.241  1.00  0.00    -0.264 OA
BRANCH  53  55
HETATM   55  O2  UNL     1      -4.538   2.580   1.681  1.00  0.00    -0.273 OA
BRANCH  55  56
HETATM   56  C26 UNL     1      -3.751   3.683   1.252  1.00  0.00     0.276 C 
HETATM   57  C27 UNL     1      -3.520   4.657   2.427  1.00  0.00     0.241 C 
HETATM   58  O3  UNL     1      -2.752   3.993   3.416  1.00  0.00    -0.215 OA
HETATM   59  C28 UNL     1      -2.787   5.931   1.960  1.00  0.00     0.220 C 
HETATM   60  O4  UNL     1      -2.759   6.883   3.011  1.00  0.00    -0.218 OA
HETATM   61  C29 UNL     1      -3.509   6.528   0.730  1.00  0.00     0.215 C 
HETATM   62  O5  UNL     1      -2.731   7.578   0.180  1.00  0.00    -0.218 OA
HETATM   63  C30 UNL     1      -3.738   5.458  -0.360  1.00  0.00     0.184 C 
HETATM   64  O6  UNL     1      -4.436   4.352   0.200  1.00  0.00    -0.326 OA
BRANCH  63  65
HETATM   65  C31 UNL     1      -4.587   5.968  -1.529  1.00  0.00     0.214 C 
HETATM   66  O7  UNL     1      -4.687   4.936  -2.485  1.00  0.00    -0.218 OA
ENDBRANCH  63  65
ENDBRANCH  55  56
ENDBRANCH  53  55
ENDBRANCH  16  53
TORSDOF 11
