REMARK  1 active torsions:
REMARK  status: ('A' for Active; 'I' for Inactive)
REMARK    1  A    between atoms: C7_8  and  C10_12 
ROOT
HETATM    1  C1  UNL     1       0.248  -4.208  -0.068  1.00  0.00     0.158 A 
HETATM    2  C2  UNL     1       1.664  -4.229  -0.071  1.00  0.00     0.156 A 
HETATM    3  C3  UNL     1       2.390  -3.015  -0.068  1.00  0.00     0.034 A 
HETATM    4  C4  UNL     1       1.698  -1.778  -0.063  1.00  0.00     0.059 A 
HETATM    5  C5  UNL     1       0.277  -1.755  -0.099  1.00  0.00     0.099 A 
HETATM    6  C6  UNL     1      -0.442  -2.973  -0.082  1.00  0.00     0.054 A 
HETATM    7  O1  UNL     1      -0.403  -0.590  -0.149  1.00  0.00    -0.328 OA
HETATM    8  C7  UNL     1       0.252   0.613  -0.570  1.00  0.00     0.151 C 
HETATM    9  C8  UNL     1       1.618   0.758   0.130  1.00  0.00     0.104 C 
HETATM   10  C9  UNL     1       2.454  -0.496  -0.010  1.00  0.00     0.178 C 
HETATM   11  O2  UNL     1       3.655  -0.364  -0.063  1.00  0.00    -0.291 OA
HETATM   12  O5  UNL     1       2.320  -5.398  -0.071  1.00  0.00    -0.188 OA
HETATM   13  O6  UNL     1      -0.442  -5.357  -0.057  1.00  0.00    -0.188 OA
ENDROOT
BRANCH   8  14
HETATM   14  C10 UNL     1      -0.643   1.771  -0.312  1.00  0.00     0.008 A 
HETATM   15  C11 UNL     1      -0.928   2.685  -1.341  1.00  0.00     0.000 A 
HETATM   16  C12 UNL     1      -1.775   3.778  -1.093  1.00  0.00     0.029 A 
HETATM   17  C13 UNL     1      -2.338   3.963   0.182  1.00  0.00     0.156 A 
HETATM   18  C14 UNL     1      -2.053   3.048   1.213  1.00  0.00     0.156 A 
HETATM   19  O4  UNL     1      -3.131   4.992   0.407  1.00  0.00    -0.188 OA
HETATM   20  C15 UNL     1      -1.206   1.954   0.964  1.00  0.00     0.028 A 
HETATM   21  O3  UNL     1      -2.577   3.214   2.411  1.00  0.00    -0.188 OA
ENDBRANCH   8  14
TORSDOF 1
