REMARK  2 active torsions:
REMARK  status: ('A' for Active; 'I' for Inactive)
REMARK    1  A    between atoms: C6_8  and  C8_12 
REMARK    2  A    between atoms: C11_16  and  C12_17 
ROOT
HETATM    1  C1  UNL     1      -0.584  -0.821   0.586  1.00  0.00     0.162 C 
HETATM    2  N1  UNL     1      -1.830  -0.498  -0.146  1.00  0.00    -0.324 N 
HETATM    3  C2  UNL     1      -2.316   0.797  -0.336  1.00  0.00     0.037 A 
HETATM    4  C3  UNL     1      -1.590   2.031   0.184  1.00  0.00     0.049 C 
HETATM    5  C4  UNL     1      -0.533   1.674   1.252  1.00  0.00     0.065 C 
HETATM    6  C5  UNL     1       0.285   0.433   0.838  1.00  0.00     0.211 C 
HETATM    7  O1  UNL     1       1.065   0.715  -0.320  1.00  0.00    -0.328 OA
HETATM    8  C6  UNL     1       2.445   0.644  -0.027  1.00  0.00     0.210 C 
HETATM    9  C7  UNL     1       2.457  -0.248   1.209  1.00  0.00     0.301 C 
HETATM   10  O2  UNL     1       1.258   0.148   1.826  1.00  0.00    -0.305 OA
HETATM   11  O3  UNL     1       3.586  -0.006   2.020  1.00  0.00    -0.187 OA
HETATM   12  C9  UNL     1      -3.498   0.676  -1.047  1.00  0.00     0.014 A 
HETATM   13  C10 UNL     1      -3.730  -0.637  -1.293  1.00  0.00     0.022 A 
HETATM   14  C11 UNL     1      -2.711  -1.403  -0.746  1.00  0.00     0.103 A 
ENDROOT
BRANCH   8  15
HETATM   15  C8  UNL     1       3.190   0.072  -1.227  1.00  0.00     0.217 C 
HETATM   16  O4  UNL     1       4.571   0.117  -0.951  1.00  0.00    -0.218 OA
ENDBRANCH   8  15
BRANCH  14  17
HETATM   17  C12 UNL     1      -2.584  -2.875  -0.793  1.00  0.00     0.251 C 
HETATM   18  O5  UNL     1      -3.426  -3.537  -1.352  1.00  0.00    -0.281 OA
ENDBRANCH  14  17
TORSDOF 2
