REMARK  5 active torsions:
REMARK  status: ('A' for Active; 'I' for Inactive)
REMARK    1  A    between atoms: C5_5  and  C7_7 
REMARK    2  A    between atoms: C7_7  and  C8_8 
REMARK    3  A    between atoms: C8_8  and  C9_10 
REMARK    4  A    between atoms: C9_10  and  O3_12 
REMARK    5  A    between atoms: O3_12  and  C10_13 
ROOT
HETATM    1  C7  UNL     1       1.109   1.246  -1.862  1.00  0.00     0.070 C 
ENDROOT
BRANCH   1   2
HETATM    2  C5  UNL     1       0.414  -0.067  -1.862  1.00  0.00    -0.017 A 
HETATM    3  C4  UNL     1       1.160  -1.258  -1.862  1.00  0.00    -0.002 A 
HETATM    4  C3  UNL     1       0.500  -2.498  -1.862  1.00  0.00     0.029 A 
HETATM    5  C2  UNL     1      -0.905  -2.555  -1.862  1.00  0.00     0.156 A 
HETATM    6  C1  UNL     1      -1.653  -1.362  -1.862  1.00  0.00     0.156 A 
HETATM    7  O4  UNL     1      -1.518  -3.721  -1.862  1.00  0.00    -0.188 OA
HETATM    8  C6  UNL     1      -0.991  -0.121  -1.862  1.00  0.00     0.025 A 
HETATM    9  O5  UNL     1      -2.971  -1.403  -1.862  1.00  0.00    -0.188 OA
ENDBRANCH   1   2
BRANCH   1  10
HETATM   10  C8  UNL     1       1.668   1.588  -0.481  1.00  0.00     0.242 C 
HETATM   11  O1  UNL     1       2.347   2.820  -0.573  1.00  0.00    -0.212 OA
BRANCH  10  12
HETATM   12  C9  UNL     1       0.590   1.687   0.566  1.00  0.00     0.303 C 
HETATM   13  O2  UNL     1      -0.453   2.250   0.334  1.00  0.00    -0.261 OA
BRANCH  12  14
HETATM   14  O3  UNL     1       0.881   1.117   1.732  1.00  0.00    -0.302 OA
BRANCH  14  15
HETATM   15  C10 UNL     1      -0.221   1.131   2.629  1.00  0.00     0.124 C 
HETATM   16  C11 UNL     1      -1.285   0.148   2.142  1.00  0.00     0.033 C 
HETATM   17  C12 UNL     1       0.271   0.816   4.043  1.00  0.00     0.033 C 
ENDBRANCH  14  15
ENDBRANCH  12  14
ENDBRANCH  10  12
ENDBRANCH   1  10
TORSDOF 5
