REMARK  10 active torsions:
REMARK  status: ('A' for Active; 'I' for Inactive)
REMARK    1  A    between atoms: C1_1  and  C2_2 
REMARK    2  A    between atoms: C2_2  and  C3_3 
REMARK    3  A    between atoms: C3_3  and  C4_4 
REMARK    4  A    between atoms: C4_4  and  C5_5 
REMARK    5  A    between atoms: C4_4  and  N1_8 
REMARK       I    between atoms: N1_8  and  C6_9 
REMARK    6  A    between atoms: C6_9  and  C7_11 
REMARK    7  A    between atoms: C10_14  and  N2_17 
REMARK    8  A    between atoms: N2_17  and  C13_18 
REMARK    9  A    between atoms: C13_18  and  C14_19 
REMARK   10  A    between atoms: N3_20  and  C20_31 
ROOT
HETATM    1  C7  UNL     1       1.137   2.236  -0.934  1.00  0.00     0.058 A 
HETATM    2  C8  UNL     1       2.514   2.379  -0.685  1.00  0.00     0.006 A 
HETATM    3  C9  UNL     1       3.182   1.457   0.137  1.00  0.00     0.019 A 
HETATM    4  C10 UNL     1       2.473   0.387   0.717  1.00  0.00     0.076 A 
HETATM    5  C11 UNL     1       1.094   0.246   0.469  1.00  0.00     0.019 A 
HETATM    6  C12 UNL     1       0.428   1.170  -0.355  1.00  0.00     0.006 A 
ENDROOT
BRANCH   4   7
HETATM    7  N2  UNL     1       3.121  -0.514   1.520  1.00  0.00    -0.269 NA
BRANCH   7   8
HETATM    8  C13 UNL     1       2.629  -1.895   1.625  1.00  0.00     0.150 C 
BRANCH   8   9
HETATM    9  C14 UNL     1       2.231  -2.229   3.068  1.00  0.00     0.138 C 
HETATM   10  N3  UNL     1       0.850  -1.727   3.324  1.00  0.00    -0.283 N 
HETATM   11  C15 UNL     1      -0.238  -2.590   3.192  1.00  0.00     0.158 A 
HETATM   12  C16 UNL     1      -1.656  -2.102   3.293  1.00  0.00     0.314 A 
HETATM   13  C18 UNL     1      -0.051  -3.922   2.938  1.00  0.00     0.198 A 
HETATM   14  O4  UNL     1      -1.939  -0.963   3.592  1.00  0.00    -0.263 OA
HETATM   15  N4  UNL     1      -2.668  -2.996   3.020  1.00  0.00    -0.016 NA
HETATM   16  C17 UNL     1      -2.363  -4.311   2.703  1.00  0.00     0.773 A 
HETATM   17  N5  UNL     1      -3.369  -5.195   2.422  1.00  0.00     0.062 N 
HETATM   18  N6  UNL     1      -1.143  -4.734   2.676  1.00  0.00    -0.037 NA
HETATM   19  N7  UNL     1       1.193  -4.520   2.943  1.00  0.00    -0.249 NA
HETATM   20  C19 UNL     1       2.379  -3.736   3.354  1.00  0.00     0.152 C 
BRANCH  10  21
HETATM   21  C20 UNL     1       0.699  -0.400   3.645  1.00  0.00     0.318 C 
HETATM   22  O5  UNL     1       1.652   0.340   3.635  1.00  0.00    -0.262 OA
ENDBRANCH  10  21
ENDBRANCH   8   9
ENDBRANCH   7   8
ENDBRANCH   4   7
BRANCH   1  23
HETATM   23  C6  UNL     1       0.430   3.217  -1.809  1.00  0.00     0.275 C 
HETATM   24  N1  UNL     1      -0.715   2.824  -2.445  1.00  0.00    -0.225 NA
HETATM   25  O3  UNL     1       0.856   4.340  -1.957  1.00  0.00    -0.266 OA
BRANCH  24  26
HETATM   26  C4  UNL     1      -1.422   3.777  -3.311  1.00  0.00     0.194 C 
BRANCH  26  27
HETATM   27  C3  UNL     1      -2.307   3.047  -4.322  1.00  0.00     0.047 C 
BRANCH  27  28
HETATM   28  C2  UNL     1      -1.518   2.508  -5.516  1.00  0.00     0.100 C 
BRANCH  28  29
HETATM   29  C1  UNL     1      -0.582   1.393  -5.129  1.00  0.00     0.185 C 
HETATM   30  O6  UNL     1       0.607   1.584  -5.035  1.00  0.00    -0.647 OA
HETATM   31  O7  UNL     1      -1.166   0.219  -4.904  1.00  0.00    -0.647 OA
ENDBRANCH  28  29
ENDBRANCH  27  28
ENDBRANCH  26  27
BRANCH  26  32
HETATM   32  C5  UNL     1      -2.189   4.793  -2.506  1.00  0.00     0.209 C 
HETATM   33  O1  UNL     1      -2.752   4.481  -1.482  1.00  0.00    -0.646 OA
HETATM   34  O2  UNL     1      -2.191   6.026  -3.004  1.00  0.00    -0.646 OA
ENDBRANCH  26  32
ENDBRANCH  24  26
ENDBRANCH   1  23
TORSDOF 10
