REMARK  9 active torsions:
REMARK  status: ('A' for Active; 'I' for Inactive)
REMARK    1  A    between atoms: C1_1  and  O12_37 
REMARK    2  A    between atoms: C7_8  and  C20_29 
REMARK    3  A    between atoms: C8_9  and  O3_12 
REMARK    4  A    between atoms: O3_12  and  C10_13 
REMARK    5  A    between atoms: C11_14  and  O8_25 
REMARK    6  A    between atoms: C13_17  and  O6_21 
REMARK    7  A    between atoms: O6_21  and  C16_22 
REMARK    8  A    between atoms: O8_25  and  C18_26 
REMARK    9  A    between atoms: O12_37  and  C26_38 
ROOT
HETATM    1  C1  UNL     1      -3.725   0.150  -1.645  1.00  0.00     0.101 A 
HETATM    2  C2  UNL     1      -3.570  -1.154  -1.115  1.00  0.00     0.052 A 
HETATM    3  C3  UNL     1      -2.276  -1.693  -0.920  1.00  0.00     0.138 A 
HETATM    4  C4  UNL     1      -1.137  -0.920  -1.260  1.00  0.00     0.089 A 
HETATM    5  C5  UNL     1      -1.289   0.387  -1.789  1.00  0.00     0.107 A 
HETATM    6  C6  UNL     1      -2.586   0.918  -1.983  1.00  0.00     0.049 A 
HETATM    7  O1  UNL     1      -0.203   1.123  -2.109  1.00  0.00    -0.305 OA
HETATM    8  C7  UNL     1       1.064   0.689  -1.957  1.00  0.00     0.125 A 
HETATM    9  C8  UNL     1       1.344  -0.541  -1.461  1.00  0.00     0.158 A 
HETATM   10  C9  UNL     1       0.242  -1.451  -1.072  1.00  0.00     0.224 A 
HETATM   11  O2  UNL     1       0.551  -2.537  -0.639  1.00  0.00    -0.284 OA
HETATM   12  O11 UNL     1      -2.147  -2.930  -0.418  1.00  0.00    -0.190 OA
ENDROOT
BRANCH   9  13
HETATM   13  O3  UNL     1       2.603  -0.957  -1.315  1.00  0.00    -0.298 OA
BRANCH  13  14
HETATM   14  C10 UNL     1       3.205  -0.455  -0.131  1.00  0.00     0.272 C 
HETATM   15  C11 UNL     1       4.637  -1.012   0.000  1.00  0.00     0.213 C 
HETATM   16  C12 UNL     1       5.269  -0.584   1.334  1.00  0.00     0.215 C 
HETATM   17  O4  UNL     1       6.510  -1.242   1.508  1.00  0.00    -0.218 OA
HETATM   18  C13 UNL     1       4.326  -0.936   2.498  1.00  0.00     0.184 C 
HETATM   19  C14 UNL     1       2.910  -0.379   2.248  1.00  0.00     0.148 C 
HETATM   20  O5  UNL     1       2.428  -0.848   0.994  1.00  0.00    -0.329 OA
HETATM   21  C15 UNL     1       1.910  -0.824   3.318  1.00  0.00     0.035 C 
BRANCH  15  22
HETATM   22  O8  UNL     1       5.424  -0.527  -1.080  1.00  0.00    -0.296 OA
BRANCH  22  23
HETATM   23  C18 UNL     1       5.453  -1.375  -2.106  1.00  0.00     0.273 C 
HETATM   24  O9  UNL     1       4.633  -2.246  -2.281  1.00  0.00    -0.264 OA
HETATM   25  C19 UNL     1       6.598  -1.182  -3.065  1.00  0.00     0.106 C 
ENDBRANCH  22  23
ENDBRANCH  15  22
BRANCH  18  26
HETATM   26  O6  UNL     1       4.838  -0.387   3.707  1.00  0.00    -0.299 OA
BRANCH  26  27
HETATM   27  C16 UNL     1       4.498  -1.106   4.771  1.00  0.00     0.273 C 
HETATM   28  O7  UNL     1       4.059  -2.231   4.713  1.00  0.00    -0.264 OA
HETATM   29  C17 UNL     1       4.697  -0.420   6.098  1.00  0.00     0.106 C 
ENDBRANCH  26  27
ENDBRANCH  18  26
ENDBRANCH  13  14
ENDBRANCH   9  13
BRANCH   8  30
HETATM   30  C20 UNL     1       2.187   1.596  -2.344  1.00  0.00     0.025 A 
HETATM   31  C21 UNL     1       3.303   1.082  -3.027  1.00  0.00     0.004 A 
HETATM   32  C22 UNL     1       4.359   1.936  -3.393  1.00  0.00     0.028 A 
HETATM   33  C23 UNL     1       4.305   3.305  -3.076  1.00  0.00     0.131 A 
HETATM   34  C24 UNL     1       3.187   3.816  -2.393  1.00  0.00     0.028 A 
HETATM   35  O10 UNL     1       5.295   4.104  -3.418  1.00  0.00    -0.190 OA
HETATM   36  C25 UNL     1       2.129   2.965  -2.027  1.00  0.00     0.004 A 
ENDBRANCH   8  30
BRANCH   1  37
HETATM   37  O12 UNL     1      -4.953   0.656  -1.826  1.00  0.00    -0.303 OA
BRANCH  37  38
HETATM   38  C26 UNL     1      -6.028   0.080  -1.098  1.00  0.00     0.274 C 
HETATM   39  O13 UNL     1      -5.729   0.146   0.289  1.00  0.00    -0.329 OA
HETATM   40  C27 UNL     1      -6.701  -0.440   1.143  1.00  0.00     0.151 C 
HETATM   41  C28 UNL     1      -8.047   0.303   0.973  1.00  0.00     0.212 C 
HETATM   42  C31 UNL     1      -6.149  -0.357   2.568  1.00  0.00     0.035 C 
HETATM   43  C29 UNL     1      -8.492   0.332  -0.506  1.00  0.00     0.220 C 
HETATM   44  O16 UNL     1      -9.030  -0.352   1.758  1.00  0.00    -0.218 OA
HETATM   45  C30 UNL     1      -7.334   0.846  -1.389  1.00  0.00     0.241 C 
HETATM   46  O15 UNL     1      -9.623   1.176  -0.654  1.00  0.00    -0.218 OA
HETATM   47  O14 UNL     1      -7.660   0.680  -2.758  1.00  0.00    -0.215 OA
ENDBRANCH  37  38
ENDBRANCH   1  37
TORSDOF 9
