REMARK  7 active torsions:
REMARK  status: ('A' for Active; 'I' for Inactive)
REMARK    1  A    between atoms: C6_9  and  C27_37 
REMARK    2  A    between atoms: C8_12  and  C20_28 
REMARK    3  A    between atoms: C10_15  and  C17_24 
REMARK    4  A    between atoms: C12_18  and  C13_19 
REMARK    5  A    between atoms: C13_19  and  C15_21 
REMARK    6  A    between atoms: C20_28  and  C21_29 
REMARK    7  A    between atoms: C27_37  and  C28_38 
ROOT
HETATM    1  N1  UNL     1       1.596  -2.561  -0.463  1.00  0.00    -0.229 NA
HETATM    2  C1  UNL     1       0.463  -3.045   0.154  1.00  0.00     0.277 C 
HETATM    3  C2  UNL     1      -0.891  -2.844  -0.496  1.00  0.00     0.218 C 
HETATM    4  N2  UNL     1      -1.725  -1.869   0.238  1.00  0.00    -0.226 NA
HETATM    5  C3  UNL     1      -2.957  -1.482  -0.230  1.00  0.00     0.272 C 
HETATM    6  C4  UNL     1      -3.764  -0.463   0.553  1.00  0.00     0.165 C 
HETATM    7  N3  UNL     1      -4.359   0.613  -0.240  1.00  0.00    -0.312 N 
HETATM    8  C5  UNL     1      -3.686   1.484  -1.145  1.00  0.00     0.257 C 
HETATM    9  C6  UNL     1      -2.186   1.311  -1.363  1.00  0.00     0.189 C 
HETATM   10  N4  UNL     1      -1.387   1.520  -0.129  1.00  0.00    -0.228 NA
HETATM   11  C7  UNL     1      -0.109   1.021   0.004  1.00  0.00     0.275 C 
HETATM   12  C8  UNL     1       0.625   1.244   1.316  1.00  0.00     0.191 C 
HETATM   13  N5  UNL     1       1.887   0.469   1.439  1.00  0.00    -0.228 NA
HETATM   14  C9  UNL     1       2.998   0.732   0.668  1.00  0.00     0.274 C 
HETATM   15  C10 UNL     1       4.262  -0.082   0.861  1.00  0.00     0.186 C 
HETATM   16  N6  UNL     1       4.596  -0.857  -0.359  1.00  0.00    -0.229 NA
HETATM   17  C11 UNL     1       4.014  -2.055  -0.713  1.00  0.00     0.274 C 
HETATM   18  C12 UNL     1       2.945  -2.740   0.127  1.00  0.00     0.186 C 
HETATM   19  O1  UNL     1       4.373  -2.586  -1.740  1.00  0.00    -0.268 OA
HETATM   20  O2  UNL     1       2.969   1.613  -0.160  1.00  0.00    -0.268 OA
HETATM   21  O4  UNL     1       0.400   0.414  -0.912  1.00  0.00    -0.268 OA
HETATM   22  O5  UNL     1      -4.305   2.346  -1.727  1.00  0.00    -0.270 OA
HETATM   23  C34 UNL     1      -5.785   0.754   0.010  1.00  0.00     0.105 C 
HETATM   24  C35 UNL     1      -6.024  -0.014   1.307  1.00  0.00     0.027 C 
HETATM   25  C36 UNL     1      -4.967  -1.125   1.238  1.00  0.00     0.034 C 
HETATM   26  O6  UNL     1      -3.393  -1.949  -1.260  1.00  0.00    -0.269 OA
HETATM   27  O7  UNL     1       0.543  -3.631   1.209  1.00  0.00    -0.268 OA
ENDROOT
BRANCH  12  28
HETATM   28  C20 UNL     1       0.889   2.734   1.574  1.00  0.00     0.060 C 
BRANCH  28  29
HETATM   29  C21 UNL     1      -0.318   3.420   2.104  1.00  0.00    -0.020 A 
HETATM   30  C22 UNL     1      -0.949   4.418   1.342  1.00  0.00    -0.002 A 
HETATM   31  C23 UNL     1      -2.092   5.066   1.842  1.00  0.00     0.027 A 
HETATM   32  C24 UNL     1      -2.605   4.721   3.106  1.00  0.00     0.131 A 
HETATM   33  C25 UNL     1      -1.971   3.723   3.865  1.00  0.00     0.027 A 
HETATM   34  O3  UNL     1      -3.676   5.330   3.574  1.00  0.00    -0.190 OA
HETATM   35  C26 UNL     1      -0.830   3.072   3.365  1.00  0.00    -0.002 A 
ENDBRANCH  28  29
ENDBRANCH  12  28
BRANCH   9  36
HETATM   36  C27 UNL     1      -1.674   2.262  -2.451  1.00  0.00     0.060 C 
BRANCH  36  37
HETATM   37  C28 UNL     1      -2.275   1.951  -3.775  1.00  0.00    -0.020 A 
HETATM   38  C29 UNL     1      -3.188   2.846  -4.361  1.00  0.00    -0.004 A 
HETATM   39  C30 UNL     1      -3.758   2.553  -5.613  1.00  0.00    -0.000 A 
HETATM   40  C31 UNL     1      -3.414   1.363  -6.279  1.00  0.00    -0.000 A 
HETATM   41  C32 UNL     1      -2.502   0.469  -5.693  1.00  0.00    -0.000 A 
HETATM   42  C33 UNL     1      -1.934   0.762  -4.443  1.00  0.00    -0.004 A 
ENDBRANCH  36  37
ENDBRANCH   9  36
BRANCH  15  43
HETATM   43  C17 UNL     1       5.426   0.848   1.225  1.00  0.00     0.032 C 
HETATM   44  C18 UNL     1       5.096   1.775   2.395  1.00  0.00     0.003 C 
HETATM   45  C19 UNL     1       6.742   0.094   1.422  1.00  0.00     0.003 C 
ENDBRANCH  15  43
BRANCH  18  46
HETATM   46  C13 UNL     1       3.270  -4.232   0.266  1.00  0.00     0.032 C 
HETATM   47  C14 UNL     1       2.859  -4.801   1.625  1.00  0.00     0.003 C 
BRANCH  46  48
HETATM   48  C15 UNL     1       2.744  -5.063  -0.904  1.00  0.00     0.002 C 
HETATM   49  C16 UNL     1       3.365  -6.459  -0.963  1.00  0.00     0.000 C 
ENDBRANCH  46  48
ENDBRANCH  18  46
TORSDOF 7
