REMARK  0 active torsions:
REMARK  status: ('A' for Active; 'I' for Inactive)
ROOT
HETATM    1  C1  UNL     1       3.131  -0.764   0.168  1.00  0.00     0.035 C 
HETATM    2  C2  UNL     1       2.779   0.728   0.359  1.00  0.00     0.033 C 
HETATM    3  C3  UNL     1       1.617   1.215  -0.531  1.00  0.00     0.127 C 
HETATM    4  C4  UNL     1       0.338   0.308  -0.420  1.00  0.00     0.035 C 
HETATM    5  C5  UNL     1       0.574  -1.051   0.320  1.00  0.00     0.034 C 
HETATM    6  C6  UNL     1       1.910  -1.639  -0.203  1.00  0.00     0.152 C 
HETATM    7  O1  UNL     1       2.121  -2.951   0.281  1.00  0.00    -0.224 OA
HETATM    8  C7  UNL     1      -0.637  -1.994   0.045  1.00  0.00     0.037 C 
HETATM    9  C8  UNL     1      -1.920  -1.344   0.574  1.00  0.00     0.143 C 
HETATM   10  C9  UNL     1      -2.076   0.064   0.082  1.00  0.00    -0.016 C 
HETATM   11  C10 UNL     1      -0.924   1.035   0.111  1.00  0.00     0.027 C 
HETATM   12  C11 UNL     1      -3.315   0.230  -0.379  1.00  0.00     0.036 C 
HETATM   13  C12 UNL     1      -3.975  -1.067  -0.326  1.00  0.00     0.291 C 
HETATM   14  O2  UNL     1      -3.117  -2.000   0.119  1.00  0.00    -0.297 OA
HETATM   15  O3  UNL     1      -5.125  -1.248  -0.652  1.00  0.00    -0.260 OA
HETATM   16  C13 UNL     1      -3.918   1.517  -0.883  1.00  0.00     0.036 C 
HETATM   17  C14 UNL     1       0.680  -0.838   1.844  1.00  0.00     0.003 C 
HETATM   18  C15 UNL     1       1.338   2.701  -0.266  1.00  0.00     0.033 C 
HETATM   19  O4  UNL     1       2.092   1.176  -1.865  1.00  0.00    -0.226 OA
ENDROOT
TORSDOF 0
