REMARK  3 active torsions:
REMARK  status: ('A' for Active; 'I' for Inactive)
REMARK    1  A    between atoms: C7_8  and  C26_30 
REMARK    2  A    between atoms: C13_15  and  O4_28 
REMARK    3  A    between atoms: C16_19  and  C19_22 
ROOT
HETATM    1  C1  UNL     1      -4.926   1.992   0.465  1.00  0.00     0.196 A 
HETATM    2  C2  UNL     1      -3.746   2.789   0.857  1.00  0.00     0.040 A 
HETATM    3  C3  UNL     1      -2.504   2.369   0.543  1.00  0.00     0.101 A 
HETATM    4  C4  UNL     1      -2.320   1.090  -0.187  1.00  0.00     0.046 A 
HETATM    5  C5  UNL     1      -3.498   0.299  -0.615  1.00  0.00     0.105 A 
HETATM    6  C6  UNL     1      -4.730   0.740  -0.291  1.00  0.00     0.067 A 
HETATM    7  O1  UNL     1      -3.385  -0.852  -1.312  1.00  0.00    -0.307 OA
HETATM    8  C7  UNL     1      -2.137  -1.279  -1.609  1.00  0.00     0.100 A 
HETATM    9  C8  UNL     1      -1.006  -0.627  -1.242  1.00  0.00     0.025 A 
HETATM   10  C9  UNL     1      -1.080   0.633  -0.465  1.00  0.00     0.010 A 
HETATM   11  C10 UNL     1       0.100   1.436   0.027  1.00  0.00     0.045 A 
HETATM   12  C11 UNL     1      -0.164   2.682   0.670  1.00  0.00     0.104 A 
HETATM   13  O2  UNL     1      -1.430   3.098   0.891  1.00  0.00    -0.307 OA
HETATM   14  C12 UNL     1       0.897   3.510   1.098  1.00  0.00     0.049 A 
HETATM   15  C13 UNL     1       2.235   3.104   0.916  1.00  0.00     0.098 A 
HETATM   16  C14 UNL     1       2.510   1.850   0.324  1.00  0.00     0.044 A 
HETATM   17  C15 UNL     1       1.453   1.002  -0.115  1.00  0.00     0.099 A 
HETATM   18  O3  UNL     1       1.758  -0.195  -0.666  1.00  0.00    -0.324 OA
HETATM   19  C16 UNL     1       3.020  -0.842  -0.434  1.00  0.00     0.166 C 
HETATM   20  C17 UNL     1       4.162   0.135  -0.248  1.00  0.00     0.008 C 
HETATM   21  C18 UNL     1       3.912   1.399   0.143  1.00  0.00     0.002 C 
HETATM   22  C32 UNL     1      -3.939   4.080   1.615  1.00  0.00     0.036 C 
HETATM   23  O5  UNL     1      -6.043   2.358   0.756  1.00  0.00    -0.287 OA
ENDROOT
BRANCH   8  24
HETATM   24  C26 UNL     1      -1.988  -2.547  -2.391  1.00  0.00     0.023 A 
HETATM   25  C27 UNL     1      -0.859  -3.365  -2.195  1.00  0.00     0.002 A 
HETATM   26  C28 UNL     1      -0.721  -4.557  -2.930  1.00  0.00     0.000 A 
HETATM   27  C29 UNL     1      -1.709  -4.932  -3.857  1.00  0.00     0.000 A 
HETATM   28  C30 UNL     1      -2.836  -4.115  -4.051  1.00  0.00     0.000 A 
HETATM   29  C31 UNL     1      -2.974  -2.922  -3.318  1.00  0.00     0.002 A 
ENDBRANCH   8  24
BRANCH  15  30
HETATM   30  O4  UNL     1       3.231   3.908   1.318  1.00  0.00    -0.328 OA
HETATM   31  C25 UNL     1       2.891   5.203   1.791  1.00  0.00     0.181 C 
ENDBRANCH  15  30
BRANCH  19  32
HETATM   32  C19 UNL     1       2.889  -1.758   0.734  1.00  0.00     0.009 A 
HETATM   33  C20 UNL     1       2.547  -1.240   1.996  1.00  0.00    -0.002 A 
HETATM   34  C21 UNL     1       2.424  -2.103   3.100  1.00  0.00    -0.000 A 
HETATM   35  C22 UNL     1       2.643  -3.484   2.940  1.00  0.00    -0.000 A 
HETATM   36  C23 UNL     1       2.983  -4.000   1.678  1.00  0.00    -0.000 A 
HETATM   37  C24 UNL     1       3.108  -3.137   0.574  1.00  0.00    -0.002 A 
ENDBRANCH  19  32
TORSDOF 3
