REMARK  7 active torsions:
REMARK  status: ('A' for Active; 'I' for Inactive)
REMARK    1  A    between atoms: C1_1  and  O6_12 
REMARK    2  A    between atoms: C2_3  and  C6_10 
REMARK    3  A    between atoms: O6_12  and  C7_13 
REMARK    4  A    between atoms: C8_14  and  C13_23 
REMARK    5  A    between atoms: C9_16  and  C12_21 
REMARK    6  A    between atoms: C18_28  and  O11_29 
REMARK    7  A    between atoms: C22_34  and  C23_36 
ROOT
HETATM    1  C7  UNL     1      -1.594   0.852  -0.387  1.00  0.00     0.182 C 
HETATM    2  C8  UNL     1      -1.004   0.838   1.047  1.00  0.00     0.171 C 
HETATM    3  O7  UNL     1      -1.867   1.551   1.926  1.00  0.00    -0.347 OA
HETATM    4  C9  UNL     1      -2.059   2.924   1.605  1.00  0.00     0.181 C 
HETATM    5  C10 UNL     1      -2.715   3.037   0.211  1.00  0.00     0.214 C 
HETATM    6  C11 UNL     1      -1.887   2.295  -0.859  1.00  0.00     0.215 C 
HETATM    7  O8  UNL     1      -2.602   2.268  -2.086  1.00  0.00    -0.218 OA
HETATM    8  O9  UNL     1      -2.822   4.408  -0.129  1.00  0.00    -0.218 OA
ENDROOT
BRANCH   2   9
HETATM    9  C13 UNL     1      -0.834  -0.523   1.586  1.00  0.00     0.052 A 
HETATM   10  C14 UNL     1       0.467  -1.047   1.789  1.00  0.00     0.105 A 
HETATM   11  C15 UNL     1       0.623  -2.361   2.309  1.00  0.00     0.087 A 
HETATM   12  O13 UNL     1       1.553  -0.299   1.490  1.00  0.00    -0.307 OA
HETATM   13  C16 UNL     1      -0.516  -3.146   2.623  1.00  0.00     0.138 A 
HETATM   14  C20 UNL     1       2.004  -2.887   2.510  1.00  0.00     0.202 A 
HETATM   15  C17 UNL     1      -1.809  -2.615   2.418  1.00  0.00     0.052 A 
HETATM   16  O12 UNL     1      -0.385  -4.389   3.113  1.00  0.00    -0.190 OA
HETATM   17  C18 UNL     1      -1.971  -1.309   1.900  1.00  0.00     0.096 A 
HETATM   18  C21 UNL     1       3.094  -1.959   2.141  1.00  0.00     0.067 A 
HETATM   19  O15 UNL     1       2.324  -3.973   2.936  1.00  0.00    -0.286 OA
HETATM   20  C22 UNL     1       2.822  -0.725   1.656  1.00  0.00     0.103 A 
BRANCH  17  21
HETATM   21  O11 UNL     1      -3.205  -0.820   1.711  1.00  0.00    -0.328 OA
HETATM   22  C19 UNL     1      -4.307  -1.685   1.939  1.00  0.00     0.181 C 
ENDBRANCH  17  21
BRANCH  20  23
HETATM   23  C23 UNL     1       3.961   0.174   1.299  1.00  0.00     0.023 A 
HETATM   24  C24 UNL     1       3.791   1.570   1.324  1.00  0.00     0.004 A 
HETATM   25  C25 UNL     1       4.863   2.416   0.988  1.00  0.00     0.028 A 
HETATM   26  C26 UNL     1       6.107   1.871   0.627  1.00  0.00     0.131 A 
HETATM   27  C27 UNL     1       6.275   0.475   0.603  1.00  0.00     0.028 A 
HETATM   28  O14 UNL     1       7.111   2.664   0.312  1.00  0.00    -0.190 OA
HETATM   29  C28 UNL     1       5.205  -0.373   0.939  1.00  0.00     0.004 A 
ENDBRANCH  20  23
ENDBRANCH   2   9
BRANCH   1  30
HETATM   30  O6  UNL     1      -0.676   0.244  -1.285  1.00  0.00    -0.326 OA
BRANCH  30  31
HETATM   31  C1  UNL     1      -0.939  -1.127  -1.508  1.00  0.00     0.270 C 
HETATM   32  O1  UNL     1       0.236  -1.871  -1.838  1.00  0.00    -0.326 OA
HETATM   33  C2  UNL     1       0.836  -1.615  -3.109  1.00  0.00     0.184 C 
HETATM   34  C3  UNL     1      -0.178  -1.824  -4.264  1.00  0.00     0.215 C 
HETATM   35  C4  UNL     1      -1.525  -1.105  -4.031  1.00  0.00     0.220 C 
HETATM   36  O4  UNL     1      -0.414  -3.211  -4.428  1.00  0.00    -0.218 OA
HETATM   37  C5  UNL     1      -2.045  -1.291  -2.584  1.00  0.00     0.241 C 
HETATM   38  O3  UNL     1      -1.352   0.277  -4.276  1.00  0.00    -0.218 OA
HETATM   39  O2  UNL     1      -2.606  -2.586  -2.465  1.00  0.00    -0.215 OA
BRANCH  33  40
HETATM   40  C6  UNL     1       1.484  -0.225  -3.119  1.00  0.00     0.214 C 
HETATM   41  O5  UNL     1       2.318  -0.119  -1.988  1.00  0.00    -0.218 OA
ENDBRANCH  33  40
ENDBRANCH  30  31
ENDBRANCH   1  30
BRANCH   4  42
HETATM   42  C12 UNL     1      -2.924   3.524   2.719  1.00  0.00     0.214 C 
HETATM   43  O10 UNL     1      -2.168   3.535   3.908  1.00  0.00    -0.218 OA
ENDBRANCH   4  42
TORSDOF 7
