REMARK  16 active torsions:
REMARK  status: ('A' for Active; 'I' for Inactive)
REMARK    1  A    between atoms: C1_1  and  C34_46 
REMARK    2  A    between atoms: C16_17  and  O2_21 
REMARK    3  A    between atoms: O2_21  and  C20_22 
REMARK    4  A    between atoms: C23_25  and  O5_30 
REMARK    5  A    between atoms: C24_26  and  C25_28 
REMARK    6  A    between atoms: O5_30  and  C26_31 
REMARK    7  A    between atoms: C30_35  and  C31_37 
REMARK    8  A    between atoms: C34_46  and  C35_47 
REMARK    9  A    between atoms: C34_46  and  O13_54 
REMARK   10  A    between atoms: C35_47  and  C36_48 
REMARK   11  A    between atoms: C36_48  and  C37_49 
REMARK   12  A    between atoms: O13_54  and  C42_55 
REMARK   13  A    between atoms: C43_57  and  C47_64 
REMARK   14  A    between atoms: C47_64  and  O18_65 
REMARK   15  A    between atoms: O18_65  and  C48_66 
REMARK   16  A    between atoms: C51_69  and  C52_71 
ROOT
HETATM    1  C1  UNL     1      -1.701  -1.041   1.625  1.00  0.00     0.028 C 
HETATM    2  C2  UNL     1      -2.043  -1.672   0.279  1.00  0.00     0.002 C 
HETATM    3  C3  UNL     1      -0.756  -2.352  -0.166  1.00  0.00     0.000 C 
HETATM    4  C4  UNL     1       0.396  -1.680   0.609  1.00  0.00     0.003 C 
HETATM    5  C5  UNL     1      -0.297  -0.502   1.328  1.00  0.00     0.033 C 
HETATM    6  C6  UNL     1       0.547   0.111   2.463  1.00  0.00     0.152 C 
HETATM    7  O1  UNL     1      -0.264   0.895   3.316  1.00  0.00    -0.224 OA
HETATM    8  C7  UNL     1       1.346  -0.887   3.322  1.00  0.00     0.033 C 
HETATM    9  C8  UNL     1       2.131  -1.943   2.512  1.00  0.00     0.003 C 
HETATM   10  C9  UNL     1       1.176  -2.672   1.525  1.00  0.00     0.000 C 
HETATM   11  C10 UNL     1       1.947  -3.686   0.656  1.00  0.00     0.000 C 
HETATM   12  C11 UNL     1       3.211  -3.100   0.029  1.00  0.00     0.000 C 
HETATM   13  C12 UNL     1       4.193  -2.604   1.111  1.00  0.00     0.002 C 
HETATM   14  C13 UNL     1       3.539  -1.482   1.982  1.00  0.00     0.000 C 
HETATM   15  C14 UNL     1       3.512  -0.146   1.197  1.00  0.00     0.003 C 
HETATM   16  C15 UNL     1       4.861   0.234   0.572  1.00  0.00     0.030 C 
HETATM   17  C16 UNL     1       5.432  -0.896  -0.295  1.00  0.00     0.118 C 
HETATM   18  C17 UNL     1       5.578  -2.215   0.506  1.00  0.00     0.025 C 
HETATM   19  C18 UNL     1       6.098  -3.334  -0.408  1.00  0.00     0.002 C 
HETATM   20  C19 UNL     1       6.621  -2.061   1.623  1.00  0.00     0.002 C 
HETATM   21  C32 UNL     1       4.412  -1.242   3.227  1.00  0.00     0.000 C 
HETATM   22  C33 UNL     1       0.145  -3.467   2.352  1.00  0.00     0.000 C 
ENDROOT
BRANCH   1  23
HETATM   23  C34 UNL     1      -2.736   0.033   1.951  1.00  0.00     0.096 C 
HETATM   24  C41 UNL     1      -4.135  -0.496   1.633  1.00  0.00     0.030 C 
BRANCH  23  25
HETATM   25  C35 UNL     1      -2.400   1.313   1.186  1.00  0.00     0.032 C 
BRANCH  25  26
HETATM   26  C36 UNL     1      -3.535   2.338   1.223  1.00  0.00     0.028 C 
BRANCH  26  27
HETATM   27  C37 UNL     1      -3.397   3.389   0.154  1.00  0.00    -0.035 C 
HETATM   28  C38 UNL     1      -4.486   4.084  -0.207  1.00  0.00    -0.048 C 
HETATM   29  C39 UNL     1      -5.783   3.807   0.506  1.00  0.00     0.026 C 
HETATM   30  C40 UNL     1      -4.358   5.104  -1.305  1.00  0.00     0.026 C 
ENDBRANCH  26  27
ENDBRANCH  25  26
ENDBRANCH  23  25
BRANCH  23  31
HETATM   31  O13 UNL     1      -2.664   0.313   3.330  1.00  0.00    -0.334 OA
BRANCH  31  32
HETATM   32  C42 UNL     1      -3.863   0.844   3.856  1.00  0.00     0.270 C 
HETATM   33  O14 UNL     1      -4.711  -0.238   4.219  1.00  0.00    -0.326 OA
HETATM   34  C43 UNL     1      -5.979   0.135   4.750  1.00  0.00     0.180 C 
HETATM   35  C44 UNL     1      -5.803   0.984   6.037  1.00  0.00     0.215 C 
HETATM   36  C45 UNL     1      -4.869   2.189   5.801  1.00  0.00     0.220 C 
HETATM   37  O17 UNL     1      -5.264   0.188   7.080  1.00  0.00    -0.218 OA
HETATM   38  C46 UNL     1      -3.568   1.721   5.102  1.00  0.00     0.241 C 
HETATM   39  O16 UNL     1      -5.565   3.125   4.992  1.00  0.00    -0.218 OA
HETATM   40  O15 UNL     1      -2.762   2.834   4.752  1.00  0.00    -0.215 OA
BRANCH  34  41
HETATM   41  C47 UNL     1      -6.787  -1.148   4.971  1.00  0.00     0.177 C 
BRANCH  41  42
HETATM   42  O18 UNL     1      -7.149  -1.664   3.709  1.00  0.00    -0.326 OA
BRANCH  42  43
HETATM   43  C48 UNL     1      -8.330  -1.090   3.191  1.00  0.00     0.270 C 
HETATM   44  C49 UNL     1      -8.545  -1.375   1.695  1.00  0.00     0.241 C 
HETATM   45  C50 UNL     1     -10.049  -1.020   1.613  1.00  0.00     0.217 C 
HETATM   46  O22 UNL     1      -8.287  -2.738   1.375  1.00  0.00    -0.215 OA
HETATM   47  C51 UNL     1     -10.625  -1.268   3.025  1.00  0.00     0.184 C 
HETATM   48  O21 UNL     1     -10.746  -1.729   0.602  1.00  0.00    -0.218 OA
HETATM   49  O19 UNL     1      -9.492  -1.605   3.795  1.00  0.00    -0.326 OA
BRANCH  47  50
HETATM   50  C52 UNL     1     -11.654  -2.381   3.203  1.00  0.00     0.214 C 
HETATM   51  O20 UNL     1     -12.108  -2.352   4.537  1.00  0.00    -0.218 OA
ENDBRANCH  47  50
ENDBRANCH  42  43
ENDBRANCH  41  42
ENDBRANCH  34  41
ENDBRANCH  31  32
ENDBRANCH  23  31
ENDBRANCH   1  23
BRANCH  17  52
HETATM   52  O2  UNL     1       6.682  -0.484  -0.816  1.00  0.00    -0.332 OA
BRANCH  52  53
HETATM   53  C20 UNL     1       6.600  -0.006  -2.145  1.00  0.00     0.270 C 
HETATM   54  C21 UNL     1       8.031   0.174  -2.734  1.00  0.00     0.241 C 
HETATM   55  C22 UNL     1       8.090   1.318  -3.789  1.00  0.00     0.217 C 
HETATM   56  O12 UNL     1       8.432  -1.074  -3.279  1.00  0.00    -0.215 OA
HETATM   57  C23 UNL     1       6.727   1.508  -4.492  1.00  0.00     0.181 C 
HETATM   58  O11 UNL     1       9.152   1.188  -4.719  1.00  0.00    -0.218 OA
HETATM   59  C24 UNL     1       5.572   1.721  -3.465  1.00  0.00     0.181 C 
HETATM   60  O3  UNL     1       5.914   1.238  -2.166  1.00  0.00    -0.326 OA
BRANCH  57  61
HETATM   61  O5  UNL     1       6.432   0.367  -5.285  1.00  0.00    -0.326 OA
BRANCH  61  62
HETATM   62  C26 UNL     1       5.459   0.617  -6.281  1.00  0.00     0.270 C 
HETATM   63  C27 UNL     1       4.928  -0.729  -6.856  1.00  0.00     0.241 C 
HETATM   64  C28 UNL     1       4.440  -0.580  -8.328  1.00  0.00     0.220 C 
HETATM   65  O10 UNL     1       3.897  -1.189  -5.994  1.00  0.00    -0.215 OA
HETATM   66  C29 UNL     1       3.984   0.865  -8.633  1.00  0.00     0.215 C 
HETATM   67  O9  UNL     1       3.459  -1.535  -8.709  1.00  0.00    -0.218 OA
HETATM   68  C30 UNL     1       5.113   1.891  -8.295  1.00  0.00     0.184 C 
HETATM   69  O8  UNL     1       2.807   1.156  -7.895  1.00  0.00    -0.218 OA
HETATM   70  O6  UNL     1       6.035   1.389  -7.326  1.00  0.00    -0.326 OA
BRANCH  68  71
HETATM   71  C31 UNL     1       4.629   3.270  -7.824  1.00  0.00     0.214 C 
HETATM   72  O7  UNL     1       5.732   4.147  -7.820  1.00  0.00    -0.218 OA
ENDBRANCH  68  71
ENDBRANCH  61  62
ENDBRANCH  57  61
BRANCH  59  73
HETATM   73  C25 UNL     1       5.225   3.199  -3.285  1.00  0.00     0.214 C 
HETATM   74  O4  UNL     1       4.029   3.285  -2.545  1.00  0.00    -0.218 OA
ENDBRANCH  59  73
ENDBRANCH  52  53
ENDBRANCH  17  52
TORSDOF 16
