REMARK  0 active torsions:
REMARK  status: ('A' for Active; 'I' for Inactive)
ROOT
HETATM    1  C1  UNL     1      -3.467   0.488  -0.125  1.00  0.00     0.048 C 
HETATM    2  C2  UNL     1      -2.268  -0.184  -0.768  1.00  0.00    -0.036 C 
HETATM    3  C3  UNL     1      -0.904   0.379  -0.418  1.00  0.00     0.044 C 
HETATM    4  C4  UNL     1      -0.793   0.541   1.121  1.00  0.00     0.031 C 
HETATM    5  C5  UNL     1      -1.871   1.522   1.537  1.00  0.00    -0.030 C 
HETATM    6  C6  UNL     1      -3.096   1.486   0.965  1.00  0.00    -0.026 C 
HETATM    7  C7  UNL     1       0.635   1.023   1.502  1.00  0.00     0.069 C 
HETATM    8  C8  UNL     1       1.678   0.018   0.976  1.00  0.00     0.242 C 
HETATM    9  C9  UNL     1       1.469  -0.350  -0.467  1.00  0.00     0.015 C 
HETATM   10  C10 UNL     1       0.277  -0.295  -1.094  1.00  0.00    -0.025 C 
HETATM   11  C11 UNL     1       2.787  -0.697  -1.082  1.00  0.00     0.109 C 
HETATM   12  C12 UNL     1       3.664   0.025  -0.092  1.00  0.00     0.277 C 
HETATM   13  O1  UNL     1       3.012   0.527   0.972  1.00  0.00    -0.274 OA
HETATM   14  O2  UNL     1       4.856   0.139  -0.268  1.00  0.00    -0.264 OA
HETATM   15  C13 UNL     1       2.961  -0.182  -2.508  1.00  0.00     0.015 C 
HETATM   16  O3  UNL     1       1.670  -1.158   1.771  1.00  0.00    -0.191 OA
HETATM   17  C14 UNL     1      -1.135  -0.771   1.849  1.00  0.00     0.005 C 
HETATM   18  C15 UNL     1      -2.436  -1.236  -1.596  1.00  0.00    -0.009 C 
ENDROOT
TORSDOF 0
