REMARK  7 active torsions:
REMARK  status: ('A' for Active; 'I' for Inactive)
REMARK    1  A    between atoms: C2_2  and  O4_23 
REMARK    2  A    between atoms: C4_4  and  C7_7 
REMARK    3  A    between atoms: C8_8  and  C9_9 
REMARK    4  A    between atoms: C9_9  and  C10_10 
REMARK    5  A    between atoms: C10_10  and  C11_11 
REMARK    6  A    between atoms: C11_11  and  C12_12 
REMARK    7  A    between atoms: C13_13  and  C14_14 
ROOT
HETATM    1  C9  UNL     1       1.848   2.719  -1.953  1.00  0.00     0.181 C 
HETATM    2  O3  UNL     1       2.834   3.332  -2.284  1.00  0.00    -0.291 OA
ENDROOT
BRANCH   1   3
HETATM    3  C8  UNL     1       0.971   3.236  -0.895  1.00  0.00     0.038 C 
HETATM    4  C7  UNL     1       0.283   2.396  -0.104  1.00  0.00     0.003 C 
BRANCH   4   5
HETATM    5  C4  UNL     1      -0.596   2.971   0.959  1.00  0.00     0.002 A 
HETATM    6  C3  UNL     1      -1.328   2.119   1.802  1.00  0.00     0.026 A 
HETATM    7  C2  UNL     1      -2.158   2.654   2.804  1.00  0.00     0.119 A 
HETATM    8  C1  UNL     1      -2.256   4.051   2.961  1.00  0.00     0.153 A 
HETATM    9  C6  UNL     1      -1.524   4.902   2.115  1.00  0.00     0.029 A 
HETATM   10  O5  UNL     1      -3.031   4.562   3.896  1.00  0.00    -0.188 OA
HETATM   11  C5  UNL     1      -0.695   4.365   1.115  1.00  0.00     0.002 A 
BRANCH   7  12
HETATM   12  O4  UNL     1      -2.842   1.850   3.594  1.00  0.00    -0.326 OA
HETATM   13  C20 UNL     1      -2.734   0.451   3.371  1.00  0.00     0.181 C 
ENDBRANCH   7  12
ENDBRANCH   4   5
ENDBRANCH   1   3
BRANCH   1  14
HETATM   14  C10 UNL     1       1.490   1.414  -2.612  1.00  0.00     0.138 C 
BRANCH  14  15
HETATM   15  C11 UNL     1       2.203   0.271  -1.940  1.00  0.00     0.181 C 
HETATM   16  O2  UNL     1       3.287   0.430  -1.430  1.00  0.00    -0.291 OA
BRANCH  15  17
HETATM   17  C12 UNL     1       1.555  -1.045  -1.916  1.00  0.00     0.038 C 
HETATM   18  C13 UNL     1       2.158  -2.096  -1.334  1.00  0.00     0.003 C 
BRANCH  18  19
HETATM   19  C14 UNL     1       1.459  -3.414  -1.334  1.00  0.00     0.000 A 
HETATM   20  C15 UNL     1       0.055  -3.467  -1.334  1.00  0.00     0.002 A 
HETATM   21  C16 UNL     1      -0.602  -4.709  -1.334  1.00  0.00     0.027 A 
HETATM   22  C17 UNL     1       0.141  -5.903  -1.334  1.00  0.00     0.131 A 
HETATM   23  C18 UNL     1       1.547  -5.848  -1.334  1.00  0.00     0.027 A 
HETATM   24  O1  UNL     1      -0.477  -7.067  -1.334  1.00  0.00    -0.190 OA
HETATM   25  C19 UNL     1       2.205  -4.606  -1.334  1.00  0.00     0.002 A 
ENDBRANCH  18  19
ENDBRANCH  15  17
ENDBRANCH  14  15
ENDBRANCH   1  14
TORSDOF 7
