REMARK  7 active torsions:
REMARK  status: ('A' for Active; 'I' for Inactive)
REMARK    1  A    between atoms: C1_1  and  O11_36 
REMARK    2  A    between atoms: C2_2  and  O10_34 
REMARK    3  A    between atoms: C4_4  and  C7_7 
REMARK    4  A    between atoms: C11_12  and  C13_15 
REMARK    5  A    between atoms: C16_18  and  O4_22 
REMARK    6  A    between atoms: O4_22  and  C19_23 
REMARK    7  A    between atoms: C23_30  and  C24_32 
ROOT
HETATM    1  C13 UNL     1       2.109   0.061   2.457  1.00  0.00     0.007 A 
HETATM    2  C14 UNL     1       1.809   1.391   2.125  1.00  0.00     0.000 A 
HETATM    3  C15 UNL     1       1.986   1.844   0.807  1.00  0.00     0.026 A 
HETATM    4  C16 UNL     1       2.467   0.969  -0.184  1.00  0.00     0.122 A 
HETATM    5  C17 UNL     1       2.770  -0.365   0.148  1.00  0.00     0.153 A 
HETATM    6  C18 UNL     1       2.590  -0.816   1.469  1.00  0.00     0.028 A 
HETATM    7  O3  UNL     1       3.219  -1.193  -0.774  1.00  0.00    -0.188 OA
ENDROOT
BRANCH   1   8
HETATM    8  C11 UNL     1       1.920  -0.424   3.855  1.00  0.00     0.140 C 
HETATM    9  C9  UNL     1       0.477  -0.352   4.389  1.00  0.00     0.066 C 
HETATM   10  C8  UNL     1      -0.061  -1.795   4.299  1.00  0.00     0.066 C 
HETATM   11  C10 UNL     1      -0.604   0.482   3.689  1.00  0.00     0.145 C 
HETATM   12  C7  UNL     1      -1.465  -1.666   3.678  1.00  0.00     0.140 C 
HETATM   13  C12 UNL     1       1.068  -2.561   3.598  1.00  0.00     0.145 C 
HETATM   14  O1  UNL     1      -1.762  -0.301   3.863  1.00  0.00    -0.352 OA
HETATM   15  O2  UNL     1       2.209  -1.803   3.926  1.00  0.00    -0.352 OA
BRANCH  12  16
HETATM   16  C4  UNL     1      -1.555  -2.010   2.228  1.00  0.00     0.007 A 
HETATM   17  C3  UNL     1      -1.227  -3.305   1.791  1.00  0.00     0.024 A 
HETATM   18  C2  UNL     1      -1.309  -3.635   0.426  1.00  0.00     0.116 A 
HETATM   19  C1  UNL     1      -1.725  -2.662  -0.504  1.00  0.00     0.116 A 
HETATM   20  C6  UNL     1      -2.053  -1.369  -0.065  1.00  0.00     0.026 A 
HETATM   21  C5  UNL     1      -1.969  -1.041   1.299  1.00  0.00     0.000 A 
BRANCH  18  22
HETATM   22  O10 UNL     1      -0.998  -4.850   0.023  1.00  0.00    -0.326 OA
HETATM   23  C25 UNL     1      -1.774  -5.424  -1.020  1.00  0.00     0.181 C 
ENDBRANCH  18  22
BRANCH  19  24
HETATM   24  O11 UNL     1      -1.805  -2.963  -1.785  1.00  0.00    -0.326 OA
HETATM   25  C26 UNL     1      -2.215  -1.941  -2.684  1.00  0.00     0.181 C 
ENDBRANCH  19  24
ENDBRANCH  12  16
ENDBRANCH   1   8
BRANCH   4  26
HETATM   26  O4  UNL     1       2.633   1.400  -1.418  1.00  0.00    -0.301 OA
BRANCH  26  27
HETATM   27  C19 UNL     1       1.783   2.441  -1.881  1.00  0.00     0.274 C 
HETATM   28  C20 UNL     1       2.010   2.678  -3.389  1.00  0.00     0.241 C 
HETATM   29  O5  UNL     1       3.336   3.133  -3.582  1.00  0.00    -0.215 OA
HETATM   30  C21 UNL     1       1.008   3.713  -3.947  1.00  0.00     0.220 C 
HETATM   31  O6  UNL     1       1.113   3.772  -5.361  1.00  0.00    -0.218 OA
HETATM   32  C22 UNL     1      -0.428   3.313  -3.543  1.00  0.00     0.215 C 
HETATM   33  O7  UNL     1      -1.330   4.350  -3.887  1.00  0.00    -0.218 OA
HETATM   34  C23 UNL     1      -0.535   3.047  -2.025  1.00  0.00     0.184 C 
HETATM   35  O8  UNL     1       0.430   2.070  -1.649  1.00  0.00    -0.326 OA
BRANCH  34  36
HETATM   36  C24 UNL     1      -1.906   2.502  -1.611  1.00  0.00     0.214 C 
HETATM   37  O9  UNL     1      -1.949   2.439  -0.203  1.00  0.00    -0.218 OA
ENDBRANCH  34  36
ENDBRANCH  26  27
ENDBRANCH   4  26
TORSDOF 7
