REMARK  7 active torsions:
REMARK  status: ('A' for Active; 'I' for Inactive)
REMARK    1  A    between atoms: C2_2  and  C13_17 
REMARK    2  A    between atoms: C3_3  and  O3_13 
REMARK    3  A    between atoms: O3_13  and  C11_14 
REMARK    4  A    between atoms: C13_17  and  C14_18 
REMARK    5  A    between atoms: C14_18  and  C15_19 
REMARK    6  A    between atoms: C15_19  and  C16_20 
REMARK    7  A    between atoms: C16_20  and  C17_21 
ROOT
HETATM    1  C1  UNL     1      -1.121  -2.185  -0.527  1.00  0.00    -0.047 C 
HETATM    2  C2  UNL     1      -0.483  -1.002  -0.469  1.00  0.00    -0.025 C 
HETATM    3  C3  UNL     1       0.986  -0.949  -0.842  1.00  0.00     0.148 C 
HETATM    4  C4  UNL     1       1.762  -2.101  -0.176  1.00  0.00     0.087 C 
HETATM    5  C5  UNL     1       1.068  -3.471  -0.410  1.00  0.00     0.135 C 
HETATM    6  C6  UNL     1      -0.358  -3.408  -0.983  1.00  0.00     0.052 C 
HETATM    7  O1  UNL     1       1.889  -4.244  -1.299  1.00  0.00    -0.300 OA
HETATM    8  C7  UNL     1       3.072  -3.654  -1.449  1.00  0.00     0.291 C 
HETATM    9  C8  UNL     1       3.119  -2.379  -0.752  1.00  0.00     0.042 C 
HETATM   10  C9  UNL     1       4.211  -1.594  -0.637  1.00  0.00    -0.025 C 
HETATM   11  C10 UNL     1       4.205  -0.308   0.152  1.00  0.00     0.030 C 
HETATM   12  O2  UNL     1       4.002  -4.103  -2.080  1.00  0.00    -0.260 OA
HETATM   13  C20 UNL     1      -2.576  -2.332  -0.154  1.00  0.00     0.026 C 
ENDROOT
BRANCH   2  14
HETATM   14  C13 UNL     1      -1.192   0.258  -0.039  1.00  0.00     0.020 C 
HETATM   15  C19 UNL     1      -1.117   1.354  -1.104  1.00  0.00     0.004 C 
BRANCH  14  16
HETATM   16  C14 UNL     1      -0.742   0.744   1.340  1.00  0.00     0.004 C 
BRANCH  16  17
HETATM   17  C15 UNL     1      -1.510   1.981   1.809  1.00  0.00     0.008 C 
BRANCH  17  18
HETATM   18  C16 UNL     1      -3.008   1.721   1.967  1.00  0.00     0.065 C 
BRANCH  18  19
HETATM   19  C17 UNL     1      -3.754   2.932   2.457  1.00  0.00     0.151 C 
HETATM   20  O5  UNL     1      -4.278   2.942   3.547  1.00  0.00    -0.296 OA
HETATM   21  C18 UNL     1      -3.826   4.133   1.553  1.00  0.00     0.072 C 
ENDBRANCH  18  19
ENDBRANCH  17  18
ENDBRANCH  16  17
ENDBRANCH  14  16
ENDBRANCH   2  14
BRANCH   3  22
HETATM   22  O3  UNL     1       1.539   0.299  -0.447  1.00  0.00    -0.300 OA
BRANCH  22  23
HETATM   23  C11 UNL     1       1.986   1.006  -1.481  1.00  0.00     0.273 C 
HETATM   24  O4  UNL     1       2.242   0.529  -2.563  1.00  0.00    -0.264 OA
HETATM   25  C12 UNL     1       2.164   2.479  -1.221  1.00  0.00     0.106 C 
ENDBRANCH  22  23
ENDBRANCH   3  22
TORSDOF 7
