REMARK  11 active torsions:
REMARK  status: ('A' for Active; 'I' for Inactive)
REMARK    1  A    between atoms: C1_1  and  O8_26 
REMARK    2  A    between atoms: C2_2  and  O7_24 
REMARK    3  A    between atoms: C8_9  and  C10_12 
REMARK    4  A    between atoms: C12_14  and  O5_21 
REMARK    5  A    between atoms: C13_15  and  O4_19 
REMARK    6  A    between atoms: O8_26  and  C19_27 
REMARK    7  A    between atoms: C21_29  and  C25_36 
REMARK    8  A    between atoms: C25_36  and  O12_37 
REMARK    9  A    between atoms: O12_37  and  C26_38 
REMARK   10  A    between atoms: C26_38  and  C27_39 
REMARK   11  A    between atoms: C29_41  and  O14_46 
ROOT
HETATM    1  C1  UNL     1      -2.365   1.186   1.619  1.00  0.00     0.120 A 
HETATM    2  C2  UNL     1      -3.457   0.309   1.824  1.00  0.00     0.142 A 
HETATM    3  C3  UNL     1      -3.547  -0.900   1.092  1.00  0.00     0.160 A 
HETATM    4  C4  UNL     1      -2.537  -1.227   0.150  1.00  0.00     0.089 A 
HETATM    5  C5  UNL     1      -1.441  -0.346  -0.059  1.00  0.00     0.107 A 
HETATM    6  C6  UNL     1      -1.359   0.859   0.680  1.00  0.00     0.051 A 
HETATM    7  O1  UNL     1      -0.480  -0.650  -0.957  1.00  0.00    -0.305 OA
HETATM    8  C7  UNL     1      -0.492  -1.779  -1.695  1.00  0.00     0.126 A 
HETATM    9  C8  UNL     1      -1.477  -2.701  -1.590  1.00  0.00     0.064 A 
HETATM   10  C9  UNL     1      -2.598  -2.492  -0.639  1.00  0.00     0.202 A 
HETATM   11  O2  UNL     1      -3.455  -3.344  -0.574  1.00  0.00    -0.286 OA
HETATM   12  O6  UNL     1      -4.586  -1.721   1.297  1.00  0.00    -0.188 OA
ENDROOT
BRANCH   1  13
HETATM   13  O8  UNL     1      -2.279   2.328   2.316  1.00  0.00    -0.329 OA
BRANCH  13  14
HETATM   14  C19 UNL     1      -1.561   3.408   1.738  1.00  0.00     0.154 C 
HETATM   15  C20 UNL     1      -0.115   3.387   2.250  1.00  0.00     0.038 C 
HETATM   16  C21 UNL     1       0.758   4.481   1.592  1.00  0.00     0.066 C 
HETATM   17  C22 UNL     1      -0.047   5.754   1.209  1.00  0.00     0.188 C 
HETATM   18  C23 UNL     1      -1.311   5.971   2.074  1.00  0.00     0.215 C 
HETATM   19  O11 UNL     1      -0.451   5.672  -0.147  1.00  0.00    -0.221 OA
HETATM   20  C24 UNL     1      -2.268   4.742   2.080  1.00  0.00     0.212 C 
HETATM   21  O10 UNL     1      -0.889   6.229   3.402  1.00  0.00    -0.218 OA
HETATM   22  O9  UNL     1      -3.301   4.951   1.135  1.00  0.00    -0.218 OA
BRANCH  16  23
HETATM   23  C25 UNL     1       1.939   4.830   2.506  1.00  0.00     0.155 C 
BRANCH  23  24
HETATM   24  O12 UNL     1       2.676   3.652   2.801  1.00  0.00    -0.298 OA
BRANCH  24  25
HETATM   25  C26 UNL     1       3.463   3.281   1.795  1.00  0.00     0.296 C 
HETATM   26  O15 UNL     1       3.568   3.900   0.762  1.00  0.00    -0.259 OA
BRANCH  25  27
HETATM   27  C27 UNL     1       4.232   2.022   2.019  1.00  0.00     0.065 A 
HETATM   28  C28 UNL     1       5.068   1.518   1.006  1.00  0.00     0.032 A 
HETATM   29  C29 UNL     1       5.795   0.332   1.213  1.00  0.00     0.119 A 
HETATM   30  C30 UNL     1       5.686  -0.353   2.437  1.00  0.00     0.153 A 
HETATM   31  C31 UNL     1       4.850   0.152   3.449  1.00  0.00     0.030 A 
HETATM   32  O13 UNL     1       6.363  -1.465   2.641  1.00  0.00    -0.188 OA
HETATM   33  C32 UNL     1       4.125   1.338   3.242  1.00  0.00     0.008 A 
BRANCH  29  34
HETATM   34  O14 UNL     1       6.576  -0.135   0.260  1.00  0.00    -0.326 OA
HETATM   35  C33 UNL     1       6.543   0.512  -1.004  1.00  0.00     0.181 C 
ENDBRANCH  29  34
ENDBRANCH  25  27
ENDBRANCH  24  25
ENDBRANCH  23  24
ENDBRANCH  16  23
ENDBRANCH  13  14
ENDBRANCH   1  13
BRANCH   2  36
HETATM   36  O7  UNL     1      -4.410   0.623   2.715  1.00  0.00    -0.324 OA
HETATM   37  C18 UNL     1      -4.006   1.213   3.943  1.00  0.00     0.182 C 
ENDBRANCH   2  36
BRANCH   9  38
HETATM   38  C10 UNL     1      -1.426  -3.932  -2.442  1.00  0.00     0.009 A 
HETATM   39  C11 UNL     1      -2.607  -4.457  -2.994  1.00  0.00     0.026 A 
HETATM   40  C12 UNL     1      -2.563  -5.613  -3.793  1.00  0.00     0.118 A 
HETATM   41  C13 UNL     1      -1.330  -6.246  -4.041  1.00  0.00     0.141 A 
HETATM   42  C14 UNL     1      -0.145  -5.723  -3.490  1.00  0.00     0.155 A 
HETATM   43  C15 UNL     1      -0.195  -4.566  -2.692  1.00  0.00     0.030 A 
HETATM   44  O3  UNL     1       1.010  -6.313  -3.721  1.00  0.00    -0.188 OA
BRANCH  40  45
HETATM   45  O5  UNL     1      -3.674  -6.100  -4.309  1.00  0.00    -0.326 OA
HETATM   46  C17 UNL     1      -3.705  -6.356  -5.705  1.00  0.00     0.181 C 
ENDBRANCH  40  45
BRANCH  41  47
HETATM   47  O4  UNL     1      -1.285  -7.330  -4.791  1.00  0.00    -0.324 OA
HETATM   48  C16 UNL     1      -0.680  -7.231  -6.072  1.00  0.00     0.182 C 
ENDBRANCH  41  47
ENDBRANCH   9  38
TORSDOF 11
