REMARK  8 active torsions:
REMARK  status: ('A' for Active; 'I' for Inactive)
REMARK    1  A    between atoms: C5_5  and  O2_7 
REMARK    2  A    between atoms: O2_7  and  C6_8 
REMARK    3  A    between atoms: C9_11  and  C41_47 
REMARK    4  A    between atoms: C10_13  and  O4_14 
REMARK    5  A    between atoms: O4_14  and  C11_15 
REMARK    6  A    between atoms: C21_26  and  C24_29 
REMARK    7  A    between atoms: C26_31  and  C27_32 
REMARK    8  A    between atoms: C27_32  and  C28_33 
ROOT
HETATM    1  C11 UNL     1       0.492  -1.684  -0.647  1.00  0.00     0.118 C 
HETATM    2  C12 UNL     1       1.107  -1.844   0.776  1.00  0.00     0.030 C 
HETATM    3  C13 UNL     1      -0.055  -1.906   1.826  1.00  0.00     0.003 C 
HETATM    4  C14 UNL     1      -0.978  -0.648   1.699  1.00  0.00     0.003 C 
HETATM    5  C15 UNL     1      -1.551  -0.452   0.263  1.00  0.00     0.003 C 
HETATM    6  C16 UNL     1      -0.429  -0.459  -0.796  1.00  0.00     0.030 C 
HETATM    7  C17 UNL     1      -2.363   0.873   0.145  1.00  0.00     0.003 C 
HETATM    8  C18 UNL     1      -3.452   1.026   1.235  1.00  0.00     0.034 C 
HETATM    9  C19 UNL     1      -2.899   0.730   2.650  1.00  0.00     0.152 C 
HETATM   10  C20 UNL     1      -2.128  -0.599   2.726  1.00  0.00     0.033 C 
HETATM   11  O5  UNL     1      -3.967   0.659   3.578  1.00  0.00    -0.224 OA
HETATM   12  C21 UNL     1      -3.881   2.494   1.033  1.00  0.00     0.020 C 
HETATM   13  C22 UNL     1      -2.556   3.228   0.823  1.00  0.00     0.004 C 
HETATM   14  C23 UNL     1      -1.564   2.177   0.324  1.00  0.00     0.000 C 
HETATM   15  C32 UNL     1      -3.024   0.986  -1.239  1.00  0.00     0.000 C 
HETATM   16  C33 UNL     1      -2.570  -1.559  -0.073  1.00  0.00     0.000 C 
HETATM   17  C34 UNL     1       0.535  -2.080   3.247  1.00  0.00     0.003 C 
HETATM   18  C35 UNL     1       1.580  -1.026   3.606  1.00  0.00     0.033 C 
HETATM   19  C36 UNL     1       2.739  -1.101   2.606  1.00  0.00     0.152 C 
HETATM   20  C37 UNL     1       2.280  -0.861   1.143  1.00  0.00     0.030 C 
HETATM   21  C38 UNL     1       3.496  -1.123   0.239  1.00  0.00     0.003 C 
HETATM   22  C39 UNL     1       1.886   0.611   0.960  1.00  0.00     0.003 C 
HETATM   23  O6  UNL     1       3.733  -0.166   2.994  1.00  0.00    -0.224 OA
HETATM   24  C40 UNL     1      -0.887  -3.177   1.574  1.00  0.00     0.000 C 
ENDROOT
BRANCH   1  25
HETATM   25  O4  UNL     1       1.478  -1.650  -1.658  1.00  0.00    -0.332 OA
BRANCH  25  26
HETATM   26  C10 UNL     1       1.209  -2.535  -2.728  1.00  0.00     0.267 C 
HETATM   27  C6  UNL     1       2.399  -2.560  -3.722  1.00  0.00     0.207 C 
HETATM   28  C7  UNL     1       2.055  -3.398  -4.976  1.00  0.00     0.217 C 
HETATM   29  C8  UNL     1       0.697  -2.946  -5.558  1.00  0.00     0.215 C 
HETATM   30  O9  UNL     1       3.072  -3.242  -5.953  1.00  0.00    -0.218 OA
HETATM   31  C9  UNL     1      -0.397  -2.914  -4.468  1.00  0.00     0.184 C 
HETATM   32  O8  UNL     1       0.293  -3.836  -6.582  1.00  0.00    -0.218 OA
HETATM   33  O3  UNL     1       0.032  -2.091  -3.392  1.00  0.00    -0.326 OA
BRANCH  27  34
HETATM   34  O2  UNL     1       3.534  -3.118  -3.083  1.00  0.00    -0.324 OA
BRANCH  34  35
HETATM   35  C5  UNL     1       4.745  -2.482  -3.441  1.00  0.00     0.270 C 
HETATM   36  C4  UNL     1       5.959  -3.331  -2.986  1.00  0.00     0.241 C 
HETATM   37  C3  UNL     1       7.286  -2.575  -3.228  1.00  0.00     0.220 C 
HETATM   38  O10 UNL     1       5.976  -4.552  -3.707  1.00  0.00    -0.215 OA
HETATM   39  C2  UNL     1       7.198  -1.150  -2.638  1.00  0.00     0.212 C 
HETATM   40  O11 UNL     1       8.358  -3.281  -2.625  1.00  0.00    -0.218 OA
HETATM   41  C1  UNL     1       5.926  -0.419  -3.126  1.00  0.00     0.151 C 
HETATM   42  O12 UNL     1       8.332  -0.397  -3.029  1.00  0.00    -0.218 OA
HETATM   43  O1  UNL     1       4.783  -1.205  -2.817  1.00  0.00    -0.329 OA
HETATM   44  C42 UNL     1       5.722   0.941  -2.448  1.00  0.00     0.035 C 
ENDBRANCH  34  35
ENDBRANCH  27  34
BRANCH  31  45
HETATM   45  C41 UNL     1      -1.723  -2.330  -4.969  1.00  0.00     0.214 C 
HETATM   46  O7  UNL     1      -2.697  -2.526  -3.969  1.00  0.00    -0.218 OA
ENDBRANCH  31  45
ENDBRANCH  25  26
ENDBRANCH   1  25
BRANCH  12  47
HETATM   47  C24 UNL     1      -4.740   3.100   2.117  1.00  0.00    -0.048 C 
HETATM   48  C25 UNL     1      -6.074   2.534   2.520  1.00  0.00     0.026 C 
HETATM   49  C26 UNL     1      -4.292   4.195   2.753  1.00  0.00    -0.030 C 
BRANCH  49  50
HETATM   50  C27 UNL     1      -5.146   4.799   3.834  1.00  0.00     0.051 C 
BRANCH  50  51
HETATM   51  C28 UNL     1      -4.390   5.878   4.562  1.00  0.00    -0.030 C 
HETATM   52  C29 UNL     1      -5.056   6.644   5.444  1.00  0.00    -0.048 C 
HETATM   53  C30 UNL     1      -4.464   7.793   6.216  1.00  0.00     0.026 C 
HETATM   54  C31 UNL     1      -6.509   6.349   5.696  1.00  0.00     0.026 C 
ENDBRANCH  50  51
ENDBRANCH  49  50
ENDBRANCH  12  47
TORSDOF 8
