REMARK  8 active torsions:
REMARK  status: ('A' for Active; 'I' for Inactive)
REMARK    1  A    between atoms: C4_4  and  O2_9 
REMARK    2  A    between atoms: C6_6  and  C7_7 
REMARK    3  A    between atoms: O2_9  and  C8_10 
REMARK    4  A    between atoms: C9_11  and  O9_36 
REMARK    5  A    between atoms: C11_13  and  C15_18 
REMARK    6  A    between atoms: C13_15  and  O3_16 
REMARK    7  A    between atoms: C21_26  and  O8_34 
REMARK    8  A    between atoms: C25_30  and  C26_31 
ROOT
HETATM    1  C8  UNL     1      -1.154  -1.566   0.721  1.00  0.00     0.138 A 
HETATM    2  C9  UNL     1      -0.737  -0.996  -0.497  1.00  0.00     0.118 A 
HETATM    3  C10 UNL     1       0.090   0.140  -0.491  1.00  0.00     0.024 A 
HETATM    4  C11 UNL     1       0.502   0.708   0.726  1.00  0.00     0.010 A 
HETATM    5  C12 UNL     1       0.086   0.138   1.942  1.00  0.00     0.024 A 
HETATM    6  C13 UNL     1      -0.742  -0.998   1.942  1.00  0.00     0.118 A 
ENDROOT
BRANCH   4   7
HETATM    7  C15 UNL     1       1.380   1.913   0.729  1.00  0.00     0.153 C 
HETATM    8  O4  UNL     1       1.178   2.661  -0.506  1.00  0.00    -0.296 OA
HETATM    9  C16 UNL     1       0.505   3.846  -0.442  1.00  0.00     0.296 C 
HETATM   10  O5  UNL     1      -0.542   3.948   0.157  1.00  0.00    -0.259 OA
HETATM   11  C17 UNL     1       1.019   5.104  -1.101  1.00  0.00     0.068 C 
HETATM   12  C18 UNL     1       2.315   5.500  -1.278  1.00  0.00     0.005 C 
HETATM   13  C19 UNL     1       3.453   4.720  -0.724  1.00  0.00     0.002 C 
HETATM   14  C20 UNL     1       4.725   4.653  -1.344  1.00  0.00     0.026 C 
HETATM   15  C24 UNL     1       3.217   3.952   0.414  1.00  0.00    -0.002 C 
HETATM   16  C21 UNL     1       5.584   3.575  -0.980  1.00  0.00     0.119 C 
HETATM   17  C22 UNL     1       5.092   2.536  -0.134  1.00  0.00     0.149 C 
HETATM   18  C23 UNL     1       3.796   2.681   0.443  1.00  0.00     0.010 C 
HETATM   19  O7  UNL     1       5.827   1.434   0.075  1.00  0.00    -0.188 OA
HETATM   20  C25 UNL     1       2.925   1.600   1.002  1.00  0.00     0.089 C 
BRANCH  16  21
HETATM   21  O8  UNL     1       6.823   3.506  -1.486  1.00  0.00    -0.326 OA
HETATM   22  C27 UNL     1       7.265   4.570  -2.316  1.00  0.00     0.181 C 
ENDBRANCH  16  21
BRANCH  20  23
HETATM   23  C26 UNL     1       3.335   0.223   0.449  1.00  0.00     0.190 C 
HETATM   24  O6  UNL     1       4.322  -0.317   1.298  1.00  0.00    -0.220 OA
ENDBRANCH  20  23
ENDBRANCH   4   7
BRANCH   2  25
HETATM   25  O9  UNL     1      -1.121  -1.524  -1.642  1.00  0.00    -0.326 OA
HETATM   26  C28 UNL     1      -0.702  -2.848  -1.938  1.00  0.00     0.181 C 
ENDBRANCH   2  25
BRANCH   6  27
HETATM   27  O3  UNL     1      -1.130  -1.528   3.084  1.00  0.00    -0.326 OA
HETATM   28  C14 UNL     1      -0.685  -0.918   4.287  1.00  0.00     0.181 C 
ENDBRANCH   6  27
BRANCH   1  29
HETATM   29  O2  UNL     1      -1.931  -2.631   0.719  1.00  0.00    -0.327 OA
BRANCH  29  30
HETATM   30  C4  UNL     1      -3.232  -2.511   1.283  1.00  0.00     0.155 C 
HETATM   31  C3  UNL     1      -3.835  -3.909   1.519  1.00  0.00     0.212 C 
HETATM   32  C2  UNL     1      -4.084  -4.657   0.187  1.00  0.00     0.215 C 
HETATM   33  O10 UNL     1      -2.962  -4.650   2.353  1.00  0.00    -0.218 OA
HETATM   34  C1  UNL     1      -4.947  -3.808  -0.781  1.00  0.00     0.188 C 
HETATM   35  O11 UNL     1      -4.745  -5.885   0.454  1.00  0.00    -0.218 OA
HETATM   36  C6  UNL     1      -4.354  -2.398  -1.007  1.00  0.00     0.069 C 
HETATM   37  O12 UNL     1      -5.049  -4.465  -2.033  1.00  0.00    -0.221 OA
HETATM   38  C5  UNL     1      -4.108  -1.682   0.333  1.00  0.00     0.038 C 
BRANCH  36  39
HETATM   39  C7  UNL     1      -5.244  -1.538  -1.915  1.00  0.00     0.185 C 
HETATM   40  O1  UNL     1      -4.536  -0.363  -2.240  1.00  0.00    -0.221 OA
ENDBRANCH  36  39
ENDBRANCH  29  30
ENDBRANCH   1  29
TORSDOF 8
