REMARK  4 active torsions:
REMARK  status: ('A' for Active; 'I' for Inactive)
REMARK    1  A    between atoms: C4_4  and  C5_5 
REMARK    2  A    between atoms: C5_5  and  O1_6 
REMARK    3  A    between atoms: O1_6  and  C6_7 
REMARK    4  A    between atoms: C10_14  and  C11_16 
ROOT
HETATM    1  C6  UNL     1      -0.125   0.928   0.039  1.00  0.00     0.270 C 
HETATM    2  C7  UNL     1      -0.377   2.357  -0.504  1.00  0.00     0.241 C 
HETATM    3  O2  UNL     1       0.576   3.246   0.057  1.00  0.00    -0.215 OA
HETATM    4  C8  UNL     1      -1.801   2.842  -0.146  1.00  0.00     0.220 C 
HETATM    5  O3  UNL     1      -2.076   4.060  -0.820  1.00  0.00    -0.218 OA
HETATM    6  C9  UNL     1      -2.838   1.773  -0.553  1.00  0.00     0.215 C 
HETATM    7  O4  UNL     1      -4.115   2.129  -0.049  1.00  0.00    -0.218 OA
HETATM    8  C10 UNL     1      -2.459   0.381  -0.002  1.00  0.00     0.184 C 
HETATM    9  O5  UNL     1      -1.142   0.049  -0.424  1.00  0.00    -0.326 OA
ENDROOT
BRANCH   1  10
HETATM   10  O1  UNL     1       1.123   0.439  -0.414  1.00  0.00    -0.324 OA
BRANCH  10  11
HETATM   11  C5  UNL     1       1.494  -0.778   0.193  1.00  0.00     0.171 C 
BRANCH  11  12
HETATM   12  C4  UNL     1       2.877  -1.162  -0.262  1.00  0.00    -0.003 C 
HETATM   13  C2  UNL     1       3.510  -2.158   0.381  1.00  0.00    -0.045 C 
HETATM   14  C1  UNL     1       4.904  -2.522  -0.053  1.00  0.00     0.026 C 
HETATM   15  C3  UNL     1       2.789  -2.862   1.500  1.00  0.00     0.026 C 
ENDBRANCH  11  12
ENDBRANCH  10  11
ENDBRANCH   1  10
BRANCH   8  16
HETATM   16  C11 UNL     1      -3.377  -0.735  -0.514  1.00  0.00     0.214 C 
HETATM   17  O6  UNL     1      -3.053  -1.922   0.172  1.00  0.00    -0.218 OA
ENDBRANCH   8  16
TORSDOF 4
