REMARK  4 active torsions:
REMARK  status: ('A' for Active; 'I' for Inactive)
REMARK    1  A    between atoms: C3_3  and  C14_16 
REMARK    2  A    between atoms: C5_5  and  C7_7 
REMARK    3  A    between atoms: C9_9  and  C13_14 
REMARK    4  A    between atoms: C14_16  and  C15_17 
ROOT
HETATM    1  C1  UNL     1      -0.576   2.209  -1.834  1.00  0.00     0.027 A 
HETATM    2  C2  UNL     1      -1.402   2.520  -0.740  1.00  0.00     0.127 A 
HETATM    3  C3  UNL     1      -1.465   1.641   0.358  1.00  0.00     0.008 A 
HETATM    4  C4  UNL     1      -0.705   0.457   0.358  1.00  0.00    -0.002 A 
HETATM    5  C5  UNL     1       0.121   0.148  -0.740  1.00  0.00     0.002 A 
HETATM    6  C6  UNL     1       0.184   1.027  -1.836  1.00  0.00     0.002 A 
HETATM    7  O3  UNL     1      -2.111   3.631  -0.750  1.00  0.00    -0.191 OA
ENDROOT
BRANCH   5   8
HETATM    8  C7  UNL     1       0.910  -1.076  -0.740  1.00  0.00     0.025 A 
HETATM    9  C8  UNL     1       0.254  -2.322  -0.740  1.00  0.00     0.005 A 
HETATM   10  C9  UNL     1       0.998  -3.516  -0.740  1.00  0.00     0.042 A 
HETATM   11  C10 UNL     1       2.404  -3.463  -0.740  1.00  0.00     0.005 A 
HETATM   12  C11 UNL     1       3.061  -2.223  -0.740  1.00  0.00     0.028 A 
HETATM   13  C12 UNL     1       2.320  -1.025  -0.740  1.00  0.00     0.131 A 
HETATM   14  O1  UNL     1       2.959   0.129  -0.740  1.00  0.00    -0.190 OA
BRANCH  10  15
HETATM   15  C13 UNL     1       0.301  -4.836  -0.740  1.00  0.00     0.234 C 
HETATM   16  O2  UNL     1       0.926  -5.869  -0.740  1.00  0.00    -0.283 OA
ENDBRANCH  10  15
ENDBRANCH   5   8
BRANCH   3  17
HETATM   17  C14 UNL     1      -2.336   1.955   1.524  1.00  0.00     0.054 C 
BRANCH  17  18
HETATM   18  C15 UNL     1      -1.609   2.754   2.573  1.00  0.00    -0.021 C 
HETATM   19  C16 UNL     1      -0.902   2.096   3.504  1.00  0.00    -0.005 C 
ENDBRANCH  17  18
ENDBRANCH   3  17
TORSDOF 4
