REMARK  4 active torsions:
REMARK  status: ('A' for Active; 'I' for Inactive)
REMARK    1  A    between atoms: C3_3  and  C6_9 
REMARK    2  A    between atoms: C4_5  and  C5_7 
REMARK    3  A    between atoms: C6_9  and  O4_10 
REMARK    4  A    between atoms: O4_10  and  C7_11 
ROOT
HETATM    1  C6  UNL     1       1.535   0.465   0.664  1.00  0.00     0.306 C 
HETATM    2  O5  UNL     1       2.250   1.248   1.244  1.00  0.00    -0.261 OA
ENDROOT
BRANCH   1   3
HETATM    3  C3  UNL     1       1.996  -0.943   0.377  1.00  0.00     0.237 C 
HETATM    4  C2  UNL     1       1.863  -1.381  -1.098  1.00  0.00     0.224 C 
HETATM    5  C1  UNL     1       1.096  -2.723  -1.051  1.00  0.00     0.242 C 
HETATM    6  O6  UNL     1       3.150  -1.584  -1.656  1.00  0.00    -0.217 OA
HETATM    7  C4  UNL     1       1.178  -3.113   0.435  1.00  0.00     0.281 C 
HETATM    8  O7  UNL     1      -0.250  -2.494  -1.434  1.00  0.00    -0.215 OA
HETATM    9  O1  UNL     1       1.191  -1.861   1.084  1.00  0.00    -0.318 OA
HETATM   10  O2  UNL     1       2.383  -3.817   0.678  1.00  0.00    -0.190 OA
BRANCH   7  11
HETATM   11  C5  UNL     1       0.041  -3.963   1.000  1.00  0.00     0.244 C 
HETATM   12  O3  UNL     1      -0.051  -5.145   0.236  1.00  0.00    -0.215 OA
ENDBRANCH   7  11
ENDBRANCH   1   3
BRANCH   1  13
HETATM   13  O4  UNL     1       0.311   0.756   0.236  1.00  0.00    -0.273 OA
BRANCH  13  14
HETATM   14  C7  UNL     1      -0.061   2.043   0.154  1.00  0.00     0.124 A 
HETATM   15  C8  UNL     1      -1.313   2.557   0.117  1.00  0.00     0.042 A 
HETATM   16  C9  UNL     1      -1.342   3.924   0.033  1.00  0.00     0.083 A 
HETATM   17  C14 UNL     1      -2.514   1.803   0.158  1.00  0.00     0.004 A 
HETATM   18  N1  UNL     1      -0.027   4.344   0.014  1.00  0.00    -0.242 NA
HETATM   19  C11 UNL     1      -2.559   4.643  -0.018  1.00  0.00     0.019 A 
HETATM   20  C10 UNL     1       0.775   3.180   0.088  1.00  0.00     0.124 A 
HETATM   21  C12 UNL     1      -3.775   3.912   0.021  1.00  0.00     0.002 A 
HETATM   22  C13 UNL     1      -3.752   2.494   0.109  1.00  0.00     0.000 A 
ENDBRANCH  13  14
ENDBRANCH   1  13
TORSDOF 4
