REMARK  13 active torsions:
REMARK  status: ('A' for Active; 'I' for Inactive)
REMARK    1  A    between atoms: C4_5  and  C45_62 
REMARK    2  A    between atoms: C5_7  and  O3_8 
REMARK    3  A    between atoms: O3_8  and  C6_9 
REMARK    4  A    between atoms: C9_12  and  O6_17 
REMARK    5  A    between atoms: C10_14  and  C11_15 
REMARK    6  A    between atoms: O6_17  and  C12_18 
REMARK    7  A    between atoms: C29_38  and  C32_41 
REMARK    8  A    between atoms: C32_41  and  C33_42 
REMARK    9  A    between atoms: C33_42  and  C34_43 
REMARK   10  A    between atoms: C34_43  and  C35_44 
REMARK   11  A    between atoms: C35_44  and  O10_45 
REMARK   12  A    between atoms: O10_45  and  C36_46 
REMARK   13  A    between atoms: C37_48  and  C41_55 
ROOT
HETATM    1  C12 UNL     1       4.424   3.102  -0.824  1.00  0.00     0.148 C 
HETATM    2  C13 UNL     1       3.623   1.793  -0.852  1.00  0.00     0.032 C 
HETATM    3  C14 UNL     1       2.106   2.012  -0.682  1.00  0.00     0.003 C 
HETATM    4  C15 UNL     1       1.520   3.070  -1.666  1.00  0.00     0.003 C 
HETATM    5  C16 UNL     1       2.397   4.350  -1.689  1.00  0.00     0.035 C 
HETATM    6  C17 UNL     1       3.897   4.076  -1.897  1.00  0.00     0.179 C 
HETATM    7  O7  UNL     1       4.590   5.309  -1.824  1.00  0.00    -0.221 OA
HETATM    8  C18 UNL     1       0.064   3.484  -1.246  1.00  0.00     0.007 C 
HETATM    9  C19 UNL     1      -0.619   2.414  -0.354  1.00  0.00     0.001 C 
HETATM   10  C20 UNL     1       0.178   2.182   0.953  1.00  0.00     0.000 C 
HETATM   11  C21 UNL     1       1.699   2.315   0.766  1.00  0.00     0.000 C 
HETATM   12  C22 UNL     1      -2.041   2.881   0.008  1.00  0.00     0.009 C 
HETATM   13  C23 UNL     1      -2.897   3.133  -1.238  1.00  0.00     0.057 C 
HETATM   14  C24 UNL     1      -2.248   4.225  -2.053  1.00  0.00     0.150 C 
HETATM   15  C25 UNL     1      -0.811   3.957  -2.438  1.00  0.00     0.065 C 
HETATM   16  O8  UNL     1      -2.826   5.236  -2.373  1.00  0.00    -0.296 OA
HETATM   17  C26 UNL     1      -4.234   3.483  -0.563  1.00  0.00     0.054 C 
HETATM   18  C27 UNL     1      -4.279   2.598   0.691  1.00  0.00     0.125 C 
HETATM   19  C28 UNL     1      -2.914   1.922   0.816  1.00  0.00     0.031 C 
HETATM   20  O9  UNL     1      -5.326   1.639   0.492  1.00  0.00    -0.338 OA
HETATM   21  C29 UNL     1      -6.020   1.984  -0.596  1.00  0.00     0.064 C 
HETATM   22  C30 UNL     1      -5.484   3.024  -1.246  1.00  0.00    -0.023 C 
HETATM   23  C31 UNL     1      -6.029   3.666  -2.494  1.00  0.00     0.028 C 
HETATM   24  C43 UNL     1      -3.016   1.865  -2.094  1.00  0.00     0.008 C 
HETATM   25  C44 UNL     1       1.539   2.440  -3.068  1.00  0.00     0.000 C 
ENDROOT
BRANCH   1  26
HETATM   26  O6  UNL     1       5.787   2.795  -1.063  1.00  0.00    -0.329 OA
BRANCH  26  27
HETATM   27  C9  UNL     1       6.393   2.088   0.000  1.00  0.00     0.270 C 
HETATM   28  C8  UNL     1       7.861   2.545   0.188  1.00  0.00     0.241 C 
HETATM   29  C7  UNL     1       8.586   1.674   1.238  1.00  0.00     0.217 C 
HETATM   30  O16 UNL     1       7.883   3.900   0.607  1.00  0.00    -0.215 OA
HETATM   31  C6  UNL     1       8.379   0.178   0.914  1.00  0.00     0.181 C 
HETATM   32  O17 UNL     1       9.971   1.979   1.246  1.00  0.00    -0.218 OA
HETATM   33  C10 UNL     1       6.885  -0.150   0.705  1.00  0.00     0.181 C 
HETATM   34  O4  UNL     1       6.354   0.699  -0.303  1.00  0.00    -0.326 OA
BRANCH  31  35
HETATM   35  O3  UNL     1       8.875  -0.617   1.979  1.00  0.00    -0.326 OA
BRANCH  35  36
HETATM   36  C5  UNL     1       9.635  -1.725   1.539  1.00  0.00     0.270 C 
HETATM   37  C1  UNL     1       9.838  -2.734   2.697  1.00  0.00     0.241 C 
HETATM   38  O1  UNL     1       8.584  -3.291   3.063  1.00  0.00    -0.215 OA
HETATM   39  C2  UNL     1      10.799  -3.871   2.281  1.00  0.00     0.220 C 
HETATM   40  C3  UNL     1      12.086  -3.275   1.670  1.00  0.00     0.215 C 
HETATM   41  O20 UNL     1      11.125  -4.666   3.410  1.00  0.00    -0.218 OA
HETATM   42  C4  UNL     1      11.760  -2.250   0.561  1.00  0.00     0.184 C 
HETATM   43  O19 UNL     1      12.877  -4.311   1.111  1.00  0.00    -0.218 OA
HETATM   44  O2  UNL     1      10.895  -1.252   1.082  1.00  0.00    -0.326 OA
BRANCH  42  45
HETATM   45  C45 UNL     1      13.002  -1.527   0.031  1.00  0.00     0.214 C 
HETATM   46  O18 UNL     1      12.621  -0.756  -1.086  1.00  0.00    -0.218 OA
ENDBRANCH  42  45
ENDBRANCH  35  36
ENDBRANCH  31  35
BRANCH  33  47
HETATM   47  C11 UNL     1       6.651  -1.590   0.234  1.00  0.00     0.214 C 
HETATM   48  O5  UNL     1       5.260  -1.805   0.148  1.00  0.00    -0.218 OA
ENDBRANCH  33  47
ENDBRANCH  26  27
ENDBRANCH   1  26
BRANCH  21  49
HETATM   49  C32 UNL     1      -7.270   1.285  -1.057  1.00  0.00     0.050 C 
BRANCH  49  50
HETATM   50  C33 UNL     1      -7.311  -0.182  -0.631  1.00  0.00     0.009 C 
BRANCH  50  51
HETATM   51  C34 UNL     1      -8.625  -0.869  -1.004  1.00  0.00     0.030 C 
HETATM   52  C42 UNL     1      -8.820  -0.988  -2.516  1.00  0.00     0.003 C 
BRANCH  51  53
HETATM   53  C35 UNL     1      -8.820  -2.201  -0.277  1.00  0.00     0.145 C 
BRANCH  53  54
HETATM   54  O10 UNL     1     -10.162  -2.602  -0.445  1.00  0.00    -0.329 OA
BRANCH  54  55
HETATM   55  C36 UNL     1     -10.451  -3.846   0.160  1.00  0.00     0.270 C 
HETATM   56  O11 UNL     1     -10.360  -3.689   1.570  1.00  0.00    -0.326 OA
HETATM   57  C37 UNL     1     -10.576  -4.875   2.322  1.00  0.00     0.184 C 
HETATM   58  C38 UNL     1     -12.010  -5.389   2.063  1.00  0.00     0.215 C 
HETATM   59  C39 UNL     1     -12.270  -5.594   0.553  1.00  0.00     0.220 C 
HETATM   60  O14 UNL     1     -12.184  -6.617   2.748  1.00  0.00    -0.218 OA
HETATM   61  C40 UNL     1     -11.877  -4.316  -0.227  1.00  0.00     0.241 C 
HETATM   62  O13 UNL     1     -13.641  -5.889   0.336  1.00  0.00    -0.218 OA
HETATM   63  O12 UNL     1     -11.922  -4.584  -1.619  1.00  0.00    -0.215 OA
BRANCH  57  64
HETATM   64  C41 UNL     1     -10.328  -4.520   3.791  1.00  0.00     0.214 C 
HETATM   65  O15 UNL     1      -8.955  -4.236   3.949  1.00  0.00    -0.218 OA
ENDBRANCH  57  64
ENDBRANCH  54  55
ENDBRANCH  53  54
ENDBRANCH  51  53
ENDBRANCH  50  51
ENDBRANCH  49  50
ENDBRANCH  21  49
TORSDOF 13
