REMARK  3 active torsions:
REMARK  status: ('A' for Active; 'I' for Inactive)
REMARK    1  A    between atoms: C1_1  and  O7_22 
REMARK    2  A    between atoms: C7_8  and  C10_13 
REMARK    3  A    between atoms: O7_22  and  C16_23 
ROOT
HETATM    1  C1  UNL     1       1.760   0.871  -1.611  1.00  0.00     0.101 A 
HETATM    2  C2  UNL     1       1.586   2.045  -2.377  1.00  0.00     0.052 A 
HETATM    3  C3  UNL     1       0.285   2.537  -2.641  1.00  0.00     0.138 A 
HETATM    4  C4  UNL     1      -0.850   1.850  -2.131  1.00  0.00     0.085 A 
HETATM    5  C5  UNL     1      -0.674   0.647  -1.393  1.00  0.00     0.101 A 
HETATM    6  C6  UNL     1       0.631   0.174  -1.119  1.00  0.00     0.049 A 
HETATM    7  O1  UNL     1      -1.730  -0.058  -0.942  1.00  0.00    -0.326 OA
HETATM    8  C7  UNL     1      -3.025   0.113  -1.526  1.00  0.00     0.181 C 
HETATM    9  C8  UNL     1      -3.354   1.621  -1.678  1.00  0.00     0.245 C 
HETATM   10  C9  UNL     1      -2.225   2.385  -2.354  1.00  0.00     0.210 C 
HETATM   11  O2  UNL     1      -2.510   3.365  -3.004  1.00  0.00    -0.288 OA
HETATM   12  O3  UNL     1      -4.559   1.758  -2.412  1.00  0.00    -0.212 OA
HETATM   13  O6  UNL     1       0.147   3.658  -3.365  1.00  0.00    -0.190 OA
ENDROOT
BRANCH   1  14
HETATM   14  O7  UNL     1       2.992   0.416  -1.352  1.00  0.00    -0.303 OA
BRANCH  14  15
HETATM   15  C16 UNL     1       3.201  -0.293  -0.137  1.00  0.00     0.274 C 
HETATM   16  C17 UNL     1       2.801   0.580   1.074  1.00  0.00     0.241 C 
HETATM   17  C18 UNL     1       3.123  -0.160   2.392  1.00  0.00     0.220 C 
HETATM   18  O11 UNL     1       3.488   1.822   1.008  1.00  0.00    -0.215 OA
HETATM   19  C19 UNL     1       4.586  -0.658   2.389  1.00  0.00     0.212 C 
HETATM   20  O10 UNL     1       2.865   0.668   3.517  1.00  0.00    -0.218 OA
HETATM   21  C20 UNL     1       4.891  -1.467   1.103  1.00  0.00     0.151 C 
HETATM   22  O9  UNL     1       4.815  -1.490   3.512  1.00  0.00    -0.218 OA
HETATM   23  O8  UNL     1       4.567  -0.689  -0.043  1.00  0.00    -0.329 OA
HETATM   24  C21 UNL     1       6.371  -1.846   0.976  1.00  0.00     0.035 C 
ENDBRANCH  14  15
ENDBRANCH   1  14
BRANCH   8  25
HETATM   25  C10 UNL     1      -4.014  -0.625  -0.690  1.00  0.00     0.010 A 
HETATM   26  C11 UNL     1      -4.891  -1.547  -1.285  1.00  0.00     0.000 A 
HETATM   27  C12 UNL     1      -5.822  -2.242  -0.494  1.00  0.00     0.029 A 
HETATM   28  C13 UNL     1      -5.879  -2.018   0.892  1.00  0.00     0.156 A 
HETATM   29  C14 UNL     1      -5.000  -1.096   1.490  1.00  0.00     0.156 A 
HETATM   30  O5  UNL     1      -6.754  -2.674   1.629  1.00  0.00    -0.188 OA
HETATM   31  C15 UNL     1      -4.068  -0.400   0.697  1.00  0.00     0.028 A 
HETATM   32  O4  UNL     1      -5.047  -0.881   2.791  1.00  0.00    -0.188 OA
ENDBRANCH   8  25
TORSDOF 3
