REMARK  2 active torsions:
REMARK  status: ('A' for Active; 'I' for Inactive)
REMARK    1  A    between atoms: C1_1  and  O4_20 
REMARK    2  A    between atoms: C11_11  and  O2_17 
ROOT
HETATM    1  C1  UNL     1      -2.475   1.611   0.283  1.00  0.00     0.115 A 
HETATM    2  C2  UNL     1      -3.523   0.687   0.076  1.00  0.00     0.153 A 
HETATM    3  C3  UNL     1      -3.230  -0.672  -0.158  1.00  0.00     0.029 A 
HETATM    4  C4  UNL     1      -1.891  -1.117  -0.178  1.00  0.00     0.002 A 
HETATM    5  C5  UNL     1      -0.816  -0.209   0.057  1.00  0.00    -0.000 A 
HETATM    6  C6  UNL     1      -1.125   1.172   0.266  1.00  0.00     0.003 A 
HETATM    7  C7  UNL     1      -0.019   2.143   0.469  1.00  0.00     0.033 C 
HETATM    8  C8  UNL     1       1.231   1.764  -0.344  1.00  0.00     0.031 C 
HETATM    9  C9  UNL     1       1.625   0.344  -0.137  1.00  0.00    -0.022 A 
HETATM   10  C10 UNL     1       0.609  -0.643   0.082  1.00  0.00     0.018 A 
HETATM   11  C11 UNL     1       1.010  -1.996   0.324  1.00  0.00     0.096 A 
HETATM   12  C12 UNL     1       2.375  -2.354   0.291  1.00  0.00     0.051 A 
HETATM   13  C13 UNL     1       3.365  -1.383   0.045  1.00  0.00     0.129 A 
HETATM   14  C14 UNL     1       2.998  -0.035  -0.164  1.00  0.00    -0.000 A 
HETATM   15  C15 UNL     1       4.053   0.967  -0.410  1.00  0.00     0.033 C 
HETATM   16  O1  UNL     1       4.656  -1.748   0.014  1.00  0.00    -0.190 OA
HETATM   17  O3  UNL     1      -4.799   1.100   0.100  1.00  0.00    -0.188 OA
ENDROOT
BRANCH   1  18
HETATM   18  O4  UNL     1      -2.766   2.902   0.496  1.00  0.00    -0.326 OA
HETATM   19  C17 UNL     1      -3.793   3.492  -0.287  1.00  0.00     0.181 C 
ENDBRANCH   1  18
BRANCH  11  20
HETATM   20  O2  UNL     1       0.133  -2.969   0.609  1.00  0.00    -0.328 OA
HETATM   21  C16 UNL     1       0.525  -4.313   0.371  1.00  0.00     0.181 C 
ENDBRANCH  11  20
TORSDOF 2
