REMARK  1 active torsions:
REMARK  status: ('A' for Active; 'I' for Inactive)
REMARK    1  A    between atoms: C2_2  and  C15_17 
ROOT
HETATM    1  C1  UNL     1      -1.764   1.305  -0.324  1.00  0.00     0.009 A 
HETATM    2  C2  UNL     1      -3.004   0.635  -0.412  1.00  0.00     0.065 A 
HETATM    3  C3  UNL     1      -3.064  -0.772  -0.285  1.00  0.00     0.006 A 
HETATM    4  C4  UNL     1      -1.877  -1.504  -0.070  1.00  0.00     0.004 A 
HETATM    5  C5  UNL     1      -0.621  -0.846   0.019  1.00  0.00     0.042 A 
HETATM    6  C6  UNL     1       0.608  -1.666   0.248  1.00  0.00     0.196 A 
HETATM    7  O1  UNL     1       0.559  -2.871   0.367  1.00  0.00    -0.287 OA
HETATM    8  C7  UNL     1       1.904  -0.920   0.318  1.00  0.00     0.042 A 
HETATM    9  C8  UNL     1       3.106  -1.653   0.519  1.00  0.00     0.003 A 
HETATM   10  C9  UNL     1       4.350  -0.988   0.588  1.00  0.00     0.000 A 
HETATM   11  C10 UNL     1       4.406   0.416   0.459  1.00  0.00     0.000 A 
HETATM   12  C11 UNL     1       3.219   1.154   0.260  1.00  0.00     0.003 A 
HETATM   13  C12 UNL     1       1.961   0.498   0.187  1.00  0.00     0.042 A 
HETATM   14  C13 UNL     1       0.731   1.322  -0.026  1.00  0.00     0.196 A 
HETATM   15  O2  UNL     1       0.778   2.527  -0.125  1.00  0.00    -0.287 OA
HETATM   16  C14 UNL     1      -0.564   0.574  -0.110  1.00  0.00     0.042 A 
ENDROOT
BRANCH   2  17
HETATM   17  C15 UNL     1      -4.244   1.406  -0.637  1.00  0.00     0.211 C 
HETATM   18  O3  UNL     1      -4.379   2.600  -0.768  1.00  0.00    -0.644 OA
HETATM   19  O4  UNL     1      -5.252   0.537  -0.678  1.00  0.00    -0.644 OA
ENDBRANCH   2  17
TORSDOF 1
