REMARK  2 active torsions:
REMARK  status: ('A' for Active; 'I' for Inactive)
REMARK    1  A    between atoms: C5_5  and  C23_27 
REMARK    2  A    between atoms: C15_15  and  C18_18 
ROOT
HETATM    1  C1  UNL     1       4.322  -0.693  -0.074  1.00  0.00     0.034 C 
HETATM    2  C2  UNL     1       4.477   0.588  -0.891  1.00  0.00     0.155 C 
HETATM    3  C3  UNL     1       3.998   1.777  -0.061  1.00  0.00     0.064 C 
HETATM    4  C4  UNL     1       2.525   1.662   0.424  1.00  0.00     0.136 C 
HETATM    5  C5  UNL     1       2.139   0.242   1.023  1.00  0.00     0.087 C 
HETATM    6  C6  UNL     1       2.844  -0.914   0.244  1.00  0.00     0.013 C 
HETATM    7  C7  UNL     1       0.592  -0.035   0.891  1.00  0.00     0.040 C 
HETATM    8  C8  UNL     1      -0.357   1.191   0.984  1.00  0.00     0.153 C 
HETATM    9  C9  UNL     1       0.035   2.154  -0.188  1.00  0.00     0.035 C 
HETATM   10  C10 UNL     1       1.510   2.055  -0.674  1.00  0.00     0.034 C 
HETATM   11  C11 UNL     1      -1.896   0.744   1.049  1.00  0.00     0.152 C 
HETATM   12  C12 UNL     1      -2.215  -0.682   0.510  1.00  0.00     0.032 C 
HETATM   13  C13 UNL     1      -1.238  -1.764   1.031  1.00  0.00     0.003 C 
HETATM   14  C14 UNL     1       0.043  -1.225   1.689  1.00  0.00     0.003 C 
HETATM   15  C15 UNL     1      -2.172  -0.428  -1.012  1.00  0.00     0.023 C 
HETATM   16  C16 UNL     1      -2.957   0.879  -1.172  1.00  0.00     0.007 C 
HETATM   17  C17 UNL     1      -2.836   1.602   0.174  1.00  0.00     0.033 C 
HETATM   18  C22 UNL     1      -3.662  -1.125   0.809  1.00  0.00     0.003 C 
HETATM   19  O3  UNL     1      -2.406   0.781   2.385  1.00  0.00    -0.224 OA
HETATM   20  O4  UNL     1      -0.039   1.885   2.186  1.00  0.00    -0.223 OA
HETATM   21  O6  UNL     1       2.449   2.693   1.400  1.00  0.00    -0.226 OA
HETATM   22  O7  UNL     1       5.840   0.764  -1.227  1.00  0.00    -0.223 OA
ENDROOT
BRANCH  15  23
HETATM   23  C18 UNL     1      -2.703  -1.551  -1.873  1.00  0.00    -0.009 A 
HETATM   24  C19 UNL     1      -3.600  -1.437  -2.850  1.00  0.00     0.062 A 
HETATM   25  C20 UNL     1      -3.809  -2.770  -3.397  1.00  0.00     0.296 A 
HETATM   26  O1  UNL     1      -3.047  -3.668  -2.758  1.00  0.00    -0.294 OA
HETATM   27  O2  UNL     1      -4.570  -3.004  -4.305  1.00  0.00    -0.259 OA
HETATM   28  C21 UNL     1      -2.285  -2.992  -1.742  1.00  0.00     0.175 A 
ENDBRANCH  15  23
BRANCH   5  29
HETATM   29  C23 UNL     1       2.582   0.123   2.469  1.00  0.00     0.209 C 
HETATM   30  O5  UNL     1       3.301  -0.781   2.826  1.00  0.00    -0.288 OA
ENDBRANCH   5  29
TORSDOF 2
