REMARK  2 active torsions:
REMARK  status: ('A' for Active; 'I' for Inactive)
REMARK    1  A    between atoms: C2_2  and  C9_10 
REMARK    2  A    between atoms: C3_4  and  C6_7 
ROOT
HETATM    1  C1  UNL     1       0.983   1.356   0.172  1.00  0.00     0.034 C 
HETATM    2  C2  UNL     1       1.012  -0.170  -0.047  1.00  0.00     0.134 C 
HETATM    3  O1  UNL     1      -0.182  -0.756   0.471  1.00  0.00    -0.353 OA
HETATM    4  C3  UNL     1      -1.410  -0.291  -0.092  1.00  0.00     0.112 C 
HETATM    5  C4  UNL     1      -1.518   1.236   0.111  1.00  0.00     0.032 C 
HETATM    6  C5  UNL     1      -0.285   1.981  -0.416  1.00  0.00     0.006 C 
HETATM    7  C8  UNL     1      -2.521  -1.018   0.668  1.00  0.00     0.034 C 
ENDROOT
BRANCH   2   8
HETATM    8  C9  UNL     1       2.190  -0.812   0.637  1.00  0.00    -0.017 C 
HETATM    9  C10 UNL     1       2.342  -0.861   2.135  1.00  0.00     0.029 C 
HETATM   10  C11 UNL     1       3.149  -1.367  -0.121  1.00  0.00    -0.007 C 
ENDBRANCH   2   8
BRANCH   4  11
HETATM   11  C6  UNL     1      -1.494  -0.680  -1.549  1.00  0.00     0.000 C 
HETATM   12  C7  UNL     1      -1.912   0.240  -2.436  1.00  0.00    -0.003 C 
ENDBRANCH   4  11
TORSDOF 2
