REMARK  5 active torsions:
REMARK  status: ('A' for Active; 'I' for Inactive)
REMARK    1  A    between atoms: C1_1  and  C2_2 
REMARK    2  A    between atoms: C1_1  and  O2_7 
REMARK    3  A    between atoms: C2_2  and  C3_3 
REMARK    4  A    between atoms: O2_7  and  C6_8 
REMARK    5  A    between atoms: C6_8  and  C7_9 
ROOT
HETATM    1  O2  UNL     1      -0.131   0.434   0.599  1.00  0.00    -0.297 OA
ENDROOT
BRANCH   1   2
HETATM    2  C1  UNL     1       0.551   1.576   0.599  1.00  0.00     0.272 C 
HETATM    3  O1  UNL     1       0.033   2.670   0.599  1.00  0.00    -0.264 OA
BRANCH   2   4
HETATM    4  C2  UNL     1       2.049   1.428   0.599  1.00  0.00     0.096 C 
BRANCH   4   5
HETATM    5  C3  UNL     1       2.645   1.531  -0.805  1.00  0.00     0.010 C 
HETATM    6  C4  UNL     1       4.172   1.600  -0.793  1.00  0.00     0.001 C 
HETATM    7  C5  UNL     1       2.110   0.459  -1.754  1.00  0.00     0.001 C 
ENDBRANCH   4   5
ENDBRANCH   2   4
ENDBRANCH   1   2
BRANCH   1   8
HETATM    8  C6  UNL     1      -1.535   0.643   0.599  1.00  0.00     0.178 C 
BRANCH   8   9
HETATM    9  C7  UNL     1      -2.230  -0.670   0.599  1.00  0.00     0.008 A 
HETATM   10  C8  UNL     1      -3.637  -0.723   0.599  1.00  0.00    -0.002 A 
HETATM   11  C9  UNL     1      -4.295  -1.965   0.599  1.00  0.00    -0.000 A 
HETATM   12  C10 UNL     1      -3.549  -3.156   0.599  1.00  0.00    -0.000 A 
HETATM   13  C11 UNL     1      -2.142  -3.104   0.599  1.00  0.00    -0.000 A 
HETATM   14  C12 UNL     1      -1.484  -1.863   0.599  1.00  0.00    -0.002 A 
ENDBRANCH   8   9
ENDBRANCH   1   8
TORSDOF 5
