REMARK  2 active torsions:
REMARK  status: ('A' for Active; 'I' for Inactive)
REMARK    1  A    between atoms: C1_1  and  C2_2 
REMARK    2  A    between atoms: C3_3  and  C4_4 
ROOT
HETATM    1  C4  UNL     1      -0.379  -0.207  -0.250  1.00  0.00     0.026 A 
HETATM    2  C5  UNL     1      -1.789  -0.256  -0.250  1.00  0.00     0.131 A 
HETATM    3  C6  UNL     1      -2.442  -1.502  -0.250  1.00  0.00     0.027 A 
HETATM    4  C7  UNL     1      -1.695  -2.691  -0.250  1.00  0.00     0.002 A 
HETATM    5  C8  UNL     1      -0.291  -2.640  -0.250  1.00  0.00     0.000 A 
HETATM    6  C9  UNL     1       0.365  -1.400  -0.250  1.00  0.00     0.002 A 
HETATM    7  O1  UNL     1      -2.502   0.854  -0.250  1.00  0.00    -0.190 OA
ENDROOT
BRANCH   1   8
HETATM    8  C3  UNL     1       0.332   1.110  -0.250  1.00  0.00     0.008 C 
HETATM    9  C2  UNL     1       1.492   1.215   0.418  1.00  0.00     0.070 C 
BRANCH   9  10
HETATM   10  C1  UNL     1       2.226   2.485   0.445  1.00  0.00     0.211 C 
HETATM   11  O2  UNL     1       1.793   3.455  -0.131  1.00  0.00    -0.644 OA
HETATM   12  O3  UNL     1       3.365   2.479   1.133  1.00  0.00    -0.644 OA
ENDBRANCH   9  10
ENDBRANCH   1   8
TORSDOF 2
