REMARK  6 active torsions:
REMARK  status: ('A' for Active; 'I' for Inactive)
REMARK    1  A    between atoms: C7_7  and  C15_18 
REMARK    2  A    between atoms: C9_9  and  O2_12 
REMARK    3  A    between atoms: O2_12  and  C11_13 
REMARK    4  A    between atoms: C15_18  and  C16_19 
REMARK    5  A    between atoms: C16_19  and  C17_20 
REMARK    6  A    between atoms: C17_20  and  C18_21 
ROOT
HETATM    1  C1  UNL     1      -3.334   0.178   0.484  1.00  0.00     0.005 C 
HETATM    2  C2  UNL     1      -3.065  -1.305   0.152  1.00  0.00     0.004 C 
HETATM    3  C3  UNL     1      -2.002  -1.967   1.055  1.00  0.00     0.017 C 
HETATM    4  C4  UNL     1      -0.746  -1.102   1.035  1.00  0.00    -0.021 C 
HETATM    5  C5  UNL     1      -0.873   0.244   1.174  1.00  0.00    -0.050 C 
HETATM    6  C6  UNL     1      -2.260   0.824   1.377  1.00  0.00     0.021 C 
HETATM    7  C7  UNL     1       0.307   1.211   1.131  1.00  0.00     0.017 C 
HETATM    8  C8  UNL     1       1.672   0.502   1.281  1.00  0.00     0.034 C 
HETATM    9  C9  UNL     1       1.713  -0.768   0.424  1.00  0.00     0.159 C 
HETATM   10  C10 UNL     1       0.615  -1.758   0.854  1.00  0.00     0.198 C 
HETATM   11  O1  UNL     1       0.977  -2.375   2.074  1.00  0.00    -0.216 OA
HETATM   12  C13 UNL     1       2.850   1.438   0.967  1.00  0.00     0.003 C 
HETATM   13  C14 UNL     1       0.164   2.246   2.254  1.00  0.00     0.004 C 
HETATM   14  C21 UNL     1      -1.750  -3.393   0.545  1.00  0.00     0.004 C 
HETATM   15  C22 UNL     1      -2.512  -2.068   2.496  1.00  0.00     0.004 C 
ENDROOT
BRANCH   7  16
HETATM   16  C15 UNL     1       0.230   1.934  -0.221  1.00  0.00     0.007 C 
BRANCH  16  17
HETATM   17  C16 UNL     1      -0.436   1.090  -1.307  1.00  0.00     0.035 C 
BRANCH  17  18
HETATM   18  C17 UNL     1      -0.117   1.584  -2.717  1.00  0.00     0.145 C 
HETATM   19  C20 UNL     1      -0.070   3.109  -2.811  1.00  0.00     0.038 C 
HETATM   20  O4  UNL     1       1.144   1.080  -3.088  1.00  0.00    -0.222 OA
BRANCH  18  21
HETATM   21  C18 UNL     1      -1.020   0.975  -3.758  1.00  0.00     0.003 C 
HETATM   22  C19 UNL     1      -1.500  -0.262  -3.543  1.00  0.00    -0.002 C 
ENDBRANCH  18  21
ENDBRANCH  17  18
ENDBRANCH  16  17
ENDBRANCH   7  16
BRANCH   9  23
HETATM   23  O2  UNL     1       2.994  -1.383   0.514  1.00  0.00    -0.301 OA
BRANCH  23  24
HETATM   24  C11 UNL     1       3.832  -0.945  -0.422  1.00  0.00     0.272 C 
HETATM   25  O3  UNL     1       3.479  -0.404  -1.443  1.00  0.00    -0.264 OA
HETATM   26  C12 UNL     1       5.293  -1.170  -0.131  1.00  0.00     0.106 C 
ENDBRANCH  23  24
ENDBRANCH   9  23
TORSDOF 6
