REMARK  7 active torsions:
REMARK  status: ('A' for Active; 'I' for Inactive)
REMARK    1  A    between atoms: C2_2  and  O6_24 
REMARK    2  A    between atoms: C6_6  and  C7_7 
REMARK    3  A    between atoms: C8_8  and  C9_9 
REMARK    4  A    between atoms: C9_9  and  C10_10 
REMARK    5  A    between atoms: C10_10  and  O4_21 
REMARK    6  A    between atoms: C11_11  and  O3_19 
REMARK    7  A    between atoms: C15_15  and  O1_16 
ROOT
HETATM    1  C10 UNL     1       0.477  -0.488   2.410  1.00  0.00     0.175 A 
HETATM    2  C11 UNL     1      -0.566   0.600   2.184  1.00  0.00     0.105 A 
HETATM    3  C12 UNL     1      -0.209   1.893   2.055  1.00  0.00     0.065 A 
HETATM    4  C13 UNL     1       1.191   2.318   2.123  1.00  0.00     0.199 A 
HETATM    5  C14 UNL     1       2.225   1.303   2.357  1.00  0.00     0.065 A 
HETATM    6  C15 UNL     1       1.920  -0.002   2.492  1.00  0.00     0.105 A 
HETATM    7  O2  UNL     1       1.490   3.482   1.990  1.00  0.00    -0.286 OA
ENDROOT
BRANCH   1   8
HETATM    8  C9  UNL     1       0.354  -1.555   1.318  1.00  0.00     0.066 C 
BRANCH   8   9
HETATM    9  C8  UNL     1       0.494  -0.979  -0.064  1.00  0.00    -0.023 C 
HETATM   10  C7  UNL     1      -0.518  -1.143  -0.934  1.00  0.00    -0.004 C 
BRANCH  10  11
HETATM   11  C6  UNL     1      -0.381  -0.572  -2.307  1.00  0.00     0.002 A 
HETATM   12  C1  UNL     1      -1.422  -0.727  -3.240  1.00  0.00     0.026 A 
HETATM   13  C2  UNL     1      -1.299  -0.191  -4.533  1.00  0.00     0.119 A 
HETATM   14  C3  UNL     1      -0.129   0.500  -4.898  1.00  0.00     0.153 A 
HETATM   15  C4  UNL     1       0.912   0.654  -3.965  1.00  0.00     0.029 A 
HETATM   16  O5  UNL     1      -0.006   1.006  -6.109  1.00  0.00    -0.188 OA
HETATM   17  C5  UNL     1       0.787   0.119  -2.672  1.00  0.00     0.002 A 
BRANCH  13  18
HETATM   18  O6  UNL     1      -2.279  -0.342  -5.402  1.00  0.00    -0.326 OA
HETATM   19  C19 UNL     1      -3.440  -1.047  -4.986  1.00  0.00     0.181 C 
ENDBRANCH  13  18
ENDBRANCH  10  11
ENDBRANCH   8   9
ENDBRANCH   1   8
BRANCH   1  20
HETATM   20  O4  UNL     1       0.170  -1.131   3.631  1.00  0.00    -0.344 OA
HETATM   21  C18 UNL     1       0.297  -0.285   4.752  1.00  0.00     0.175 C 
ENDBRANCH   1  20
BRANCH   2  22
HETATM   22  O3  UNL     1      -1.859   0.283   2.109  1.00  0.00    -0.330 OA
HETATM   23  C17 UNL     1      -2.672   1.135   2.902  1.00  0.00     0.181 C 
ENDBRANCH   2  22
BRANCH   6  24
HETATM   24  O1  UNL     1       2.906  -0.873   2.699  1.00  0.00    -0.330 OA
HETATM   25  C16 UNL     1       3.791  -0.961   1.592  1.00  0.00     0.181 C 
ENDBRANCH   6  24
TORSDOF 7
