REMARK  0 active torsions:
REMARK  status: ('A' for Active; 'I' for Inactive)
ROOT
HETATM    1  C1  UNL     1      -1.926  -0.219   0.076  1.00  0.00    -0.048 C 
HETATM    2  C2  UNL     1      -1.731   1.104   0.268  1.00  0.00    -0.034 C 
HETATM    3  C3  UNL     1      -0.363   1.744   0.160  1.00  0.00     0.025 C 
HETATM    4  C4  UNL     1       0.629   0.986  -0.725  1.00  0.00     0.004 A 
HETATM    5  C5  UNL     1       0.412  -0.500  -0.938  1.00  0.00     0.004 A 
HETATM    6  C6  UNL     1      -0.791  -1.164  -0.264  1.00  0.00     0.022 C 
HETATM    7  C7  UNL     1       1.607  -0.016  -0.133  1.00  0.00     0.001 A 
HETATM    8  C8  UNL     1       2.980  -0.123  -0.789  1.00  0.00     0.000 C 
HETATM    9  C9  UNL     1       1.617  -0.238   1.375  1.00  0.00     0.000 C 
HETATM   10  C10 UNL     1      -3.311  -0.803   0.197  1.00  0.00     0.026 C 
ENDROOT
TORSDOF 0
