REMARK  2 active torsions:
REMARK  status: ('A' for Active; 'I' for Inactive)
REMARK    1  A    between atoms: C1_2  and  C15_19 
REMARK    2  A    between atoms: C10_12  and  C12_14 
ROOT
HETATM    1  O1  UNL     1      -2.703   0.791   1.086  1.00  0.00    -0.308 OA
HETATM    2  C1  UNL     1      -3.906   0.299   0.723  1.00  0.00     0.114 A 
HETATM    3  C2  UNL     1      -4.039  -0.514  -0.348  1.00  0.00     0.065 A 
HETATM    4  C3  UNL     1      -2.867  -0.896  -1.162  1.00  0.00     0.201 A 
HETATM    5  C4  UNL     1      -1.561  -0.324  -0.715  1.00  0.00     0.087 A 
HETATM    6  C5  UNL     1      -0.352  -0.609  -1.404  1.00  0.00     0.134 A 
HETATM    7  C6  UNL     1       0.857  -0.037  -0.920  1.00  0.00     0.029 A 
HETATM    8  C7  UNL     1       0.881   0.793   0.211  1.00  0.00     0.094 A 
HETATM    9  C8  UNL     1      -0.342   1.063   0.871  1.00  0.00     0.049 A 
HETATM   10  C9  UNL     1      -1.559   0.514   0.426  1.00  0.00     0.107 A 
HETATM   11  O2  UNL     1       2.109   1.221   0.506  1.00  0.00    -0.329 OA
HETATM   12  C10 UNL     1       3.070   0.707  -0.432  1.00  0.00     0.144 A 
HETATM   13  C11 UNL     1       2.264  -0.166  -1.443  1.00  0.00     0.065 A 
HETATM   14  O3  UNL     1      -0.463  -1.412  -2.475  1.00  0.00    -0.190 OA
HETATM   15  O4  UNL     1      -3.072  -1.625  -2.106  1.00  0.00    -0.286 OA
ENDROOT
BRANCH  12  16
HETATM   16  C12 UNL     1       4.137  -0.057   0.314  1.00  0.00    -0.017 C 
HETATM   17  C13 UNL     1       3.840  -1.279   1.143  1.00  0.00     0.029 C 
HETATM   18  C14 UNL     1       5.406   0.373   0.236  1.00  0.00    -0.007 C 
ENDBRANCH  12  16
BRANCH   2  19
HETATM   19  C15 UNL     1      -5.137   0.652   1.514  1.00  0.00     0.233 C 
HETATM   20  O5  UNL     1      -5.846   1.674   0.852  1.00  0.00    -0.213 OA
ENDBRANCH   2  19
TORSDOF 2
