REMARK  7 active torsions:
REMARK  status: ('A' for Active; 'I' for Inactive)
REMARK    1  A    between atoms: C4_4  and  C9_9 
REMARK    2  A    between atoms: C9_9  and  C10_10 
REMARK    3  A    between atoms: C10_10  and  C11_11 
REMARK    4  A    between atoms: C11_11  and  C12_13 
REMARK    5  A    between atoms: C12_13  and  O2_14 
REMARK    6  A    between atoms: O2_14  and  C13_15 
REMARK    7  A    between atoms: C17_22  and  C18_24 
ROOT
HETATM    1  C11 UNL     1       0.707  -0.207  -0.260  1.00  0.00     0.182 C 
HETATM    2  O1  UNL     1       0.354  -1.461  -0.799  1.00  0.00    -0.221 OA
ENDROOT
BRANCH   1   3
HETATM    3  C10 UNL     1      -0.576   0.525   0.133  1.00  0.00     0.036 C 
BRANCH   3   4
HETATM    4  C9  UNL     1      -1.406   0.949  -1.078  1.00  0.00     0.003 C 
BRANCH   4   5
HETATM    5  C4  UNL     1      -2.615   1.816  -0.691  1.00  0.00     0.000 C 
HETATM    6  C3  UNL     1      -2.316   3.316  -0.916  1.00  0.00     0.003 C 
HETATM    7  C2  UNL     1      -3.525   4.193  -0.549  1.00  0.00     0.033 C 
HETATM    8  C19 UNL     1      -1.074   3.768  -0.139  1.00  0.00     0.000 C 
HETATM    9  C1  UNL     1      -4.793   3.740  -1.289  1.00  0.00     0.152 C 
HETATM   10  C6  UNL     1      -5.088   2.254  -1.027  1.00  0.00     0.033 C 
HETATM   11  O8  UNL     1      -5.891   4.518  -0.852  1.00  0.00    -0.224 OA
HETATM   12  C5  UNL     1      -3.902   1.352  -1.420  1.00  0.00     0.003 C 
HETATM   13  C7  UNL     1      -3.701   1.398  -2.941  1.00  0.00     0.000 C 
HETATM   14  C8  UNL     1      -4.227  -0.096  -1.025  1.00  0.00     0.000 C 
ENDBRANCH   4   5
ENDBRANCH   3   4
ENDBRANCH   1   3
BRANCH   1  15
HETATM   15  C12 UNL     1       1.641  -0.443   0.928  1.00  0.00     0.178 C 
BRANCH  15  16
HETATM   16  O2  UNL     1       2.869  -0.930   0.436  1.00  0.00    -0.326 OA
BRANCH  16  17
HETATM   17  C13 UNL     1       3.838  -1.133   1.453  1.00  0.00     0.270 C 
HETATM   18  C14 UNL     1       5.225  -1.508   0.867  1.00  0.00     0.241 C 
HETATM   19  O3  UNL     1       5.643  -0.535  -0.078  1.00  0.00    -0.215 OA
HETATM   20  C15 UNL     1       5.221  -2.920   0.240  1.00  0.00     0.220 C 
HETATM   21  O4  UNL     1       6.545  -3.293  -0.113  1.00  0.00    -0.218 OA
HETATM   22  C16 UNL     1       4.650  -3.928   1.264  1.00  0.00     0.215 C 
HETATM   23  O5  UNL     1       4.469  -5.190   0.645  1.00  0.00    -0.218 OA
HETATM   24  C17 UNL     1       3.293  -3.457   1.836  1.00  0.00     0.184 C 
HETATM   25  O6  UNL     1       3.420  -2.141   2.371  1.00  0.00    -0.326 OA
BRANCH  24  26
HETATM   26  C18 UNL     1       2.791  -4.348   2.979  1.00  0.00     0.214 C 
HETATM   27  O7  UNL     1       1.484  -3.942   3.315  1.00  0.00    -0.218 OA
ENDBRANCH  24  26
ENDBRANCH  16  17
ENDBRANCH  15  16
ENDBRANCH   1  15
TORSDOF 7
