REMARK  5 active torsions:
REMARK  status: ('A' for Active; 'I' for Inactive)
REMARK    1  A    between atoms: C15_17  and  C18_21 
REMARK    2  A    between atoms: C18_21  and  C19_22 
REMARK    3  A    between atoms: C19_22  and  C20_23 
REMARK    4  A    between atoms: C20_23  and  C21_24 
REMARK    5  A    between atoms: C21_24  and  O5_26 
ROOT
HETATM    1  C1  UNL     1      -5.047   0.490   1.213  1.00  0.00     0.065 C 
HETATM    2  C2  UNL     1      -5.705   0.477  -0.139  1.00  0.00     0.150 C 
HETATM    3  C3  UNL     1      -4.996  -0.320  -1.211  1.00  0.00     0.052 C 
HETATM    4  C4  UNL     1      -3.492   0.082  -1.275  1.00  0.00     0.018 C 
HETATM    5  C5  UNL     1      -2.748   0.094   0.094  1.00  0.00     0.023 C 
HETATM    6  C6  UNL     1      -3.580   0.920   1.107  1.00  0.00     0.012 C 
HETATM    7  C7  UNL     1      -1.316   0.627  -0.106  1.00  0.00     0.011 C 
HETATM    8  C8  UNL     1      -0.640   0.330  -1.256  1.00  0.00     0.017 C 
HETATM    9  C9  UNL     1      -1.244  -0.535  -2.303  1.00  0.00     0.169 C 
HETATM   10  C10 UNL     1      -2.732  -0.773  -2.305  1.00  0.00     0.070 C 
HETATM   11  O1  UNL     1      -0.582  -1.070  -3.158  1.00  0.00    -0.292 OA
HETATM   12  C11 UNL     1       0.764   0.928  -1.397  1.00  0.00     0.073 C 
HETATM   13  C12 UNL     1       1.522   0.668  -0.074  1.00  0.00     0.017 C 
HETATM   14  C13 UNL     1       0.873   1.551   0.990  1.00  0.00     0.070 C 
HETATM   15  C14 UNL     1      -0.640   1.457   0.955  1.00  0.00     0.169 C 
HETATM   16  O2  UNL     1      -1.260   2.070   1.791  1.00  0.00    -0.292 OA
HETATM   17  C15 UNL     1       2.988   0.953  -0.447  1.00  0.00     0.009 C 
HETATM   18  C16 UNL     1       3.100   0.225  -1.793  1.00  0.00     0.065 C 
HETATM   19  C17 UNL     1       1.744   0.397  -2.418  1.00  0.00     0.154 C 
HETATM   20  O3  UNL     1       1.514   0.170  -3.582  1.00  0.00    -0.296 OA
HETATM   21  C24 UNL     1       1.432  -0.812   0.338  1.00  0.00     0.001 C 
HETATM   22  C25 UNL     1       0.623   2.420  -1.717  1.00  0.00     0.012 C 
HETATM   23  C26 UNL     1      -2.601  -1.334   0.643  1.00  0.00     0.004 C 
HETATM   24  C27 UNL     1      -5.662  -0.059  -2.568  1.00  0.00     0.007 C 
HETATM   25  C28 UNL     1      -5.176  -1.805  -0.871  1.00  0.00     0.007 C 
HETATM   26  O6  UNL     1      -6.738   1.076  -0.342  1.00  0.00    -0.296 OA
ENDROOT
BRANCH  17  27
HETATM   27  C18 UNL     1       4.020   0.471   0.572  1.00  0.00     0.001 C 
HETATM   28  C23 UNL     1       5.156   1.486   0.668  1.00  0.00     0.000 C 
BRANCH  27  29
HETATM   29  C19 UNL     1       4.506  -0.926   0.182  1.00  0.00     0.010 C 
BRANCH  29  30
HETATM   30  C20 UNL     1       5.447  -1.533   1.221  1.00  0.00     0.096 C 
BRANCH  30  31
HETATM   31  C21 UNL     1       4.780  -1.730   2.557  1.00  0.00     0.272 C 
HETATM   32  O4  UNL     1       4.295  -2.797   2.857  1.00  0.00    -0.264 OA
BRANCH  31  33
HETATM   33  O5  UNL     1       4.772  -0.664   3.348  1.00  0.00    -0.299 OA
HETATM   34  C22 UNL     1       3.914  -0.828   4.469  1.00  0.00     0.184 C 
ENDBRANCH  31  33
ENDBRANCH  30  31
ENDBRANCH  29  30
ENDBRANCH  27  29
ENDBRANCH  17  27
TORSDOF 5
