REMARK  4 active torsions:
REMARK  status: ('A' for Active; 'I' for Inactive)
REMARK    1  A    between atoms: C7_7  and  C9_9 
REMARK    2  A    between atoms: C9_9  and  C10_10 
REMARK    3  A    between atoms: C11_11  and  C12_12 
REMARK    4  A    between atoms: C12_12  and  C14_15 
ROOT
HETATM    1  C1  UNL     1      -1.640  -0.450   1.238  1.00  0.00     0.000 C 
HETATM    2  C2  UNL     1      -0.946  -1.854   1.297  1.00  0.00     0.000 C 
HETATM    3  C3  UNL     1       0.561  -1.543   1.527  1.00  0.00     0.000 C 
HETATM    4  C4  UNL     1       0.668  -0.599   0.307  1.00  0.00     0.000 A 
HETATM    5  C5  UNL     1      -0.743   0.056   0.094  1.00  0.00     0.000 A 
HETATM    6  C6  UNL     1      -0.290  -1.126  -0.723  1.00  0.00     0.000 A 
HETATM    7  C7  UNL     1      -0.984  -2.352  -0.189  1.00  0.00     0.004 C 
HETATM    8  C8  UNL     1      -0.167  -3.644  -0.393  1.00  0.00     0.000 C 
HETATM    9  C15 UNL     1       0.057  -0.840  -2.194  1.00  0.00     0.000 C 
ENDROOT
BRANCH   7  10
HETATM   10  C9  UNL     1      -2.401  -2.511  -0.772  1.00  0.00     0.026 C 
BRANCH  10  11
HETATM   11  C10 UNL     1      -3.195  -3.606  -0.123  1.00  0.00    -0.028 C 
HETATM   12  C11 UNL     1      -4.402  -3.852  -0.622  1.00  0.00     0.001 C 
BRANCH  12  13
HETATM   13  C12 UNL     1      -5.333  -4.878  -0.045  1.00  0.00     0.175 C 
HETATM   14  C13 UNL     1      -4.841  -5.363   1.335  1.00  0.00     0.040 C 
HETATM   15  O1  UNL     1      -5.430  -5.989  -0.941  1.00  0.00    -0.219 OA
BRANCH  13  16
HETATM   16  C14 UNL     1      -6.723  -4.226   0.068  1.00  0.00     0.217 C 
HETATM   17  O2  UNL     1      -7.672  -5.154   0.581  1.00  0.00    -0.218 OA
ENDBRANCH  13  16
ENDBRANCH  12  13
ENDBRANCH  10  11
ENDBRANCH   7  10
TORSDOF 4
