REMARK  0 active torsions:
REMARK  status: ('A' for Active; 'I' for Inactive)
ROOT
HETATM    1  C1  UNL     1       2.389   0.109  -0.385  1.00  0.00     0.001 C 
HETATM    2  C2  UNL     1       1.955  -1.334  -0.723  1.00  0.00     0.004 C 
HETATM    3  C3  UNL     1       0.480  -0.867  -0.707  1.00  0.00     0.018 C 
HETATM    4  C4  UNL     1       0.941   0.352   0.141  1.00  0.00     0.004 C 
HETATM    5  C5  UNL     1       0.316   1.725  -0.174  1.00  0.00     0.003 C 
HETATM    6  C6  UNL     1      -1.189   1.768  -0.467  1.00  0.00     0.030 C 
HETATM    7  C7  UNL     1      -2.041   1.145   0.648  1.00  0.00     0.118 A 
HETATM    8  C8  UNL     1      -2.824  -0.209   0.459  1.00  0.00     0.140 A 
HETATM    9  C9  UNL     1      -2.744  -1.039  -0.828  1.00  0.00     0.036 C 
HETATM   10  C10 UNL     1      -1.785  -2.221  -0.625  1.00  0.00     0.025 C 
HETATM   11  C11 UNL     1      -0.467  -1.838   0.014  1.00  0.00    -0.044 C 
HETATM   12  C12 UNL     1      -0.152  -2.361   1.213  1.00  0.00    -0.009 C 
HETATM   13  O1  UNL     1      -3.361   1.049   0.203  1.00  0.00    -0.357 OA
HETATM   14  C13 UNL     1      -2.051   1.803   2.022  1.00  0.00     0.032 C 
HETATM   15  C14 UNL     1       3.447   0.189   0.709  1.00  0.00     0.000 C 
HETATM   16  C15 UNL     1       2.814   0.889  -1.627  1.00  0.00     0.000 C 
ENDROOT
TORSDOF 0
