REMARK  5 active torsions:
REMARK  status: ('A' for Active; 'I' for Inactive)
REMARK    1  A    between atoms: C4_4  and  C8_9 
REMARK    2  A    between atoms: C6_6  and  O1_7 
REMARK    3  A    between atoms: C8_9  and  C9_10 
REMARK    4  A    between atoms: C9_10  and  C10_11 
REMARK    5  A    between atoms: C15_16  and  O2_17 
ROOT
HETATM    1  C8  UNL     1      -0.656   0.523  -0.629  1.00  0.00     0.031 C 
ENDROOT
BRANCH   1   2
HETATM    2  C4  UNL     1      -1.353  -0.789  -0.629  1.00  0.00    -0.018 A 
HETATM    3  C3  UNL     1      -2.758  -0.842  -0.629  1.00  0.00     0.023 A 
HETATM    4  C2  UNL     1      -3.418  -2.082  -0.629  1.00  0.00     0.133 A 
HETATM    5  C1  UNL     1      -2.668  -3.272  -0.629  1.00  0.00     0.051 A 
HETATM    6  O4  UNL     1      -4.736  -2.131  -0.629  1.00  0.00    -0.190 OA
HETATM    7  C6  UNL     1      -1.262  -3.225  -0.629  1.00  0.00     0.096 A 
HETATM    8  C5  UNL     1      -0.607  -1.980  -0.629  1.00  0.00     0.020 A 
BRANCH   7   9
HETATM    9  O1  UNL     1      -0.562  -4.342  -0.629  1.00  0.00    -0.328 OA
HETATM   10  C7  UNL     1      -1.271  -5.572  -0.580  1.00  0.00     0.181 C 
ENDBRANCH   7   9
ENDBRANCH   1   2
BRANCH   1  11
HETATM   11  C9  UNL     1       0.016   0.803   0.715  1.00  0.00     0.033 C 
BRANCH  11  12
HETATM   12  C10 UNL     1       0.680   2.135   0.729  1.00  0.00     0.003 A 
HETATM   13  C11 UNL     1       0.004   3.242   1.272  1.00  0.00    -0.002 A 
HETATM   14  C12 UNL     1       0.621   4.504   1.289  1.00  0.00     0.002 A 
HETATM   15  C13 UNL     1       1.914   4.658   0.764  1.00  0.00     0.029 A 
HETATM   16  C14 UNL     1       2.594   3.555   0.219  1.00  0.00     0.153 A 
HETATM   17  C15 UNL     1       1.977   2.289   0.201  1.00  0.00     0.115 A 
HETATM   18  O3  UNL     1       3.807   3.709  -0.271  1.00  0.00    -0.188 OA
BRANCH  17  19
HETATM   19  O2  UNL     1       2.615   1.254  -0.308  1.00  0.00    -0.326 OA
HETATM   20  C16 UNL     1       3.815   0.832   0.323  1.00  0.00     0.181 C 
ENDBRANCH  17  19
ENDBRANCH  11  12
ENDBRANCH   1  11
TORSDOF 5
