REMARK  0 active torsions:
REMARK  status: ('A' for Active; 'I' for Inactive)
ROOT
HETATM    1  C1  UNL     1       2.014   0.980  -0.791  1.00  0.00     0.186 C 
HETATM    2  C2  UNL     1       3.385   1.494  -0.297  1.00  0.00     0.041 C 
HETATM    3  C3  UNL     1       4.164   0.297   0.262  1.00  0.00     0.034 C 
HETATM    4  C4  UNL     1       3.420  -0.934  -0.260  1.00  0.00     0.158 C 
HETATM    5  C5  UNL     1       1.945  -0.463  -0.203  1.00  0.00     0.100 C 
HETATM    6  C6  UNL     1       0.826  -1.422  -0.746  1.00  0.00     0.178 C 
HETATM    7  C7  UNL     1      -0.317  -1.797   0.187  1.00  0.00     0.016 C 
HETATM    8  C8  UNL     1      -1.610  -2.297  -0.447  1.00  0.00     0.173 C 
HETATM    9  C9  UNL     1      -2.664  -1.205  -0.719  1.00  0.00     0.038 C 
HETATM   10  C10 UNL     1      -3.123  -0.414   0.516  1.00  0.00     0.007 A 
HETATM   11  C11 UNL     1      -2.582   0.973   0.830  1.00  0.00     0.022 A 
HETATM   12  C12 UNL     1      -1.500   1.543  -0.076  1.00  0.00    -0.028 C 
HETATM   13  C13 UNL     1      -0.235   1.586   0.398  1.00  0.00     0.011 C 
HETATM   14  C14 UNL     1       0.902   1.969  -0.461  1.00  0.00     0.196 C 
HETATM   15  O1  UNL     1       0.932   3.094  -0.906  1.00  0.00    -0.289 OA
HETATM   16  C15 UNL     1       0.066   1.244   1.838  1.00  0.00     0.034 C 
HETATM   17  C16 UNL     1      -4.004   0.807   0.314  1.00  0.00     0.004 A 
HETATM   18  C17 UNL     1      -5.143   1.000   1.305  1.00  0.00     0.000 C 
HETATM   19  C18 UNL     1      -4.324   1.262  -1.107  1.00  0.00     0.000 C 
HETATM   20  O2  UNL     1      -2.199  -3.338   0.312  1.00  0.00    -0.219 OA
HETATM   21  C19 UNL     1      -0.194  -1.721   1.529  1.00  0.00    -0.004 C 
HETATM   22  O3  UNL     1       1.383  -2.650  -1.178  1.00  0.00    -0.219 OA
HETATM   23  O4  UNL     1       3.853  -1.260  -1.572  1.00  0.00    -0.223 OA
HETATM   24  C20 UNL     1       5.658   0.354  -0.063  1.00  0.00     0.003 C 
HETATM   25  O5  UNL     1       2.053   0.893  -2.209  1.00  0.00    -0.218 OA
ENDROOT
TORSDOF 0
