REMARK  5 active torsions:
REMARK  status: ('A' for Active; 'I' for Inactive)
REMARK    1  A    between atoms: C3_3  and  O4_11 
REMARK    2  A    between atoms: C5_6  and  C6_7 
REMARK    3  A    between atoms: C6_7  and  O3_9 
REMARK    4  A    between atoms: O4_11  and  C8_12 
REMARK    5  A    between atoms: C12_16  and  C14_19 
ROOT
HETATM    1  C1  UNL     1       1.451  -2.449  -0.475  1.00  0.00     0.037 C 
HETATM    2  C2  UNL     1       1.428  -1.348   0.582  1.00  0.00     0.064 C 
HETATM    3  C3  UNL     1       0.209  -0.496   0.211  1.00  0.00     0.242 C 
HETATM    4  O1  UNL     1      -0.994  -1.271   0.330  1.00  0.00    -0.304 OA
HETATM    5  C4  UNL     1      -0.977  -2.551  -0.104  1.00  0.00     0.120 C 
HETATM    6  C5  UNL     1       0.141  -3.201  -0.500  1.00  0.00     0.065 C 
HETATM    7  C15 UNL     1       2.840  -0.777   0.447  1.00  0.00     0.036 C 
HETATM    8  C16 UNL     1       3.691  -2.049   0.226  1.00  0.00     0.153 C 
HETATM    9  C17 UNL     1       2.707  -3.199  -0.043  1.00  0.00     0.038 C 
HETATM   10  O10 UNL     1       4.492  -2.365   1.350  1.00  0.00    -0.223 OA
HETATM   11  C18 UNL     1       3.201   0.111   1.639  1.00  0.00     0.003 C 
ENDROOT
BRANCH   3  12
HETATM   12  O4  UNL     1       0.125   0.621   1.070  1.00  0.00    -0.304 OA
BRANCH  12  13
HETATM   13  C8  UNL     1      -0.936   1.496   0.744  1.00  0.00     0.272 C 
HETATM   14  C9  UNL     1      -1.096   2.576   1.855  1.00  0.00     0.241 C 
HETATM   15  C10 UNL     1      -1.674   3.914   1.301  1.00  0.00     0.220 C 
HETATM   16  O9  UNL     1      -1.918   2.016   2.867  1.00  0.00    -0.215 OA
HETATM   17  C11 UNL     1      -2.551   3.621   0.062  1.00  0.00     0.212 C 
HETATM   18  O8  UNL     1      -2.375   4.656   2.287  1.00  0.00    -0.218 OA
HETATM   19  C12 UNL     1      -1.744   2.883  -1.057  1.00  0.00     0.156 C 
HETATM   20  O7  UNL     1      -3.135   4.807  -0.451  1.00  0.00    -0.218 OA
HETATM   21  O5  UNL     1      -0.668   2.125  -0.500  1.00  0.00    -0.329 OA
HETATM   22  C13 UNL     1      -2.637   1.899  -1.822  1.00  0.00     0.035 C 
BRANCH  19  23
HETATM   23  C14 UNL     1      -1.051   3.830  -2.045  1.00  0.00     0.212 C 
HETATM   24  O6  UNL     1      -0.215   4.699  -1.313  1.00  0.00    -0.218 OA
ENDBRANCH  19  23
ENDBRANCH  12  13
ENDBRANCH   3  12
BRANCH   6  25
HETATM   25  C6  UNL     1       0.107  -4.604  -0.945  1.00  0.00     0.294 C 
HETATM   26  O2  UNL     1       0.947  -5.021  -1.709  1.00  0.00    -0.259 OA
BRANCH  25  27
HETATM   27  O3  UNL     1      -0.885  -5.342  -0.457  1.00  0.00    -0.296 OA
HETATM   28  C7  UNL     1      -0.852  -6.678  -0.938  1.00  0.00     0.185 C 
ENDBRANCH  25  27
ENDBRANCH   6  25
TORSDOF 5
