REMARK  4 active torsions:
REMARK  status: ('A' for Active; 'I' for Inactive)
REMARK    1  A    between atoms: C1_1  and  C11_15 
REMARK    2  A    between atoms: C6_7  and  O3_12 
REMARK    3  A    between atoms: C11_15  and  C12_16 
REMARK    4  A    between atoms: C12_16  and  C13_17 
ROOT
HETATM    1  C1  UNL     1       0.621  -0.504  -0.344  1.00  0.00     0.081 A 
HETATM    2  C2  UNL     1       0.885  -1.738   0.141  1.00  0.00     0.062 A 
HETATM    3  C3  UNL     1      -0.209  -2.660   0.506  1.00  0.00     0.201 A 
HETATM    4  O1  UNL     1       0.105  -3.748   0.934  1.00  0.00    -0.286 OA
HETATM    5  C4  UNL     1      -1.584  -2.129   0.303  1.00  0.00     0.089 A 
HETATM    6  C5  UNL     1      -2.729  -2.908   0.615  1.00  0.00     0.158 A 
HETATM    7  C6  UNL     1      -4.022  -2.367   0.406  1.00  0.00     0.120 A 
HETATM    8  C7  UNL     1      -4.170  -1.059  -0.111  1.00  0.00     0.028 A 
HETATM    9  C8  UNL     1      -3.029  -0.283  -0.422  1.00  0.00     0.027 A 
HETATM   10  C9  UNL     1      -1.732  -0.814  -0.217  1.00  0.00     0.105 A 
HETATM   11  O2  UNL     1      -0.645  -0.068  -0.514  1.00  0.00    -0.311 OA
HETATM   12  O4  UNL     1      -2.600  -4.148   1.106  1.00  0.00    -0.188 OA
ENDROOT
BRANCH   1  13
HETATM   13  C11 UNL     1       1.783   0.389  -0.697  1.00  0.00     0.056 C 
BRANCH  13  14
HETATM   14  C12 UNL     1       2.033   1.465   0.357  1.00  0.00     0.033 C 
BRANCH  14  15
HETATM   15  C13 UNL     1       3.184   2.332  -0.008  1.00  0.00    -0.022 A 
HETATM   16  C14 UNL     1       2.975   3.496  -0.768  1.00  0.00    -0.004 A 
HETATM   17  C15 UNL     1       4.064   4.317  -1.111  1.00  0.00    -0.000 A 
HETATM   18  C16 UNL     1       5.361   3.973  -0.697  1.00  0.00    -0.000 A 
HETATM   19  C17 UNL     1       5.570   2.809   0.063  1.00  0.00    -0.000 A 
HETATM   20  C18 UNL     1       4.482   1.988   0.408  1.00  0.00    -0.004 A 
ENDBRANCH  14  15
ENDBRANCH  13  14
ENDBRANCH   1  13
BRANCH   7  21
HETATM   21  O3  UNL     1      -5.108  -3.096   0.699  1.00  0.00    -0.326 OA
HETATM   22  C10 UNL     1      -6.381  -2.496   0.516  1.00  0.00     0.181 C 
ENDBRANCH   7  21
TORSDOF 4
