REMARK  10 active torsions:
REMARK  status: ('A' for Active; 'I' for Inactive)
REMARK    1  A    between atoms: C4_4  and  O5_25 
REMARK    2  A    between atoms: C7_7  and  C20_21 
REMARK    3  A    between atoms: O5_25  and  O6_26 
REMARK    4  A    between atoms: O6_26  and  C21_27 
REMARK    5  A    between atoms: C22_28  and  C23_29 
REMARK    6  A    between atoms: C24_30  and  C25_31 
REMARK    7  A    between atoms: C26_32  and  C27_33 
REMARK    8  A    between atoms: C28_34  and  C29_35 
REMARK    9  A    between atoms: C30_36  and  C31_37 
REMARK   10  A    between atoms: C32_38  and  C33_39 
ROOT
HETATM    1  C33 UNL     1      16.209  -3.551  -5.031  1.00  0.00    -0.013 C 
HETATM    2  C34 UNL     1      17.268  -3.785  -5.524  1.00  0.00    -0.077 C 
HETATM    3  C35 UNL     1      18.565  -4.070  -6.127  1.00  0.00     0.091 C 
ENDROOT
BRANCH   1   4
HETATM    4  C32 UNL     1      14.983  -3.279  -4.461  1.00  0.00    -0.001 C 
HETATM    5  C31 UNL     1      13.924  -3.047  -3.969  1.00  0.00    -0.000 C 
BRANCH   5   6
HETATM    6  C30 UNL     1      12.697  -2.775  -3.398  1.00  0.00    -0.000 C 
HETATM    7  C29 UNL     1      11.639  -2.543  -2.906  1.00  0.00    -0.000 C 
BRANCH   7   8
HETATM    8  C28 UNL     1      10.412  -2.271  -2.336  1.00  0.00     0.000 C 
HETATM    9  C27 UNL     1       9.354  -2.039  -1.844  1.00  0.00     0.000 C 
BRANCH   9  10
HETATM   10  C26 UNL     1       8.127  -1.768  -1.273  1.00  0.00     0.000 C 
HETATM   11  C25 UNL     1       7.068  -1.535  -0.781  1.00  0.00     0.000 C 
BRANCH  11  12
HETATM   12  C24 UNL     1       5.842  -1.264  -0.211  1.00  0.00     0.000 C 
HETATM   13  C23 UNL     1       4.783  -1.031   0.281  1.00  0.00     0.001 C 
BRANCH  13  14
HETATM   14  C22 UNL     1       3.557  -0.760   0.852  1.00  0.00     0.019 C 
HETATM   15  C21 UNL     1       2.498  -0.527   1.344  1.00  0.00     0.107 C 
BRANCH  15  16
HETATM   16  O6  UNL     1       1.297  -0.262   1.902  1.00  0.00    -0.141 OA
BRANCH  16  17
HETATM   17  O5  UNL     1       0.531   0.316   0.863  1.00  0.00    -0.203 OA
BRANCH  17  18
HETATM   18  C4  UNL     1      -0.733   0.590   1.449  1.00  0.00     0.203 C 
HETATM   19  C3  UNL     1      -0.686   1.766   2.377  1.00  0.00    -0.015 C 
HETATM   20  C2  UNL     1      -1.826   2.457   2.314  1.00  0.00    -0.023 C 
HETATM   21  C36 UNL     1       0.488   2.113   3.256  1.00  0.00     0.029 C 
HETATM   22  C1  UNL     1      -2.817   1.836   1.344  1.00  0.00     0.101 C 
HETATM   23  C5  UNL     1      -1.848   0.975   0.420  1.00  0.00     0.199 C 
HETATM   24  C10 UNL     1      -3.736   0.943   2.160  1.00  0.00     0.160 C 
HETATM   25  C15 UNL     1      -3.658   2.994   0.711  1.00  0.00     0.014 C 
HETATM   26  C6  UNL     1      -2.268  -0.336  -0.330  1.00  0.00     0.204 C 
HETATM   27  O4  UNL     1      -1.274   1.852  -0.551  1.00  0.00    -0.219 OA
HETATM   28  C7  UNL     1      -2.844  -1.475   0.508  1.00  0.00     0.017 C 
HETATM   29  O3  UNL     1      -3.139  -0.062  -1.418  1.00  0.00    -0.216 OA
HETATM   30  C8  UNL     1      -3.930  -1.328   1.295  1.00  0.00    -0.023 C 
HETATM   31  C9  UNL     1      -4.617   0.006   1.385  1.00  0.00     0.079 C 
HETATM   32  C11 UNL     1      -6.049   0.027   1.895  1.00  0.00     0.011 A 
HETATM   33  C12 UNL     1      -6.768   1.363   1.883  1.00  0.00     0.001 A 
HETATM   34  C17 UNL     1      -7.248   0.238   0.977  1.00  0.00     0.001 A 
HETATM   35  C13 UNL     1      -6.195   2.695   1.338  1.00  0.00     0.000 C 
HETATM   36  C14 UNL     1      -5.125   2.850   0.207  1.00  0.00     0.001 C 
HETATM   37  C16 UNL     1      -5.465   4.102  -0.615  1.00  0.00     0.000 C 
HETATM   38  C18 UNL     1      -7.053   0.348  -0.531  1.00  0.00     0.000 C 
HETATM   39  C19 UNL     1      -8.545  -0.459   1.369  1.00  0.00     0.000 C 
HETATM   40  O1  UNL     1      -3.777   0.973   3.369  1.00  0.00    -0.295 OA
BRANCH  28  41
HETATM   41  C20 UNL     1      -2.154  -2.814   0.441  1.00  0.00     0.207 C 
HETATM   42  O2  UNL     1      -1.006  -2.793   1.260  1.00  0.00    -0.216 OA
ENDBRANCH  28  41
ENDBRANCH  17  18
ENDBRANCH  16  17
ENDBRANCH  15  16
ENDBRANCH  13  14
ENDBRANCH  11  12
ENDBRANCH   9  10
ENDBRANCH   7   8
ENDBRANCH   5   6
ENDBRANCH   1   4
TORSDOF 10
