REMARK  4 active torsions:
REMARK  status: ('A' for Active; 'I' for Inactive)
REMARK    1  A    between atoms: C1_1  and  C7_7 
REMARK    2  A    between atoms: C14_16  and  O3_18 
REMARK    3  A    between atoms: O3_18  and  C16_19 
REMARK    4  A    between atoms: C17_21  and  C21_28 
ROOT
HETATM    1  C7  UNL     1       4.105  -0.478   1.170  1.00  0.00     0.103 A 
HETATM    2  O1  UNL     1       2.838  -0.047   1.002  1.00  0.00    -0.307 OA
HETATM    3  C8  UNL     1       1.750  -0.791   1.299  1.00  0.00     0.107 A 
HETATM    4  C9  UNL     1       1.900  -2.105   1.818  1.00  0.00     0.089 A 
HETATM    5  C10 UNL     1       3.277  -2.637   2.021  1.00  0.00     0.202 A 
HETATM    6  C11 UNL     1       4.371  -1.713   1.654  1.00  0.00     0.067 A 
HETATM    7  O2  UNL     1       3.594  -3.725   2.447  1.00  0.00    -0.286 OA
HETATM    8  C12 UNL     1       0.758  -2.887   2.131  1.00  0.00     0.163 A 
HETATM    9  C13 UNL     1      -0.535  -2.348   1.924  1.00  0.00     0.179 A 
HETATM   10  C14 UNL     1      -0.686  -1.039   1.404  1.00  0.00     0.126 A 
HETATM   11  C15 UNL     1       0.455  -0.262   1.094  1.00  0.00     0.051 A 
HETATM   12  O8  UNL     1      -1.619  -3.080   2.217  1.00  0.00    -0.186 OA
HETATM   13  O9  UNL     1       0.889  -4.129   2.621  1.00  0.00    -0.188 OA
ENDROOT
BRANCH  10  14
HETATM   14  O3  UNL     1      -1.910  -0.531   1.209  1.00  0.00    -0.301 OA
BRANCH  14  15
HETATM   15  C16 UNL     1      -2.190   0.070  -0.049  1.00  0.00     0.275 C 
HETATM   16  O4  UNL     1      -3.397   0.813   0.053  1.00  0.00    -0.324 OA
HETATM   17  C17 UNL     1      -3.777   1.512  -1.127  1.00  0.00     0.169 C 
HETATM   18  C18 UNL     1      -4.004   0.496  -2.274  1.00  0.00     0.216 C 
HETATM   19  C19 UNL     1      -2.766  -0.404  -2.482  1.00  0.00     0.220 C 
HETATM   20  O7  UNL     1      -4.281   1.207  -3.467  1.00  0.00    -0.218 OA
HETATM   21  C20 UNL     1      -2.336  -1.019  -1.133  1.00  0.00     0.241 C 
HETATM   22  O6  UNL     1      -3.070  -1.435  -3.406  1.00  0.00    -0.218 OA
HETATM   23  O5  UNL     1      -1.096  -1.687  -1.277  1.00  0.00    -0.215 OA
BRANCH  17  24
HETATM   24  C21 UNL     1      -5.008   2.322  -0.807  1.00  0.00    -0.015 C 
HETATM   25  C22 UNL     1      -6.252   1.723  -0.207  1.00  0.00     0.029 C 
HETATM   26  C23 UNL     1      -4.994   3.641  -1.066  1.00  0.00    -0.007 C 
ENDBRANCH  17  24
ENDBRANCH  14  15
ENDBRANCH  10  14
BRANCH   1  27
HETATM   27  C1  UNL     1       5.250   0.416   0.814  1.00  0.00     0.023 A 
HETATM   28  C2  UNL     1       6.477   0.293   1.492  1.00  0.00     0.002 A 
HETATM   29  C3  UNL     1       7.551   1.135   1.158  1.00  0.00     0.000 A 
HETATM   30  C4  UNL     1       7.402   2.102   0.148  1.00  0.00     0.000 A 
HETATM   31  C5  UNL     1       6.176   2.225  -0.529  1.00  0.00     0.000 A 
HETATM   32  C6  UNL     1       5.100   1.383  -0.197  1.00  0.00     0.002 A 
ENDBRANCH   1  27
TORSDOF 4
