REMARK  8 active torsions:
REMARK  status: ('A' for Active; 'I' for Inactive)
REMARK    1  A    between atoms: C3_3  and  C10_13 
REMARK    2  A    between atoms: C5_5  and  C7_7 
REMARK    3  A    between atoms: C7_7  and  C8_8 
REMARK    4  A    between atoms: C8_8  and  O2_10 
REMARK    5  A    between atoms: C10_13  and  C11_14 
REMARK    6  A    between atoms: C12_15  and  C13_16 
REMARK    7  A    between atoms: C13_16  and  C14_17 
REMARK    8  A    between atoms: C14_17  and  C15_18 
ROOT
HETATM    1  C1  UNL     1       3.129  -2.547   1.039  1.00  0.00     0.131 A 
HETATM    2  C2  UNL     1       1.725  -2.594   1.039  1.00  0.00     0.025 A 
HETATM    3  C3  UNL     1       0.977  -1.404   1.039  1.00  0.00     0.009 A 
HETATM    4  C4  UNL     1       1.631  -0.156   1.039  1.00  0.00     0.124 A 
HETATM    5  C5  UNL     1       3.039  -0.111   1.039  1.00  0.00     0.015 A 
HETATM    6  C6  UNL     1       3.783  -1.303   1.039  1.00  0.00     0.026 A 
HETATM    7  O3  UNL     1       0.930   0.961   1.039  1.00  0.00    -0.191 OA
HETATM    8  O4  UNL     1       3.828  -3.664   1.039  1.00  0.00    -0.190 OA
ENDROOT
BRANCH   3   9
HETATM    9  C10 UNL     1      -0.510  -1.471   1.039  1.00  0.00     0.054 C 
BRANCH   9  10
HETATM   10  C11 UNL     1      -1.086  -1.281  -0.340  1.00  0.00    -0.030 C 
HETATM   11  C12 UNL     1      -2.398  -1.502  -0.522  1.00  0.00    -0.048 C 
HETATM   12  C19 UNL     1      -3.226  -1.930   0.660  1.00  0.00     0.026 C 
BRANCH  11  13
HETATM   13  C13 UNL     1      -3.131  -1.357  -1.828  1.00  0.00     0.026 C 
BRANCH  13  14
HETATM   14  C14 UNL     1      -4.033  -0.125  -1.859  1.00  0.00     0.030 C 
BRANCH  14  15
HETATM   15  C15 UNL     1      -3.260   1.158  -1.701  1.00  0.00    -0.034 C 
HETATM   16  C16 UNL     1      -3.840   2.307  -2.084  1.00  0.00    -0.048 C 
HETATM   17  C17 UNL     1      -3.184   3.662  -2.057  1.00  0.00     0.026 C 
HETATM   18  C18 UNL     1      -5.258   2.264  -2.586  1.00  0.00     0.026 C 
ENDBRANCH  14  15
ENDBRANCH  13  14
ENDBRANCH  11  13
ENDBRANCH   9  10
ENDBRANCH   3   9
BRANCH   5  19
HETATM   19  C7  UNL     1       3.748   1.197   1.039  1.00  0.00     0.124 C 
BRANCH  19  20
HETATM   20  C8  UNL     1       5.223   1.043   1.291  1.00  0.00     0.277 C 
HETATM   21  O1  UNL     1       6.014   1.045   0.377  1.00  0.00    -0.264 OA
BRANCH  20  22
HETATM   22  O2  UNL     1       5.569   0.906   2.568  1.00  0.00    -0.299 OA
HETATM   23  C9  UNL     1       6.971   0.766   2.738  1.00  0.00     0.184 C 
ENDBRANCH  20  22
ENDBRANCH  19  20
ENDBRANCH   5  19
TORSDOF 8
