REMARK  4 active torsions:
REMARK  status: ('A' for Active; 'I' for Inactive)
REMARK    1  A    between atoms: C4_4  and  C7_7 
REMARK    2  A    between atoms: C7_7  and  C9_9 
REMARK    3  A    between atoms: C9_9  and  C10_10 
REMARK    4  A    between atoms: C10_10  and  C11_11 
ROOT
HETATM    1  C7  UNL     1      -0.104   0.975   0.857  1.00  0.00     0.026 C 
HETATM    2  C8  UNL     1      -0.756   0.252   2.037  1.00  0.00     0.005 C 
ENDROOT
BRANCH   1   3
HETATM    3  C4  UNL     1       1.326   0.553   0.644  1.00  0.00    -0.044 C 
HETATM    4  C3  UNL     1       2.346   1.404   0.869  1.00  0.00    -0.009 C 
HETATM    5  C2  UNL     1       3.748   0.975   0.699  1.00  0.00    -0.009 C 
HETATM    6  C1  UNL     1       4.063  -0.330   0.580  1.00  0.00    -0.044 C 
HETATM    7  C6  UNL     1       2.975  -1.379   0.668  1.00  0.00     0.026 C 
HETATM    8  C15 UNL     1       5.488  -0.769   0.361  1.00  0.00     0.026 C 
HETATM    9  C5  UNL     1       1.613  -0.857   0.166  1.00  0.00     0.026 C 
ENDBRANCH   1   3
BRANCH   1  10
HETATM   10  C9  UNL     1      -0.936   0.883  -0.422  1.00  0.00     0.073 C 
BRANCH  10  11
HETATM   11  C10 UNL     1      -2.275   1.557  -0.285  1.00  0.00     0.173 C 
HETATM   12  O1  UNL     1      -2.363   2.760  -0.223  1.00  0.00    -0.291 OA
BRANCH  11  13
HETATM   13  C11 UNL     1      -3.481   0.721  -0.229  1.00  0.00     0.029 C 
HETATM   14  C12 UNL     1      -3.785  -0.111  -1.238  1.00  0.00    -0.041 C 
HETATM   15  C13 UNL     1      -2.988  -0.266  -2.506  1.00  0.00     0.026 C 
HETATM   16  C14 UNL     1      -5.018  -0.967  -1.117  1.00  0.00     0.026 C 
ENDBRANCH  11  13
ENDBRANCH  10  11
ENDBRANCH   1  10
TORSDOF 4
