REMARK  0 active torsions:
REMARK  status: ('A' for Active; 'I' for Inactive)
ROOT
HETATM    1  C1  UNL     1      -0.648  -0.990  -0.998  1.00  0.00     0.022 A 
HETATM    2  C2  UNL     1       0.648  -1.764  -0.859  1.00  0.00    -0.031 A 
HETATM    3  C3  UNL     1       1.602  -0.900  -0.469  1.00  0.00    -0.031 A 
HETATM    4  C4  UNL     1       1.133   0.521  -0.281  1.00  0.00     0.019 A 
HETATM    5  C5  UNL     1      -0.365   0.434  -0.596  1.00  0.00     0.008 A 
HETATM    6  C6  UNL     1      -1.348  -0.404   0.213  1.00  0.00     0.004 A 
HETATM    7  C7  UNL     1      -2.826  -0.066   0.068  1.00  0.00     0.000 C 
HETATM    8  C8  UNL     1      -0.949  -0.906   1.596  1.00  0.00     0.000 C 
HETATM    9  C9  UNL     1       1.352   1.023   1.141  1.00  0.00     0.004 C 
HETATM   10  C10 UNL     1       1.795   1.445  -1.297  1.00  0.00     0.004 C 
ENDROOT
TORSDOF 0
