REMARK  0 active torsions:
REMARK  status: ('A' for Active; 'I' for Inactive)
ROOT
HETATM    1  C1  UNL     1       4.773  -2.139  -0.258  1.00  0.00     0.033 C 
HETATM    2  C2  UNL     1       5.619  -1.002   0.328  1.00  0.00     0.152 C 
HETATM    3  C3  UNL     1       5.072   0.404  -0.080  1.00  0.00     0.028 C 
HETATM    4  C4  UNL     1       3.561   0.348  -0.475  1.00  0.00     0.002 C 
HETATM    5  C5  UNL     1       2.723  -0.647   0.375  1.00  0.00     0.000 C 
HETATM    6  C6  UNL     1       3.301  -2.084   0.193  1.00  0.00     0.003 C 
HETATM    7  C7  UNL     1       1.225  -0.633  -0.072  1.00  0.00     0.000 C 
HETATM    8  C8  UNL     1       0.576   0.781  -0.154  1.00  0.00     0.000 C 
HETATM    9  C9  UNL     1       1.471   1.689  -1.031  1.00  0.00     0.000 C 
HETATM   10  C10 UNL     1       2.916   1.746  -0.535  1.00  0.00     0.000 C 
HETATM   11  C11 UNL     1      -0.877   0.674  -0.740  1.00  0.00     0.003 C 
HETATM   12  C12 UNL     1      -1.750  -0.272   0.141  1.00  0.00     0.001 C 
HETATM   13  C13 UNL     1      -1.088  -1.660   0.273  1.00  0.00     0.000 C 
HETATM   14  C14 UNL     1       0.353  -1.580   0.779  1.00  0.00     0.000 C 
HETATM   15  C15 UNL     1      -3.234  -0.340  -0.344  1.00  0.00     0.006 C 
HETATM   16  C16 UNL     1      -3.875   1.072  -0.385  1.00  0.00     0.033 C 
HETATM   17  C17 UNL     1      -3.016   1.992  -1.283  1.00  0.00     0.152 C 
HETATM   18  C18 UNL     1      -1.553   2.066  -0.816  1.00  0.00     0.033 C 
HETATM   19  O1  UNL     1      -3.545   3.305  -1.312  1.00  0.00    -0.224 OA
HETATM   20  C19 UNL     1      -5.299   0.941  -0.967  1.00  0.00     0.028 C 
HETATM   21  C20 UNL     1      -6.149  -0.043  -0.205  1.00  0.00    -0.035 C 
HETATM   22  C21 UNL     1      -5.600  -1.084   0.451  1.00  0.00    -0.049 C 
HETATM   23  C22 UNL     1      -4.104  -1.350   0.465  1.00  0.00     0.018 C 
HETATM   24  C23 UNL     1      -3.883  -2.789  -0.020  1.00  0.00     0.004 C 
HETATM   25  C24 UNL     1      -6.490  -2.031   1.215  1.00  0.00     0.026 C 
HETATM   26  C25 UNL     1      -3.959   1.648   1.043  1.00  0.00     0.003 C 
HETATM   27  C26 UNL     1      -0.816   0.105  -2.170  1.00  0.00     0.000 C 
HETATM   28  C27 UNL     1       0.506   1.404   1.254  1.00  0.00     0.000 C 
HETATM   29  C28 UNL     1       2.822  -0.248   1.857  1.00  0.00     0.000 C 
HETATM   30  C29 UNL     1       5.326   1.449   1.025  1.00  0.00     0.003 C 
HETATM   31  C30 UNL     1       5.856   0.883  -1.311  1.00  0.00     0.003 C 
HETATM   32  O2  UNL     1       5.670  -1.180   1.734  1.00  0.00    -0.224 OA
ENDROOT
TORSDOF 0
