REMARK  3 active torsions:
REMARK  status: ('A' for Active; 'I' for Inactive)
REMARK    1  A    between atoms: C3_3  and  C16_20 
REMARK    2  A    between atoms: C8_8  and  C10_11 
REMARK    3  A    between atoms: C17_22  and  C21_29 
ROOT
HETATM    1  C1  UNL     1       3.061  -1.916   0.080  1.00  0.00     0.027 A 
HETATM    2  C2  UNL     1       2.930  -0.508   0.080  1.00  0.00     0.131 A 
HETATM    3  C3  UNL     1       1.643   0.088   0.107  1.00  0.00     0.055 A 
HETATM    4  C4  UNL     1       0.486  -0.730   0.137  1.00  0.00     0.103 A 
HETATM    5  C5  UNL     1       0.625  -2.145   0.135  1.00  0.00     0.062 A 
HETATM    6  C6  UNL     1       1.910  -2.738   0.107  1.00  0.00     0.007 A 
HETATM    7  C7  UNL     1      -0.604  -2.986   0.160  1.00  0.00     0.199 A 
HETATM    8  C8  UNL     1      -1.887  -2.238   0.193  1.00  0.00     0.064 A 
HETATM    9  C9  UNL     1      -1.883  -0.887   0.195  1.00  0.00     0.126 A 
HETATM   10  O1  UNL     1      -0.742  -0.168   0.166  1.00  0.00    -0.305 OA
HETATM   11  O4  UNL     1      -0.647  -4.197   0.156  1.00  0.00    -0.286 OA
HETATM   12  O10 UNL     1       4.029   0.260   0.053  1.00  0.00    -0.190 OA
ENDROOT
BRANCH   3  13
HETATM   13  C16 UNL     1       1.510   1.559   0.107  1.00  0.00     0.174 C 
HETATM   14  O5  UNL     1       2.207   2.059  -1.025  1.00  0.00    -0.347 OA
HETATM   15  C17 UNL     1       2.092   3.461  -1.238  1.00  0.00     0.181 C 
HETATM   16  C18 UNL     1       2.691   4.213  -0.029  1.00  0.00     0.214 C 
HETATM   17  C19 UNL     1       2.033   3.762   1.293  1.00  0.00     0.218 C 
HETATM   18  O8  UNL     1       2.492   5.604  -0.217  1.00  0.00    -0.218 OA
HETATM   19  C20 UNL     1       2.066   2.219   1.396  1.00  0.00     0.216 C 
HETATM   20  O7  UNL     1       2.721   4.336   2.393  1.00  0.00    -0.218 OA
HETATM   21  O6  UNL     1       1.289   1.809   2.512  1.00  0.00    -0.218 OA
BRANCH  15  22
HETATM   22  C21 UNL     1       2.814   3.772  -2.553  1.00  0.00     0.214 C 
HETATM   23  O9  UNL     1       2.086   3.186  -3.606  1.00  0.00    -0.218 OA
ENDBRANCH  15  22
ENDBRANCH   3  13
BRANCH   8  24
HETATM   24  C10 UNL     1      -3.190  -2.971   0.225  1.00  0.00     0.007 A 
HETATM   25  C11 UNL     1      -4.287  -2.484  -0.508  1.00  0.00     0.030 A 
HETATM   26  C12 UNL     1      -5.516  -3.170  -0.482  1.00  0.00     0.156 A 
HETATM   27  C13 UNL     1      -5.645  -4.346   0.279  1.00  0.00     0.156 A 
HETATM   28  O3  UNL     1      -6.539  -2.707  -1.170  1.00  0.00    -0.188 OA
HETATM   29  C14 UNL     1      -4.545  -4.830   1.012  1.00  0.00     0.029 A 
HETATM   30  O2  UNL     1      -6.791  -4.994   0.311  1.00  0.00    -0.188 OA
HETATM   31  C15 UNL     1      -3.320  -4.145   0.984  1.00  0.00     0.002 A 
ENDBRANCH   8  24
TORSDOF 3
