REMARK  4 active torsions:
REMARK  status: ('A' for Active; 'I' for Inactive)
REMARK    1  A    between atoms: C2_2  and  C3_3 
REMARK    2  A    between atoms: C3_3  and  C4_4 
REMARK    3  A    between atoms: C4_4  and  C5_5 
REMARK    4  A    between atoms: C5_5  and  C6_6 
ROOT
HETATM    1  C4  UNL     1       0.996   0.773  -0.406  1.00  0.00     0.158 C 
HETATM    2  O1  UNL     1       1.473   1.795   0.033  1.00  0.00    -0.296 OA
ENDROOT
BRANCH   1   3
HETATM    3  C3  UNL     1       1.619  -0.563  -0.108  1.00  0.00     0.129 C 
BRANCH   3   4
HETATM    4  C2  UNL     1       1.164  -1.068   1.236  1.00  0.00     0.158 C 
HETATM    5  C1  UNL     1       1.676  -0.367   2.467  1.00  0.00     0.073 C 
HETATM    6  O2  UNL     1       0.410  -2.008   1.326  1.00  0.00    -0.296 OA
ENDBRANCH   3   4
ENDBRANCH   1   3
BRANCH   1   7
HETATM    7  C5  UNL     1      -0.236   0.803  -1.268  1.00  0.00     0.065 C 
BRANCH   7   8
HETATM    8  C6  UNL     1      -1.432   0.123  -0.602  1.00  0.00     0.008 C 
HETATM    9  C7  UNL     1      -2.713   0.232  -1.428  1.00  0.00     0.001 C 
ENDBRANCH   7   8
ENDBRANCH   1   7
TORSDOF 4
