REMARK  7 active torsions:
REMARK  status: ('A' for Active; 'I' for Inactive)
REMARK    1  A    between atoms: C1_1  and  O7_22 
REMARK    2  A    between atoms: C7_8  and  C10_13 
REMARK    3  A    between atoms: O7_22  and  C16_23 
REMARK    4  A    between atoms: C20_30  and  C21_32 
REMARK    5  A    between atoms: C21_32  and  O12_33 
REMARK    6  A    between atoms: O12_33  and  C22_34 
REMARK    7  A    between atoms: C26_41  and  C27_43 
ROOT
HETATM    1  C16 UNL     1      -2.910   0.512  -1.996  1.00  0.00     0.274 C 
HETATM    2  C17 UNL     1      -4.227   1.250  -2.318  1.00  0.00     0.241 C 
HETATM    3  O8  UNL     1      -4.443   1.197  -3.717  1.00  0.00    -0.215 OA
HETATM    4  C18 UNL     1      -5.422   0.613  -1.576  1.00  0.00     0.220 C 
HETATM    5  O9  UNL     1      -6.574   1.424  -1.736  1.00  0.00    -0.218 OA
HETATM    6  C19 UNL     1      -5.086   0.469  -0.076  1.00  0.00     0.215 C 
HETATM    7  O10 UNL     1      -6.092  -0.293   0.570  1.00  0.00    -0.218 OA
HETATM    8  C20 UNL     1      -3.723  -0.232   0.131  1.00  0.00     0.180 C 
HETATM    9  O11 UNL     1      -2.717   0.467  -0.590  1.00  0.00    -0.326 OA
ENDROOT
BRANCH   1  10
HETATM   10  O7  UNL     1      -1.812   1.195  -2.588  1.00  0.00    -0.303 OA
BRANCH  10  11
HETATM   11  C1  UNL     1      -0.586   0.688  -2.404  1.00  0.00     0.101 A 
HETATM   12  C2  UNL     1      -0.430  -0.615  -1.875  1.00  0.00     0.052 A 
HETATM   13  C3  UNL     1       0.863  -1.154  -1.682  1.00  0.00     0.138 A 
HETATM   14  C4  UNL     1       2.004  -0.381  -2.020  1.00  0.00     0.089 A 
HETATM   15  O6  UNL     1       0.992  -2.391  -1.178  1.00  0.00    -0.190 OA
HETATM   16  C5  UNL     1       1.850   0.926  -2.549  1.00  0.00     0.107 A 
HETATM   17  C9  UNL     1       3.381  -0.914  -1.832  1.00  0.00     0.227 A 
HETATM   18  C6  UNL     1       0.553   1.457  -2.742  1.00  0.00     0.049 A 
HETATM   19  O1  UNL     1       2.936   1.660  -2.871  1.00  0.00    -0.305 OA
HETATM   20  C7  UNL     1       4.205   1.229  -2.717  1.00  0.00     0.128 A 
HETATM   21  C8  UNL     1       4.484  -0.004  -2.223  1.00  0.00     0.192 A 
HETATM   22  O3  UNL     1       5.744  -0.420  -2.076  1.00  0.00    -0.185 OA
HETATM   23  O2  UNL     1       3.692  -2.000  -1.398  1.00  0.00    -0.284 OA
BRANCH  20  24
HETATM   24  C10 UNL     1       5.328   2.135  -3.105  1.00  0.00     0.027 A 
HETATM   25  C11 UNL     1       6.315   2.475  -2.164  1.00  0.00     0.004 A 
HETATM   26  C12 UNL     1       7.369   3.328  -2.533  1.00  0.00     0.030 A 
HETATM   27  C13 UNL     1       7.442   3.842  -3.840  1.00  0.00     0.156 A 
HETATM   28  C14 UNL     1       6.453   3.502  -4.781  1.00  0.00     0.156 A 
HETATM   29  O5  UNL     1       8.434   4.643  -4.178  1.00  0.00    -0.188 OA
HETATM   30  C15 UNL     1       5.399   2.649  -4.412  1.00  0.00     0.032 A 
HETATM   31  O4  UNL     1       6.512   3.981  -6.008  1.00  0.00    -0.188 OA
ENDBRANCH  20  24
ENDBRANCH  10  11
ENDBRANCH   1  10
BRANCH   8  32
HETATM   32  C21 UNL     1      -3.281  -0.258   1.598  1.00  0.00     0.177 C 
BRANCH  32  33
HETATM   33  O12 UNL     1      -2.189  -1.145   1.715  1.00  0.00    -0.326 OA
BRANCH  33  34
HETATM   34  C22 UNL     1      -1.691  -1.244   3.033  1.00  0.00     0.270 C 
HETATM   35  C23 UNL     1      -0.334  -1.990   3.045  1.00  0.00     0.241 C 
HETATM   36  O13 UNL     1       0.635  -1.213   2.359  1.00  0.00    -0.215 OA
HETATM   37  C24 UNL     1       0.147  -2.248   4.490  1.00  0.00     0.220 C 
HETATM   38  O14 UNL     1       1.279  -3.102   4.477  1.00  0.00    -0.218 OA
HETATM   39  C25 UNL     1      -0.988  -2.897   5.315  1.00  0.00     0.215 C 
HETATM   40  O15 UNL     1      -0.617  -2.953   6.682  1.00  0.00    -0.218 OA
HETATM   41  C26 UNL     1      -2.303  -2.094   5.192  1.00  0.00     0.184 C 
HETATM   42  O16 UNL     1      -2.641  -1.955   3.818  1.00  0.00    -0.326 OA
BRANCH  41  43
HETATM   43  C27 UNL     1      -3.488  -2.783   5.871  1.00  0.00     0.214 C 
HETATM   44  O17 UNL     1      -4.576  -1.887   5.877  1.00  0.00    -0.218 OA
ENDBRANCH  41  43
ENDBRANCH  33  34
ENDBRANCH  32  33
ENDBRANCH   8  32
TORSDOF 7
