REMARK  9 active torsions:
REMARK  status: ('A' for Active; 'I' for Inactive)
REMARK    1  A    between atoms: C1_1  and  C31_36 
REMARK    2  A    between atoms: C4_4  and  O4_25 
REMARK    3  A    between atoms: C6_6  and  O2_21 
REMARK    4  A    between atoms: O2_21  and  O3_22 
REMARK    5  A    between atoms: O3_22  and  C20_23 
REMARK    6  A    between atoms: O4_25  and  O5_26 
REMARK    7  A    between atoms: O5_26  and  C22_27 
REMARK    8  A    between atoms: C22_27  and  C24_29 
REMARK    9  A    between atoms: C31_36  and  O7_38 
ROOT
HETATM    1  C1  UNL     1       0.336  -1.756   0.465  1.00  0.00     0.138 C 
HETATM    2  C2  UNL     1       1.672  -2.348  -0.033  1.00  0.00     0.019 C 
HETATM    3  C3  UNL     1       2.305  -1.361  -1.025  1.00  0.00     0.032 C 
HETATM    4  C4  UNL     1       1.545  -0.049  -0.807  1.00  0.00     0.156 C 
HETATM    5  C5  UNL     1       0.123  -0.590  -0.537  1.00  0.00     0.081 C 
HETATM    6  C6  UNL     1      -1.055   0.379  -0.195  1.00  0.00     0.174 C 
HETATM    7  C7  UNL     1      -2.072   0.666  -1.295  1.00  0.00    -0.014 C 
HETATM    8  C8  UNL     1      -3.402   1.279  -0.900  1.00  0.00     0.025 C 
HETATM    9  C9  UNL     1      -4.330   0.361  -0.084  1.00  0.00     0.005 C 
HETATM   10  C10 UNL     1      -4.879  -0.834  -0.877  1.00  0.00     0.005 A 
HETATM   11  C11 UNL     1      -4.373  -2.256  -0.693  1.00  0.00     0.022 A 
HETATM   12  C12 UNL     1      -3.205  -2.514   0.250  1.00  0.00    -0.028 C 
HETATM   13  C13 UNL     1      -1.986  -2.699  -0.311  1.00  0.00     0.009 C 
HETATM   14  C14 UNL     1      -0.756  -2.822   0.506  1.00  0.00     0.177 C 
HETATM   15  O1  UNL     1      -0.637  -3.789   1.221  1.00  0.00    -0.291 OA
HETATM   16  C15 UNL     1      -1.842  -2.787  -1.811  1.00  0.00     0.034 C 
HETATM   17  C16 UNL     1      -5.730  -1.855  -0.141  1.00  0.00     0.004 A 
HETATM   18  C17 UNL     1      -5.900  -1.725   1.371  1.00  0.00     0.000 C 
HETATM   19  C18 UNL     1      -6.967  -2.369  -0.867  1.00  0.00     0.000 C 
HETATM   20  C19 UNL     1      -1.822   0.402  -2.592  1.00  0.00    -0.007 C 
HETATM   21  C30 UNL     1       3.826  -1.281  -0.896  1.00  0.00     0.003 C 
ENDROOT
BRANCH   4  22
HETATM   22  O4  UNL     1       2.096   0.662   0.289  1.00  0.00    -0.219 OA
BRANCH  22  23
HETATM   23  O5  UNL     1       3.215   1.346  -0.242  1.00  0.00    -0.195 OA
BRANCH  23  24
HETATM   24  C22 UNL     1       3.912   1.912   0.740  1.00  0.00     0.131 C 
HETATM   25  C23 UNL     1       3.281   2.510   1.764  1.00  0.00     0.029 C 
BRANCH  24  26
HETATM   26  C24 UNL     1       5.404   1.895   0.729  1.00  0.00     0.025 A 
HETATM   27  C25 UNL     1       6.119   1.891   1.941  1.00  0.00     0.002 A 
HETATM   28  C26 UNL     1       7.524   1.875   1.932  1.00  0.00     0.000 A 
HETATM   29  C27 UNL     1       8.219   1.863   0.709  1.00  0.00     0.000 A 
HETATM   30  C28 UNL     1       7.506   1.869  -0.502  1.00  0.00     0.000 A 
HETATM   31  C29 UNL     1       6.102   1.885  -0.494  1.00  0.00     0.002 A 
ENDBRANCH  24  26
ENDBRANCH  23  24
ENDBRANCH  22  23
ENDBRANCH   4  22
BRANCH   1  32
HETATM   32  C31 UNL     1       0.481  -1.234   1.881  1.00  0.00     0.278 C 
HETATM   33  O6  UNL     1       1.572  -1.035   2.361  1.00  0.00    -0.264 OA
BRANCH  32  34
HETATM   34  O7  UNL     1      -0.662  -1.023   2.527  1.00  0.00    -0.299 OA
HETATM   35  C32 UNL     1      -0.457  -0.580   3.859  1.00  0.00     0.184 C 
ENDBRANCH  32  34
ENDBRANCH   1  32
BRANCH   6  36
HETATM   36  O2  UNL     1      -0.578   1.621   0.287  1.00  0.00    -0.219 OA
BRANCH  36  37
HETATM   37  O3  UNL     1      -0.051   2.361  -0.834  1.00  0.00    -0.221 OA
BRANCH  37  38
HETATM   38  C20 UNL     1       0.092   3.707  -0.439  1.00  0.00     0.182 C 
HETATM   39  C21 UNL     1       0.639   4.498  -1.627  1.00  0.00     0.038 C 
ENDBRANCH  37  38
ENDBRANCH  36  37
ENDBRANCH   6  36
TORSDOF 9
