REMARK  9 active torsions:
REMARK  status: ('A' for Active; 'I' for Inactive)
REMARK    1  A    between atoms: C3_3  and  C7_7 
REMARK    2  A    between atoms: C7_7  and  C8_8 
REMARK    3  A    between atoms: C10_11  and  C29_42 
REMARK    4  A    between atoms: C14_17  and  C22_32 
REMARK    5  A    between atoms: C16_20  and  C18_24 
REMARK    6  A    between atoms: C18_24  and  C19_25 
REMARK    7  A    between atoms: C19_25  and  C20_26 
REMARK    8  A    between atoms: C20_26  and  N6_27 
REMARK    9  A    between atoms: C22_32  and  C23_33 
ROOT
HETATM    1  C8  UNL     1      -0.312   3.029  -0.348  1.00  0.00     0.191 C 
HETATM    2  C9  UNL     1       0.992   3.805  -0.264  1.00  0.00     0.275 C 
HETATM    3  N1  UNL     1       2.047   3.281   0.455  1.00  0.00    -0.226 NA
HETATM    4  C10 UNL     1       3.356   3.973   0.566  1.00  0.00     0.219 C 
HETATM    5  C11 UNL     1       4.358   3.455  -0.453  1.00  0.00     0.277 C 
HETATM    6  N2  UNL     1       4.924   2.195  -0.406  1.00  0.00    -0.226 NA
HETATM    7  C12 UNL     1       4.656   1.168   0.633  1.00  0.00     0.218 C 
HETATM    8  C13 UNL     1       3.473   0.266   0.334  1.00  0.00     0.277 C 
HETATM    9  N3  UNL     1       2.994  -0.531   1.348  1.00  0.00    -0.228 NA
HETATM   10  C14 UNL     1       1.859  -1.465   1.154  1.00  0.00     0.191 C 
HETATM   11  C15 UNL     1       0.529  -0.779   1.410  1.00  0.00     0.275 C 
HETATM   12  N4  UNL     1      -0.191  -0.289   0.346  1.00  0.00    -0.229 NA
HETATM   13  C16 UNL     1      -1.506   0.385   0.496  1.00  0.00     0.186 C 
HETATM   14  C17 UNL     1      -1.447   1.600   1.408  1.00  0.00     0.274 C 
HETATM   15  N5  UNL     1      -0.908   2.801   0.994  1.00  0.00    -0.228 NA
HETATM   16  O1  UNL     1      -1.889   1.522   2.533  1.00  0.00    -0.268 OA
HETATM   17  O2  UNL     1       0.108  -0.672   2.539  1.00  0.00    -0.268 OA
HETATM   18  O4  UNL     1       2.957   0.240  -0.760  1.00  0.00    -0.268 OA
HETATM   19  O5  UNL     1       4.678   4.192  -1.360  1.00  0.00    -0.268 OA
HETATM   20  O7  UNL     1       1.109   4.869  -0.828  1.00  0.00    -0.268 OA
ENDROOT
BRANCH  10  21
HETATM   21  C22 UNL     1       2.027  -2.691   2.058  1.00  0.00     0.060 C 
BRANCH  21  22
HETATM   22  C23 UNL     1       0.953  -3.691   1.830  1.00  0.00    -0.020 A 
HETATM   23  C24 UNL     1      -0.080  -3.842   2.769  1.00  0.00    -0.002 A 
HETATM   24  C25 UNL     1      -1.096  -4.789   2.553  1.00  0.00     0.027 A 
HETATM   25  C26 UNL     1      -1.082  -5.590   1.396  1.00  0.00     0.131 A 
HETATM   26  C27 UNL     1      -0.045  -5.437   0.459  1.00  0.00     0.027 A 
HETATM   27  O3  UNL     1      -2.033  -6.477   1.195  1.00  0.00    -0.190 OA
HETATM   28  C28 UNL     1       0.971  -4.492   0.674  1.00  0.00    -0.002 A 
ENDBRANCH  21  22
ENDBRANCH  10  21
BRANCH  13  29
HETATM   29  C18 UNL     1      -2.560  -0.631   0.953  1.00  0.00     0.036 C 
BRANCH  29  30
HETATM   30  C19 UNL     1      -2.824  -1.717  -0.092  1.00  0.00     0.029 C 
BRANCH  30  31
HETATM   31  C20 UNL     1      -3.934  -2.682   0.330  1.00  0.00     0.145 C 
BRANCH  31  32
HETATM   32  N6  UNL     1      -4.170  -3.697  -0.707  1.00  0.00    -0.083 NA
HETATM   33  C21 UNL     1      -5.127  -4.650  -0.506  1.00  0.00     0.782 C 
HETATM   34  N7  UNL     1      -5.793  -4.627   0.588  1.00  0.00     0.063 N 
HETATM   35  N8  UNL     1      -5.406  -5.627  -1.420  1.00  0.00     0.063 N 
ENDBRANCH  31  32
ENDBRANCH  30  31
ENDBRANCH  29  30
ENDBRANCH  13  29
BRANCH   4  36
HETATM   36  C29 UNL     1       3.865   3.955   2.012  1.00  0.00     0.216 C 
HETATM   37  O6  UNL     1       5.268   4.092   1.986  1.00  0.00    -0.218 OA
ENDBRANCH   4  36
BRANCH   1  38
HETATM   38  C7  UNL     1      -1.344   3.727  -1.242  1.00  0.00     0.060 C 
BRANCH  38  39
HETATM   39  C3  UNL     1      -0.877   3.813  -2.651  1.00  0.00    -0.020 A 
HETATM   40  C2  UNL     1      -0.605   5.067  -3.229  1.00  0.00    -0.004 A 
HETATM   41  C1  UNL     1      -0.164   5.147  -4.561  1.00  0.00    -0.000 A 
HETATM   42  C6  UNL     1       0.006   3.975  -5.317  1.00  0.00    -0.000 A 
HETATM   43  C5  UNL     1      -0.266   2.723  -4.740  1.00  0.00    -0.000 A 
HETATM   44  C4  UNL     1      -0.707   2.641  -3.408  1.00  0.00    -0.004 A 
ENDBRANCH  38  39
ENDBRANCH   1  38
TORSDOF 9
