REMARK  0 active torsions:
REMARK  status: ('A' for Active; 'I' for Inactive)
ROOT
HETATM    1  C1  UNL     1      -3.197   0.492  -0.193  1.00  0.00     0.195 A 
HETATM    2  C2  UNL     1      -3.471  -0.707   0.606  1.00  0.00     0.038 A 
HETATM    3  C3  UNL     1      -2.305  -1.295   0.922  1.00  0.00    -0.019 A 
HETATM    4  C4  UNL     1      -1.168  -0.557   0.344  1.00  0.00    -0.005 A 
HETATM    5  C5  UNL     1      -1.733   0.650  -0.308  1.00  0.00     0.031 A 
HETATM    6  C6  UNL     1      -1.121   1.713  -0.887  1.00  0.00    -0.038 C 
HETATM    7  C7  UNL     1       0.369   1.973  -0.963  1.00  0.00     0.053 C 
HETATM    8  C8  UNL     1       1.279   1.238   0.016  1.00  0.00     0.135 C 
HETATM    9  C9  UNL     1       1.267  -0.273  -0.232  1.00  0.00     0.087 C 
HETATM   10  C10 UNL     1       0.109  -0.982   0.422  1.00  0.00    -0.021 C 
HETATM   11  C11 UNL     1       2.685  -0.656   0.235  1.00  0.00     0.209 C 
HETATM   12  C12 UNL     1       3.424   0.629  -0.011  1.00  0.00     0.300 C 
HETATM   13  O1  UNL     1       2.625   1.676  -0.179  1.00  0.00    -0.302 OA
HETATM   14  O2  UNL     1       4.631   0.680  -0.056  1.00  0.00    -0.262 OA
HETATM   15  O3  UNL     1       2.732  -0.938   1.621  1.00  0.00    -0.215 OA
HETATM   16  C13 UNL     1       3.248  -1.857  -0.517  1.00  0.00     0.044 C 
HETATM   17  C14 UNL     1      -1.957   2.795  -1.525  1.00  0.00     0.026 C 
HETATM   18  C15 UNL     1      -2.199  -2.547   1.754  1.00  0.00     0.031 C 
HETATM   19  O4  UNL     1      -4.051   1.213  -0.664  1.00  0.00    -0.287 OA
ENDROOT
TORSDOF 0
