REMARK  9 active torsions:
REMARK  status: ('A' for Active; 'I' for Inactive)
REMARK    1  A    between atoms: C1_1  and  C8_10 
REMARK    2  A    between atoms: C3_3  and  O2_8 
REMARK    3  A    between atoms: C9_11  and  C10_12 
REMARK    4  A    between atoms: C10_12  and  O3_13 
REMARK    5  A    between atoms: O3_13  and  C11_14 
REMARK    6  A    between atoms: C11_14  and  C12_15 
REMARK    7  A    between atoms: C12_15  and  C13_16 
REMARK    8  A    between atoms: C12_15  and  O5_19 
REMARK    9  A    between atoms: C13_16  and  O4_17 
ROOT
HETATM    1  C8  UNL     1       0.356   1.024   1.254  1.00  0.00     0.005 C 
HETATM    2  C9  UNL     1       0.955  -0.025   0.670  1.00  0.00     0.068 C 
ENDROOT
BRANCH   2   3
HETATM    3  C10 UNL     1       0.307  -1.342   0.645  1.00  0.00     0.296 C 
HETATM    4  O6  UNL     1      -0.779  -1.498   1.153  1.00  0.00    -0.259 OA
BRANCH   3   5
HETATM    5  O3  UNL     1       0.988  -2.311   0.041  1.00  0.00    -0.296 OA
BRANCH   5   6
HETATM    6  C11 UNL     1       0.256  -3.525  -0.025  1.00  0.00     0.184 C 
BRANCH   6   7
HETATM    7  C12 UNL     1      -0.826  -3.412  -1.099  1.00  0.00     0.175 C 
BRANCH   7   8
HETATM    8  C13 UNL     1      -1.668  -4.682  -1.226  1.00  0.00     0.174 C 
BRANCH   8   9
HETATM    9  O4  UNL     1      -2.988  -4.307  -1.547  1.00  0.00    -0.349 OA
HETATM   10  C14 UNL     1      -3.859  -5.406  -1.687  1.00  0.00     0.174 C 
ENDBRANCH   8   9
ENDBRANCH   7   8
BRANCH   7  11
HETATM   11  O5  UNL     1      -0.195  -3.174  -2.338  1.00  0.00    -0.349 OA
HETATM   12  C15 UNL     1      -1.099  -2.840  -3.365  1.00  0.00     0.174 C 
ENDBRANCH   7  11
ENDBRANCH   6   7
ENDBRANCH   5   6
ENDBRANCH   3   5
ENDBRANCH   2   3
BRANCH   1  13
HETATM   13  C1  UNL     1       1.055   2.342   1.254  1.00  0.00     0.002 A 
HETATM   14  C2  UNL     1       0.311   3.535   1.254  1.00  0.00     0.026 A 
HETATM   15  C3  UNL     1       0.965   4.779   1.254  1.00  0.00     0.119 A 
HETATM   16  C4  UNL     1       2.371   4.830   1.254  1.00  0.00     0.153 A 
HETATM   17  C5  UNL     1       3.115   3.637   1.254  1.00  0.00     0.029 A 
HETATM   18  O1  UNL     1       2.994   5.992   1.254  1.00  0.00    -0.188 OA
HETATM   19  C6  UNL     1       2.459   2.395   1.254  1.00  0.00     0.002 A 
BRANCH  15  20
HETATM   20  O2  UNL     1       0.260   5.893   1.254  1.00  0.00    -0.326 OA
HETATM   21  C7  UNL     1       0.703   6.963   2.076  1.00  0.00     0.181 C 
ENDBRANCH  15  20
ENDBRANCH   1  13
TORSDOF 9
