REMARK  1 active torsions:
REMARK  status: ('A' for Active; 'I' for Inactive)
REMARK    1  A    between atoms: C9_9  and  C11_13 
ROOT
HETATM    1  C1  UNL     1       3.766   0.809  -0.090  1.00  0.00     0.002 A 
HETATM    2  C2  UNL     1       3.787  -0.598  -0.180  1.00  0.00     0.028 A 
HETATM    3  C3  UNL     1       2.578  -1.318  -0.268  1.00  0.00     0.134 A 
HETATM    4  C4  UNL     1       1.326  -0.639  -0.266  1.00  0.00     0.061 A 
HETATM    5  C5  UNL     1       1.299   0.791  -0.154  1.00  0.00     0.015 A 
HETATM    6  C6  UNL     1       2.533   1.494  -0.080  1.00  0.00    -0.002 A 
HETATM    7  C7  UNL     1       0.039   1.605  -0.117  1.00  0.00     0.202 A 
HETATM    8  C8  UNL     1      -1.291   0.852  -0.250  1.00  0.00     0.161 A 
HETATM    9  C9  UNL     1      -1.262  -0.701  -0.367  1.00  0.00     0.223 A 
HETATM   10  C10 UNL     1       0.067  -1.445  -0.389  1.00  0.00     0.208 A 
HETATM   11  O1  UNL     1       0.014  -2.649  -0.508  1.00  0.00    -0.288 OA
HETATM   12  O2  UNL     1      -1.359   0.156  -1.459  1.00  0.00    -0.341 OA
HETATM   13  C13 UNL     1      -2.621   1.582  -0.074  1.00  0.00     0.036 C 
HETATM   14  O4  UNL     1      -0.027   2.311   1.109  1.00  0.00    -0.216 OA
HETATM   15  O5  UNL     1       2.637  -2.656  -0.357  1.00  0.00    -0.190 OA
ENDROOT
BRANCH   9  16
HETATM   16  C11 UNL     1      -2.529  -1.531  -0.250  1.00  0.00     0.185 C 
HETATM   17  C12 UNL     1      -3.201  -1.588   1.096  1.00  0.00     0.075 C 
HETATM   18  O3  UNL     1      -2.984  -2.127  -1.197  1.00  0.00    -0.293 OA
ENDBRANCH   9  16
TORSDOF 1
