REMARK  7 active torsions:
REMARK  status: ('A' for Active; 'I' for Inactive)
REMARK    1  A    between atoms: C1_1  and  C7_7 
REMARK    2  A    between atoms: C7_7  and  O1_8 
REMARK    3  A    between atoms: O1_8  and  C8_9 
REMARK    4  A    between atoms: C8_9  and  C9_10 
REMARK    5  A    between atoms: C10_11  and  O4_21 
REMARK    6  A    between atoms: O4_21  and  C18_22 
REMARK    7  A    between atoms: C19_24  and  C23_31 
ROOT
HETATM    1  C9  UNL     1      -3.099   4.196   0.253  1.00  0.00     0.087 C 
HETATM    2  C10 UNL     1      -3.392   2.890  -0.238  1.00  0.00     0.123 C 
HETATM    3  C11 UNL     1      -3.778   2.202   1.048  1.00  0.00     0.037 C 
HETATM    4  C12 UNL     1      -4.499   3.368   1.132  1.00  0.00     0.067 C 
HETATM    5  C13 UNL     1      -5.783   2.812   0.194  1.00  0.00     0.153 C 
HETATM    6  C14 UNL     1      -5.490   2.530  -1.391  1.00  0.00     0.094 C 
HETATM    7  C15 UNL     1      -4.585   3.593  -1.306  1.00  0.00     0.123 C 
HETATM    8  O2  UNL     1      -3.740   4.120  -2.178  1.00  0.00    -0.356 OA
HETATM    9  C16 UNL     1      -3.212   5.055  -1.143  1.00  0.00     0.147 C 
HETATM   10  C17 UNL     1      -5.699   4.907  -1.114  1.00  0.00     0.033 C 
HETATM   11  O3  UNL     1      -6.888   2.582   0.697  1.00  0.00    -0.296 OA
ENDROOT
BRANCH   2  12
HETATM   12  O4  UNL     1      -2.564   2.094  -1.204  1.00  0.00    -0.331 OA
BRANCH  12  13
HETATM   13  C18 UNL     1      -1.270   1.392  -0.967  1.00  0.00     0.270 C 
HETATM   14  O5  UNL     1      -1.405   0.158  -0.204  1.00  0.00    -0.326 OA
HETATM   15  C19 UNL     1      -0.120  -0.577  -0.213  1.00  0.00     0.184 C 
HETATM   16  C20 UNL     1       0.981   0.282   0.495  1.00  0.00     0.215 C 
HETATM   17  C21 UNL     1       1.105   1.577  -0.278  1.00  0.00     0.220 C 
HETATM   18  O8  UNL     1       2.286  -0.344   0.480  1.00  0.00    -0.218 OA
HETATM   19  C22 UNL     1      -0.229   2.303  -0.315  1.00  0.00     0.241 C 
HETATM   20  O7  UNL     1       2.084   2.412   0.331  1.00  0.00    -0.218 OA
HETATM   21  O6  UNL     1      -0.079   3.487  -1.084  1.00  0.00    -0.215 OA
BRANCH  15  22
HETATM   22  C23 UNL     1      -0.309  -1.950   0.473  1.00  0.00     0.214 C 
HETATM   23  O9  UNL     1       0.920  -2.693   0.421  1.00  0.00    -0.218 OA
ENDBRANCH  15  22
ENDBRANCH  12  13
ENDBRANCH   2  12
BRANCH   1  24
HETATM   24  C8  UNL     1      -2.771   4.930   1.618  1.00  0.00     0.157 C 
BRANCH  24  25
HETATM   25  O1  UNL     1      -2.038   6.162   1.385  1.00  0.00    -0.298 OA
BRANCH  25  26
HETATM   26  C7  UNL     1      -2.881   7.298   1.114  1.00  0.00     0.296 C 
HETATM   27  O10 UNL     1      -4.119   7.207   1.147  1.00  0.00    -0.259 OA
BRANCH  26  28
HETATM   28  C1  UNL     1      -2.260   8.551   0.684  1.00  0.00     0.063 A 
HETATM   29  C2  UNL     1      -3.000   9.604   0.345  1.00  0.00     0.005 A 
HETATM   30  C3  UNL     1      -2.350  10.833  -0.133  1.00  0.00     0.000 A 
HETATM   31  C4  UNL     1      -1.022  10.886  -0.236  1.00  0.00     0.000 A 
HETATM   32  C5  UNL     1      -0.213   9.724   0.135  1.00  0.00     0.000 A 
HETATM   33  C6  UNL     1      -0.803   8.614   0.575  1.00  0.00     0.005 A 
ENDBRANCH  26  28
ENDBRANCH  25  26
ENDBRANCH  24  25
ENDBRANCH   1  24
TORSDOF 7
