REMARK  2 active torsions:
REMARK  status: ('A' for Active; 'I' for Inactive)
REMARK    1  A    between atoms: C7_8  and  C10_12 
REMARK    2  A    between atoms: C13_15  and  O3_18 
ROOT
HETATM    1  C1  UNL     1      -4.740   0.744   0.676  1.00  0.00     0.135 A 
HETATM    2  C2  UNL     1      -4.629   2.035   1.240  1.00  0.00     0.055 A 
HETATM    3  C3  UNL     1      -3.358   2.633   1.404  1.00  0.00     0.138 A 
HETATM    4  C4  UNL     1      -2.191   1.934   0.998  1.00  0.00     0.083 A 
HETATM    5  C5  UNL     1      -2.299   0.621   0.463  1.00  0.00     0.101 A 
HETATM    6  C6  UNL     1      -3.576   0.039   0.287  1.00  0.00     0.052 A 
HETATM    7  O1  UNL     1      -1.203  -0.090   0.117  1.00  0.00    -0.328 OA
HETATM    8  C7  UNL     1       0.084   0.268   0.633  1.00  0.00     0.151 C 
HETATM    9  C8  UNL     1       0.309   1.787   0.521  1.00  0.00     0.104 C 
HETATM   10  C9  UNL     1      -0.846   2.568   1.113  1.00  0.00     0.180 C 
HETATM   11  O2  UNL     1      -0.588   3.635   1.625  1.00  0.00    -0.291 OA
HETATM   12  O5  UNL     1      -3.275   3.861   1.938  1.00  0.00    -0.190 OA
HETATM   13  O6  UNL     1      -5.947   0.188   0.510  1.00  0.00    -0.190 OA
ENDROOT
BRANCH   8  14
HETATM   14  C10 UNL     1       1.131  -0.514  -0.080  1.00  0.00     0.008 A 
HETATM   15  C11 UNL     1       1.166  -0.521  -1.484  1.00  0.00     0.028 A 
HETATM   16  C12 UNL     1       2.154  -1.258  -2.164  1.00  0.00     0.153 A 
HETATM   17  C13 UNL     1       3.107  -1.990  -1.432  1.00  0.00     0.119 A 
HETATM   18  O4  UNL     1       2.182  -1.262  -3.481  1.00  0.00    -0.188 OA
HETATM   19  C14 UNL     1       3.070  -1.982  -0.027  1.00  0.00     0.026 A 
HETATM   20  C15 UNL     1       2.084  -1.244   0.650  1.00  0.00     0.000 A 
BRANCH  17  21
HETATM   21  O3  UNL     1       4.037  -2.684  -2.061  1.00  0.00    -0.326 OA
HETATM   22  C16 UNL     1       5.035  -3.320  -1.277  1.00  0.00     0.181 C 
ENDBRANCH  17  21
ENDBRANCH   8  14
TORSDOF 2
