REMARK  4 active torsions:
REMARK  status: ('A' for Active; 'I' for Inactive)
REMARK    1  A    between atoms: C19_19  and  C22_22 
REMARK    2  A    between atoms: C22_22  and  C24_24 
REMARK    3  A    between atoms: C24_24  and  O1_25 
REMARK    4  A    between atoms: O1_25  and  C25_26 
ROOT
HETATM    1  C1  UNL     1       5.455   0.021  -2.672  1.00  0.00     0.000 C 
HETATM    2  C2  UNL     1       6.395  -0.533  -1.602  1.00  0.00     0.000 C 
HETATM    3  C3  UNL     1       5.955  -0.129  -0.176  1.00  0.00     0.000 C 
HETATM    4  C4  UNL     1       4.408   0.084  -0.090  1.00  0.00     0.000 C 
HETATM    5  C5  UNL     1       3.596  -0.824  -1.051  1.00  0.00     0.000 C 
HETATM    6  C6  UNL     1       4.037  -0.553  -2.520  1.00  0.00     0.000 C 
HETATM    7  C7  UNL     1       2.070  -0.520  -0.922  1.00  0.00     0.000 C 
HETATM    8  C8  UNL     1       1.510  -0.533   0.535  1.00  0.00     0.000 C 
HETATM    9  C9  UNL     1       2.393   0.361   1.437  1.00  0.00     0.000 C 
HETATM   10  C10 UNL     1       3.881   0.014   1.355  1.00  0.00     0.000 C 
HETATM   11  C11 UNL     1       0.023  -0.029   0.529  1.00  0.00     0.000 C 
HETATM   12  C12 UNL     1      -0.832  -0.926  -0.420  1.00  0.00     0.000 C 
HETATM   13  C13 UNL     1      -0.264  -0.973  -1.848  1.00  0.00     0.000 C 
HETATM   14  C14 UNL     1       1.209  -1.397  -1.858  1.00  0.00     0.000 C 
HETATM   15  C15 UNL     1      -2.316  -0.500  -0.420  1.00  0.00     0.000 C 
HETATM   16  C16 UNL     1      -2.844  -0.633   1.014  1.00  0.00     0.000 C 
HETATM   17  C17 UNL     1      -2.102   0.303   1.971  1.00  0.00     0.000 C 
HETATM   18  C18 UNL     1      -0.604  -0.057   1.949  1.00  0.00     0.000 C 
HETATM   19  C19 UNL     1      -4.365  -0.492   0.885  1.00  0.00     0.002 C 
HETATM   20  C20 UNL     1      -4.647  -1.092  -0.504  1.00  0.00     0.000 C 
HETATM   21  C21 UNL     1      -3.285  -1.475  -1.092  1.00  0.00     0.000 C 
HETATM   22  C27 UNL     1      -2.557   0.883  -1.037  1.00  0.00     0.000 C 
HETATM   23  C28 UNL     1      -0.002   1.432   0.041  1.00  0.00     0.000 C 
HETATM   24  C29 UNL     1       1.568  -1.967   1.096  1.00  0.00     0.000 C 
HETATM   25  C30 UNL     1       3.879  -2.297  -0.711  1.00  0.00     0.000 C 
HETATM   26  C31 UNL     1       6.436  -1.215   0.799  1.00  0.00     0.000 C 
HETATM   27  C32 UNL     1       6.649   1.184   0.215  1.00  0.00     0.000 C 
ENDROOT
BRANCH  19  28
HETATM   28  C22 UNL     1      -4.844   0.955   0.961  1.00  0.00     0.030 C 
HETATM   29  C23 UNL     1      -4.990   1.367   2.428  1.00  0.00     0.003 C 
BRANCH  28  30
HETATM   30  C24 UNL     1      -6.147   1.105   0.174  1.00  0.00     0.152 C 
BRANCH  30  31
HETATM   31  O1  UNL     1      -6.893   2.195   0.695  1.00  0.00    -0.302 OA
BRANCH  31  32
HETATM   32  C25 UNL     1      -8.041   2.377   0.051  1.00  0.00     0.272 C 
HETATM   33  O2  UNL     1      -8.408   1.691  -0.875  1.00  0.00    -0.264 OA
HETATM   34  C26 UNL     1      -8.883   3.519   0.553  1.00  0.00     0.106 C 
ENDBRANCH  31  32
ENDBRANCH  30  31
ENDBRANCH  28  30
ENDBRANCH  19  28
TORSDOF 4
