REMARK  8 active torsions:
REMARK  status: ('A' for Active; 'I' for Inactive)
REMARK    1  A    between atoms: C4_4  and  O5_21 
REMARK    2  A    between atoms: C5_5  and  C7_7 
REMARK    3  A    between atoms: C7_7  and  O1_8 
REMARK    4  A    between atoms: O1_8  and  C8_9 
REMARK    5  A    between atoms: C8_9  and  C9_11 
REMARK    6  A    between atoms: C10_12  and  C11_13 
REMARK    7  A    between atoms: O5_21  and  C17_22 
REMARK    8  A    between atoms: C21_26  and  C22_28 
ROOT
HETATM    1  C1  UNL     1       1.399  -2.891   3.996  1.00  0.00    -0.000 A 
HETATM    2  C2  UNL     1       0.199  -2.170   4.117  1.00  0.00     0.002 A 
HETATM    3  C3  UNL     1      -0.027  -1.043   3.312  1.00  0.00     0.024 A 
HETATM    4  C4  UNL     1       0.945  -0.629   2.383  1.00  0.00     0.095 A 
HETATM    5  C5  UNL     1       2.149  -1.351   2.264  1.00  0.00     0.030 A 
HETATM    6  C6  UNL     1       2.373  -2.482   3.070  1.00  0.00     0.000 A 
ENDROOT
BRANCH   5   7
HETATM    7  C7  UNL     1       3.186  -0.928   1.285  1.00  0.00     0.181 C 
BRANCH   7   8
HETATM    8  O1  UNL     1       2.633  -0.928  -0.022  1.00  0.00    -0.293 OA
BRANCH   8   9
HETATM    9  C8  UNL     1       2.389  -2.156  -0.469  1.00  0.00     0.296 C 
HETATM   10  O2  UNL     1       2.656  -3.162   0.146  1.00  0.00    -0.259 OA
BRANCH   9  11
HETATM   11  C9  UNL     1       1.758  -2.240  -1.791  1.00  0.00     0.068 C 
HETATM   12  C10 UNL     1       1.451  -1.127  -2.475  1.00  0.00     0.005 C 
BRANCH  12  13
HETATM   13  C11 UNL     1       0.811  -1.264  -3.817  1.00  0.00     0.002 A 
HETATM   14  C12 UNL     1       1.082  -2.389  -4.617  1.00  0.00     0.029 A 
HETATM   15  C13 UNL     1       0.481  -2.521  -5.881  1.00  0.00     0.156 A 
HETATM   16  C14 UNL     1      -0.396  -1.525  -6.348  1.00  0.00     0.156 A 
HETATM   17  O4  UNL     1       0.742  -3.578  -6.625  1.00  0.00    -0.188 OA
HETATM   18  C15 UNL     1      -0.670  -0.402  -5.547  1.00  0.00     0.029 A 
HETATM   19  O3  UNL     1      -0.965  -1.642  -7.531  1.00  0.00    -0.188 OA
HETATM   20  C16 UNL     1      -0.068  -0.269  -4.283  1.00  0.00     0.002 A 
ENDBRANCH  12  13
ENDBRANCH   9  11
ENDBRANCH   8   9
ENDBRANCH   7   8
ENDBRANCH   5   7
BRANCH   4  21
HETATM   21  O5  UNL     1       0.723   0.432   1.633  1.00  0.00    -0.304 OA
BRANCH  21  22
HETATM   22  C17 UNL     1      -0.174   1.420   2.125  1.00  0.00     0.274 C 
HETATM   23  C18 UNL     1       0.219   2.809   1.578  1.00  0.00     0.241 C 
HETATM   24  C19 UNL     1      -0.812   3.881   1.990  1.00  0.00     0.220 C 
HETATM   25  O10 UNL     1       1.500   3.149   2.078  1.00  0.00    -0.215 OA
HETATM   26  C20 UNL     1      -2.234   3.401   1.627  1.00  0.00     0.215 C 
HETATM   27  O9  UNL     1      -0.531   5.102   1.324  1.00  0.00    -0.218 OA
HETATM   28  C21 UNL     1      -2.506   1.981   2.176  1.00  0.00     0.184 C 
HETATM   29  O8  UNL     1      -3.195   4.287   2.170  1.00  0.00    -0.218 OA
HETATM   30  O6  UNL     1      -1.494   1.094   1.711  1.00  0.00    -0.326 OA
BRANCH  28  31
HETATM   31  C22 UNL     1      -3.848   1.408   1.707  1.00  0.00     0.214 C 
HETATM   32  O7  UNL     1      -4.066   0.197   2.394  1.00  0.00    -0.218 OA
ENDBRANCH  28  31
ENDBRANCH  21  22
ENDBRANCH   4  21
TORSDOF 8
