REMARK  20 active torsions:
REMARK  status: ('A' for Active; 'I' for Inactive)
REMARK    1  A    between atoms: C1_1  and  C2_2 
REMARK    2  A    between atoms: C1_1  and  O5_12 
REMARK    3  A    between atoms: O5_12  and  C8_13 
REMARK    4  A    between atoms: C8_13  and  C9_14 
REMARK    5  A    between atoms: C10_15  and  O22_59 
REMARK    6  A    between atoms: C11_16  and  O17_46 
REMARK    7  A    between atoms: C12_17  and  O12_33 
REMARK    8  A    between atoms: C13_18  and  O7_20 
REMARK    9  A    between atoms: O7_20  and  C14_21 
REMARK   10  A    between atoms: C14_21  and  C15_22 
REMARK   11  A    between atoms: C15_22  and  C16_24 
REMARK   12  A    between atoms: O12_33  and  C22_34 
REMARK   13  A    between atoms: C22_34  and  C23_35 
REMARK   14  A    between atoms: C23_35  and  C24_36 
REMARK   15  A    between atoms: O17_46  and  C30_47 
REMARK   16  A    between atoms: C30_47  and  C31_48 
REMARK   17  A    between atoms: C31_48  and  C32_50 
REMARK   18  A    between atoms: O22_59  and  C38_60 
REMARK   19  A    between atoms: C38_60  and  C39_61 
REMARK   20  A    between atoms: C39_61  and  C40_63 
ROOT
HETATM    1  C9  UNL     1      -1.113  -1.338  -0.615  1.00  0.00     0.178 C 
HETATM    2  C10 UNL     1      -1.293   0.197  -0.781  1.00  0.00     0.175 C 
HETATM    3  C11 UNL     1       0.045   0.988  -0.766  1.00  0.00     0.177 C 
HETATM    4  C12 UNL     1       1.176   0.184  -0.084  1.00  0.00     0.202 C 
HETATM    5  C13 UNL     1       1.285  -1.287  -0.604  1.00  0.00     0.267 C 
HETATM    6  O6  UNL     1       0.094  -1.729  -1.248  1.00  0.00    -0.326 OA
ENDROOT
BRANCH   1   7
HETATM    7  C8  UNL     1      -2.250  -2.135  -1.258  1.00  0.00     0.184 C 
BRANCH   7   8
HETATM    8  O5  UNL     1      -1.873  -3.500  -1.361  1.00  0.00    -0.296 OA
BRANCH   8   9
HETATM    9  C1  UNL     1      -2.826  -4.248  -1.906  1.00  0.00     0.296 C 
HETATM   10  O4  UNL     1      -3.918  -3.830  -2.215  1.00  0.00    -0.259 OA
BRANCH   9  11
HETATM   11  C2  UNL     1      -2.463  -5.682  -2.127  1.00  0.00     0.067 A 
HETATM   12  C3  UNL     1      -1.191  -6.151  -1.750  1.00  0.00     0.035 A 
HETATM   13  C4  UNL     1      -0.848  -7.498  -1.955  1.00  0.00     0.158 A 
HETATM   14  O1  UNL     1       0.346  -7.932  -1.602  1.00  0.00    -0.188 OA
HETATM   15  C5  UNL     1      -1.777  -8.379  -2.539  1.00  0.00     0.181 A 
HETATM   16  O2  UNL     1      -1.455  -9.643  -2.732  1.00  0.00    -0.186 OA
HETATM   17  C6  UNL     1      -3.049  -7.910  -2.916  1.00  0.00     0.158 A 
HETATM   18  O3  UNL     1      -3.924  -8.733  -3.463  1.00  0.00    -0.188 OA
HETATM   19  C7  UNL     1      -3.391  -6.563  -2.709  1.00  0.00     0.035 A 
ENDBRANCH   9  11
ENDBRANCH   8   9
ENDBRANCH   7   8
ENDBRANCH   1   7
BRANCH   2  20
HETATM   20  O22 UNL     1      -2.119   0.658   0.273  1.00  0.00    -0.343 OA
BRANCH  20  21
HETATM   21  C38 UNL     1      -3.455   0.221   0.164  1.00  0.00     0.211 C 
BRANCH  21  22
HETATM   22  C39 UNL     1      -4.373   1.268   0.738  1.00  0.00     0.203 C 
HETATM   23  O23 UNL     1      -5.045   1.967   0.018  1.00  0.00    -0.289 OA
BRANCH  22  24
HETATM   24  C40 UNL     1      -4.428   1.416   2.225  1.00  0.00     0.042 A 
HETATM   25  C41 UNL     1      -3.602   0.625   3.043  1.00  0.00     0.033 A 
HETATM   26  C42 UNL     1      -3.650   0.764   4.440  1.00  0.00     0.158 A 
HETATM   27  C43 UNL     1      -4.531   1.697   5.022  1.00  0.00     0.181 A 
HETATM   28  O26 UNL     1      -2.873   0.021   5.201  1.00  0.00    -0.188 OA
HETATM   29  C44 UNL     1      -5.360   2.488   4.203  1.00  0.00     0.158 A 
HETATM   30  O25 UNL     1      -4.578   1.828   6.332  1.00  0.00    -0.186 OA
HETATM   31  C45 UNL     1      -5.305   2.346   2.807  1.00  0.00     0.033 A 
HETATM   32  O24 UNL     1      -6.184   3.363   4.744  1.00  0.00    -0.188 OA
ENDBRANCH  22  24
ENDBRANCH  21  22
ENDBRANCH  20  21
ENDBRANCH   2  20
BRANCH   3  33
HETATM   33  O17 UNL     1       0.441   1.244  -2.102  1.00  0.00    -0.343 OA
BRANCH  33  34
HETATM   34  C30 UNL     1      -0.277   2.297  -2.701  1.00  0.00     0.211 C 
BRANCH  34  35
HETATM   35  C31 UNL     1       0.408   3.604  -2.406  1.00  0.00     0.203 C 
HETATM   36  O18 UNL     1       1.441   3.637  -1.783  1.00  0.00    -0.289 OA
BRANCH  35  37
HETATM   37  C32 UNL     1      -0.229   4.859  -2.906  1.00  0.00     0.042 A 
HETATM   38  C33 UNL     1       0.352   6.107  -2.617  1.00  0.00     0.033 A 
HETATM   39  C34 UNL     1      -0.244   7.289  -3.086  1.00  0.00     0.158 A 
HETATM   40  C35 UNL     1      -1.426   7.225  -3.850  1.00  0.00     0.181 A 
HETATM   41  O21 UNL     1       0.303   8.457  -2.811  1.00  0.00    -0.188 OA
HETATM   42  C36 UNL     1      -2.008   5.977  -4.143  1.00  0.00     0.158 A 
HETATM   43  O20 UNL     1      -1.986   8.334  -4.293  1.00  0.00    -0.186 OA
HETATM   44  C37 UNL     1      -1.408   4.797  -3.670  1.00  0.00     0.033 A 
HETATM   45  O19 UNL     1      -3.113   5.912  -4.858  1.00  0.00    -0.188 OA
ENDBRANCH  35  37
ENDBRANCH  34  35
ENDBRANCH  33  34
ENDBRANCH   3  33
BRANCH   5  46
HETATM   46  O7  UNL     1       2.346  -1.381  -1.533  1.00  0.00    -0.321 OA
BRANCH  46  47
HETATM   47  C14 UNL     1       2.635  -2.709  -1.910  1.00  0.00     0.213 C 
BRANCH  47  48
HETATM   48  C15 UNL     1       3.850  -2.723  -2.801  1.00  0.00     0.203 C 
HETATM   49  O8  UNL     1       3.746  -2.918  -3.990  1.00  0.00    -0.289 OA
BRANCH  48  50
HETATM   50  C16 UNL     1       5.184  -2.490  -2.174  1.00  0.00     0.042 A 
HETATM   51  C17 UNL     1       5.279  -2.219  -0.797  1.00  0.00     0.033 A 
HETATM   52  C18 UNL     1       6.535  -2.000  -0.205  1.00  0.00     0.158 A 
HETATM   53  C19 UNL     1       7.701  -2.051  -0.992  1.00  0.00     0.181 A 
HETATM   54  O11 UNL     1       6.617  -1.746   1.086  1.00  0.00    -0.188 OA
HETATM   55  C20 UNL     1       7.607  -2.322  -2.371  1.00  0.00     0.158 A 
HETATM   56  O10 UNL     1       8.879  -1.846  -0.439  1.00  0.00    -0.186 OA
HETATM   57  C21 UNL     1       6.350  -2.541  -2.959  1.00  0.00     0.033 A 
HETATM   58  O9  UNL     1       8.697  -2.371  -3.111  1.00  0.00    -0.188 OA
ENDBRANCH  48  50
ENDBRANCH  47  48
ENDBRANCH  46  47
ENDBRANCH   5  46
BRANCH   4  59
HETATM   59  O12 UNL     1       0.912   0.156   1.307  1.00  0.00    -0.341 OA
BRANCH  59  60
HETATM   60  C22 UNL     1       2.053  -0.133   2.082  1.00  0.00     0.211 C 
BRANCH  60  61
HETATM   61  C23 UNL     1       1.684  -0.123   3.541  1.00  0.00     0.203 C 
HETATM   62  O16 UNL     1       1.588  -1.152   4.168  1.00  0.00    -0.289 OA
BRANCH  61  63
HETATM   63  C24 UNL     1       1.436   1.197   4.195  1.00  0.00     0.042 A 
HETATM   64  C25 UNL     1       1.504   2.381   3.439  1.00  0.00     0.033 A 
HETATM   65  C26 UNL     1       1.273   3.625   4.053  1.00  0.00     0.158 A 
HETATM   66  C27 UNL     1       0.973   3.686   5.426  1.00  0.00     0.181 A 
HETATM   67  O15 UNL     1       1.338   4.731   3.338  1.00  0.00    -0.188 OA
HETATM   68  C28 UNL     1       0.904   2.502   6.184  1.00  0.00     0.158 A 
HETATM   69  O14 UNL     1       0.754   4.852   6.002  1.00  0.00    -0.186 OA
HETATM   70  C29 UNL     1       1.137   1.260   5.566  1.00  0.00     0.033 A 
HETATM   71  O13 UNL     1       0.623   2.553   7.471  1.00  0.00    -0.188 OA
ENDBRANCH  61  63
ENDBRANCH  60  61
ENDBRANCH  59  60
ENDBRANCH   4  59
TORSDOF 20
