REMARK  2 active torsions:
REMARK  status: ('A' for Active; 'I' for Inactive)
REMARK    1  A    between atoms: C1_1  and  C11_11 
REMARK    2  A    between atoms: C2_2  and  C7_7 
ROOT
HETATM    1  C1  UNL     1       0.320   0.691  -0.213  1.00  0.00     0.022 C 
HETATM    2  C2  UNL     1      -0.420  -0.641  -0.506  1.00  0.00     0.022 C 
HETATM    3  C3  UNL     1       0.348  -1.857   0.047  1.00  0.00     0.004 C 
HETATM    4  C4  UNL     1       1.793  -1.906  -0.469  1.00  0.00     0.000 C 
HETATM    5  C5  UNL     1       2.535  -0.596  -0.180  1.00  0.00     0.000 C 
HETATM    6  C6  UNL     1       1.774   0.615  -0.736  1.00  0.00     0.004 C 
HETATM    7  C10 UNL     1       0.328   0.992   1.291  1.00  0.00     0.004 C 
ENDROOT
BRANCH   1   8
HETATM    8  C11 UNL     1      -0.381   1.840  -0.900  1.00  0.00    -0.026 C 
HETATM    9  C12 UNL     1      -0.166   3.086  -0.447  1.00  0.00    -0.005 C 
ENDBRANCH   1   8
BRANCH   2  10
HETATM   10  C7  UNL     1      -1.842  -0.639   0.010  1.00  0.00    -0.044 C 
HETATM   11  C8  UNL     1      -2.846  -0.590  -0.881  1.00  0.00    -0.009 C 
HETATM   12  C9  UNL     1      -2.182  -0.689   1.475  1.00  0.00     0.026 C 
ENDBRANCH   2  10
TORSDOF 2
