REMARK  5 active torsions:
REMARK  status: ('A' for Active; 'I' for Inactive)
REMARK    1  A    between atoms: C2_2  and  O3_33 
REMARK    2  A    between atoms: C16_16  and  C25_25 
REMARK    3  A    between atoms: O3_33  and  C31_34 
REMARK    4  A    between atoms: C31_34  and  C32_35 
REMARK    5  A    between atoms: C33_36  and  C34_37 
ROOT
HETATM    1  C1  UNL     1      -1.020   1.934   2.306  1.00  0.00     0.180 C 
HETATM    2  C2  UNL     1       0.018   1.343   3.279  1.00  0.00     0.155 C 
HETATM    3  C3  UNL     1       1.417   1.204   2.633  1.00  0.00     0.028 C 
HETATM    4  C4  UNL     1       1.313   0.438   1.277  1.00  0.00     0.003 C 
HETATM    5  C5  UNL     1       0.296   1.070   0.275  1.00  0.00     0.003 C 
HETATM    6  C6  UNL     1      -1.081   1.153   0.979  1.00  0.00     0.035 C 
HETATM    7  C7  UNL     1       0.176   0.243  -1.062  1.00  0.00     0.005 C 
HETATM    8  C8  UNL     1       0.805  -1.178  -1.035  1.00  0.00     0.004 C 
HETATM    9  C9  UNL     1       0.460  -1.831   0.314  1.00  0.00     0.000 C 
HETATM   10  C10 UNL     1       1.054  -1.075   1.512  1.00  0.00     0.000 C 
HETATM   11  C11 UNL     1       0.258  -2.002  -2.251  1.00  0.00     0.015 C 
HETATM   12  C12 UNL     1       0.457  -1.233  -3.560  1.00  0.00    -0.049 C 
HETATM   13  C13 UNL     1       0.631   0.109  -3.578  1.00  0.00    -0.035 C 
HETATM   14  C14 UNL     1       0.664   0.968  -2.334  1.00  0.00     0.025 C 
HETATM   15  C15 UNL     1       0.452  -1.974  -4.893  1.00  0.00     0.028 C 
HETATM   16  C16 UNL     1       1.052  -3.412  -4.863  1.00  0.00     0.082 C 
HETATM   17  C17 UNL     1       0.599  -4.164  -3.598  1.00  0.00     0.011 C 
HETATM   18  C18 UNL     1       0.929  -3.397  -2.316  1.00  0.00     0.004 C 
HETATM   19  C19 UNL     1       0.614  -4.227  -6.111  1.00  0.00     0.011 C 
HETATM   20  C20 UNL     1       0.283  -3.336  -7.314  1.00  0.00     0.001 C 
HETATM   21  C21 UNL     1      -0.912  -2.394  -7.023  1.00  0.00     0.000 C 
HETATM   22  C22 UNL     1      -0.950  -1.979  -5.529  1.00  0.00     0.004 C 
HETATM   23  C23 UNL     1      -2.226  -3.100  -7.380  1.00  0.00     0.000 C 
HETATM   24  C24 UNL     1      -0.785  -1.146  -7.906  1.00  0.00     0.000 C 
HETATM   25  C26 UNL     1      -1.259  -2.216  -2.118  1.00  0.00     0.004 C 
HETATM   26  C27 UNL     1       2.341  -1.079  -1.148  1.00  0.00     0.000 C 
HETATM   27  C28 UNL     1       0.718   2.515  -0.055  1.00  0.00     0.000 C 
HETATM   28  C29 UNL     1       2.348   0.454   3.595  1.00  0.00     0.003 C 
HETATM   29  C30 UNL     1       2.041   2.593   2.430  1.00  0.00     0.003 C 
HETATM   30  O6  UNL     1      -2.298   1.907   2.912  1.00  0.00    -0.221 OA
ENDROOT
BRANCH   2  31
HETATM   31  O3  UNL     1       0.108   2.164   4.437  1.00  0.00    -0.298 OA
BRANCH  31  32
HETATM   32  C31 UNL     1      -0.820   1.866   5.342  1.00  0.00     0.296 C 
HETATM   33  O5  UNL     1      -1.490   0.860   5.314  1.00  0.00    -0.259 OA
BRANCH  32  34
HETATM   34  C32 UNL     1      -1.001   2.849   6.418  1.00  0.00     0.068 C 
HETATM   35  C33 UNL     1      -1.912   2.646   7.384  1.00  0.00     0.005 C 
BRANCH  35  36
HETATM   36  C34 UNL     1      -2.059   3.674   8.456  1.00  0.00     0.000 A 
HETATM   37  C35 UNL     1      -3.013   3.498   9.475  1.00  0.00     0.002 A 
HETATM   38  C36 UNL     1      -3.151   4.466  10.484  1.00  0.00     0.027 A 
HETATM   39  C37 UNL     1      -2.338   5.614  10.480  1.00  0.00     0.131 A 
HETATM   40  C38 UNL     1      -1.386   5.788   9.460  1.00  0.00     0.027 A 
HETATM   41  O4  UNL     1      -2.468   6.521  11.427  1.00  0.00    -0.190 OA
HETATM   42  C39 UNL     1      -1.245   4.821   8.450  1.00  0.00     0.002 A 
ENDBRANCH  35  36
ENDBRANCH  32  34
ENDBRANCH  31  32
ENDBRANCH   2  31
BRANCH  16  43
HETATM   43  C25 UNL     1       2.563  -3.302  -4.863  1.00  0.00     0.184 C 
HETATM   44  O1  UNL     1       3.109  -2.224  -4.863  1.00  0.00    -0.647 OA
HETATM   45  O2  UNL     1       3.214  -4.462  -4.863  1.00  0.00    -0.647 OA
ENDBRANCH  16  43
TORSDOF 5
