REMARK  4 active torsions:
REMARK  status: ('A' for Active; 'I' for Inactive)
REMARK    1  A    between atoms: C3_3  and  O2_12 
REMARK    2  A    between atoms: C4_4  and  C8_9 
REMARK    3  A    between atoms: C6_6  and  O1_7 
REMARK    4  A    between atoms: C8_9  and  C9_10 
ROOT
HETATM    1  C1  UNL     1       1.144   1.021   0.611  1.00  0.00     0.143 A 
HETATM    2  C2  UNL     1       1.232  -0.344   0.324  1.00  0.00     0.143 A 
HETATM    3  C3  UNL     1       0.062  -1.113   0.092  1.00  0.00     0.115 A 
HETATM    4  C4  UNL     1      -1.199  -0.473   0.152  1.00  0.00     0.009 A 
HETATM    5  C5  UNL     1      -1.285   0.902   0.439  1.00  0.00     0.024 A 
HETATM    6  C6  UNL     1      -0.119   1.664   0.674  1.00  0.00     0.118 A 
HETATM    7  O3  UNL     1       2.517  -0.703   0.322  1.00  0.00    -0.297 OA
HETATM    8  C12 UNL     1       3.338   0.449   0.613  1.00  0.00     0.304 A 
HETATM    9  O4  UNL     1       2.373   1.510   0.787  1.00  0.00    -0.297 OA
ENDROOT
BRANCH   4  10
HETATM   10  C8  UNL     1      -2.438  -1.234  -0.086  1.00  0.00     0.054 C 
BRANCH  10  11
HETATM   11  C9  UNL     1      -2.682  -1.477  -1.553  1.00  0.00    -0.021 C 
HETATM   12  C10 UNL     1      -3.223  -0.488  -2.283  1.00  0.00    -0.005 C 
ENDBRANCH  10  11
ENDBRANCH   4  10
BRANCH   3  13
HETATM   13  O2  UNL     1       0.023  -2.424  -0.190  1.00  0.00    -0.326 OA
HETATM   14  C11 UNL     1       1.254  -3.127  -0.266  1.00  0.00     0.181 C 
ENDBRANCH   3  13
BRANCH   6  15
HETATM   15  O1  UNL     1      -0.350   2.959   0.937  1.00  0.00    -0.326 OA
HETATM   16  C7  UNL     1       0.767   3.797   1.193  1.00  0.00     0.181 C 
ENDBRANCH   6  15
TORSDOF 4
