REMARK  0 active torsions:
REMARK  status: ('A' for Active; 'I' for Inactive)
ROOT
HETATM    1  C1  UNL     1       5.195  -0.344   0.559  1.00  0.00     0.033 C 
HETATM    2  C2  UNL     1       5.639   0.576  -0.586  1.00  0.00     0.152 C 
HETATM    3  C3  UNL     1       4.684   0.482  -1.820  1.00  0.00     0.028 C 
HETATM    4  C4  UNL     1       3.275  -0.074  -1.428  1.00  0.00     0.002 C 
HETATM    5  C5  UNL     1       2.762   0.404  -0.037  1.00  0.00     0.000 C 
HETATM    6  C6  UNL     1       3.783  -0.010   1.074  1.00  0.00     0.003 C 
HETATM    7  C7  UNL     1       1.342  -0.213   0.262  1.00  0.00     0.000 C 
HETATM    8  C8  UNL     1       0.293   0.090  -0.873  1.00  0.00     0.000 C 
HETATM    9  C9  UNL     1       0.855  -0.445  -2.211  1.00  0.00     0.000 C 
HETATM   10  C10 UNL     1       2.232   0.143  -2.545  1.00  0.00     0.000 C 
HETATM   11  C11 UNL     1      -1.125  -0.520  -0.549  1.00  0.00     0.003 C 
HETATM   12  C12 UNL     1      -1.637  -0.002   0.830  1.00  0.00     0.001 C 
HETATM   13  C13 UNL     1      -0.598  -0.254   1.941  1.00  0.00     0.000 C 
HETATM   14  C14 UNL     1       0.787   0.314   1.604  1.00  0.00     0.000 C 
HETATM   15  C15 UNL     1      -3.065  -0.535   1.182  1.00  0.00     0.006 C 
HETATM   16  C16 UNL     1      -4.096  -0.180   0.066  1.00  0.00     0.029 C 
HETATM   17  C17 UNL     1      -3.568  -0.660  -1.309  1.00  0.00     0.152 C 
HETATM   18  C18 UNL     1      -2.162  -0.131  -1.631  1.00  0.00     0.033 C 
HETATM   19  O1  UNL     1      -4.449  -0.268  -2.348  1.00  0.00    -0.224 OA
HETATM   20  C19 UNL     1      -5.467  -0.859   0.352  1.00  0.00     0.007 C 
HETATM   21  C20 UNL     1      -5.793  -1.072   1.838  1.00  0.00     0.022 C 
HETATM   22  C21 UNL     1      -5.059  -0.094   2.717  1.00  0.00    -0.044 C 
HETATM   23  C22 UNL     1      -3.553  -0.057   2.584  1.00  0.00     0.018 C 
HETATM   24  C23 UNL     1      -2.967  -0.900   3.723  1.00  0.00     0.004 C 
HETATM   25  C24 UNL     1      -5.713   0.715   3.572  1.00  0.00    -0.009 C 
HETATM   26  C25 UNL     1      -4.291   1.350   0.049  1.00  0.00     0.003 C 
HETATM   27  C26 UNL     1      -1.063  -2.059  -0.525  1.00  0.00     0.000 C 
HETATM   28  C27 UNL     1       0.111   1.613  -1.027  1.00  0.00     0.000 C 
HETATM   29  C28 UNL     1       1.523  -1.738   0.398  1.00  0.00     0.000 C 
HETATM   30  C29 UNL     1       2.697   1.943  -0.049  1.00  0.00     0.000 C 
HETATM   31  C30 UNL     1       4.574   1.834  -2.553  1.00  0.00     0.003 C 
HETATM   32  C31 UNL     1       5.305  -0.494  -2.830  1.00  0.00     0.003 C 
HETATM   33  O2  UNL     1       5.731   1.893  -0.070  1.00  0.00    -0.224 OA
ENDROOT
TORSDOF 0
