REMARK  12 active torsions:
REMARK  status: ('A' for Active; 'I' for Inactive)
REMARK    1  A    between atoms: C2_2  and  O10_43 
REMARK    2  A    between atoms: C18_19  and  C21_22 
REMARK    3  A    between atoms: C21_22  and  C22_23 
REMARK    4  A    between atoms: C22_23  and  C23_24 
REMARK    5  A    between atoms: C23_24  and  C24_25 
REMARK    6  A    between atoms: C24_25  and  O2_26 
REMARK    7  A    between atoms: O2_26  and  C25_27 
REMARK    8  A    between atoms: C29_31  and  C30_33 
REMARK    9  A    between atoms: O10_43  and  C34_44 
REMARK   10  A    between atoms: C35_46  and  C45_63 
REMARK   11  A    between atoms: C38_49  and  O12_50 
REMARK   12  A    between atoms: O12_50  and  C39_51 
ROOT
HETATM    1  C1  UNL     1       4.820   2.873  -1.557  1.00  0.00     0.030 C 
HETATM    2  C2  UNL     1       5.531   1.568  -1.166  1.00  0.00     0.122 C 
HETATM    3  C3  UNL     1       4.791   0.338  -1.711  1.00  0.00     0.051 C 
HETATM    4  C4  UNL     1       3.301   0.363  -1.422  1.00  0.00    -0.047 C 
HETATM    5  C5  UNL     1       2.545   1.658  -1.734  1.00  0.00     0.015 C 
HETATM    6  C6  UNL     1       3.334   2.861  -1.156  1.00  0.00     0.006 C 
HETATM    7  C7  UNL     1       1.107   1.635  -1.141  1.00  0.00     0.006 C 
HETATM    8  C8  UNL     1       0.441   0.264  -1.406  1.00  0.00     0.033 C 
HETATM    9  C9  UNL     1       1.223  -0.809  -0.629  1.00  0.00     0.028 C 
HETATM   10  C10 UNL     1       2.703  -0.740  -0.918  1.00  0.00    -0.035 C 
HETATM   11  C11 UNL     1      -1.080   0.285  -1.133  1.00  0.00     0.129 C 
HETATM   12  C12 UNL     1      -1.828   1.316  -2.045  1.00  0.00     0.028 C 
HETATM   13  C13 UNL     1      -0.861   2.395  -2.590  1.00  0.00     0.003 C 
HETATM   14  C14 UNL     1       0.213   2.816  -1.578  1.00  0.00     0.001 C 
HETATM   15  C15 UNL     1      -2.875   1.994  -1.111  1.00  0.00     0.035 C 
HETATM   16  C16 UNL     1      -2.846   1.246   0.215  1.00  0.00     0.120 C 
HETATM   17  C17 UNL     1      -1.437   0.678   0.312  1.00  0.00     0.060 C 
HETATM   18  O1  UNL     1      -3.816   0.223   0.113  1.00  0.00    -0.335 OA
HETATM   19  C18 UNL     1      -4.830   0.561  -0.809  1.00  0.00     0.219 C 
HETATM   20  C19 UNL     1      -4.381   1.897  -1.440  1.00  0.00     0.057 C 
HETATM   21  C20 UNL     1      -5.090   3.088  -0.791  1.00  0.00     0.005 C 
HETATM   22  O8  UNL     1      -4.895  -0.449  -1.795  1.00  0.00    -0.196 OA
HETATM   23  C32 UNL     1      -2.504   0.676  -3.266  1.00  0.00     0.003 C 
HETATM   24  O9  UNL     1      -1.580  -1.027  -1.359  1.00  0.00    -0.226 OA
HETATM   25  C33 UNL     1       2.479   1.773  -3.266  1.00  0.00     0.004 C 
ENDROOT
BRANCH   2  26
HETATM   26  O10 UNL     1       5.611   1.481   0.244  1.00  0.00    -0.331 OA
BRANCH  26  27
HETATM   27  C34 UNL     1       6.412   0.404   0.689  1.00  0.00     0.267 C 
HETATM   28  O11 UNL     1       5.545  -0.637   1.137  1.00  0.00    -0.326 OA
HETATM   29  C35 UNL     1       6.162  -1.621   1.951  1.00  0.00     0.184 C 
HETATM   30  C36 UNL     1       6.527  -0.988   3.322  1.00  0.00     0.215 C 
HETATM   31  C37 UNL     1       6.912   0.516   3.234  1.00  0.00     0.217 C 
HETATM   32  O18 UNL     1       7.617  -1.715   3.863  1.00  0.00    -0.218 OA
HETATM   33  C38 UNL     1       7.379   0.900   1.812  1.00  0.00     0.207 C 
HETATM   34  O17 UNL     1       5.772   1.297   3.541  1.00  0.00    -0.218 OA
BRANCH  29  35
HETATM   35  C45 UNL     1       5.176  -2.785   2.088  1.00  0.00     0.214 C 
HETATM   36  O19 UNL     1       5.072  -3.426   0.836  1.00  0.00    -0.218 OA
ENDBRANCH  29  35
BRANCH  33  37
HETATM   37  O12 UNL     1       8.654   0.324   1.603  1.00  0.00    -0.324 OA
BRANCH  37  38
HETATM   38  C39 UNL     1       9.377   0.936   0.553  1.00  0.00     0.270 C 
HETATM   39  C40 UNL     1      10.537   0.016   0.090  1.00  0.00     0.241 C 
HETATM   40  C41 UNL     1      11.428   0.742  -0.945  1.00  0.00     0.220 C 
HETATM   41  O16 UNL     1      10.000  -1.162  -0.492  1.00  0.00    -0.215 OA
HETATM   42  C42 UNL     1      11.867   2.123  -0.406  1.00  0.00     0.212 C 
HETATM   43  O15 UNL     1      12.555  -0.045  -1.297  1.00  0.00    -0.218 OA
HETATM   44  C43 UNL     1      10.651   2.940   0.092  1.00  0.00     0.151 C 
HETATM   45  O14 UNL     1      12.789   1.982   0.664  1.00  0.00    -0.218 OA
HETATM   46  O13 UNL     1       9.889   2.178   1.029  1.00  0.00    -0.329 OA
HETATM   47  C44 UNL     1       9.733   3.393  -1.051  1.00  0.00     0.035 C 
ENDBRANCH  37  38
ENDBRANCH  33  37
ENDBRANCH  26  27
ENDBRANCH   2  26
BRANCH  19  48
HETATM   48  C21 UNL     1      -6.174   0.564  -0.074  1.00  0.00     0.059 C 
BRANCH  48  49
HETATM   49  C22 UNL     1      -6.459  -0.836   0.471  1.00  0.00     0.008 C 
BRANCH  49  50
HETATM   50  C23 UNL     1      -7.648  -0.865   1.428  1.00  0.00     0.030 C 
HETATM   51  C31 UNL     1      -7.352  -0.174   2.760  1.00  0.00     0.003 C 
BRANCH  50  52
HETATM   52  C24 UNL     1      -8.941  -0.363   0.781  1.00  0.00     0.145 C 
BRANCH  52  53
HETATM   53  O2  UNL     1     -10.024  -0.770   1.586  1.00  0.00    -0.329 OA
BRANCH  53  54
HETATM   54  C25 UNL     1     -10.688  -1.916   1.090  1.00  0.00     0.270 C 
HETATM   55  C26 UNL     1     -11.957  -2.291   1.924  1.00  0.00     0.241 C 
HETATM   56  C27 UNL     1     -12.313  -3.799   1.797  1.00  0.00     0.220 C 
HETATM   57  O7  UNL     1     -11.801  -1.996   3.305  1.00  0.00    -0.215 OA
HETATM   58  C28 UNL     1     -11.793  -4.389   0.463  1.00  0.00     0.215 C 
HETATM   59  O6  UNL     1     -13.707  -4.002   1.947  1.00  0.00    -0.218 OA
HETATM   60  C29 UNL     1     -10.266  -4.137   0.277  1.00  0.00     0.184 C 
HETATM   61  O5  UNL     1     -12.492  -3.809  -0.629  1.00  0.00    -0.218 OA
HETATM   62  O3  UNL     1      -9.803  -3.025   1.045  1.00  0.00    -0.326 OA
BRANCH  60  63
HETATM   63  C30 UNL     1      -9.424  -5.338   0.715  1.00  0.00     0.214 C 
HETATM   64  O4  UNL     1      -8.096  -5.123   0.289  1.00  0.00    -0.218 OA
ENDBRANCH  60  63
ENDBRANCH  53  54
ENDBRANCH  52  53
ENDBRANCH  50  52
ENDBRANCH  49  50
ENDBRANCH  48  49
ENDBRANCH  19  48
TORSDOF 12
