REMARK  11 active torsions:
REMARK  status: ('A' for Active; 'I' for Inactive)
REMARK    1  A    between atoms: C1_1  and  O19_59 
REMARK    2  A    between atoms: C4_4  and  C7_7 
REMARK    3  A    between atoms: C8_8  and  O10_37 
REMARK    4  A    between atoms: C12_13  and  C23_31 
REMARK    5  A    between atoms: C13_14  and  O3_18 
REMARK    6  A    between atoms: O3_18  and  C16_19 
REMARK    7  A    between atoms: C20_23  and  C21_25 
REMARK    8  A    between atoms: C23_31  and  C24_32 
REMARK    9  A    between atoms: O10_37  and  C28_38 
REMARK   10  A    between atoms: C31_41  and  O12_45 
REMARK   11  A    between atoms: O12_45  and  C34_46 
ROOT
HETATM    1  C7  UNL     1       0.484   2.045   0.785  1.00  0.00     0.125 A 
HETATM    2  C8  UNL     1       0.768   0.814   1.279  1.00  0.00     0.158 A 
HETATM    3  C9  UNL     1      -0.334  -0.098   1.672  1.00  0.00     0.224 A 
HETATM    4  C10 UNL     1      -1.713   0.430   1.484  1.00  0.00     0.089 A 
HETATM    5  C11 UNL     1      -1.873   1.736   0.955  1.00  0.00     0.103 A 
HETATM    6  O1  UNL     1      -0.785   2.473   0.635  1.00  0.00    -0.305 OA
HETATM    7  C12 UNL     1      -3.172   2.266   0.764  1.00  0.00     0.028 A 
HETATM    8  C13 UNL     1      -4.309   1.490   1.104  1.00  0.00     0.097 A 
HETATM    9  C14 UNL     1      -4.145   0.187   1.633  1.00  0.00     0.052 A 
HETATM   10  C15 UNL     1      -2.850  -0.348   1.824  1.00  0.00     0.138 A 
HETATM   11  O2  UNL     1      -2.717  -1.584   2.326  1.00  0.00    -0.190 OA
HETATM   12  O9  UNL     1      -0.020  -1.184   2.105  1.00  0.00    -0.284 OA
ENDROOT
BRANCH   2  13
HETATM   13  O10 UNL     1       2.029   0.402   1.424  1.00  0.00    -0.298 OA
BRANCH  13  14
HETATM   14  C28 UNL     1       2.594  -0.049   0.201  1.00  0.00     0.274 C 
HETATM   15  C29 UNL     1       4.139  -0.164   0.359  1.00  0.00     0.241 C 
HETATM   16  C30 UNL     1       4.617  -1.609   0.596  1.00  0.00     0.217 C 
HETATM   17  O18 UNL     1       4.771   0.332  -0.807  1.00  0.00    -0.215 OA
HETATM   18  C31 UNL     1       4.025  -2.570  -0.484  1.00  0.00     0.178 C 
HETATM   19  O17 UNL     1       4.215  -1.969   1.908  1.00  0.00    -0.218 OA
HETATM   20  C32 UNL     1       2.654  -2.111  -1.063  1.00  0.00     0.148 C 
HETATM   21  O11 UNL     1       1.975  -1.299  -0.111  1.00  0.00    -0.329 OA
HETATM   22  C33 UNL     1       2.781  -1.342  -2.385  1.00  0.00     0.035 C 
BRANCH  18  23
HETATM   23  O12 UNL     1       3.914  -3.900  -0.002  1.00  0.00    -0.330 OA
BRANCH  23  24
HETATM   24  C34 UNL     1       4.818  -4.795  -0.621  1.00  0.00     0.218 C 
HETATM   25  C35 UNL     1       4.758  -6.178   0.113  1.00  0.00     0.236 C 
HETATM   26  C36 UNL     1       6.129  -6.891   0.082  1.00  0.00     0.220 C 
HETATM   27  O16 UNL     1       3.756  -6.998  -0.461  1.00  0.00    -0.215 OA
HETATM   28  C37 UNL     1       7.197  -5.979   0.740  1.00  0.00     0.212 C 
HETATM   29  O15 UNL     1       6.080  -8.127   0.775  1.00  0.00    -0.218 OA
HETATM   30  C38 UNL     1       6.869  -4.459   0.604  1.00  0.00     0.151 C 
HETATM   31  O14 UNL     1       8.461  -6.283   0.170  1.00  0.00    -0.218 OA
HETATM   32  O13 UNL     1       6.131  -4.234  -0.590  1.00  0.00    -0.332 OA
HETATM   33  C39 UNL     1       8.092  -3.525   0.588  1.00  0.00     0.035 C 
HETATM   34  C40 UNL     1       4.443  -4.838  -2.107  1.00  0.00     0.064 C 
ENDBRANCH  23  24
ENDBRANCH  18  23
ENDBRANCH  13  14
ENDBRANCH   2  13
BRANCH   1  35
HETATM   35  C4  UNL     1       1.605   2.957   0.395  1.00  0.00     0.025 A 
HETATM   36  C3  UNL     1       1.506   3.734  -0.773  1.00  0.00     0.004 A 
HETATM   37  C2  UNL     1       2.559   4.592  -1.139  1.00  0.00     0.024 A 
HETATM   38  C1  UNL     1       3.713   4.674  -0.342  1.00  0.00     0.094 A 
HETATM   39  C6  UNL     1       3.811   3.895   0.826  1.00  0.00     0.024 A 
HETATM   40  C5  UNL     1       2.758   3.039   1.193  1.00  0.00     0.004 A 
BRANCH  38  41
HETATM   41  O19 UNL     1       4.699   5.477  -0.686  1.00  0.00    -0.328 OA
HETATM   42  C41 UNL     1       5.789   5.619   0.215  1.00  0.00     0.181 C 
ENDBRANCH  38  41
ENDBRANCH   1  35
BRANCH   7  43
HETATM   43  C23 UNL     1      -3.344   3.621   0.213  1.00  0.00     0.056 C 
BRANCH  43  44
HETATM   44  C24 UNL     1      -4.141   3.619  -1.064  1.00  0.00    -0.030 C 
HETATM   45  C25 UNL     1      -3.484   3.477  -2.229  1.00  0.00    -0.048 C 
HETATM   46  C26 UNL     1      -1.996   3.309  -2.371  1.00  0.00     0.026 C 
HETATM   47  C27 UNL     1      -4.281   3.484  -3.506  1.00  0.00     0.026 C 
ENDBRANCH  43  44
ENDBRANCH   7  43
BRANCH   8  48
HETATM   48  O3  UNL     1      -5.543   1.982   0.928  1.00  0.00    -0.308 OA
BRANCH  48  49
HETATM   49  C16 UNL     1      -6.449   1.238   0.125  1.00  0.00     0.223 C 
HETATM   50  C17 UNL     1      -7.553   2.162  -0.490  1.00  0.00     0.236 C 
HETATM   51  C18 UNL     1      -8.897   1.414  -0.609  1.00  0.00     0.220 C 
HETATM   52  O8  UNL     1      -7.725   3.332   0.293  1.00  0.00    -0.215 OA
HETATM   53  C19 UNL     1      -9.344   0.822   0.760  1.00  0.00     0.215 C 
HETATM   54  O7  UNL     1      -9.893   2.207  -1.240  1.00  0.00    -0.218 OA
HETATM   55  C20 UNL     1      -8.143   0.475   1.691  1.00  0.00     0.184 C 
HETATM   56  O6  UNL     1     -10.246   1.668   1.453  1.00  0.00    -0.218 OA
HETATM   57  O4  UNL     1      -7.000   0.166   0.898  1.00  0.00    -0.329 OA
HETATM   58  C22 UNL     1      -5.631   0.551  -0.971  1.00  0.00     0.065 C 
BRANCH  55  59
HETATM   59  C21 UNL     1      -7.752   1.539   2.732  1.00  0.00     0.214 C 
HETATM   60  O5  UNL     1      -6.869   0.947   3.658  1.00  0.00    -0.218 OA
ENDBRANCH  55  59
ENDBRANCH  48  49
ENDBRANCH   8  48
TORSDOF 11
