REMARK  6 active torsions:
REMARK  status: ('A' for Active; 'I' for Inactive)
REMARK    1  A    between atoms: C1_1  and  C2_2 
REMARK    2  A    between atoms: C1_1  and  O5_16 
REMARK    3  A    between atoms: C3_3  and  C4_4 
REMARK    4  A    between atoms: C6_6  and  O1_7 
REMARK    5  A    between atoms: C9_11  and  O3_12 
REMARK    6  A    between atoms: O5_16  and  C12_17 
ROOT
HETATM    1  C4  UNL     1       0.369   1.050   0.000  1.00  0.00     0.004 A 
HETATM    2  C5  UNL     1       1.025   2.293   0.000  1.00  0.00     0.026 A 
HETATM    3  C6  UNL     1       0.281   3.486   0.000  1.00  0.00     0.121 A 
HETATM    4  C8  UNL     1      -1.127   3.435   0.000  1.00  0.00     0.175 A 
HETATM    5  O2  UNL     1      -1.826   4.552   0.000  1.00  0.00    -0.186 OA
HETATM    6  C9  UNL     1      -1.785   2.191   0.000  1.00  0.00     0.121 A 
HETATM    7  C11 UNL     1      -1.037   1.002   0.000  1.00  0.00     0.026 A 
ENDROOT
BRANCH   1   8
HETATM    8  C3  UNL     1       1.162  -0.215   0.000  1.00  0.00     0.006 C 
HETATM    9  C2  UNL     1       0.506  -1.387   0.000  1.00  0.00     0.068 C 
BRANCH   9  10
HETATM   10  C1  UNL     1       1.242  -2.657   0.000  1.00  0.00     0.296 C 
HETATM   11  O4  UNL     1       2.451  -2.662   0.000  1.00  0.00    -0.259 OA
BRANCH  10  12
HETATM   12  O5  UNL     1       0.496  -3.758   0.000  1.00  0.00    -0.298 OA
BRANCH  12  13
HETATM   13  C12 UNL     1       1.279  -4.942   0.000  1.00  0.00     0.152 C 
HETATM   14  C13 UNL     1       0.359  -6.163   0.000  1.00  0.00     0.035 C 
ENDBRANCH  12  13
ENDBRANCH  10  12
ENDBRANCH   9  10
ENDBRANCH   1   8
BRANCH   3  15
HETATM   15  O1  UNL     1       0.902   4.648   0.000  1.00  0.00    -0.326 OA
HETATM   16  C7  UNL     1       2.322   4.644   0.000  1.00  0.00     0.181 C 
ENDBRANCH   3  15
BRANCH   6  17
HETATM   17  O3  UNL     1      -3.102   2.138   0.000  1.00  0.00    -0.326 OA
HETATM   18  C10 UNL     1      -3.719   0.859   0.000  1.00  0.00     0.181 C 
ENDBRANCH   6  17
TORSDOF 6
