REMARK  14 active torsions:
REMARK  status: ('A' for Active; 'I' for Inactive)
REMARK    1  A    between atoms: C2_2  and  O5_25 
REMARK    2  A    between atoms: C7_7  and  C12_14 
REMARK    3  A    between atoms: C8_8  and  C11_11 
REMARK    4  A    between atoms: C12_14  and  C13_15 
REMARK    5  A    between atoms: C13_15  and  C14_16 
REMARK    6  A    between atoms: C14_16  and  C15_17 
REMARK    7  A    between atoms: O5_25  and  C21_26 
REMARK    8  A    between atoms: C23_29  and  O7_30 
REMARK    9  A    between atoms: O7_30  and  C24_31 
REMARK   10  A    between atoms: C26_33  and  O13_49 
REMARK   11  A    between atoms: C27_34  and  O8_35 
REMARK   12  A    between atoms: O8_35  and  C28_36 
REMARK   13  A    between atoms: C30_38  and  O11_44 
REMARK   14  A    between atoms: C38_51  and  O14_53 
ROOT
HETATM    1  C21 UNL     1       0.924  -0.297   1.535  1.00  0.00     0.238 C 
HETATM    2  O6  UNL     1       0.018   0.414   2.371  1.00  0.00    -0.331 OA
HETATM    3  C22 UNL     1      -0.275   1.738   1.947  1.00  0.00     0.147 C 
HETATM    4  C23 UNL     1      -0.924   1.701   0.543  1.00  0.00     0.172 C 
HETATM    5  C38 UNL     1      -0.043   0.926  -0.461  1.00  0.00     0.150 C 
HETATM    6  C39 UNL     1       0.326  -0.445   0.123  1.00  0.00     0.094 C 
HETATM    7  C41 UNL     1      -1.189   2.354   3.012  1.00  0.00     0.035 C 
ENDROOT
BRANCH   1   8
HETATM    8  O5  UNL     1       1.166  -1.576   2.078  1.00  0.00    -0.331 OA
BRANCH   8   9
HETATM    9  C2  UNL     1       2.381  -2.150   1.633  1.00  0.00     0.152 C 
HETATM   10  C1  UNL     1       2.342  -3.686   1.783  1.00  0.00     0.180 C 
HETATM   11  C6  UNL     1       3.690  -4.303   1.369  1.00  0.00     0.039 C 
HETATM   12  O15 UNL     1       1.326  -4.234   0.961  1.00  0.00    -0.221 OA
HETATM   13  C5  UNL     1       4.895  -3.748   2.164  1.00  0.00     0.018 C 
HETATM   14  C4  UNL     1       4.861  -2.221   2.168  1.00  0.00    -0.046 C 
HETATM   15  C7  UNL     1       6.209  -4.311   1.559  1.00  0.00     0.015 C 
HETATM   16  C20 UNL     1       4.779  -4.178   3.635  1.00  0.00     0.004 C 
HETATM   17  C3  UNL     1       3.533  -1.549   2.453  1.00  0.00     0.054 C 
HETATM   18  C10 UNL     1       5.959  -1.465   1.941  1.00  0.00    -0.034 C 
HETATM   19  C9  UNL     1       7.317  -2.057   1.644  1.00  0.00     0.036 C 
HETATM   20  C8  UNL     1       7.440  -3.531   2.059  1.00  0.00     0.092 C 
BRANCH  20  21
HETATM   21  C11 UNL     1       8.738  -4.109   1.553  1.00  0.00     0.185 C 
HETATM   22  O1  UNL     1       9.065  -3.992   0.394  1.00  0.00    -0.647 OA
HETATM   23  O2  UNL     1       9.469  -4.742   2.467  1.00  0.00    -0.647 OA
ENDBRANCH  20  21
BRANCH  15  24
HETATM   24  C12 UNL     1       6.348  -5.822   1.805  1.00  0.00     0.009 C 
BRANCH  24  25
HETATM   25  C13 UNL     1       6.900  -6.570   0.592  1.00  0.00     0.069 C 
BRANCH  25  26
HETATM   26  C14 UNL     1       6.914  -8.063   0.795  1.00  0.00     0.175 C 
HETATM   27  O4  UNL     1       6.549  -8.551   1.838  1.00  0.00    -0.291 OA
BRANCH  26  28
HETATM   28  C15 UNL     1       7.377  -8.916  -0.291  1.00  0.00     0.055 A 
HETATM   29  C16 UNL     1       7.832  -8.504  -1.543  1.00  0.00     0.031 A 
HETATM   30  C17 UNL     1       8.160  -9.678  -2.229  1.00  0.00     0.122 A 
HETATM   31  O3  UNL     1       7.936 -10.795  -1.477  1.00  0.00    -0.309 OA
HETATM   32  C18 UNL     1       7.455 -10.313  -0.293  1.00  0.00     0.081 A 
HETATM   33  C19 UNL     1       7.072 -11.240   0.842  1.00  0.00     0.058 C 
ENDBRANCH  26  28
ENDBRANCH  25  26
ENDBRANCH  24  25
ENDBRANCH  15  24
ENDBRANCH   8   9
ENDBRANCH   1   8
BRANCH   5  34
HETATM   34  O14 UNL     1      -0.732   0.736  -1.684  1.00  0.00    -0.351 OA
HETATM   35  C40 UNL     1      -0.445   1.729  -2.643  1.00  0.00     0.174 C 
ENDBRANCH   5  34
BRANCH   4  36
HETATM   36  O7  UNL     1      -1.113   3.031   0.092  1.00  0.00    -0.328 OA
BRANCH  36  37
HETATM   37  C24 UNL     1      -2.438   3.488   0.250  1.00  0.00     0.238 C 
HETATM   38  C25 UNL     1      -2.490   5.006  -0.024  1.00  0.00     0.094 C 
HETATM   39  C26 UNL     1      -3.936   5.524   0.041  1.00  0.00     0.150 C 
HETATM   40  C27 UNL     1      -4.838   4.664  -0.869  1.00  0.00     0.172 C 
HETATM   41  C35 UNL     1      -4.668   3.156  -0.568  1.00  0.00     0.147 C 
HETATM   42  O12 UNL     1      -3.291   2.807  -0.660  1.00  0.00    -0.331 OA
HETATM   43  C36 UNL     1      -5.420   2.260  -1.559  1.00  0.00     0.035 C 
BRANCH  39  44
HETATM   44  O13 UNL     1      -3.957   6.877  -0.369  1.00  0.00    -0.351 OA
HETATM   45  C37 UNL     1      -4.908   7.653   0.326  1.00  0.00     0.174 C 
ENDBRANCH  39  44
BRANCH  40  46
HETATM   46  O8  UNL     1      -6.195   5.018  -0.672  1.00  0.00    -0.328 OA
BRANCH  46  47
HETATM   47  C28 UNL     1      -6.930   5.106  -1.875  1.00  0.00     0.238 C 
HETATM   48  C29 UNL     1      -8.430   5.236  -1.549  1.00  0.00     0.094 C 
HETATM   49  C30 UNL     1      -9.252   5.434  -2.832  1.00  0.00     0.153 C 
HETATM   50  C31 UNL     1      -8.656   6.596  -3.658  1.00  0.00     0.206 C 
HETATM   51  C32 UNL     1      -7.137   6.410  -3.875  1.00  0.00     0.151 C 
HETATM   52  O10 UNL     1      -9.293   6.660  -4.922  1.00  0.00    -0.218 OA
HETATM   53  O9  UNL     1      -6.496   6.236  -2.617  1.00  0.00    -0.331 OA
HETATM   54  C33 UNL     1      -6.477   7.619  -4.547  1.00  0.00     0.035 C 
BRANCH  49  55
HETATM   55  O11 UNL     1     -10.596   5.709  -2.481  1.00  0.00    -0.351 OA
HETATM   56  C34 UNL     1     -11.248   4.611  -1.881  1.00  0.00     0.174 C 
ENDBRANCH  49  55
ENDBRANCH  46  47
ENDBRANCH  40  46
ENDBRANCH  36  37
ENDBRANCH   4  36
TORSDOF 14
