REMARK  2 active torsions:
REMARK  status: ('A' for Active; 'I' for Inactive)
REMARK    1  A    between atoms: C8_8  and  C16_17 
REMARK    2  A    between atoms: C16_17  and  O3_19 
ROOT
HETATM    1  C1  UNL     1       4.525   0.803  -0.381  1.00  0.00     0.000 A 
HETATM    2  C2  UNL     1       3.805   2.012  -0.510  1.00  0.00     0.000 A 
HETATM    3  C3  UNL     1       2.391   1.998  -0.516  1.00  0.00     0.002 A 
HETATM    4  C4  UNL     1       1.687   0.770  -0.395  1.00  0.00     0.024 A 
HETATM    5  C5  UNL     1       2.420  -0.453  -0.266  1.00  0.00     0.028 A 
HETATM    6  C6  UNL     1       3.840  -0.426  -0.260  1.00  0.00     0.002 A 
HETATM    7  C7  UNL     1       1.725  -1.687  -0.146  1.00  0.00     0.136 A 
HETATM    8  C8  UNL     1       0.307  -1.701  -0.158  1.00  0.00     0.090 A 
HETATM    9  C9  UNL     1      -0.418  -0.486  -0.285  1.00  0.00     0.029 A 
HETATM   10  C10 UNL     1       0.266   0.752  -0.396  1.00  0.00     0.094 A 
HETATM   11  O1  UNL     1      -0.432   1.904  -0.521  1.00  0.00    -0.332 OA
HETATM   12  C11 UNL     1      -1.815   2.002  -0.137  1.00  0.00     0.117 C 
HETATM   13  C12 UNL     1      -2.567   0.693  -0.291  1.00  0.00     0.001 C 
HETATM   14  C13 UNL     1      -1.904  -0.477  -0.318  1.00  0.00    -0.000 C 
HETATM   15  C14 UNL     1      -2.461   3.084  -1.004  1.00  0.00     0.035 C 
HETATM   16  C15 UNL     1      -1.860   2.422   1.336  1.00  0.00     0.035 C 
HETATM   17  O4  UNL     1       2.396  -2.844  -0.025  1.00  0.00    -0.190 OA
ENDROOT
BRANCH   8  18
HETATM   18  C16 UNL     1      -0.408  -2.994  -0.035  1.00  0.00     0.298 C 
HETATM   19  O2  UNL     1      -0.285  -3.994  -0.703  1.00  0.00    -0.259 OA
BRANCH  18  20
HETATM   20  O3  UNL     1      -1.260  -2.881   0.980  1.00  0.00    -0.296 OA
HETATM   21  C17 UNL     1      -2.004  -4.070   1.195  1.00  0.00     0.185 C 
ENDBRANCH  18  20
ENDBRANCH   8  18
TORSDOF 2
