REMARK  10 active torsions:
REMARK  status: ('A' for Active; 'I' for Inactive)
REMARK    1  A    between atoms: C5_5  and  C9_9 
REMARK    2  A    between atoms: C10_10  and  C11_11 
REMARK    3  A    between atoms: C12_12  and  C13_13 
REMARK    4  A    between atoms: C14_14  and  C15_15 
REMARK    5  A    between atoms: C16_16  and  C17_17 
REMARK    6  A    between atoms: C18_18  and  C19_19 
REMARK    7  A    between atoms: C20_20  and  C21_21 
REMARK    8  A    between atoms: C22_22  and  C23_23 
REMARK    9  A    between atoms: C24_24  and  C25_25 
REMARK   10  A    between atoms: C26_26  and  C27_27 
ROOT
HETATM    1  C17 UNL     1      -0.658   0.238   0.738  1.00  0.00    -0.000 C 
HETATM    2  C18 UNL     1       0.424   0.145  -0.051  1.00  0.00    -0.000 C 
ENDROOT
BRANCH   1   3
HETATM    3  C16 UNL     1      -1.961   0.623   0.178  1.00  0.00    -0.004 C 
HETATM    4  C15 UNL     1      -2.910   1.158   0.963  1.00  0.00    -0.022 C 
HETATM    5  C38 UNL     1      -2.611   1.352   2.424  1.00  0.00     0.031 C 
BRANCH   4   6
HETATM    6  C14 UNL     1      -4.229   1.561   0.459  1.00  0.00    -0.004 C 
HETATM    7  C13 UNL     1      -5.320   1.459   1.236  1.00  0.00    -0.001 C 
BRANCH   7   8
HETATM    8  C12 UNL     1      -6.639   1.861   0.732  1.00  0.00    -0.004 C 
HETATM    9  C11 UNL     1      -7.760   1.463   1.354  1.00  0.00    -0.022 C 
HETATM   10  C39 UNL     1      -7.633   0.594   2.576  1.00  0.00     0.031 C 
BRANCH   9  11
HETATM   11  C10 UNL     1      -9.104   1.834   0.895  1.00  0.00    -0.004 C 
HETATM   12  C9  UNL     1      -9.326   3.029   0.324  1.00  0.00    -0.005 C 
BRANCH  12  13
HETATM   13  C5  UNL     1     -10.678   3.404  -0.137  1.00  0.00    -0.030 C 
HETATM   14  C4  UNL     1     -11.637   3.744   0.758  1.00  0.00    -0.048 C 
HETATM   15  C3  UNL     1     -13.033   4.164   0.348  1.00  0.00     0.022 C 
HETATM   16  C40 UNL     1     -11.354   3.727   2.240  1.00  0.00     0.026 C 
HETATM   17  C2  UNL     1     -13.385   3.817  -1.102  1.00  0.00     0.004 C 
HETATM   18  C1  UNL     1     -12.217   4.172  -2.020  1.00  0.00     0.004 C 
HETATM   19  C6  UNL     1     -10.947   3.383  -1.639  1.00  0.00     0.018 C 
HETATM   20  C7  UNL     1      -9.756   3.979  -2.398  1.00  0.00     0.004 C 
HETATM   21  C8  UNL     1     -11.113   1.918  -2.057  1.00  0.00     0.004 C 
ENDBRANCH  12  13
ENDBRANCH   9  11
ENDBRANCH   7   8
ENDBRANCH   4   6
ENDBRANCH   1   3
BRANCH   2  22
HETATM   22  C19 UNL     1       1.727  -0.240   0.508  1.00  0.00    -0.004 C 
HETATM   23  C20 UNL     1       2.836  -0.199  -0.248  1.00  0.00    -0.022 C 
HETATM   24  C37 UNL     1       2.711   0.250  -1.680  1.00  0.00     0.031 C 
BRANCH  23  25
HETATM   25  C21 UNL     1       4.137  -0.584   0.311  1.00  0.00    -0.004 C 
HETATM   26  C22 UNL     1       5.043  -1.225  -0.445  1.00  0.00    -0.001 C 
BRANCH  26  27
HETATM   27  C23 UNL     1       6.346  -1.609   0.113  1.00  0.00    -0.004 C 
HETATM   28  C24 UNL     1       7.233  -2.295  -0.625  1.00  0.00    -0.022 C 
HETATM   29  C36 UNL     1       6.861  -2.658  -2.037  1.00  0.00     0.031 C 
BRANCH  28  30
HETATM   30  C25 UNL     1       8.533  -2.680  -0.066  1.00  0.00    -0.004 C 
HETATM   31  C26 UNL     1       9.635  -2.682  -0.834  1.00  0.00    -0.005 C 
BRANCH  31  32
HETATM   32  C27 UNL     1      10.945  -3.068  -0.271  1.00  0.00    -0.030 C 
HETATM   33  C28 UNL     1      11.180  -4.492   0.215  1.00  0.00     0.018 C 
HETATM   34  C29 UNL     1      12.557  -4.977  -0.299  1.00  0.00     0.004 C 
HETATM   35  C34 UNL     1      10.100  -5.453  -0.309  1.00  0.00     0.004 C 
HETATM   36  C35 UNL     1      11.137  -4.512   1.748  1.00  0.00     0.004 C 
HETATM   37  C30 UNL     1      13.725  -4.010   0.002  1.00  0.00     0.004 C 
HETATM   38  C31 UNL     1      13.281  -2.598   0.432  1.00  0.00     0.022 C 
HETATM   39  C32 UNL     1      11.963  -2.182  -0.180  1.00  0.00    -0.048 C 
HETATM   40  C33 UNL     1      11.832  -0.768  -0.680  1.00  0.00     0.026 C 
ENDBRANCH  31  32
ENDBRANCH  28  30
ENDBRANCH  26  27
ENDBRANCH  23  25
ENDBRANCH   2  22
TORSDOF 10
