REMARK  5 active torsions:
REMARK  status: ('A' for Active; 'I' for Inactive)
REMARK    1  A    between atoms: C4_4  and  C20_25 
REMARK    2  A    between atoms: C6_6  and  O4_18 
REMARK    3  A    between atoms: C13_15  and  C14_16 
REMARK    4  A    between atoms: O4_18  and  C15_19 
REMARK    5  A    between atoms: C15_19  and  C16_21 
ROOT
HETATM    1  C1  UNL     1      -2.201   1.195   1.418  1.00  0.00     0.029 C 
HETATM    2  C2  UNL     1      -2.434   0.059   0.387  1.00  0.00     0.030 C 
HETATM    3  C3  UNL     1      -2.254  -1.363   0.920  1.00  0.00    -0.022 C 
HETATM    4  C4  UNL     1      -1.113  -1.805   1.504  1.00  0.00     0.040 C 
HETATM    5  C5  UNL     1       0.010  -0.867   1.647  1.00  0.00     0.024 C 
HETATM    6  C6  UNL     1       0.527  -0.248   0.570  1.00  0.00     0.088 C 
HETATM    7  C7  UNL     1       1.094   1.143   0.734  1.00  0.00     0.105 C 
HETATM    8  C8  UNL     1       0.391   2.115  -0.250  1.00  0.00     0.156 C 
HETATM    9  O1  UNL     1       1.410   2.984  -0.770  1.00  0.00    -0.296 OA
HETATM   10  C9  UNL     1       2.610   2.432  -0.586  1.00  0.00     0.292 C 
HETATM   11  C10 UNL     1       2.514   1.270   0.283  1.00  0.00     0.049 C 
HETATM   12  C11 UNL     1       3.520   0.447   0.635  1.00  0.00     0.001 C 
HETATM   13  O2  UNL     1       3.649   2.830  -1.061  1.00  0.00    -0.259 OA
HETATM   14  C12 UNL     1      -0.789   2.965   0.203  1.00  0.00    -0.002 C 
HETATM   15  C13 UNL     1      -1.906   2.580   0.867  1.00  0.00    -0.013 C 
ENDROOT
BRANCH   6  16
HETATM   16  O4  UNL     1       0.473  -0.822  -0.633  1.00  0.00    -0.277 OA
BRANCH  16  17
HETATM   17  C15 UNL     1       1.317  -1.850  -0.672  1.00  0.00     0.295 C 
HETATM   18  O5  UNL     1       2.123  -2.092   0.195  1.00  0.00    -0.259 OA
BRANCH  17  19
HETATM   19  C16 UNL     1       1.221  -2.707  -1.859  1.00  0.00     0.037 C 
HETATM   20  C17 UNL     1       1.371  -2.244  -3.109  1.00  0.00    -0.025 C 
HETATM   21  C18 UNL     1       1.651  -0.779  -3.305  1.00  0.00     0.030 C 
HETATM   22  C19 UNL     1       0.942  -4.174  -1.664  1.00  0.00     0.036 C 
ENDBRANCH  17  19
ENDBRANCH  16  17
ENDBRANCH   6  16
BRANCH   4  23
HETATM   23  C20 UNL     1      -1.002  -3.180   2.008  1.00  0.00     0.234 C 
HETATM   24  O6  UNL     1       0.020  -3.559   2.533  1.00  0.00    -0.283 OA
ENDBRANCH   4  23
BRANCH  15  25
HETATM   25  C14 UNL     1      -2.973   3.619   1.113  1.00  0.00     0.204 C 
HETATM   26  O3  UNL     1      -2.728   4.260   2.346  1.00  0.00    -0.216 OA
ENDBRANCH  15  25
TORSDOF 5
