REMARK  10 active torsions:
REMARK  status: ('A' for Active; 'I' for Inactive)
REMARK    1  A    between atoms: C1_1  and  O8_39 
REMARK    2  A    between atoms: C3_3  and  O6_35 
REMARK    3  A    between atoms: C16_16  and  O3_24 
REMARK    4  A    between atoms: C18_18  and  O1_19 
REMARK    5  A    between atoms: O1_19  and  C19_20 
REMARK    6  A    between atoms: O3_24  and  C22_25 
REMARK    7  A    between atoms: C22_25  and  C23_26 
REMARK    8  A    between atoms: O6_35  and  C30_36 
REMARK    9  A    between atoms: O8_39  and  C32_40 
REMARK   10  A    between atoms: C32_40  and  C33_41 
ROOT
HETATM    1  C1  UNL     1       2.057   0.258   0.635  1.00  0.00     0.130 C 
HETATM    2  C2  UNL     1       0.643   0.752   0.326  1.00  0.00     0.092 C 
HETATM    3  C3  UNL     1       0.859   2.250   0.055  1.00  0.00     0.160 C 
HETATM    4  C4  UNL     1       1.877   2.639   1.133  1.00  0.00     0.038 C 
HETATM    5  C5  UNL     1       2.549   1.340   1.600  1.00  0.00     0.031 C 
HETATM    6  C6  UNL     1       4.070   1.445   1.656  1.00  0.00     0.003 C 
HETATM    7  C7  UNL     1      -0.392   3.113   0.055  1.00  0.00     0.194 C 
HETATM    8  C8  UNL     1      -1.619   2.650   0.744  1.00  0.00     0.011 C 
HETATM    9  C9  UNL     1      -2.803   2.521   0.096  1.00  0.00    -0.028 C 
HETATM   10  C10 UNL     1      -3.961   1.898   0.871  1.00  0.00     0.022 A 
HETATM   11  C11 UNL     1      -4.213   0.404   0.748  1.00  0.00     0.007 A 
HETATM   12  C12 UNL     1      -5.191   1.391   0.137  1.00  0.00     0.004 A 
HETATM   13  C13 UNL     1      -5.248   1.523  -1.383  1.00  0.00     0.000 C 
HETATM   14  C14 UNL     1      -6.537   1.555   0.830  1.00  0.00     0.000 C 
HETATM   15  C15 UNL     1      -3.330  -0.473  -0.152  1.00  0.00     0.035 C 
HETATM   16  C16 UNL     1      -2.103  -0.988   0.625  1.00  0.00     0.145 C 
HETATM   17  C17 UNL     1      -0.883  -1.215  -0.254  1.00  0.00     0.011 C 
HETATM   18  C18 UNL     1      -0.156   0.016  -0.769  1.00  0.00     0.150 C 
HETATM   19  C21 UNL     1      -0.465  -2.455  -0.562  1.00  0.00    -0.004 C 
HETATM   20  C29 UNL     1      -1.512   2.311   2.211  1.00  0.00     0.034 C 
HETATM   21  O5  UNL     1      -0.400   4.178  -0.521  1.00  0.00    -0.289 OA
ENDROOT
BRANCH   1  22
HETATM   22  O8  UNL     1       2.863   0.227  -0.537  1.00  0.00    -0.301 OA
BRANCH  22  23
HETATM   23  C32 UNL     1       3.869  -0.639  -0.436  1.00  0.00     0.296 C 
HETATM   24  O9  UNL     1       3.990  -1.428   0.473  1.00  0.00    -0.259 OA
BRANCH  23  25
HETATM   25  C33 UNL     1       4.871  -0.582  -1.543  1.00  0.00     0.063 A 
HETATM   26  C34 UNL     1       5.992  -1.432  -1.521  1.00  0.00     0.005 A 
HETATM   27  C35 UNL     1       6.934  -1.377  -2.562  1.00  0.00     0.000 A 
HETATM   28  C36 UNL     1       6.756  -0.477  -3.627  1.00  0.00     0.000 A 
HETATM   29  C37 UNL     1       5.635   0.371  -3.648  1.00  0.00     0.000 A 
HETATM   30  C38 UNL     1       4.694   0.318  -2.607  1.00  0.00     0.005 A 
ENDBRANCH  23  25
ENDBRANCH  22  23
ENDBRANCH   1  22
BRANCH   3  31
HETATM   31  O6  UNL     1       1.475   2.398  -1.221  1.00  0.00    -0.299 OA
BRANCH  31  32
HETATM   32  C30 UNL     1       1.842   3.652  -1.465  1.00  0.00     0.273 C 
HETATM   33  O7  UNL     1       1.789   4.541  -0.646  1.00  0.00    -0.264 OA
HETATM   34  C31 UNL     1       2.340   3.914  -2.861  1.00  0.00     0.106 C 
ENDBRANCH  31  32
ENDBRANCH   3  31
BRANCH  18  35
HETATM   35  O1  UNL     1       0.684  -0.309  -1.869  1.00  0.00    -0.300 OA
BRANCH  35  36
HETATM   36  C19 UNL     1      -0.008  -0.604  -2.967  1.00  0.00     0.273 C 
HETATM   37  O2  UNL     1      -1.213  -0.547  -3.037  1.00  0.00    -0.264 OA
HETATM   38  C20 UNL     1       0.818  -1.025  -4.152  1.00  0.00     0.106 C 
ENDBRANCH  35  36
ENDBRANCH  18  35
BRANCH  16  39
HETATM   39  O3  UNL     1      -2.463  -2.178   1.318  1.00  0.00    -0.297 OA
BRANCH  39  40
HETATM   40  C22 UNL     1      -1.590  -2.490   2.274  1.00  0.00     0.296 C 
HETATM   41  O4  UNL     1      -0.685  -1.768   2.621  1.00  0.00    -0.259 OA
BRANCH  40  42
HETATM   42  C23 UNL     1      -1.797  -3.824   2.910  1.00  0.00     0.063 A 
HETATM   43  C24 UNL     1      -0.932  -4.258   3.932  1.00  0.00     0.005 A 
HETATM   44  C25 UNL     1      -1.127  -5.516   4.533  1.00  0.00     0.000 A 
HETATM   45  C26 UNL     1      -2.185  -6.338   4.113  1.00  0.00     0.000 A 
HETATM   46  C27 UNL     1      -3.051  -5.906   3.092  1.00  0.00     0.000 A 
HETATM   47  C28 UNL     1      -2.855  -4.651   2.492  1.00  0.00     0.005 A 
ENDBRANCH  40  42
ENDBRANCH  39  40
ENDBRANCH  16  39
TORSDOF 10
