REMARK  14 active torsions:
REMARK  status: ('A' for Active; 'I' for Inactive)
REMARK    1  A    between atoms: C1_1  and  O4_25 
REMARK    2  A    between atoms: C5_5  and  C7_8 
REMARK    3  A    between atoms: C7_8  and  C8_9 
REMARK    4  A    between atoms: C8_9  and  C9_10 
REMARK    5  A    between atoms: C9_10  and  C10_11 
REMARK    6  A    between atoms: C10_11  and  C11_12 
REMARK    7  A    between atoms: C11_12  and  C12_13 
REMARK    8  A    between atoms: C12_13  and  C13_14 
REMARK    9  A    between atoms: C13_14  and  C14_15 
REMARK   10  A    between atoms: C14_15  and  C15_16 
REMARK   11  A    between atoms: C15_16  and  C16_17 
REMARK   12  A    between atoms: C17_18  and  C18_19 
REMARK   13  A    between atoms: C18_19  and  C19_20 
REMARK   14  A    between atoms: C19_20  and  C20_21 
ROOT
HETATM    1  C8  UNL     1       3.223  -1.926  -1.883  1.00  0.00     0.005 C 
ENDROOT
BRANCH   1   2
HETATM    2  C7  UNL     1       3.852  -1.955  -3.277  1.00  0.00     0.032 C 
BRANCH   2   3
HETATM    3  C5  UNL     1       5.150  -2.723  -3.305  1.00  0.00     0.047 A 
HETATM    4  C4  UNL     1       5.133  -4.074  -3.342  1.00  0.00     0.169 A 
HETATM    5  C3  UNL     1       6.408  -4.822  -3.365  1.00  0.00     0.223 A 
HETATM    6  O2  UNL     1       3.979  -4.738  -3.355  1.00  0.00    -0.187 OA
HETATM    7  C2  UNL     1       7.686  -4.080  -3.363  1.00  0.00     0.072 A 
HETATM    8  O3  UNL     1       6.410  -6.031  -3.389  1.00  0.00    -0.284 OA
HETATM    9  C1  UNL     1       7.705  -2.732  -3.326  1.00  0.00     0.136 A 
HETATM   10  C6  UNL     1       6.432  -1.982  -3.293  1.00  0.00     0.216 A 
HETATM   11  O1  UNL     1       6.441  -0.773  -3.254  1.00  0.00    -0.285 OA
BRANCH   9  12
HETATM   12  O4  UNL     1       8.867  -2.082  -3.322  1.00  0.00    -0.325 OA
HETATM   13  C22 UNL     1       9.647  -2.373  -2.172  1.00  0.00     0.181 C 
ENDBRANCH   9  12
ENDBRANCH   2   3
ENDBRANCH   1   2
BRANCH   1  14
HETATM   14  C9  UNL     1       1.902  -1.152  -1.850  1.00  0.00     0.000 C 
BRANCH  14  15
HETATM   15  C10 UNL     1       1.279  -1.111  -0.453  1.00  0.00     0.000 C 
BRANCH  15  16
HETATM   16  C11 UNL     1      -0.039  -0.338  -0.420  1.00  0.00     0.000 C 
BRANCH  16  17
HETATM   17  C12 UNL     1      -0.664  -0.297   0.977  1.00  0.00     0.000 C 
BRANCH  17  18
HETATM   18  C13 UNL     1      -1.982   0.475   1.012  1.00  0.00     0.000 C 
BRANCH  18  19
HETATM   19  C14 UNL     1      -2.606   0.516   2.406  1.00  0.00     0.005 C 
BRANCH  19  20
HETATM   20  C15 UNL     1      -3.924   1.291   2.441  1.00  0.00     0.026 C 
BRANCH  20  21
HETATM   21  C16 UNL     1      -4.531   1.328   3.818  1.00  0.00    -0.031 C 
HETATM   22  C17 UNL     1      -5.463   2.258   4.082  1.00  0.00    -0.031 C 
BRANCH  22  23
HETATM   23  C18 UNL     1      -5.852   3.217   2.988  1.00  0.00     0.026 C 
BRANCH  23  24
HETATM   24  C19 UNL     1      -7.180   3.918   3.274  1.00  0.00     0.005 C 
BRANCH  24  25
HETATM   25  C20 UNL     1      -7.576   4.898   2.170  1.00  0.00     0.000 C 
HETATM   26  C21 UNL     1      -8.906   5.600   2.453  1.00  0.00     0.000 C 
ENDBRANCH  24  25
ENDBRANCH  23  24
ENDBRANCH  22  23
ENDBRANCH  20  21
ENDBRANCH  19  20
ENDBRANCH  18  19
ENDBRANCH  17  18
ENDBRANCH  16  17
ENDBRANCH  15  16
ENDBRANCH  14  15
ENDBRANCH   1  14
TORSDOF 14
