REMARK  5 active torsions:
REMARK  status: ('A' for Active; 'I' for Inactive)
REMARK    1  A    between atoms: C15_17  and  C18_21 
REMARK    2  A    between atoms: C18_21  and  C19_22 
REMARK    3  A    between atoms: C19_22  and  C20_23 
REMARK    4  A    between atoms: C20_23  and  C21_24 
REMARK    5  A    between atoms: C22_25  and  C24_27 
ROOT
HETATM    1  C1  UNL     1       5.858  -0.869   0.574  1.00  0.00     0.033 C 
HETATM    2  C2  UNL     1       6.242   0.236  -0.436  1.00  0.00     0.152 C 
HETATM    3  C3  UNL     1       5.444   0.176  -1.770  1.00  0.00     0.029 C 
HETATM    4  C4  UNL     1       3.895  -0.082  -1.586  1.00  0.00     0.014 C 
HETATM    5  C5  UNL     1       3.422  -0.285  -0.115  1.00  0.00     0.022 C 
HETATM    6  C6  UNL     1       4.371  -1.291   0.568  1.00  0.00     0.007 C 
HETATM    7  C7  UNL     1       1.965  -0.750   0.018  1.00  0.00     0.011 C 
HETATM    8  C8  UNL     1       1.266  -1.234  -1.047  1.00  0.00     0.017 C 
HETATM    9  C9  UNL     1       1.944  -1.551  -2.326  1.00  0.00     0.169 C 
HETATM   10  C10 UNL     1       3.401  -1.231  -2.486  1.00  0.00     0.069 C 
HETATM   11  O1  UNL     1       1.369  -2.086  -3.244  1.00  0.00    -0.292 OA
HETATM   12  C11 UNL     1      -0.236  -1.488  -0.871  1.00  0.00     0.073 C 
HETATM   13  C12 UNL     1      -0.842  -0.508   0.162  1.00  0.00     0.017 C 
HETATM   14  C13 UNL     1      -0.180  -0.787   1.506  1.00  0.00     0.070 C 
HETATM   15  C14 UNL     1       1.320  -0.650   1.371  1.00  0.00     0.169 C 
HETATM   16  O2  UNL     1       1.981  -0.451   2.363  1.00  0.00    -0.292 OA
HETATM   17  C15 UNL     1      -2.355  -0.766   0.039  1.00  0.00     0.009 C 
HETATM   18  C16 UNL     1      -2.525  -0.783  -1.486  1.00  0.00     0.065 C 
HETATM   19  C17 UNL     1      -1.189  -1.227  -2.020  1.00  0.00     0.154 C 
HETATM   20  O3  UNL     1      -0.963  -1.332  -3.201  1.00  0.00    -0.296 OA
HETATM   21  C26 UNL     1      -0.588   0.957  -0.244  1.00  0.00     0.001 C 
HETATM   22  C27 UNL     1      -0.408  -2.953  -0.457  1.00  0.00     0.012 C 
HETATM   23  C28 UNL     1       3.457   1.078   0.598  1.00  0.00     0.004 C 
HETATM   24  C29 UNL     1       6.117  -0.936  -2.594  1.00  0.00     0.003 C 
HETATM   25  C30 UNL     1       5.649   1.463  -2.588  1.00  0.00     0.003 C 
HETATM   26  O7  UNL     1       6.149   1.510   0.182  1.00  0.00    -0.224 OA
ENDROOT
BRANCH  17  27
HETATM   27  C18 UNL     1      -3.240   0.273   0.723  1.00  0.00     0.003 C 
HETATM   28  C25 UNL     1      -3.033   0.203   2.236  1.00  0.00     0.000 C 
BRANCH  27  29
HETATM   29  C19 UNL     1      -4.697   0.051   0.314  1.00  0.00     0.038 C 
BRANCH  29  30
HETATM   30  C20 UNL     1      -5.502   1.350   0.268  1.00  0.00     0.174 C 
HETATM   31  O6  UNL     1      -4.842   2.246  -0.600  1.00  0.00    -0.219 OA
BRANCH  30  32
HETATM   32  C21 UNL     1      -5.650   1.984   1.625  1.00  0.00     0.008 C 
HETATM   33  C22 UNL     1      -6.738   1.689   2.354  1.00  0.00     0.041 C 
HETATM   34  C23 UNL     1      -7.756   0.742   1.775  1.00  0.00     0.037 C 
BRANCH  33  35
HETATM   35  C24 UNL     1      -6.984   2.250   3.688  1.00  0.00     0.206 C 
HETATM   36  O4  UNL     1      -6.131   2.189   4.543  1.00  0.00    -0.644 OA
HETATM   37  O5  UNL     1      -8.176   2.811   3.869  1.00  0.00    -0.644 OA
ENDBRANCH  33  35
ENDBRANCH  30  32
ENDBRANCH  29  30
ENDBRANCH  27  29
ENDBRANCH  17  27
TORSDOF 5
