REMARK  4 active torsions:
REMARK  status: ('A' for Active; 'I' for Inactive)
REMARK    1  A    between atoms: C6_6  and  O1_7 
REMARK    2  A    between atoms: O1_7  and  C7_8 
REMARK    3  A    between atoms: C11_13  and  C12_14 
REMARK    4  A    between atoms: C12_14  and  C13_15 
ROOT
HETATM    1  C1  UNL     1      -2.363   0.648   0.307  1.00  0.00     0.033 C 
HETATM    2  C2  UNL     1      -2.084  -0.852   0.463  1.00  0.00     0.033 C 
HETATM    3  C3  UNL     1      -1.002  -1.156   1.525  1.00  0.00     0.127 C 
HETATM    4  C4  UNL     1       0.260  -0.264   1.377  1.00  0.00     0.030 C 
HETATM    5  C5  UNL     1      -0.055   1.227   1.148  1.00  0.00     0.028 C 
HETATM    6  C6  UNL     1      -1.074   1.430   0.010  1.00  0.00     0.124 C 
HETATM    7  C9  UNL     1       1.332   1.758   0.783  1.00  0.00     0.002 C 
HETATM    8  C10 UNL     1       1.895   0.713  -0.172  1.00  0.00     0.000 C 
HETATM    9  C11 UNL     1       1.268  -0.619   0.262  1.00  0.00     0.005 C 
HETATM   10  C16 UNL     1      -0.500   1.904   2.445  1.00  0.00     0.003 C 
HETATM   11  C17 UNL     1      -0.598  -2.633   1.525  1.00  0.00     0.033 C 
HETATM   12  O4  UNL     1      -1.576  -0.916   2.799  1.00  0.00    -0.226 OA
ENDROOT
BRANCH   9  13
HETATM   13  C12 UNL     1       0.693  -1.318  -0.971  1.00  0.00     0.031 C 
BRANCH  13  14
HETATM   14  C13 UNL     1       1.814  -2.043  -1.715  1.00  0.00     0.127 C 
HETATM   15  O3  UNL     1       1.115  -2.588  -2.811  1.00  0.00    -0.226 OA
HETATM   16  C14 UNL     1       2.879  -1.086  -2.254  1.00  0.00     0.033 C 
HETATM   17  C15 UNL     1       2.410  -3.195  -0.906  1.00  0.00     0.033 C 
ENDBRANCH  13  14
ENDBRANCH   9  13
BRANCH   6  18
HETATM   18  O1  UNL     1      -1.381   2.813  -0.121  1.00  0.00    -0.304 OA
BRANCH  18  19
HETATM   19  C7  UNL     1      -2.016   3.084  -1.258  1.00  0.00     0.272 C 
HETATM   20  O2  UNL     1      -2.207   2.271  -2.133  1.00  0.00    -0.264 OA
HETATM   21  C8  UNL     1      -2.500   4.502  -1.398  1.00  0.00     0.106 C 
ENDBRANCH  18  19
ENDBRANCH   6  18
TORSDOF 4
