REMARK  10 active torsions:
REMARK  status: ('A' for Active; 'I' for Inactive)
REMARK    1  A    between atoms: C2_2  and  C28_38 
REMARK    2  A    between atoms: C5_5  and  C26_35 
REMARK    3  A    between atoms: C11_11  and  C13_15 
REMARK    4  A    between atoms: C13_15  and  C14_16 
REMARK    5  A    between atoms: C14_16  and  C15_17 
REMARK    6  A    between atoms: C16_18  and  C17_19 
REMARK    7  A    between atoms: C17_19  and  O3_20 
REMARK    8  A    between atoms: O3_20  and  C18_21 
REMARK    9  A    between atoms: C22_28  and  C23_30 
REMARK   10  A    between atoms: C28_38  and  O12_40 
ROOT
HETATM    1  C1  UNL     1       4.292   3.176   0.158  1.00  0.00    -0.025 C 
HETATM    2  C2  UNL     1       5.107   2.399  -0.603  1.00  0.00     0.037 C 
HETATM    3  C3  UNL     1       4.616   1.502  -1.778  1.00  0.00     0.032 C 
HETATM    4  C4  UNL     1       3.312   0.615  -1.589  1.00  0.00     0.012 C 
HETATM    5  C5  UNL     1       2.798   0.589  -0.140  1.00  0.00     0.063 C 
HETATM    6  C6  UNL     1       2.028   1.912   0.219  1.00  0.00     0.088 C 
HETATM    7  C7  UNL     1       2.823   3.238  -0.129  1.00  0.00     0.036 C 
HETATM    8  C8  UNL     1       1.635   1.594   1.684  1.00  0.00     0.010 C 
HETATM    9  C9  UNL     1       1.377  -0.002   1.644  1.00  0.00     0.003 C 
HETATM   10  C10 UNL     1       1.722  -0.388   0.150  1.00  0.00     0.033 C 
HETATM   11  C11 UNL     1       0.356  -0.378  -0.647  1.00  0.00     0.106 C 
HETATM   12  O1  UNL     1      -0.219   0.895  -0.524  1.00  0.00    -0.306 OA
HETATM   13  C12 UNL     1       0.643   2.014  -0.475  1.00  0.00     0.272 C 
HETATM   14  O2  UNL     1       0.199   3.135  -0.755  1.00  0.00    -0.264 OA
HETATM   15  C25 UNL     1       0.436  -0.709  -2.168  1.00  0.00     0.031 C 
ENDROOT
BRANCH  11  16
HETATM   16  C13 UNL     1      -0.311  -1.625  -0.003  1.00  0.00     0.054 C 
BRANCH  16  17
HETATM   17  C14 UNL     1       0.326  -2.766  -0.384  1.00  0.00    -0.024 C 
BRANCH  17  18
HETATM   18  C15 UNL     1       0.271  -4.136   0.192  1.00  0.00    -0.004 C 
HETATM   19  C16 UNL     1       1.116  -5.084  -0.272  1.00  0.00     0.041 C 
HETATM   20  C24 UNL     1       2.089  -4.761  -1.385  1.00  0.00     0.037 C 
BRANCH  19  21
HETATM   21  C17 UNL     1       1.144  -6.434   0.375  1.00  0.00     0.294 C 
HETATM   22  O9  UNL     1       0.580  -6.489   1.480  1.00  0.00    -0.259 OA
BRANCH  21  23
HETATM   23  O3  UNL     1       1.764  -7.689  -0.187  1.00  0.00    -0.270 OA
BRANCH  23  24
HETATM   24  C18 UNL     1       1.649  -8.729   0.881  1.00  0.00     0.277 C 
HETATM   25  C19 UNL     1       2.042 -10.265   0.637  1.00  0.00     0.241 C 
HETATM   26  O4  UNL     1       3.401 -10.412   0.208  1.00  0.00    -0.215 OA
HETATM   27  C20 UNL     1       1.107 -10.955  -0.362  1.00  0.00     0.220 C 
HETATM   28  O5  UNL     1       1.435 -12.361  -0.432  1.00  0.00    -0.218 OA
HETATM   29  C21 UNL     1      -0.333 -10.812   0.151  1.00  0.00     0.215 C 
HETATM   30  O6  UNL     1      -1.190 -11.483  -0.776  1.00  0.00    -0.218 OA
HETATM   31  C22 UNL     1      -0.625  -9.281   0.286  1.00  0.00     0.184 C 
HETATM   32  O7  UNL     1       0.284  -8.741   1.287  1.00  0.00    -0.326 OA
BRANCH  31  33
HETATM   33  C23 UNL     1      -2.045  -8.895   0.794  1.00  0.00     0.214 C 
HETATM   34  O8  UNL     1      -3.100  -9.241  -0.105  1.00  0.00    -0.218 OA
ENDBRANCH  31  33
ENDBRANCH  23  24
ENDBRANCH  21  23
ENDBRANCH  19  21
ENDBRANCH  17  18
ENDBRANCH  16  17
ENDBRANCH  11  16
BRANCH   5  35
HETATM   35  C26 UNL     1       4.019  -0.046   0.754  1.00  0.00     0.151 C 
HETATM   36  O10 UNL     1       4.471  -1.112   0.323  1.00  0.00    -0.296 OA
HETATM   37  C27 UNL     1       4.641   0.458   2.102  1.00  0.00     0.072 C 
ENDBRANCH   5  35
BRANCH   2  38
HETATM   38  C28 UNL     1       6.528   2.268  -0.221  1.00  0.00     0.291 C 
HETATM   39  O11 UNL     1       7.000   2.938   0.694  1.00  0.00    -0.260 OA
BRANCH  38  40
HETATM   40  O12 UNL     1       7.298   1.260  -0.835  1.00  0.00    -0.296 OA
HETATM   41  C29 UNL     1       8.601   1.197  -0.239  1.00  0.00     0.185 C 
ENDBRANCH  38  40
ENDBRANCH   2  38
TORSDOF 10
