REMARK  0 active torsions:
REMARK  status: ('A' for Active; 'I' for Inactive)
ROOT
HETATM    1  C1  UNL     1      -2.129  -1.568  -0.473  1.00  0.00     0.182 C 
HETATM    2  C2  UNL     1      -2.709  -0.266  -1.119  1.00  0.00     0.182 C 
HETATM    3  C3  UNL     1      -1.732   0.941  -1.057  1.00  0.00     0.031 C 
HETATM    4  C4  UNL     1      -1.205   1.113   0.404  1.00  0.00     0.003 C 
HETATM    5  C5  UNL     1      -0.508  -0.168   1.006  1.00  0.00     0.006 C 
HETATM    6  C6  UNL     1      -0.699  -1.397   0.080  1.00  0.00     0.036 C 
HETATM    7  C7  UNL     1       1.010   0.082   1.305  1.00  0.00     0.021 C 
HETATM    8  C8  UNL     1       1.662   0.949   0.227  1.00  0.00    -0.045 C 
HETATM    9  C9  UNL     1       1.035   2.299  -0.031  1.00  0.00     0.022 C 
HETATM   10  C10 UNL     1      -0.357   2.393   0.609  1.00  0.00     0.004 C 
HETATM   11  C11 UNL     1       2.742   0.547  -0.475  1.00  0.00    -0.010 C 
HETATM   12  C12 UNL     1       3.313  -0.773  -0.209  1.00  0.00     0.010 C 
HETATM   13  C13 UNL     1       2.518  -1.818   0.508  1.00  0.00     0.147 C 
HETATM   14  C14 UNL     1       1.824  -1.186   1.717  1.00  0.00     0.039 C 
HETATM   15  O1  UNL     1       3.496  -2.815   0.850  1.00  0.00    -0.296 OA
HETATM   16  C15 UNL     1       4.619  -2.547   0.162  1.00  0.00     0.296 C 
HETATM   17  C16 UNL     1       4.529  -1.242  -0.482  1.00  0.00     0.066 C 
HETATM   18  O2  UNL     1       5.592  -3.260   0.082  1.00  0.00    -0.259 OA
HETATM   19  C17 UNL     1      -1.172  -0.494   2.357  1.00  0.00     0.000 C 
HETATM   20  C18 UNL     1      -2.437   2.227  -1.527  1.00  0.00     0.003 C 
HETATM   21  C19 UNL     1      -0.596   0.705  -2.059  1.00  0.00     0.003 C 
HETATM   22  O3  UNL     1      -3.967   0.103  -0.565  1.00  0.00    -0.221 OA
HETATM   23  O4  UNL     1      -2.945  -2.117   0.553  1.00  0.00    -0.221 OA
ENDROOT
TORSDOF 0
