REMARK  32 active torsions:
REMARK  status: ('A' for Active; 'I' for Inactive)
REMARK    1  A    between atoms: C1_1  and  C2_2 
REMARK    2  A    between atoms: C1_1  and  O5_29 
REMARK    3  A    between atoms: C2_2  and  C3_3 
REMARK    4  A    between atoms: C3_3  and  C4_4 
REMARK    5  A    between atoms: C4_4  and  C5_5 
REMARK    6  A    between atoms: C5_5  and  C6_6 
REMARK    7  A    between atoms: C6_6  and  C7_7 
REMARK    8  A    between atoms: C7_7  and  C8_8 
REMARK    9  A    between atoms: C8_8  and  C9_9 
REMARK   10  A    between atoms: C9_9  and  C10_10 
REMARK   11  A    between atoms: C10_10  and  C11_11 
REMARK   12  A    between atoms: C11_11  and  C12_12 
REMARK   13  A    between atoms: C12_12  and  C13_13 
REMARK   14  A    between atoms: C13_13  and  C14_14 
REMARK   15  A    between atoms: C14_14  and  C15_15 
REMARK   16  A    between atoms: C15_15  and  C16_16 
REMARK   17  A    between atoms: C16_16  and  C17_17 
REMARK   18  A    between atoms: C17_17  and  O2_19 
REMARK   19  A    between atoms: O2_19  and  C18_20 
REMARK   20  A    between atoms: C18_20  and  C19_21 
REMARK   21  A    between atoms: C19_21  and  C20_22 
REMARK   22  A    between atoms: C20_22  and  C21_23 
REMARK   23  A    between atoms: C21_23  and  C22_24 
REMARK   24  A    between atoms: C22_24  and  C23_25 
REMARK   25  A    between atoms: C23_25  and  C24_26 
REMARK   26  A    between atoms: O5_29  and  C25_30 
REMARK   27  A    between atoms: C25_30  and  C26_31 
REMARK   28  A    between atoms: C26_31  and  C27_32 
REMARK   29  A    between atoms: C27_32  and  C28_33 
REMARK   30  A    between atoms: C28_33  and  C29_34 
REMARK   31  A    between atoms: C29_34  and  C30_35 
REMARK   32  A    between atoms: C30_35  and  C31_36 
ROOT
HETATM    1  C9  UNL     1       0.124   0.171  -0.064  1.00  0.00     0.000 C 
ENDROOT
BRANCH   1   2
HETATM    2  C8  UNL     1       0.697  -1.134   0.492  1.00  0.00     0.000 C 
BRANCH   2   3
HETATM    3  C7  UNL     1       2.225  -1.126   0.558  1.00  0.00     0.000 C 
BRANCH   3   4
HETATM    4  C6  UNL     1       2.797  -2.431   1.113  1.00  0.00     0.000 C 
BRANCH   4   5
HETATM    5  C5  UNL     1       4.325  -2.423   1.180  1.00  0.00     0.000 C 
BRANCH   5   6
HETATM    6  C4  UNL     1       4.898  -3.728   1.735  1.00  0.00     0.001 C 
BRANCH   6   7
HETATM    7  C3  UNL     1       6.426  -3.723   1.794  1.00  0.00     0.010 C 
BRANCH   7   8
HETATM    8  C2  UNL     1       6.995  -4.986   2.441  1.00  0.00     0.096 C 
BRANCH   8   9
HETATM    9  C1  UNL     1       8.500  -5.003   2.441  1.00  0.00     0.272 C 
HETATM   10  O4  UNL     1       9.134  -3.974   2.441  1.00  0.00    -0.264 OA
BRANCH   9  11
HETATM   11  O5  UNL     1       9.052  -6.213   2.441  1.00  0.00    -0.302 OA
BRANCH  11  12
HETATM   12  C25 UNL     1      10.471  -6.160   2.441  1.00  0.00     0.152 C 
BRANCH  12  13
HETATM   13  C26 UNL     1      11.034  -7.581   2.441  1.00  0.00     0.033 C 
BRANCH  13  14
HETATM   14  C27 UNL     1      12.563  -7.610   2.441  1.00  0.00     0.003 C 
BRANCH  14  15
HETATM   15  C28 UNL     1      13.126  -9.031   2.441  1.00  0.00     0.000 C 
BRANCH  15  16
HETATM   16  C29 UNL     1      14.655  -9.060   2.441  1.00  0.00     0.003 C 
BRANCH  16  17
HETATM   17  C30 UNL     1      15.219 -10.482   2.441  1.00  0.00     0.036 C 
BRANCH  17  18
HETATM   18  C31 UNL     1      16.747 -10.510   2.441  1.00  0.00     0.182 C 
HETATM   19  O6  UNL     1      17.163 -11.857   2.441  1.00  0.00    -0.221 OA
ENDBRANCH  17  18
ENDBRANCH  16  17
ENDBRANCH  15  16
ENDBRANCH  14  15
ENDBRANCH  13  14
ENDBRANCH  12  13
ENDBRANCH  11  12
ENDBRANCH   9  11
ENDBRANCH   8   9
ENDBRANCH   7   8
ENDBRANCH   6   7
ENDBRANCH   5   6
ENDBRANCH   4   5
ENDBRANCH   3   4
ENDBRANCH   2   3
ENDBRANCH   1   2
BRANCH   1  20
HETATM   20  C10 UNL     1      -1.403   0.163  -0.130  1.00  0.00     0.000 C 
BRANCH  20  21
HETATM   21  C11 UNL     1      -1.976   1.468  -0.685  1.00  0.00     0.000 C 
BRANCH  21  22
HETATM   22  C12 UNL     1      -3.504   1.460  -0.751  1.00  0.00     0.000 C 
BRANCH  22  23
HETATM   23  C13 UNL     1      -4.076   2.765  -1.307  1.00  0.00     0.000 C 
BRANCH  23  24
HETATM   24  C14 UNL     1      -5.604   2.757  -1.373  1.00  0.00     0.001 C 
BRANCH  24  25
HETATM   25  C15 UNL     1      -6.177   4.064  -1.922  1.00  0.00     0.010 C 
BRANCH  25  26
HETATM   26  C16 UNL     1      -7.697   4.021  -2.081  1.00  0.00     0.096 C 
BRANCH  26  27
HETATM   27  C17 UNL     1      -8.261   5.331  -2.564  1.00  0.00     0.272 C 
HETATM   28  O1  UNL     1      -7.595   6.087  -3.230  1.00  0.00    -0.264 OA
BRANCH  27  29
HETATM   29  O2  UNL     1      -9.518   5.573  -2.202  1.00  0.00    -0.302 OA
BRANCH  29  30
HETATM   30  C18 UNL     1      -9.990   6.821  -2.688  1.00  0.00     0.152 C 
BRANCH  30  31
HETATM   31  C19 UNL     1     -11.435   7.031  -2.236  1.00  0.00     0.033 C 
BRANCH  31  32
HETATM   32  C20 UNL     1     -12.018   8.358  -2.721  1.00  0.00     0.003 C 
BRANCH  32  33
HETATM   33  C21 UNL     1     -13.464   8.568  -2.268  1.00  0.00     0.000 C 
BRANCH  33  34
HETATM   34  C22 UNL     1     -14.047   9.896  -2.753  1.00  0.00     0.003 C 
BRANCH  34  35
HETATM   35  C23 UNL     1     -15.492  10.106  -2.301  1.00  0.00     0.036 C 
BRANCH  35  36
HETATM   36  C24 UNL     1     -16.075  11.433  -2.786  1.00  0.00     0.182 C 
HETATM   37  O3  UNL     1     -17.402  11.529  -2.319  1.00  0.00    -0.221 OA
ENDBRANCH  35  36
ENDBRANCH  34  35
ENDBRANCH  33  34
ENDBRANCH  32  33
ENDBRANCH  31  32
ENDBRANCH  30  31
ENDBRANCH  29  30
ENDBRANCH  27  29
ENDBRANCH  26  27
ENDBRANCH  25  26
ENDBRANCH  24  25
ENDBRANCH  23  24
ENDBRANCH  22  23
ENDBRANCH  21  22
ENDBRANCH  20  21
ENDBRANCH   1  20
TORSDOF 32
