REMARK  1 active torsions:
REMARK  status: ('A' for Active; 'I' for Inactive)
REMARK    1  A    between atoms: C11_12  and  C12_13 
ROOT
HETATM    1  C1  UNL     1       0.256  -0.045   0.197  1.00  0.00     0.024 C 
HETATM    2  C2  UNL     1       0.186   1.318  -0.535  1.00  0.00     0.035 C 
HETATM    3  C3  UNL     1       1.537   2.057  -0.406  1.00  0.00     0.040 C 
HETATM    4  C4  UNL     1       2.774   1.119  -0.551  1.00  0.00     0.170 C 
HETATM    5  C5  UNL     1       2.455  -0.324  -0.897  1.00  0.00    -0.018 C 
HETATM    6  C6  UNL     1       1.277  -0.881  -0.549  1.00  0.00    -0.032 C 
HETATM    7  C7  UNL     1       3.484  -1.127  -1.652  1.00  0.00     0.029 C 
HETATM    8  O1  UNL     1       3.510   1.129   0.658  1.00  0.00    -0.219 OA
HETATM    9  C8  UNL     1      -1.061   2.127  -0.102  1.00  0.00     0.127 C 
HETATM   10  C9  UNL     1      -2.361   1.365  -0.482  1.00  0.00     0.030 C 
HETATM   11  C10 UNL     1      -2.166  -0.160  -0.609  1.00  0.00     0.003 C 
HETATM   12  C11 UNL     1      -1.145  -0.686   0.408  1.00  0.00     0.004 C 
HETATM   13  O2  UNL     1      -1.068   3.371  -0.779  1.00  0.00    -0.226 OA
HETATM   14  C15 UNL     1      -1.020   2.459   1.396  1.00  0.00     0.033 C 
ENDROOT
BRANCH  12  15
HETATM   15  C12 UNL     1      -1.133  -2.221   0.471  1.00  0.00     0.000 C 
HETATM   16  C13 UNL     1      -0.232  -2.758   1.584  1.00  0.00     0.000 C 
HETATM   17  C14 UNL     1      -2.537  -2.820   0.504  1.00  0.00     0.000 C 
ENDBRANCH  12  15
TORSDOF 1
