REMARK  6 active torsions:
REMARK  status: ('A' for Active; 'I' for Inactive)
REMARK    1  A    between atoms: C2_3  and  C3_4 
REMARK    2  A    between atoms: C3_4  and  C4_5 
REMARK    3  A    between atoms: C14_15  and  C15_17 
REMARK    4  A    between atoms: C19_21  and  C21_23 
REMARK    5  A    between atoms: C21_23  and  C22_24 
REMARK    6  A    between atoms: C26_29  and  C28_32 
ROOT
HETATM    1  C15 UNL     1      -0.022  -0.843  -1.250  1.00  0.00     0.005 A 
HETATM    2  C16 UNL     1      -1.301  -0.255  -1.339  1.00  0.00    -0.002 A 
HETATM    3  C17 UNL     1      -1.453   1.109  -1.703  1.00  0.00     0.032 A 
HETATM    4  C18 UNL     1      -0.325   1.897  -1.981  1.00  0.00     0.089 A 
HETATM    5  C19 UNL     1       0.959   1.296  -1.883  1.00  0.00     0.004 A 
HETATM    6  C20 UNL     1       1.117  -0.060  -1.523  1.00  0.00    -0.004 A 
HETATM    7  O3  UNL     1      -0.650   3.148  -2.309  1.00  0.00    -0.328 OA
HETATM    8  C26 UNL     1      -2.077   3.332  -2.302  1.00  0.00     0.183 A 
HETATM    9  C27 UNL     1      -2.690   1.960  -1.860  1.00  0.00     0.206 A 
HETATM   10  O4  UNL     1      -3.533   1.438  -2.868  1.00  0.00    -0.216 OA
ENDROOT
BRANCH   1  11
HETATM   11  C14 UNL     1       0.121  -2.260  -0.875  1.00  0.00     0.151 C 
HETATM   12  C13 UNL     1      -0.345  -3.214  -1.992  1.00  0.00     0.104 C 
HETATM   13  C12 UNL     1      -0.342  -4.656  -1.529  1.00  0.00     0.178 C 
HETATM   14  C9  UNL     1      -0.649  -4.877  -0.088  1.00  0.00     0.057 A 
HETATM   15  O6  UNL     1      -0.099  -5.506  -2.354  1.00  0.00    -0.291 OA
HETATM   16  C8  UNL     1      -0.803  -3.760   0.779  1.00  0.00     0.095 A 
HETATM   17  C10 UNL     1      -0.795  -6.194   0.414  1.00  0.00     0.007 A 
HETATM   18  C2  UNL     1      -1.164  -3.970   2.133  1.00  0.00     0.030 A 
HETATM   19  O2  UNL     1      -0.614  -2.500   0.331  1.00  0.00    -0.329 OA
HETATM   20  C1  UNL     1      -1.330  -5.288   2.628  1.00  0.00     0.129 A 
HETATM   21  O1  UNL     1      -1.667  -5.494   3.909  1.00  0.00    -0.190 OA
HETATM   22  C11 UNL     1      -1.136  -6.396   1.771  1.00  0.00     0.027 A 
BRANCH  18  23
HETATM   23  C3  UNL     1      -1.361  -2.818   3.030  1.00  0.00     0.056 C 
BRANCH  23  24
HETATM   24  C4  UNL     1      -0.450  -2.869   4.227  1.00  0.00    -0.030 C 
HETATM   25  C5  UNL     1       0.864  -2.665   4.041  1.00  0.00    -0.048 C 
HETATM   26  C6  UNL     1       1.521  -2.385   2.716  1.00  0.00     0.026 C 
HETATM   27  C7  UNL     1       1.775  -2.716   5.238  1.00  0.00     0.026 C 
ENDBRANCH  23  24
ENDBRANCH  18  23
ENDBRANCH   1  11
BRANCH   5  28
HETATM   28  C21 UNL     1       2.154   2.108  -2.165  1.00  0.00     0.054 C 
BRANCH  28  29
HETATM   29  C22 UNL     1       2.666   2.809  -0.936  1.00  0.00    -0.030 C 
HETATM   30  C23 UNL     1       3.857   3.426  -0.998  1.00  0.00    -0.048 C 
HETATM   31  C24 UNL     1       4.369   4.127   0.231  1.00  0.00     0.026 C 
HETATM   32  C25 UNL     1       4.620   3.384  -2.295  1.00  0.00     0.026 C 
ENDBRANCH  28  29
ENDBRANCH   5  28
BRANCH   8  33
HETATM   33  C28 UNL     1      -2.436   4.448  -1.326  1.00  0.00     0.155 C 
HETATM   34  C29 UNL     1      -1.672   5.718  -1.699  1.00  0.00     0.036 C 
HETATM   35  O5  UNL     1      -2.039   4.058  -0.031  1.00  0.00    -0.223 OA
HETATM   36  C30 UNL     1      -3.952   4.651  -1.321  1.00  0.00     0.036 C 
ENDBRANCH   8  33
TORSDOF 6
