REMARK  7 active torsions:
REMARK  status: ('A' for Active; 'I' for Inactive)
REMARK    1  A    between atoms: C1_1  and  C2_2 
REMARK    2  A    between atoms: C1_1  and  O10_26 
REMARK    3  A    between atoms: C3_3  and  O4_14 
REMARK    4  A    between atoms: O4_14  and  C11_15 
REMARK    5  A    between atoms: C12_17  and  C16_24 
REMARK    6  A    between atoms: O10_26  and  C17_27 
REMARK    7  A    between atoms: C17_27  and  C18_28 
ROOT
HETATM    1  C2  UNL     1       0.219   2.553  -0.310  1.00  0.00     0.110 C 
HETATM    2  C3  UNL     1       1.430   3.160  -0.231  1.00  0.00     0.125 C 
HETATM    3  C4  UNL     1       1.171   2.571  -1.705  1.00  0.00     0.035 C 
HETATM    4  C5  UNL     1      -0.356   2.191  -1.479  1.00  0.00     0.067 C 
HETATM    5  C6  UNL     1      -1.174   1.233  -0.140  1.00  0.00     0.224 C 
HETATM    6  C7  UNL     1      -0.972   1.986   1.612  1.00  0.00     0.089 C 
HETATM    7  C8  UNL     1       0.998   2.262   1.220  1.00  0.00     0.123 C 
HETATM    8  O1  UNL     1       1.580   0.929   0.728  1.00  0.00    -0.333 OA
HETATM    9  C9  UNL     1       0.475   0.838   0.281  1.00  0.00     0.242 C 
HETATM   10  O2  UNL     1      -0.388   0.058  -0.130  1.00  0.00    -0.308 OA
HETATM   11  C10 UNL     1       1.782   2.835   2.424  1.00  0.00     0.032 C 
HETATM   12  O3  UNL     1      -2.524   0.903  -0.474  1.00  0.00    -0.195 OA
ENDROOT
BRANCH   2  13
HETATM   13  O4  UNL     1       2.954   2.932  -0.042  1.00  0.00    -0.331 OA
BRANCH  13  14
HETATM   14  C11 UNL     1       3.926   1.891  -0.590  1.00  0.00     0.270 C 
HETATM   15  O5  UNL     1       3.764   0.556  -0.034  1.00  0.00    -0.326 OA
HETATM   16  C12 UNL     1       4.833  -0.379  -0.425  1.00  0.00     0.184 C 
HETATM   17  C13 UNL     1       6.220   0.175   0.085  1.00  0.00     0.215 C 
HETATM   18  C14 UNL     1       6.433   1.542  -0.539  1.00  0.00     0.220 C 
HETATM   19  O8  UNL     1       7.346  -0.639  -0.300  1.00  0.00    -0.218 OA
HETATM   20  C15 UNL     1       5.288   2.443  -0.114  1.00  0.00     0.241 C 
HETATM   21  O7  UNL     1       7.669   2.091  -0.067  1.00  0.00    -0.218 OA
HETATM   22  O6  UNL     1       5.477   3.743  -0.667  1.00  0.00    -0.215 OA
BRANCH  16  23
HETATM   23  C16 UNL     1       4.447  -1.774   0.185  1.00  0.00     0.214 C 
HETATM   24  O9  UNL     1       5.370  -2.837  -0.102  1.00  0.00    -0.218 OA
ENDBRANCH  16  23
ENDBRANCH  13  14
ENDBRANCH   2  13
BRANCH   1  25
HETATM   25  C1  UNL     1      -0.774   4.150  -0.232  1.00  0.00     0.160 C 
BRANCH  25  26
HETATM   26  O10 UNL     1      -2.251   3.991  -0.285  1.00  0.00    -0.298 OA
BRANCH  26  27
HETATM   27  C17 UNL     1      -2.881   5.241  -0.076  1.00  0.00     0.296 C 
HETATM   28  O12 UNL     1      -2.189   6.245   0.091  1.00  0.00    -0.259 OA
BRANCH  27  29
HETATM   29  C18 UNL     1      -4.368   5.373  -0.035  1.00  0.00     0.063 A 
HETATM   30  C19 UNL     1      -4.953   6.711   0.161  1.00  0.00     0.007 A 
HETATM   31  C20 UNL     1      -6.276   6.871   0.202  1.00  0.00     0.028 A 
HETATM   32  C21 UNL     1      -7.162   5.719   0.056  1.00  0.00     0.131 A 
HETATM   33  C22 UNL     1      -6.643   4.501  -0.117  1.00  0.00     0.028 A 
HETATM   34  O11 UNL     1      -8.549   5.903   0.096  1.00  0.00    -0.190 OA
HETATM   35  C23 UNL     1      -5.171   4.320  -0.165  1.00  0.00     0.007 A 
ENDBRANCH  27  29
ENDBRANCH  26  27
ENDBRANCH  25  26
ENDBRANCH   1  25
TORSDOF 7
