REMARK  9 active torsions:
REMARK  status: ('A' for Active; 'I' for Inactive)
REMARK    1  A    between atoms: C1_1  and  O13_36 
REMARK    2  A    between atoms: C6_6  and  O1_7 
REMARK    3  A    between atoms: C8_10  and  C17_26 
REMARK    4  A    between atoms: C9_11  and  O4_14 
REMARK    5  A    between atoms: O4_14  and  C11_15 
REMARK    6  A    between atoms: C15_22  and  C16_24 
REMARK    7  A    between atoms: C19_28  and  O11_33 
REMARK    8  A    between atoms: O13_36  and  C24_37 
REMARK    9  A    between atoms: C28_44  and  C29_46 
ROOT
HETATM    1  C1  UNL     1      -2.902  -0.381  -1.303  1.00  0.00     0.123 A 
HETATM    2  C2  UNL     1      -2.742  -1.684  -0.773  1.00  0.00     0.054 A 
HETATM    3  C3  UNL     1      -1.449  -2.221  -0.580  1.00  0.00     0.138 A 
HETATM    4  C4  UNL     1      -0.309  -1.445  -0.920  1.00  0.00     0.091 A 
HETATM    5  C5  UNL     1      -0.467  -0.139  -1.449  1.00  0.00     0.129 A 
HETATM    6  C6  UNL     1      -1.764   0.391  -1.641  1.00  0.00     0.139 A 
HETATM    7  O2  UNL     1       0.617   0.598  -1.770  1.00  0.00    -0.303 OA
HETATM    8  C8  UNL     1       1.889   0.170  -1.619  1.00  0.00     0.126 A 
HETATM    9  C9  UNL     1       2.172  -1.061  -1.123  1.00  0.00     0.158 A 
HETATM   10  C10 UNL     1       1.070  -1.975  -0.732  1.00  0.00     0.224 A 
HETATM   11  O3  UNL     1       1.383  -3.061  -0.299  1.00  0.00    -0.284 OA
HETATM   12  O12 UNL     1      -1.316  -3.457  -0.076  1.00  0.00    -0.190 OA
ENDROOT
BRANCH   1  13
HETATM   13  O13 UNL     1      -4.133   0.119  -1.482  1.00  0.00    -0.301 OA
BRANCH  13  14
HETATM   14  C24 UNL     1      -5.199  -0.447  -0.732  1.00  0.00     0.274 C 
HETATM   15  C25 UNL     1      -6.492   0.363  -0.961  1.00  0.00     0.241 C 
HETATM   16  O14 UNL     1      -6.867   0.242  -2.320  1.00  0.00    -0.215 OA
HETATM   17  C26 UNL     1      -7.635  -0.145  -0.053  1.00  0.00     0.220 C 
HETATM   18  O15 UNL     1      -8.744   0.736  -0.143  1.00  0.00    -0.218 OA
HETATM   19  C27 UNL     1      -7.145  -0.223   1.410  1.00  0.00     0.215 C 
HETATM   20  O16 UNL     1      -8.117  -0.871   2.209  1.00  0.00    -0.218 OA
HETATM   21  C28 UNL     1      -5.815  -1.006   1.516  1.00  0.00     0.184 C 
HETATM   22  O17 UNL     1      -4.852  -0.424   0.645  1.00  0.00    -0.326 OA
BRANCH  21  23
HETATM   23  C29 UNL     1      -5.213  -0.977   2.924  1.00  0.00     0.214 C 
HETATM   24  O18 UNL     1      -4.090  -1.826   2.941  1.00  0.00    -0.218 OA
ENDBRANCH  21  23
ENDBRANCH  13  14
ENDBRANCH   1  13
BRANCH   6  25
HETATM   25  O1  UNL     1      -1.916   1.625  -2.143  1.00  0.00    -0.324 OA
HETATM   26  C7  UNL     1      -2.564   1.760  -3.398  1.00  0.00     0.182 C 
ENDBRANCH   6  25
BRANCH   8  27
HETATM   27  C17 UNL     1       3.008   1.080  -2.008  1.00  0.00     0.027 A 
HETATM   28  C18 UNL     1       2.938   2.451  -1.703  1.00  0.00     0.028 A 
HETATM   29  C19 UNL     1       3.988   3.311  -2.068  1.00  0.00     0.119 A 
HETATM   30  C20 UNL     1       5.113   2.797  -2.740  1.00  0.00     0.153 A 
HETATM   31  C21 UNL     1       5.182   1.426  -3.045  1.00  0.00     0.029 A 
HETATM   32  O10 UNL     1       6.104   3.596  -3.086  1.00  0.00    -0.188 OA
HETATM   33  C22 UNL     1       4.131   0.568  -2.680  1.00  0.00     0.004 A 
BRANCH  29  34
HETATM   34  O11 UNL     1       3.918   4.596  -1.779  1.00  0.00    -0.326 OA
HETATM   35  C23 UNL     1       2.650   5.129  -1.422  1.00  0.00     0.181 C 
ENDBRANCH  29  34
ENDBRANCH   8  27
BRANCH   9  36
HETATM   36  O4  UNL     1       3.432  -1.473  -0.979  1.00  0.00    -0.298 OA
BRANCH  36  37
HETATM   37  C11 UNL     1       4.035  -0.967   0.203  1.00  0.00     0.274 C 
HETATM   38  C12 UNL     1       5.434  -1.592   0.395  1.00  0.00     0.241 C 
HETATM   39  O5  UNL     1       6.264  -1.174  -0.674  1.00  0.00    -0.215 OA
HETATM   40  C13 UNL     1       6.055  -1.168   1.742  1.00  0.00     0.220 C 
HETATM   41  O6  UNL     1       7.244  -1.904   1.977  1.00  0.00    -0.218 OA
HETATM   42  C14 UNL     1       5.047  -1.420   2.887  1.00  0.00     0.215 C 
HETATM   43  O7  UNL     1       5.533  -0.852   4.090  1.00  0.00    -0.218 OA
HETATM   44  C15 UNL     1       3.666  -0.801   2.566  1.00  0.00     0.184 C 
HETATM   45  O8  UNL     1       3.207  -1.289   1.313  1.00  0.00    -0.326 OA
BRANCH  44  46
HETATM   46  C16 UNL     1       2.596  -1.158   3.602  1.00  0.00     0.214 C 
HETATM   47  O9  UNL     1       1.424  -0.438   3.293  1.00  0.00    -0.218 OA
ENDBRANCH  44  46
ENDBRANCH  36  37
ENDBRANCH   9  36
TORSDOF 9
