REMARK  4 active torsions:
REMARK  status: ('A' for Active; 'I' for Inactive)
REMARK    1  A    between atoms: C2_2  and  O5_33 
REMARK    2  A    between atoms: C13_13  and  O1_15 
REMARK    3  A    between atoms: O1_15  and  C15_16 
REMARK    4  A    between atoms: O5_33  and  C29_34 
ROOT
HETATM    1  C1  UNL     1       2.707  -1.990   0.238  1.00  0.00     0.030 C 
HETATM    2  C2  UNL     1       3.686  -1.137  -0.584  1.00  0.00     0.118 C 
HETATM    3  C3  UNL     1       3.063  -0.654  -1.934  1.00  0.00     0.025 C 
HETATM    4  C4  UNL     1       1.500  -0.615  -1.873  1.00  0.00     0.007 C 
HETATM    5  C5  UNL     1       0.980  -0.242  -0.471  1.00  0.00     0.004 A 
HETATM    6  C6  UNL     1       1.447  -1.203   0.641  1.00  0.00     0.003 C 
HETATM    7  C7  UNL     1      -0.414   0.389  -0.334  1.00  0.00     0.017 A 
HETATM    8  C8  UNL     1      -1.225   0.502  -1.633  1.00  0.00    -0.049 C 
HETATM    9  C9  UNL     1      -0.627   0.422  -2.842  1.00  0.00    -0.035 C 
HETATM   10  C10 UNL     1       0.863   0.250  -2.986  1.00  0.00     0.025 C 
HETATM   11  C11 UNL     1      -2.736   0.680  -1.578  1.00  0.00     0.019 C 
HETATM   12  C12 UNL     1      -3.397   0.775  -0.176  1.00  0.00     0.031 C 
HETATM   13  C13 UNL     1      -2.682  -0.189   0.791  1.00  0.00     0.125 C 
HETATM   14  C14 UNL     1      -1.217   0.234   0.967  1.00  0.00     0.034 C 
HETATM   15  C17 UNL     1      -4.879   0.441  -0.490  1.00  0.00     0.031 C 
HETATM   16  C18 UNL     1      -4.873  -0.486  -1.719  1.00  0.00     0.125 C 
HETATM   17  C19 UNL     1      -3.422  -0.561  -2.168  1.00  0.00     0.034 C 
HETATM   18  O3  UNL     1      -5.375  -1.805  -1.467  1.00  0.00    -0.304 OA
HETATM   19  C20 UNL     1      -6.547  -1.889  -0.822  1.00  0.00     0.272 C 
HETATM   20  C21 UNL     1      -7.022  -0.713  -0.002  1.00  0.00     0.096 C 
HETATM   21  C22 UNL     1      -5.791  -0.064   0.644  1.00  0.00     0.012 C 
HETATM   22  C23 UNL     1      -6.160   1.088   1.584  1.00  0.00     0.001 C 
HETATM   23  O4  UNL     1      -7.225  -2.889  -0.859  1.00  0.00    -0.264 OA
HETATM   24  C24 UNL     1      -3.348   2.209   0.373  1.00  0.00     0.003 C 
HETATM   25  C25 UNL     1      -3.160   1.883  -2.434  1.00  0.00     0.004 C 
HETATM   26  C26 UNL     1       0.838   1.234  -0.158  1.00  0.00     0.004 A 
HETATM   27  C27 UNL     1       3.650   0.703  -2.363  1.00  0.00     0.002 C 
HETATM   28  C28 UNL     1       3.455  -1.654  -3.029  1.00  0.00     0.002 C 
ENDROOT
BRANCH   2  29
HETATM   29  O5  UNL     1       4.090  -0.047   0.232  1.00  0.00    -0.332 OA
BRANCH  29  30
HETATM   30  C29 UNL     1       5.494   0.086   0.326  1.00  0.00     0.270 C 
HETATM   31  C30 UNL     1       5.852   1.477   0.912  1.00  0.00     0.241 C 
HETATM   32  C31 UNL     1       5.508   1.555   2.420  1.00  0.00     0.220 C 
HETATM   33  O9  UNL     1       7.238   1.707   0.699  1.00  0.00    -0.215 OA
HETATM   34  C32 UNL     1       6.104   0.344   3.170  1.00  0.00     0.215 C 
HETATM   35  O8  UNL     1       5.955   2.777   2.982  1.00  0.00    -0.218 OA
HETATM   36  C33 UNL     1       5.709  -0.981   2.486  1.00  0.00     0.181 C 
HETATM   37  O7  UNL     1       5.629   0.312   4.504  1.00  0.00    -0.218 OA
HETATM   38  O6  UNL     1       6.074  -0.961   1.107  1.00  0.00    -0.326 OA
ENDBRANCH  29  30
ENDBRANCH   2  29
BRANCH  13  39
HETATM   39  O1  UNL     1      -3.287  -0.139   2.076  1.00  0.00    -0.304 OA
BRANCH  39  40
HETATM   40  C15 UNL     1      -2.795  -1.057   2.904  1.00  0.00     0.272 C 
HETATM   41  C16 UNL     1      -3.022  -2.484   2.486  1.00  0.00     0.106 C 
HETATM   42  O2  UNL     1      -2.203  -0.793   3.926  1.00  0.00    -0.264 OA
ENDBRANCH  39  40
ENDBRANCH  13  39
TORSDOF 4
