REMARK  12 active torsions:
REMARK  status: ('A' for Active; 'I' for Inactive)
REMARK    1  A    between atoms: C3_3  and  O3_9 
REMARK    2  A    between atoms: O3_9  and  C7_10 
REMARK    3  A    between atoms: C9_12  and  C20_28 
REMARK    4  A    between atoms: C10_14  and  O6_17 
REMARK    5  A    between atoms: O6_17  and  C12_18 
REMARK    6  A    between atoms: C12_18  and  C13_19 
REMARK    7  A    between atoms: C13_19  and  C14_20 
REMARK    8  A    between atoms: C20_28  and  O9_29 
REMARK    9  A    between atoms: O9_29  and  C21_30 
REMARK   10  A    between atoms: C21_30  and  C22_31 
REMARK   11  A    between atoms: C23_32  and  C24_33 
REMARK   12  A    between atoms: C27_36  and  O10_39 
ROOT
HETATM    1  C7  UNL     1      -0.937   3.535  -0.102  1.00  0.00     0.186 C 
HETATM    2  C8  UNL     1       0.350   3.068  -0.816  1.00  0.00     0.211 C 
HETATM    3  C9  UNL     1       0.686   1.602  -0.469  1.00  0.00     0.181 C 
HETATM    4  O4  UNL     1      -0.432   0.777  -0.775  1.00  0.00    -0.326 OA
HETATM    5  C10 UNL     1      -1.615   1.076  -0.045  1.00  0.00     0.270 C 
HETATM    6  C11 UNL     1      -2.078   2.524  -0.355  1.00  0.00     0.238 C 
HETATM    7  O5  UNL     1      -3.186   2.848   0.469  1.00  0.00    -0.215 OA
HETATM    8  O13 UNL     1       1.439   3.889  -0.428  1.00  0.00    -0.218 OA
ENDROOT
BRANCH   3   9
HETATM    9  C20 UNL     1       1.869   1.053  -1.271  1.00  0.00     0.184 C 
BRANCH   9  10
HETATM   10  O9  UNL     1       2.080  -0.311  -0.936  1.00  0.00    -0.296 OA
BRANCH  10  11
HETATM   11  C21 UNL     1       3.098  -0.846  -1.602  1.00  0.00     0.296 C 
HETATM   12  O12 UNL     1       3.770  -0.240  -2.404  1.00  0.00    -0.259 OA
BRANCH  11  13
HETATM   13  C22 UNL     1       3.381  -2.256  -1.309  1.00  0.00     0.068 C 
HETATM   14  C23 UNL     1       4.389  -2.895  -1.926  1.00  0.00     0.005 C 
BRANCH  14  15
HETATM   15  C24 UNL     1       4.639  -4.328  -1.596  1.00  0.00     0.002 A 
HETATM   16  C25 UNL     1       5.686  -5.025  -2.225  1.00  0.00     0.029 A 
HETATM   17  C26 UNL     1       5.924  -6.377  -1.916  1.00  0.00     0.153 A 
HETATM   18  C27 UNL     1       5.111  -7.033  -0.973  1.00  0.00     0.119 A 
HETATM   19  O11 UNL     1       6.906  -7.023  -2.510  1.00  0.00    -0.188 OA
HETATM   20  C28 UNL     1       4.065  -6.336  -0.344  1.00  0.00     0.026 A 
HETATM   21  C29 UNL     1       3.826  -4.986  -0.652  1.00  0.00     0.002 A 
BRANCH  18  22
HETATM   22  O10 UNL     1       5.326  -8.299  -0.678  1.00  0.00    -0.326 OA
HETATM   23  C30 UNL     1       4.535  -8.891   0.342  1.00  0.00     0.181 C 
ENDBRANCH  18  22
ENDBRANCH  14  15
ENDBRANCH  11  13
ENDBRANCH  10  11
ENDBRANCH   9  10
ENDBRANCH   3   9
BRANCH   1  24
HETATM   24  O3  UNL     1      -1.316   4.817  -0.580  1.00  0.00    -0.326 OA
BRANCH  24  25
HETATM   25  C3  UNL     1      -1.799   5.670   0.438  1.00  0.00     0.270 C 
HETATM   26  C2  UNL     1      -2.535   6.887  -0.180  1.00  0.00     0.241 C 
HETATM   27  C1  UNL     1      -2.928   7.910   0.912  1.00  0.00     0.220 C 
HETATM   28  O14 UNL     1      -3.703   6.440  -0.846  1.00  0.00    -0.215 OA
HETATM   29  C5  UNL     1      -1.701   8.237   1.793  1.00  0.00     0.212 C 
HETATM   30  O15 UNL     1      -3.416   9.096   0.307  1.00  0.00    -0.218 OA
HETATM   31  C4  UNL     1      -1.023   6.949   2.313  1.00  0.00     0.151 C 
HETATM   32  O2  UNL     1      -2.105   9.018   2.904  1.00  0.00    -0.218 OA
HETATM   33  O1  UNL     1      -0.691   6.115   1.211  1.00  0.00    -0.329 OA
HETATM   34  C6  UNL     1       0.281   7.225   3.067  1.00  0.00     0.035 C 
ENDBRANCH  24  25
ENDBRANCH   1  24
BRANCH   5  35
HETATM   35  O6  UNL     1      -2.615   0.148  -0.418  1.00  0.00    -0.329 OA
BRANCH  35  36
HETATM   36  C12 UNL     1      -2.332  -1.170  -0.004  1.00  0.00     0.150 C 
BRANCH  36  37
HETATM   37  C13 UNL     1      -3.490  -2.068  -0.437  1.00  0.00     0.059 C 
BRANCH  37  38
HETATM   38  C14 UNL     1      -3.268  -3.480  -0.035  1.00  0.00    -0.018 A 
HETATM   39  C15 UNL     1      -4.227  -4.461  -0.348  1.00  0.00     0.025 A 
HETATM   40  C16 UNL     1      -4.022  -5.799   0.031  1.00  0.00     0.156 A 
HETATM   41  C17 UNL     1      -2.850  -6.160   0.725  1.00  0.00     0.156 A 
HETATM   42  O8  UNL     1      -4.924  -6.713  -0.266  1.00  0.00    -0.188 OA
HETATM   43  C18 UNL     1      -1.893  -5.178   1.035  1.00  0.00     0.029 A 
HETATM   44  O7  UNL     1      -2.648  -7.412   1.082  1.00  0.00    -0.188 OA
HETATM   45  C19 UNL     1      -2.100  -3.842   0.656  1.00  0.00    -0.002 A 
ENDBRANCH  37  38
ENDBRANCH  36  37
ENDBRANCH  35  36
ENDBRANCH   5  35
TORSDOF 12
