REMARK  0 active torsions:
REMARK  status: ('A' for Active; 'I' for Inactive)
ROOT
HETATM    1  C1  UNL     1      -1.461  -2.555  -0.819  1.00  0.00     0.000 C 
HETATM    2  C2  UNL     1      -2.311  -2.373   0.443  1.00  0.00     0.000 C 
HETATM    3  C3  UNL     1      -2.688  -0.900   0.689  1.00  0.00     0.001 C 
HETATM    4  C4  UNL     1      -1.408  -0.012   0.701  1.00  0.00     0.009 C 
HETATM    5  C5  UNL     1      -0.516  -0.182  -0.570  1.00  0.00     0.024 C 
HETATM    6  C6  UNL     1      -0.195  -1.689  -0.764  1.00  0.00     0.002 C 
HETATM    7  C7  UNL     1       0.773   0.709  -0.457  1.00  0.00     0.100 C 
HETATM    8  C8  UNL     1       0.436   2.193  -0.129  1.00  0.00     0.083 C 
HETATM    9  C9  UNL     1      -0.502   2.309   1.051  1.00  0.00     0.152 C 
HETATM   10  C10 UNL     1      -1.744   1.467   0.984  1.00  0.00     0.065 C 
HETATM   11  O1  UNL     1      -0.275   3.025   1.998  1.00  0.00    -0.296 OA
HETATM   12  C11 UNL     1       1.662   3.100   0.074  1.00  0.00     0.010 C 
HETATM   13  C12 UNL     1       1.660   0.660  -1.723  1.00  0.00     0.030 C 
HETATM   14  C13 UNL     1       3.090   0.701  -1.195  1.00  0.00     0.036 C 
HETATM   15  C14 UNL     1       2.938  -0.027   0.137  1.00  0.00     0.141 C 
HETATM   16  O2  UNL     1       1.613   0.219   0.580  1.00  0.00    -0.357 OA
HETATM   17  C15 UNL     1       3.953   0.361   1.224  1.00  0.00     0.180 C 
HETATM   18  O3  UNL     1       4.400  -0.859   1.822  1.00  0.00    -0.326 OA
HETATM   19  C16 UNL     1       3.992  -1.877   1.066  1.00  0.00     0.114 C 
HETATM   20  C17 UNL     1       3.174  -1.504   0.076  1.00  0.00     0.029 C 
HETATM   21  C18 UNL     1      -1.236   0.348  -1.824  1.00  0.00     0.002 C 
HETATM   22  C19 UNL     1      -3.678  -0.439  -0.387  1.00  0.00     0.000 C 
HETATM   23  C20 UNL     1      -3.400  -0.814   2.045  1.00  0.00     0.000 C 
ENDROOT
TORSDOF 0
