REMARK  2 active torsions:
REMARK  status: ('A' for Active; 'I' for Inactive)
REMARK    1  A    between atoms: C7_7  and  C9_10 
REMARK    2  A    between atoms: C9_10  and  C10_11 
ROOT
HETATM    1  C10 UNL     1      -2.139  -0.787  -1.055  1.00  0.00     0.112 C 
HETATM    2  N2  UNL     1      -1.506  -0.514  -2.330  1.00  0.00    -0.239 NA
HETATM    3  C11 UNL     1      -0.217  -0.010  -2.172  1.00  0.00     0.258 C 
HETATM    4  C12 UNL     1       0.117   0.104  -0.695  1.00  0.00     0.132 C 
HETATM    5  C13 UNL     1      -1.232  -0.199   0.051  1.00  0.00     0.041 C 
HETATM    6  C14 UNL     1      -1.893   0.998   0.777  1.00  0.00     0.030 C 
HETATM    7  C15 UNL     1      -1.871   2.213  -0.160  1.00  0.00     0.118 A 
HETATM    8  C16 UNL     1      -0.473   2.518  -0.781  1.00  0.00     0.145 A 
HETATM    9  C17 UNL     1       0.643   1.537  -0.377  1.00  0.00     0.066 C 
HETATM   10  C18 UNL     1       1.973   1.889  -1.014  1.00  0.00    -0.028 C 
HETATM   11  C19 UNL     1       2.746   2.871  -0.516  1.00  0.00    -0.030 C 
HETATM   12  C20 UNL     1       4.082   3.221  -1.135  1.00  0.00     0.030 C 
HETATM   13  C21 UNL     1       5.240   2.338  -0.631  1.00  0.00     0.026 C 
HETATM   14  C22 UNL     1       5.014   0.879  -0.981  1.00  0.00    -0.027 C 
HETATM   15  C23 UNL     1       4.871  -0.111  -0.070  1.00  0.00     0.016 C 
HETATM   16  C24 UNL     1       4.598  -1.502  -0.496  1.00  0.00     0.226 C 
HETATM   17  C25 UNL     1       3.813  -2.463   0.316  1.00  0.00     0.212 C 
HETATM   18  C26 UNL     1       2.807  -2.012   1.359  1.00  0.00     0.080 C 
HETATM   19  C27 UNL     1       1.881  -0.838   0.976  1.00  0.00     0.073 C 
HETATM   20  C28 UNL     1       1.139  -0.977  -0.340  1.00  0.00     0.159 C 
HETATM   21  O1  UNL     1       1.348  -1.914  -1.074  1.00  0.00    -0.296 OA
HETATM   22  O2  UNL     1       3.973  -3.647   0.127  1.00  0.00    -0.288 OA
HETATM   23  O3  UNL     1       5.031  -1.883  -1.559  1.00  0.00    -0.284 OA
HETATM   24  C29 UNL     1       4.994   0.189   1.404  1.00  0.00     0.034 C 
HETATM   25  C30 UNL     1       6.578   2.803  -1.215  1.00  0.00     0.005 C 
HETATM   26  O4  UNL     1      -1.004   3.199   0.310  1.00  0.00    -0.356 OA
HETATM   27  C31 UNL     1      -3.129   2.879  -0.707  1.00  0.00     0.032 C 
HETATM   28  C32 UNL     1      -3.309   0.676   1.271  1.00  0.00     0.003 C 
HETATM   29  O5  UNL     1       0.496   0.281  -3.104  1.00  0.00    -0.270 OA
ENDROOT
BRANCH   1  30
HETATM   30  C9  UNL     1      -2.320  -2.289  -0.856  1.00  0.00     0.052 C 
BRANCH  30  31
HETATM   31  C7  UNL     1      -3.168  -2.584   0.365  1.00  0.00     0.000 A 
HETATM   32  C5  UNL     1      -4.508  -2.457   0.496  1.00  0.00     0.015 A 
HETATM   33  C4  UNL     1      -4.947  -2.811   1.748  1.00  0.00     0.081 A 
HETATM   34  C6  UNL     1      -5.412  -2.014  -0.500  1.00  0.00     0.001 A 
HETATM   35  C3  UNL     1      -6.316  -2.752   2.098  1.00  0.00     0.019 A 
HETATM   36  N1  UNL     1      -3.828  -3.190   2.471  1.00  0.00    -0.244 NA
HETATM   37  C2  UNL     1      -7.244  -2.313   1.117  1.00  0.00     0.002 A 
HETATM   38  C1  UNL     1      -6.793  -1.945  -0.180  1.00  0.00     0.000 A 
HETATM   39  C8  UNL     1      -2.709  -3.051   1.613  1.00  0.00     0.095 A 
ENDBRANCH  30  31
ENDBRANCH   1  30
TORSDOF 2
