REMARK  0 active torsions:
REMARK  status: ('A' for Active; 'I' for Inactive)
ROOT
HETATM    1  C1  UNL     1       0.094   1.336   0.504  1.00  0.00    -0.023 C 
HETATM    2  C2  UNL     1      -1.185   0.930   0.625  1.00  0.00    -0.008 C 
HETATM    3  C3  UNL     1      -1.705  -0.416   0.307  1.00  0.00    -0.022 C 
HETATM    4  C4  UNL     1      -1.012  -1.567   0.457  1.00  0.00    -0.004 C 
HETATM    5  C5  UNL     1       0.375  -1.690   0.951  1.00  0.00    -0.004 C 
HETATM    6  C6  UNL     1       1.361  -0.791   0.768  1.00  0.00    -0.023 C 
HETATM    7  C7  UNL     1       1.207   0.473  -0.051  1.00  0.00     0.037 C 
HETATM    8  C8  UNL     1       2.518   1.260   0.008  1.00  0.00     0.009 C 
HETATM    9  C9  UNL     1       0.916   0.119  -1.514  1.00  0.00     0.009 C 
HETATM   10  C10 UNL     1      -3.121  -0.508  -0.201  1.00  0.00     0.031 C 
ENDROOT
TORSDOF 0
