REMARK  6 active torsions:
REMARK  status: ('A' for Active; 'I' for Inactive)
REMARK    1  A    between atoms: S1_1  and  S2_2 
REMARK    2  A    between atoms: S1_1  and  S4_7 
REMARK    3  A    between atoms: S2_2  and  S3_3 
REMARK    4  A    between atoms: S3_3  and  C1_4 
REMARK    5  A    between atoms: C1_4  and  C2_5 
REMARK    6  A    between atoms: S4_7  and  C4_8 
ROOT
HETATM    1  S1  UNL     1       0.367  -2.321  -1.621  1.00  0.00    -0.007 SA
ENDROOT
BRANCH   1   2
HETATM    2  S2  UNL     1       0.309  -2.653   0.390  1.00  0.00    -0.012 SA
BRANCH   2   3
HETATM    3  S3  UNL     1      -1.699  -2.471   0.701  1.00  0.00    -0.070 SA
BRANCH   3   4
HETATM    4  C1  UNL     1      -1.889  -0.719   1.135  1.00  0.00     0.069 C 
BRANCH   4   5
HETATM    5  C2  UNL     1      -3.352  -0.381   1.426  1.00  0.00     0.012 C 
HETATM    6  C3  UNL     1      -3.555   1.090   1.795  1.00  0.00     0.001 C 
ENDBRANCH   4   5
ENDBRANCH   3   4
ENDBRANCH   2   3
ENDBRANCH   1   2
BRANCH   1   7
HETATM    7  S4  UNL     1       0.719  -0.311  -1.621  1.00  0.00    -0.043 SA
BRANCH   7   8
HETATM    8  C4  UNL     1       2.402  -0.184  -1.621  1.00  0.00     0.038 C 
HETATM    9  C5  UNL     1       3.043   0.996  -1.621  1.00  0.00    -0.018 C 
HETATM   10  C6  UNL     1       4.549   0.996  -1.621  1.00  0.00     0.031 C 
ENDBRANCH   7   8
ENDBRANCH   1   7
TORSDOF 6
