REMARK  1 active torsions:
REMARK  status: ('A' for Active; 'I' for Inactive)
REMARK    1  A    between atoms: C9_9  and  C12_13 
ROOT
HETATM    1  C1  UNL     1      -1.516  -0.125  -1.656  1.00  0.00     0.115 C 
HETATM    2  C2  UNL     1      -2.283  -0.191  -0.326  1.00  0.00     0.030 C 
HETATM    3  C3  UNL     1      -2.291  -1.594   0.305  1.00  0.00     0.003 C 
HETATM    4  C4  UNL     1      -0.887  -2.219   0.281  1.00  0.00     0.002 C 
HETATM    5  C5  UNL     1       0.236  -1.234   0.697  1.00  0.00     0.023 C 
HETATM    6  C6  UNL     1       1.619  -1.764   0.213  1.00  0.00     0.002 C 
HETATM    7  C7  UNL     1       2.645  -0.670  -0.131  1.00  0.00     0.000 C 
HETATM    8  C8  UNL     1       2.453   0.584   0.721  1.00  0.00     0.005 C 
HETATM    9  C9  UNL     1       1.066   1.230   0.516  1.00  0.00     0.058 C 
HETATM   10  C10 UNL     1      -0.025   0.193   0.121  1.00  0.00     0.095 C 
HETATM   11  C11 UNL     1      -1.410   0.713   0.535  1.00  0.00     0.030 C 
HETATM   12  O1  UNL     1      -0.166   0.096  -1.291  1.00  0.00    -0.361 OA
HETATM   13  C13 UNL     1       0.244  -1.088   2.229  1.00  0.00     0.002 C 
HETATM   14  C14 UNL     1      -1.967   1.061  -2.500  1.00  0.00     0.032 C 
ENDROOT
BRANCH   9  15
HETATM   15  C12 UNL     1       1.131   2.420  -0.457  1.00  0.00     0.185 C 
HETATM   16  O2  UNL     1       1.857   3.459   0.162  1.00  0.00    -0.221 OA
ENDBRANCH   9  15
TORSDOF 1
