REMARK  5 active torsions:
REMARK  status: ('A' for Active; 'I' for Inactive)
REMARK    1  A    between atoms: C9_11  and  C10_12 
REMARK    2  A    between atoms: C10_12  and  C11_13 
REMARK    3  A    between atoms: C10_12  and  O3_15 
REMARK    4  A    between atoms: O3_15  and  C13_16 
REMARK    5  A    between atoms: C13_16  and  C14_18 
ROOT
HETATM    1  C1  UNL     1      -3.188  -2.234  -0.996  1.00  0.00     0.031 C 
HETATM    2  C2  UNL     1      -3.150  -3.736  -0.760  1.00  0.00    -0.026 C 
HETATM    3  C3  UNL     1      -1.973  -4.389  -0.672  1.00  0.00     0.001 C 
HETATM    4  C4  UNL     1      -0.719  -3.627  -0.740  1.00  0.00     0.061 A 
HETATM    5  C5  UNL     1      -0.672  -2.305  -0.686  1.00  0.00     0.006 A 
HETATM    6  C6  UNL     1      -1.920  -1.461  -0.547  1.00  0.00     0.033 C 
HETATM    7  C7  UNL     1       0.744  -1.932  -0.777  1.00  0.00     0.098 A 
HETATM    8  O1  UNL     1       1.510  -3.041  -0.900  1.00  0.00    -0.274 OA
HETATM    9  C8  UNL     1       0.660  -4.090  -0.869  1.00  0.00     0.300 A 
HETATM   10  O2  UNL     1       0.971  -5.258  -0.938  1.00  0.00    -0.259 OA
HETATM   11  C9  UNL     1       1.262  -0.687  -0.744  1.00  0.00     0.028 C 
ENDROOT
BRANCH  11  12
HETATM   12  C10 UNL     1       0.416   0.551  -0.588  1.00  0.00     0.148 C 
BRANCH  12  13
HETATM   13  C11 UNL     1      -0.066   1.102  -1.930  1.00  0.00     0.035 C 
HETATM   14  C12 UNL     1      -1.084   2.233  -1.772  1.00  0.00     0.003 C 
ENDBRANCH  12  13
BRANCH  12  15
HETATM   15  O3  UNL     1       1.162   1.549   0.094  1.00  0.00    -0.297 OA
BRANCH  15  16
HETATM   16  C13 UNL     1       1.395   1.233   1.363  1.00  0.00     0.292 C 
HETATM   17  O4  UNL     1       0.953   0.242   1.900  1.00  0.00    -0.260 OA
BRANCH  16  18
HETATM   18  C14 UNL     1       2.238   2.170   2.111  1.00  0.00     0.037 C 
HETATM   19  C15 UNL     1       1.836   3.434   2.326  1.00  0.00    -0.025 C 
HETATM   20  C16 UNL     1       0.502   3.863   1.781  1.00  0.00     0.030 C 
HETATM   21  C17 UNL     1       3.574   1.740   2.656  1.00  0.00     0.036 C 
ENDBRANCH  16  18
ENDBRANCH  15  16
ENDBRANCH  12  15
ENDBRANCH  11  12
TORSDOF 5
