REMARK  3 active torsions:
REMARK  status: ('A' for Active; 'I' for Inactive)
REMARK    1  A    between atoms: C7_7  and  C12_14 
REMARK    2  A    between atoms: C12_14  and  C13_15 
REMARK    3  A    between atoms: C13_15  and  C14_16 
ROOT
HETATM    1  C1  UNL     1       2.818  -0.324   0.205  1.00  0.00     0.001 C 
HETATM    2  C2  UNL     1       2.893  -1.584  -0.674  1.00  0.00     0.004 C 
HETATM    3  C3  UNL     1       1.740  -2.578  -0.420  1.00  0.00     0.018 C 
HETATM    4  C4  UNL     1       0.377  -1.891  -0.445  1.00  0.00    -0.013 C 
HETATM    5  C5  UNL     1       0.348  -0.365  -0.588  1.00  0.00     0.032 C 
HETATM    6  C6  UNL     1       1.391   0.221   0.392  1.00  0.00     0.007 C 
HETATM    7  C7  UNL     1      -1.025   0.250  -0.322  1.00  0.00    -0.042 C 
HETATM    8  C8  UNL     1      -2.141  -0.498  -0.195  1.00  0.00     0.012 C 
HETATM    9  C9  UNL     1      -2.070  -1.963  -0.272  1.00  0.00     0.216 C 
HETATM   10  C10 UNL     1      -0.758  -2.619  -0.326  1.00  0.00     0.162 C 
HETATM   11  O1  UNL     1      -0.711  -3.949  -0.244  1.00  0.00    -0.187 OA
HETATM   12  O2  UNL     1      -3.084  -2.627  -0.279  1.00  0.00    -0.285 OA
HETATM   13  C11 UNL     1      -3.480   0.162   0.025  1.00  0.00     0.034 C 
HETATM   14  C18 UNL     1       0.693   0.004  -2.037  1.00  0.00     0.008 C 
HETATM   15  C19 UNL     1       1.936  -3.225   0.957  1.00  0.00     0.004 C 
HETATM   16  C20 UNL     1       1.805  -3.668  -1.500  1.00  0.00     0.004 C 
ENDROOT
BRANCH   7  17
HETATM   17  C12 UNL     1      -1.111   1.756  -0.215  1.00  0.00     0.027 C 
BRANCH  17  18
HETATM   18  C13 UNL     1      -1.021   2.242   1.232  1.00  0.00     0.033 C 
BRANCH  18  19
HETATM   19  C14 UNL     1      -1.160   3.746   1.312  1.00  0.00     0.005 A 
HETATM   20  C15 UNL     1      -2.268   4.512   0.947  1.00  0.00     0.025 A 
HETATM   21  C16 UNL     1      -1.916   5.840   1.205  1.00  0.00     0.122 A 
HETATM   22  O3  UNL     1      -0.652   5.947   1.711  1.00  0.00    -0.303 OA
HETATM   23  C17 UNL     1      -0.205   4.660   1.771  1.00  0.00     0.118 A 
ENDBRANCH  18  19
ENDBRANCH  17  18
ENDBRANCH   7  17
TORSDOF 3
