REMARK  11 active torsions:
REMARK  status: ('A' for Active; 'I' for Inactive)
REMARK    1  A    between atoms: C2_2  and  O4_34 
REMARK    2  A    between atoms: C15_16  and  C18_20 
REMARK    3  A    between atoms: C18_20  and  C19_21 
REMARK    4  A    between atoms: C19_21  and  C20_22 
REMARK    5  A    between atoms: C20_22  and  C21_23 
REMARK    6  A    between atoms: C21_23  and  C22_24 
REMARK    7  A    between atoms: O4_34  and  C31_35 
REMARK    8  A    between atoms: C35_39  and  C36_41 
REMARK    9  A    between atoms: C36_41  and  O6_42 
REMARK   10  A    between atoms: O6_42  and  C37_43 
REMARK   11  A    between atoms: C41_47  and  C42_49 
ROOT
HETATM    1  C1  UNL     1       2.324  -0.803   0.795  1.00  0.00     0.030 C 
HETATM    2  C2  UNL     1       2.711  -0.293  -0.607  1.00  0.00     0.118 C 
HETATM    3  C3  UNL     1       1.906  -1.006  -1.744  1.00  0.00     0.025 C 
HETATM    4  C4  UNL     1       0.586  -1.627  -1.197  1.00  0.00     0.002 C 
HETATM    5  C5  UNL     1      -0.043  -0.705  -0.139  1.00  0.00     0.000 A 
HETATM    6  C6  UNL     1       0.836  -0.557   1.119  1.00  0.00     0.003 C 
HETATM    7  C7  UNL     1      -1.570  -0.645   0.006  1.00  0.00     0.003 A 
HETATM    8  C8  UNL     1      -2.463  -1.430  -0.988  1.00  0.00     0.000 C 
HETATM    9  C9  UNL     1      -1.703  -2.592  -1.648  1.00  0.00     0.000 C 
HETATM   10  C10 UNL     1      -0.402  -2.096  -2.279  1.00  0.00     0.000 C 
HETATM   11  C11 UNL     1      -3.781  -1.893  -0.332  1.00  0.00     0.005 C 
HETATM   12  C12 UNL     1      -4.471  -0.674   0.324  1.00  0.00     0.031 C 
HETATM   13  C13 UNL     1      -3.623  -0.113   1.498  1.00  0.00     0.152 C 
HETATM   14  C14 UNL     1      -2.125  -0.496   1.434  1.00  0.00     0.033 C 
HETATM   15  O1  UNL     1      -4.127  -0.527   2.754  1.00  0.00    -0.224 OA
HETATM   16  C15 UNL     1      -5.869  -1.262   0.613  1.00  0.00     0.033 C 
HETATM   17  C16 UNL     1      -6.190  -2.125  -0.623  1.00  0.00     0.152 C 
HETATM   18  C17 UNL     1      -4.844  -2.385  -1.324  1.00  0.00     0.033 C 
HETATM   19  O2  UNL     1      -7.074  -1.467  -1.514  1.00  0.00    -0.224 OA
HETATM   20  C26 UNL     1      -4.678   0.439  -0.719  1.00  0.00     0.003 C 
HETATM   21  C27 UNL     1      -3.559  -3.033   0.674  1.00  0.00     0.000 C 
HETATM   22  C28 UNL     1      -0.807   0.527  -0.586  1.00  0.00     0.000 A 
HETATM   23  C29 UNL     1       2.762  -2.150  -2.303  1.00  0.00     0.002 C 
HETATM   24  C30 UNL     1       1.619  -0.057  -2.924  1.00  0.00     0.002 C 
ENDROOT
BRANCH   2  25
HETATM   25  O4  UNL     1       2.514   1.113  -0.615  1.00  0.00    -0.332 OA
BRANCH  25  26
HETATM   26  C31 UNL     1       3.680   1.836  -0.961  1.00  0.00     0.270 C 
HETATM   27  C32 UNL     1       3.332   3.318  -1.252  1.00  0.00     0.241 C 
HETATM   28  C33 UNL     1       4.611   4.154  -1.477  1.00  0.00     0.220 C 
HETATM   29  O14 UNL     1       2.516   3.389  -2.410  1.00  0.00    -0.215 OA
HETATM   30  C34 UNL     1       5.609   3.910  -0.322  1.00  0.00     0.215 C 
HETATM   31  O13 UNL     1       4.279   5.533  -1.539  1.00  0.00    -0.218 OA
HETATM   32  C35 UNL     1       5.842   2.398  -0.090  1.00  0.00     0.180 C 
HETATM   33  O12 UNL     1       6.854   4.518  -0.625  1.00  0.00    -0.218 OA
HETATM   34  O5  UNL     1       4.592   1.760   0.127  1.00  0.00    -0.326 OA
BRANCH  32  35
HETATM   35  C36 UNL     1       6.703   2.109   1.143  1.00  0.00     0.177 C 
BRANCH  35  36
HETATM   36  O6  UNL     1       6.965   0.725   1.184  1.00  0.00    -0.326 OA
BRANCH  36  37
HETATM   37  C37 UNL     1       7.719   0.334   2.314  1.00  0.00     0.270 C 
HETATM   38  C38 UNL     1       7.774  -1.211   2.420  1.00  0.00     0.241 C 
HETATM   39  C39 UNL     1       8.721  -1.656   3.557  1.00  0.00     0.220 C 
HETATM   40  O11 UNL     1       6.471  -1.713   2.670  1.00  0.00    -0.215 OA
HETATM   41  C40 UNL     1      10.082  -0.940   3.418  1.00  0.00     0.215 C 
HETATM   42  O10 UNL     1       8.910  -3.061   3.502  1.00  0.00    -0.218 OA
HETATM   43  C41 UNL     1       9.902   0.588   3.270  1.00  0.00     0.184 C 
HETATM   44  O9  UNL     1      10.877  -1.193   4.565  1.00  0.00    -0.218 OA
HETATM   45  O7  UNL     1       9.033   0.855   2.178  1.00  0.00    -0.326 OA
BRANCH  43  46
HETATM   46  C42 UNL     1      11.215   1.320   2.979  1.00  0.00     0.214 C 
HETATM   47  O8  UNL     1      10.961   2.707   2.996  1.00  0.00    -0.218 OA
ENDBRANCH  43  46
ENDBRANCH  36  37
ENDBRANCH  35  36
ENDBRANCH  32  35
ENDBRANCH  25  26
ENDBRANCH   2  25
BRANCH  16  48
HETATM   48  C18 UNL     1      -6.910  -0.211   1.016  1.00  0.00     0.003 C 
HETATM   49  C25 UNL     1      -8.070  -0.895   1.740  1.00  0.00     0.000 C 
BRANCH  48  50
HETATM   50  C19 UNL     1      -7.361   0.559  -0.227  1.00  0.00     0.008 C 
BRANCH  50  51
HETATM   51  C20 UNL     1      -8.807   0.250  -0.619  1.00  0.00     0.065 C 
BRANCH  51  52
HETATM   52  C21 UNL     1      -9.139   0.725  -2.008  1.00  0.00     0.150 C 
HETATM   53  O3  UNL     1      -8.350   1.383  -2.647  1.00  0.00    -0.296 OA
BRANCH  52  54
HETATM   54  C22 UNL     1     -10.483   0.359  -2.580  1.00  0.00     0.058 C 
HETATM   55  C23 UNL     1     -10.617   0.754  -4.051  1.00  0.00     0.008 C 
HETATM   56  C24 UNL     1     -11.639   0.869  -1.721  1.00  0.00     0.008 C 
ENDBRANCH  52  54
ENDBRANCH  51  52
ENDBRANCH  50  51
ENDBRANCH  48  50
ENDBRANCH  16  48
TORSDOF 11
