REMARK  7 active torsions:
REMARK  status: ('A' for Active; 'I' for Inactive)
REMARK    1  A    between atoms: C1_1  and  O10_36 
REMARK    2  A    between atoms: C4_4  and  C7_7 
REMARK    3  A    between atoms: C8_8  and  O5_25 
REMARK    4  A    between atoms: C12_13  and  C16_19 
REMARK    5  A    between atoms: C16_19  and  C17_20 
REMARK    6  A    between atoms: C17_20  and  C18_21 
REMARK    7  A    between atoms: O5_25  and  C21_26 
ROOT
HETATM    1  C7  UNL     1       0.232   0.221   1.244  1.00  0.00     0.125 A 
HETATM    2  C8  UNL     1       0.514  -1.010   1.740  1.00  0.00     0.158 A 
HETATM    3  C9  UNL     1      -0.586  -1.922   2.131  1.00  0.00     0.224 A 
HETATM    4  C10 UNL     1      -1.967  -1.394   1.943  1.00  0.00     0.089 A 
HETATM    5  C11 UNL     1      -2.125  -0.088   1.414  1.00  0.00     0.103 A 
HETATM    6  O1  UNL     1      -1.039   0.649   1.094  1.00  0.00    -0.305 OA
HETATM    7  C12 UNL     1      -3.426   0.442   1.225  1.00  0.00     0.026 A 
HETATM    8  C13 UNL     1      -4.561  -0.334   1.563  1.00  0.00     0.131 A 
HETATM    9  C14 UNL     1      -4.399  -1.637   2.092  1.00  0.00     0.055 A 
HETATM   10  C15 UNL     1      -3.104  -2.172   2.285  1.00  0.00     0.138 A 
HETATM   11  O2  UNL     1      -2.969  -3.408   2.787  1.00  0.00    -0.190 OA
HETATM   12  O3  UNL     1      -5.795   0.158   1.387  1.00  0.00    -0.190 OA
HETATM   13  O4  UNL     1      -0.273  -3.008   2.565  1.00  0.00    -0.284 OA
ENDROOT
BRANCH   2  14
HETATM   14  O5  UNL     1       1.775  -1.422   1.885  1.00  0.00    -0.298 OA
BRANCH  14  15
HETATM   15  C21 UNL     1       2.324  -1.922   0.672  1.00  0.00     0.274 C 
HETATM   16  C22 UNL     1       3.824  -2.244   0.832  1.00  0.00     0.241 C 
HETATM   17  C23 UNL     1       4.436  -2.709  -0.520  1.00  0.00     0.220 C 
HETATM   18  O9  UNL     1       4.510  -1.135   1.393  1.00  0.00    -0.215 OA
HETATM   19  C24 UNL     1       3.365  -3.451  -1.365  1.00  0.00     0.212 C 
HETATM   20  O8  UNL     1       4.936  -1.627  -1.291  1.00  0.00    -0.218 OA
HETATM   21  C25 UNL     1       2.283  -4.080  -0.461  1.00  0.00     0.151 C 
HETATM   22  O7  UNL     1       3.994  -4.461  -2.133  1.00  0.00    -0.218 OA
HETATM   23  O6  UNL     1       1.582  -3.078   0.279  1.00  0.00    -0.329 OA
HETATM   24  C26 UNL     1       1.225  -4.885  -1.221  1.00  0.00     0.035 C 
ENDBRANCH  14  15
ENDBRANCH   2  14
BRANCH   1  25
HETATM   25  C4  UNL     1       1.352   1.133   0.854  1.00  0.00     0.025 A 
HETATM   26  C3  UNL     1       2.494   1.233   1.666  1.00  0.00     0.004 A 
HETATM   27  C2  UNL     1       3.547   2.090   1.299  1.00  0.00     0.024 A 
HETATM   28  C1  UNL     1       3.461   2.850   0.119  1.00  0.00     0.094 A 
HETATM   29  C6  UNL     1       2.316   2.748  -0.693  1.00  0.00     0.024 A 
HETATM   30  C5  UNL     1       1.264   1.893  -0.326  1.00  0.00     0.004 A 
BRANCH  28  31
HETATM   31  O10 UNL     1       4.447   3.653  -0.225  1.00  0.00    -0.328 OA
HETATM   32  C27 UNL     1       4.371   4.301  -1.486  1.00  0.00     0.181 C 
ENDBRANCH  28  31
ENDBRANCH   1  25
BRANCH   7  33
HETATM   33  C16 UNL     1      -3.596   1.797   0.674  1.00  0.00     0.030 C 
BRANCH  33  34
HETATM   34  C17 UNL     1      -3.973   1.760  -0.809  1.00  0.00     0.005 C 
BRANCH  34  35
HETATM   35  C18 UNL     1      -4.104   3.156  -1.420  1.00  0.00     0.000 C 
HETATM   36  C19 UNL     1      -4.279   3.121  -2.938  1.00  0.00     0.000 C 
HETATM   37  C20 UNL     1      -5.162   4.010  -0.723  1.00  0.00     0.000 C 
ENDBRANCH  34  35
ENDBRANCH  33  34
ENDBRANCH   7  33
TORSDOF 7
