REMARK  0 active torsions:
REMARK  status: ('A' for Active; 'I' for Inactive)
ROOT
HETATM    1  N1  UNL     1      -0.496  -0.248   1.223  1.00  0.00    -0.244 NA
HETATM    2  C1  UNL     1       0.451   0.004   0.258  1.00  0.00     0.100 A 
HETATM    3  C2  UNL     1       0.172   0.209  -1.110  1.00  0.00     0.099 A 
HETATM    4  C3  UNL     1      -1.180   0.151  -1.533  1.00  0.00     0.022 A 
HETATM    5  C4  UNL     1      -2.190  -0.111  -0.559  1.00  0.00     0.019 A 
HETATM    6  C5  UNL     1      -3.551  -0.176  -0.951  1.00  0.00     0.002 A 
HETATM    7  C6  UNL     1      -4.549  -0.437   0.015  1.00  0.00     0.000 A 
HETATM    8  C7  UNL     1      -4.196  -0.631   1.371  1.00  0.00     0.002 A 
HETATM    9  C8  UNL     1      -2.842  -0.566   1.771  1.00  0.00     0.019 A 
HETATM   10  C9  UNL     1      -1.823  -0.307   0.822  1.00  0.00     0.081 A 
HETATM   11  N2  UNL     1       1.326   0.445  -1.873  1.00  0.00    -0.244 NA
HETATM   12  C10 UNL     1       2.365   0.387  -0.955  1.00  0.00     0.083 A 
HETATM   13  C11 UNL     1       1.808   0.125   0.285  1.00  0.00     0.037 A 
HETATM   14  C12 UNL     1       2.627   0.004   1.437  1.00  0.00     0.003 A 
HETATM   15  C13 UNL     1       4.031   0.158   1.293  1.00  0.00     0.000 A 
HETATM   16  C14 UNL     1       4.596   0.428   0.017  1.00  0.00     0.002 A 
HETATM   17  C15 UNL     1       3.760   0.545  -1.123  1.00  0.00     0.019 A 
ENDROOT
TORSDOF 0
