REMARK  3 active torsions:
REMARK  status: ('A' for Active; 'I' for Inactive)
REMARK    1  A    between atoms: C5_5  and  C10_12 
REMARK    2  A    between atoms: C10_12  and  C11_13 
REMARK    3  A    between atoms: C11_13  and  C12_14 
ROOT
HETATM    1  C1  UNL     1       0.813   2.196   0.815  1.00  0.00     0.048 A 
HETATM    2  C2  UNL     1      -0.471   2.647   1.264  1.00  0.00     0.135 A 
HETATM    3  C3  UNL     1      -1.588   2.164   0.535  1.00  0.00     0.050 A 
HETATM    4  C4  UNL     1      -1.457   1.322  -0.531  1.00  0.00     0.100 A 
HETATM    5  C5  UNL     1      -0.209   0.863  -0.996  1.00  0.00     0.024 A 
HETATM    6  C6  UNL     1       0.947   1.311  -0.307  1.00  0.00     0.103 A 
HETATM    7  O1  UNL     1       2.172   0.901  -0.709  1.00  0.00    -0.273 OA
HETATM    8  C7  UNL     1       3.315   1.281  -0.103  1.00  0.00     0.300 A 
HETATM    9  C8  UNL     1       3.248   2.194   1.059  1.00  0.00     0.069 A 
HETATM   10  C9  UNL     1       2.057   2.637   1.504  1.00  0.00     0.009 A 
HETATM   11  O2  UNL     1       4.401   0.904  -0.476  1.00  0.00    -0.259 OA
HETATM   12  O3  UNL     1      -2.701   1.008  -1.053  1.00  0.00    -0.305 OA
HETATM   13  C16 UNL     1      -3.603   1.729  -0.219  1.00  0.00     0.123 A 
HETATM   14  C17 UNL     1      -2.892   2.446   0.768  1.00  0.00     0.031 A 
HETATM   15  O4  UNL     1      -0.476   3.475   2.319  1.00  0.00    -0.190 OA
ENDROOT
BRANCH   5  16
HETATM   16  C10 UNL     1      -0.111  -0.045  -2.150  1.00  0.00     0.035 C 
BRANCH  16  17
HETATM   17  C11 UNL     1      -0.484  -1.478  -1.771  1.00  0.00     0.030 C 
BRANCH  17  18
HETATM   18  C12 UNL     1       0.483  -2.086  -0.791  1.00  0.00    -0.034 C 
HETATM   19  C13 UNL     1       0.067  -3.109  -0.029  1.00  0.00    -0.048 C 
HETATM   20  C14 UNL     1      -1.314  -3.662  -0.262  1.00  0.00     0.026 C 
HETATM   21  C15 UNL     1       1.002  -3.652   1.018  1.00  0.00     0.026 C 
ENDBRANCH  17  18
ENDBRANCH  16  17
ENDBRANCH   5  16
TORSDOF 3
