REMARK  3 active torsions:
REMARK  status: ('A' for Active; 'I' for Inactive)
REMARK    1  A    between atoms: C1_1  and  O4_12 
REMARK    2  A    between atoms: C5_5  and  O3_10 
REMARK    3  A    between atoms: C6_6  and  C7_7 
ROOT
HETATM    1  C1  UNL     1       0.014  -1.289   0.027  1.00  0.00     0.102 A 
HETATM    2  C2  UNL     1       1.420  -1.232   0.027  1.00  0.00     0.025 A 
HETATM    3  C3  UNL     1       2.076   0.008   0.027  1.00  0.00     0.004 A 
HETATM    4  C4  UNL     1       1.330   1.197   0.027  1.00  0.00     0.025 A 
HETATM    5  C5  UNL     1      -0.074   1.153   0.027  1.00  0.00     0.102 A 
HETATM    6  C6  UNL     1      -0.734  -0.094   0.027  1.00  0.00     0.109 A 
ENDROOT
BRANCH   6   7
HETATM    7  C7  UNL     1      -2.228  -0.148   0.027  1.00  0.00     0.215 C 
HETATM    8  O1  UNL     1      -2.812  -1.207   0.027  1.00  0.00    -0.644 OA
HETATM    9  O2  UNL     1      -2.838   1.033   0.027  1.00  0.00    -0.644 OA
ENDBRANCH   6   7
BRANCH   1  10
HETATM   10  O4  UNL     1      -0.590  -2.461   0.027  1.00  0.00    -0.328 OA
HETATM   11  C9  UNL     1       0.211  -3.623  -0.125  1.00  0.00     0.181 C 
ENDBRANCH   1  10
BRANCH   5  12
HETATM   12  O3  UNL     1      -0.762   2.278   0.027  1.00  0.00    -0.328 OA
HETATM   13  C8  UNL     1      -0.039   3.500   0.027  1.00  0.00     0.181 C 
ENDBRANCH   5  12
TORSDOF 3
