REMARK  14 active torsions:
REMARK  status: ('A' for Active; 'I' for Inactive)
REMARK    1  A    between atoms: C2_2  and  O13_52 
REMARK    2  A    between atoms: C4_4  and  O11_48 
REMARK    3  A    between atoms: C11_13  and  O9_36 
REMARK    4  A    between atoms: C12_14  and  O7_27 
REMARK    5  A    between atoms: C13_15  and  O5_23 
REMARK    6  A    between atoms: C15_17  and  O3_18 
REMARK    7  A    between atoms: O3_18  and  C16_19 
REMARK    8  A    between atoms: O5_23  and  C19_24 
REMARK    9  A    between atoms: O7_27  and  C21_28 
REMARK   10  A    between atoms: C21_28  and  C22_29 
REMARK   11  A    between atoms: O9_36  and  C28_37 
REMARK   12  A    between atoms: C28_37  and  C30_39 
REMARK   13  A    between atoms: O11_48  and  C37_49 
REMARK   14  A    between atoms: O13_52  and  C39_53 
ROOT
HETATM    1  C1  UNL     1      -3.954  -2.821   0.537  1.00  0.00     0.031 C 
HETATM    2  C2  UNL     1      -3.876  -1.299   0.521  1.00  0.00     0.129 C 
HETATM    3  C3  UNL     1      -2.373  -1.021   0.365  1.00  0.00     0.090 C 
HETATM    4  C4  UNL     1      -1.843  -2.207  -0.491  1.00  0.00     0.156 C 
HETATM    5  C5  UNL     1      -3.047  -3.155  -0.641  1.00  0.00     0.035 C 
HETATM    6  C6  UNL     1      -0.585  -2.909   0.113  1.00  0.00     0.250 C 
HETATM    7  O1  UNL     1       0.310  -1.947   0.645  1.00  0.00    -0.325 OA
HETATM    8  C7  UNL     1       1.624  -2.448   0.779  1.00  0.00     0.177 C 
HETATM    9  C8  UNL     1       1.695  -3.333  -0.436  1.00  0.00     0.183 C 
HETATM   10  C9  UNL     1       0.303  -3.676  -0.889  1.00  0.00     0.129 C 
HETATM   11  O2  UNL     1       2.709  -3.710  -0.977  1.00  0.00    -0.293 OA
HETATM   12  C10 UNL     1       2.631  -1.282   0.942  1.00  0.00     0.060 C 
HETATM   13  C11 UNL     1       2.465  -0.150  -0.130  1.00  0.00     0.154 C 
HETATM   14  C12 UNL     1       1.798   1.191   0.302  1.00  0.00     0.184 C 
HETATM   15  C13 UNL     1       0.277   1.214   0.613  1.00  0.00     0.175 C 
HETATM   16  C14 UNL     1      -0.682   0.805  -0.499  1.00  0.00     0.013 C 
HETATM   17  C15 UNL     1      -2.115   0.418  -0.151  1.00  0.00     0.150 C 
HETATM   18  C18 UNL     1      -0.299   0.820  -1.794  1.00  0.00    -0.004 C 
HETATM   19  C35 UNL     1       2.467  -0.781   2.384  1.00  0.00     0.005 C 
HETATM   20  C36 UNL     1       4.005  -1.965   0.857  1.00  0.00     0.005 C 
HETATM   21  O10 UNL     1      -0.953  -3.774   1.178  1.00  0.00    -0.193 OA
HETATM   22  C41 UNL     1      -5.371  -3.355   0.350  1.00  0.00     0.003 C 
ENDROOT
BRANCH  13  23
HETATM   23  O9  UNL     1       3.748   0.192  -0.642  1.00  0.00    -0.331 OA
BRANCH  23  24
HETATM   24  C28 UNL     1       3.674   0.849  -1.796  1.00  0.00     0.096 C 
HETATM   25  C29 UNL     1       4.166   2.094  -1.902  1.00  0.00     0.026 C 
BRANCH  24  26
HETATM   26  C30 UNL     1       3.046   0.222  -2.997  1.00  0.00     0.042 A 
HETATM   27  C31 UNL     1       2.376   1.016  -3.944  1.00  0.00     0.005 A 
HETATM   28  C32 UNL     1       1.796   0.393  -5.063  1.00  0.00     0.021 A 
HETATM   29  C33 UNL     1       1.900  -1.005  -5.208  1.00  0.00     0.099 A 
HETATM   30  N1  UNL     1       2.552  -1.768  -4.283  1.00  0.00    -0.242 NA
HETATM   31  C34 UNL     1       3.119  -1.173  -3.193  1.00  0.00     0.101 A 
ENDBRANCH  24  26
ENDBRANCH  23  24
ENDBRANCH  13  23
BRANCH  14  32
HETATM   32  O7  UNL     1       2.505   1.744   1.404  1.00  0.00    -0.295 OA
BRANCH  32  33
HETATM   33  C21 UNL     1       2.574   3.071   1.346  1.00  0.00     0.296 C 
HETATM   34  O8  UNL     1       1.805   3.759   0.716  1.00  0.00    -0.259 OA
BRANCH  33  35
HETATM   35  C22 UNL     1       3.691   3.684   2.126  1.00  0.00     0.063 A 
HETATM   36  C23 UNL     1       3.758   5.081   2.280  1.00  0.00     0.005 A 
HETATM   37  C24 UNL     1       4.809   5.657   3.015  1.00  0.00     0.000 A 
HETATM   38  C25 UNL     1       5.793   4.839   3.595  1.00  0.00     0.000 A 
HETATM   39  C26 UNL     1       5.726   3.444   3.442  1.00  0.00     0.000 A 
HETATM   40  C27 UNL     1       4.676   2.866   2.708  1.00  0.00     0.005 A 
ENDBRANCH  33  35
ENDBRANCH  32  33
ENDBRANCH  14  32
BRANCH  15  41
HETATM   41  O5  UNL     1       0.008   0.487   1.802  1.00  0.00    -0.297 OA
BRANCH  41  42
HETATM   42  C19 UNL     1      -0.166   1.282   2.853  1.00  0.00     0.273 C 
HETATM   43  O6  UNL     1       0.483   2.281   3.057  1.00  0.00    -0.264 OA
HETATM   44  C20 UNL     1      -1.252   0.856   3.806  1.00  0.00     0.106 C 
ENDBRANCH  41  42
ENDBRANCH  15  41
BRANCH  17  45
HETATM   45  O3  UNL     1      -2.601   1.336   0.819  1.00  0.00    -0.300 OA
BRANCH  45  46
HETATM   46  C16 UNL     1      -2.689   2.575   0.344  1.00  0.00     0.273 C 
HETATM   47  O4  UNL     1      -2.576   2.857  -0.826  1.00  0.00    -0.264 OA
HETATM   48  C17 UNL     1      -2.947   3.640   1.375  1.00  0.00     0.106 C 
ENDBRANCH  45  46
ENDBRANCH  17  45
BRANCH   4  49
HETATM   49  O11 UNL     1      -1.528  -1.737  -1.795  1.00  0.00    -0.301 OA
BRANCH  49  50
HETATM   50  C37 UNL     1      -2.607  -1.613  -2.563  1.00  0.00     0.272 C 
HETATM   51  O12 UNL     1      -3.420  -0.726  -2.442  1.00  0.00    -0.264 OA
HETATM   52  C38 UNL     1      -2.764  -2.670  -3.622  1.00  0.00     0.106 C 
ENDBRANCH  49  50
ENDBRANCH   4  49
BRANCH   2  53
HETATM   53  O13 UNL     1      -4.611  -0.788  -0.586  1.00  0.00    -0.304 OA
BRANCH  53  54
HETATM   54  C39 UNL     1      -5.628  -0.020  -0.208  1.00  0.00     0.272 C 
HETATM   55  O14 UNL     1      -5.584   0.743   0.729  1.00  0.00    -0.264 OA
HETATM   56  C40 UNL     1      -6.878  -0.157  -1.036  1.00  0.00     0.106 C 
ENDBRANCH  53  54
ENDBRANCH   2  53
TORSDOF 14
