REMARK  2 active torsions:
REMARK  status: ('A' for Active; 'I' for Inactive)
REMARK    1  A    between atoms: C5_7  and  O4_14 
REMARK    2  A    between atoms: C7_9  and  O3_12 
ROOT
HETATM    1  O1  UNL     1      -2.152   1.621   0.447  1.00  0.00    -0.273 OA
HETATM    2  C1  UNL     1      -3.381   1.135   0.179  1.00  0.00     0.300 A 
HETATM    3  O2  UNL     1      -4.385   1.787   0.347  1.00  0.00    -0.259 OA
HETATM    4  C2  UNL     1      -3.518  -0.246  -0.338  1.00  0.00     0.069 A 
HETATM    5  C3  UNL     1      -2.422  -1.004  -0.539  1.00  0.00     0.009 A 
HETATM    6  C4  UNL     1      -1.086  -0.430  -0.233  1.00  0.00     0.045 A 
HETATM    7  C5  UNL     1       0.098  -1.184  -0.426  1.00  0.00     0.098 A 
HETATM    8  C6  UNL     1       1.352  -0.602  -0.121  1.00  0.00     0.049 A 
HETATM    9  C7  UNL     1       1.422   0.723   0.373  1.00  0.00     0.098 A 
HETATM   10  C8  UNL     1       0.238   1.473   0.566  1.00  0.00     0.049 A 
HETATM   11  C9  UNL     1      -1.021   0.902   0.263  1.00  0.00     0.107 A 
ENDROOT
BRANCH   7  12
HETATM   12  O4  UNL     1       0.045  -2.438  -0.895  1.00  0.00    -0.328 OA
HETATM   13  C11 UNL     1       1.270  -3.139  -1.067  1.00  0.00     0.181 C 
ENDBRANCH   7  12
BRANCH   9  14
HETATM   14  O3  UNL     1       2.613   1.266   0.662  1.00  0.00    -0.328 OA
HETATM   15  C10 UNL     1       2.639   2.609   1.117  1.00  0.00     0.181 C 
ENDBRANCH   9  14
TORSDOF 2
