REMARK  0 active torsions:
REMARK  status: ('A' for Active; 'I' for Inactive)
ROOT
HETATM    1  C1  UNL     1       4.737   2.334  -0.611  1.00  0.00     0.033 C 
HETATM    2  C2  UNL     1       5.655   1.106  -0.592  1.00  0.00     0.152 C 
HETATM    3  C3  UNL     1       5.149   0.010   0.402  1.00  0.00     0.028 C 
HETATM    4  C4  UNL     1       3.615   0.145   0.682  1.00  0.00     0.002 C 
HETATM    5  C5  UNL     1       2.785   0.596  -0.549  1.00  0.00     0.000 C 
HETATM    6  C6  UNL     1       3.287   1.994  -1.018  1.00  0.00     0.003 C 
HETATM    7  C7  UNL     1       1.266   0.689  -0.188  1.00  0.00     0.000 C 
HETATM    8  C8  UNL     1       0.674  -0.584   0.492  1.00  0.00     0.000 C 
HETATM    9  C9  UNL     1       1.551  -0.941   1.717  1.00  0.00     0.000 C 
HETATM   10  C10 UNL     1       3.029  -1.111   1.353  1.00  0.00     0.000 C 
HETATM   11  C11 UNL     1      -0.816  -0.330   0.914  1.00  0.00     0.003 C 
HETATM   12  C12 UNL     1      -1.672   0.076  -0.324  1.00  0.00     0.001 C 
HETATM   13  C13 UNL     1      -1.066   1.309  -1.027  1.00  0.00     0.000 C 
HETATM   14  C14 UNL     1       0.406   1.109  -1.397  1.00  0.00     0.000 C 
HETATM   15  C15 UNL     1      -3.187   0.248   0.017  1.00  0.00     0.009 C 
HETATM   16  C16 UNL     1      -3.771  -1.043   0.656  1.00  0.00     0.061 C 
HETATM   17  C17 UNL     1      -2.922  -1.426   1.900  1.00  0.00     0.155 C 
HETATM   18  C18 UNL     1      -1.432  -1.596   1.560  1.00  0.00     0.033 C 
HETATM   19  O1  UNL     1      -3.394  -2.629   2.478  1.00  0.00    -0.223 OA
HETATM   20  C19 UNL     1      -5.262  -0.807   1.027  1.00  0.00     0.176 C 
HETATM   21  C20 UNL     1      -6.074  -0.326  -0.151  1.00  0.00    -0.002 C 
HETATM   22  C21 UNL     1      -5.514   0.367  -1.160  1.00  0.00    -0.046 C 
HETATM   23  C22 UNL     1      -4.039   0.729  -1.197  1.00  0.00     0.018 C 
HETATM   24  C23 UNL     1      -3.935   2.248  -1.383  1.00  0.00     0.004 C 
HETATM   25  C24 UNL     1      -6.373   0.803  -2.320  1.00  0.00     0.026 C 
HETATM   26  O2  UNL     1      -5.391   0.145   2.066  1.00  0.00    -0.219 OA
HETATM   27  C25 UNL     1      -3.709  -2.188  -0.375  1.00  0.00     0.005 C 
HETATM   28  C26 UNL     1      -0.875   0.807   1.953  1.00  0.00     0.000 C 
HETATM   29  C27 UNL     1       0.723  -1.770  -0.490  1.00  0.00     0.000 C 
HETATM   30  C28 UNL     1       2.983  -0.418  -1.692  1.00  0.00     0.000 C 
HETATM   31  C29 UNL     1       5.883   0.197   1.736  1.00  0.00     0.003 C 
HETATM   32  C30 UNL     1       5.510  -1.406  -0.088  1.00  0.00     0.003 C 
HETATM   33  O3  UNL     1       5.766   0.623  -1.920  1.00  0.00    -0.224 OA
ENDROOT
TORSDOF 0
