REMARK  7 active torsions:
REMARK  status: ('A' for Active; 'I' for Inactive)
REMARK    1  A    between atoms: C1_1  and  C2_2 
REMARK    2  A    between atoms: C4_4  and  O1_5 
REMARK    3  A    between atoms: C6_7  and  O2_8 
REMARK    4  A    between atoms: O2_8  and  C7_9 
REMARK    5  A    between atoms: C8_10  and  O7_19 
REMARK    6  A    between atoms: C11_13  and  C12_15 
REMARK    7  A    between atoms: O7_19  and  C13_20 
ROOT
HETATM    1  C7  UNL     1       0.090  -0.332   1.279  1.00  0.00     0.271 C 
HETATM    2  C8  UNL     1      -0.219   1.150   0.953  1.00  0.00     0.207 C 
HETATM    3  C9  UNL     1      -1.510   1.623   1.654  1.00  0.00     0.217 C 
HETATM    4  C10 UNL     1      -2.647   0.601   1.406  1.00  0.00     0.215 C 
HETATM    5  C11 UNL     1      -2.213  -0.852   1.729  1.00  0.00     0.184 C 
HETATM    6  O3  UNL     1      -1.033  -1.162   0.998  1.00  0.00    -0.326 OA
HETATM    7  O5  UNL     1      -3.803   0.937   2.156  1.00  0.00    -0.218 OA
HETATM    8  O6  UNL     1      -1.236   1.742   3.041  1.00  0.00    -0.218 OA
ENDROOT
BRANCH   1   9
HETATM    9  O2  UNL     1       1.213  -0.779   0.533  1.00  0.00    -0.302 OA
BRANCH   9  10
HETATM   10  C6  UNL     1       1.937  -1.760   1.033  1.00  0.00     0.119 A 
HETATM   11  C4  UNL     1       3.256  -1.967   0.586  1.00  0.00     0.117 A 
HETATM   12  C3  UNL     1       4.023  -3.014   1.127  1.00  0.00     0.032 A 
HETATM   13  C2  UNL     1       3.477  -3.858   2.111  1.00  0.00     0.067 A 
HETATM   14  C20 UNL     1       2.160  -3.649   2.559  1.00  0.00     0.008 A 
HETATM   15  C19 UNL     1       1.393  -2.602   2.020  1.00  0.00     0.026 A 
BRANCH  11  16
HETATM   16  O1  UNL     1       3.775  -1.182  -0.336  1.00  0.00    -0.326 OA
HETATM   17  C5  UNL     1       5.146  -1.348  -0.660  1.00  0.00     0.181 C 
ENDBRANCH  11  16
BRANCH  13  18
HETATM   18  C1  UNL     1       4.295  -4.969   2.682  1.00  0.00     0.211 C 
HETATM   19  O12 UNL     1       4.061  -5.410   3.783  1.00  0.00    -0.644 OA
HETATM   20  O13 UNL     1       5.272  -5.414   1.899  1.00  0.00    -0.644 OA
ENDBRANCH  13  18
ENDBRANCH   9  10
ENDBRANCH   1   9
BRANCH   2  21
HETATM   21  O7  UNL     1      -0.373   1.314  -0.445  1.00  0.00    -0.324 OA
BRANCH  21  22
HETATM   22  C13 UNL     1      -0.451   2.670  -0.842  1.00  0.00     0.270 C 
HETATM   23  O8  UNL     1      -1.797   3.051  -1.131  1.00  0.00    -0.329 OA
HETATM   24  C14 UNL     1      -2.391   2.432  -2.271  1.00  0.00     0.151 C 
HETATM   25  C15 UNL     1      -1.563   2.771  -3.535  1.00  0.00     0.212 C 
HETATM   26  C18 UNL     1      -3.828   2.953  -2.348  1.00  0.00     0.035 C 
HETATM   27  C16 UNL     1      -0.074   2.381  -3.387  1.00  0.00     0.220 C 
HETATM   28  O11 UNL     1      -2.139   2.150  -4.674  1.00  0.00    -0.218 OA
HETATM   29  C17 UNL     1       0.455   2.984  -2.064  1.00  0.00     0.241 C 
HETATM   30  O10 UNL     1       0.074   0.967  -3.387  1.00  0.00    -0.218 OA
HETATM   31  O9  UNL     1       1.801   2.613  -1.818  1.00  0.00    -0.215 OA
ENDBRANCH  21  22
ENDBRANCH   2  21
BRANCH   5  32
HETATM   32  C12 UNL     1      -3.264  -1.891   1.322  1.00  0.00     0.214 C 
HETATM   33  O4  UNL     1      -2.848  -3.149   1.803  1.00  0.00    -0.218 OA
ENDBRANCH   5  32
TORSDOF 7
