REMARK  1 active torsions:
REMARK  status: ('A' for Active; 'I' for Inactive)
REMARK    1  A    between atoms: C10_10  and  C13_13 
ROOT
HETATM    1  C1  UNL     1       1.035  -1.332   2.435  1.00  0.00    -0.048 C 
HETATM    2  C2  UNL     1      -0.156  -1.967   2.488  1.00  0.00    -0.034 C 
HETATM    3  C3  UNL     1      -0.787  -2.738   1.346  1.00  0.00     0.029 C 
HETATM    4  C4  UNL     1      -1.616  -1.888   0.360  1.00  0.00     0.026 C 
HETATM    5  C5  UNL     1      -0.936  -1.642  -0.974  1.00  0.00    -0.044 C 
HETATM    6  C6  UNL     1      -0.073  -0.401  -1.225  1.00  0.00     0.018 C 
HETATM    7  C7  UNL     1       0.392   0.416   0.007  1.00  0.00     0.004 C 
HETATM    8  C8  UNL     1       1.804   0.082   0.485  1.00  0.00     0.004 C 
HETATM    9  C9  UNL     1       1.912  -1.271   1.201  1.00  0.00     0.022 C 
HETATM   10  C10 UNL     1       0.251   1.664  -0.898  1.00  0.00     0.001 C 
HETATM   11  C11 UNL     1      -0.850   0.869  -1.645  1.00  0.00     0.004 C 
HETATM   12  C12 UNL     1      -0.905   1.115  -3.148  1.00  0.00     0.000 C 
HETATM   13  C15 UNL     1      -1.106  -2.540  -1.965  1.00  0.00    -0.009 C 
HETATM   14  C16 UNL     1       1.547  -0.630   3.666  1.00  0.00     0.026 C 
ENDROOT
BRANCH  10  15
HETATM   15  C13 UNL     1      -0.241   2.916  -0.183  1.00  0.00     0.000 C 
HETATM   16  C14 UNL     1      -0.424   4.044  -1.199  1.00  0.00     0.000 C 
ENDBRANCH  10  15
TORSDOF 1
