REMARK  6 active torsions:
REMARK  status: ('A' for Active; 'I' for Inactive)
REMARK    1  A    between atoms: C1_1  and  C21_35 
REMARK    2  A    between atoms: C2_2  and  O1_3 
REMARK    3  A    between atoms: O1_3  and  C3_4 
REMARK    4  A    between atoms: C4_5  and  O2_6 
REMARK    5  A    between atoms: O2_6  and  C5_7 
REMARK    6  A    between atoms: C12_20  and  C13_22 
ROOT
HETATM    1  C1  UNL     1      -1.666   1.723  -0.918  1.00  0.00     0.125 A 
HETATM    2  C2  UNL     1      -1.389   0.490  -0.422  1.00  0.00     0.158 A 
HETATM    3  C14 UNL     1      -2.490  -0.420  -0.033  1.00  0.00     0.224 A 
HETATM    4  O11 UNL     1      -2.182  -1.506   0.400  1.00  0.00    -0.284 OA
HETATM    5  C15 UNL     1      -3.869   0.111  -0.221  1.00  0.00     0.089 A 
HETATM    6  C16 UNL     1      -5.008  -0.662   0.119  1.00  0.00     0.138 A 
HETATM    7  O12 UNL     1      -4.879  -1.899   0.621  1.00  0.00    -0.190 OA
HETATM    8  C17 UNL     1      -6.303  -0.121  -0.076  1.00  0.00     0.055 A 
HETATM    9  C18 UNL     1      -6.457   1.182  -0.605  1.00  0.00     0.135 A 
HETATM   10  O13 UNL     1      -7.686   1.687  -0.789  1.00  0.00    -0.190 OA
HETATM   11  C19 UNL     1      -5.318   1.951  -0.943  1.00  0.00     0.052 A 
HETATM   12  C20 UNL     1      -4.022   1.418  -0.750  1.00  0.00     0.107 A 
HETATM   13  O14 UNL     1      -2.936   2.154  -1.070  1.00  0.00    -0.305 OA
ENDROOT
BRANCH   2  14
HETATM   14  O1  UNL     1      -0.129   0.074  -0.277  1.00  0.00    -0.298 OA
BRANCH  14  15
HETATM   15  C3  UNL     1       0.297   0.100   1.080  1.00  0.00     0.271 C 
HETATM   16  C4  UNL     1       1.527  -0.815   1.268  1.00  0.00     0.207 C 
HETATM   17  C10 UNL     1       2.088  -0.693   2.701  1.00  0.00     0.217 C 
HETATM   18  O7  UNL     1       3.279  -1.449   2.852  1.00  0.00    -0.218 OA
HETATM   19  C11 UNL     1       2.318   0.791   3.067  1.00  0.00     0.215 C 
HETATM   20  O8  UNL     1       3.410   1.328   2.330  1.00  0.00    -0.218 OA
HETATM   21  C12 UNL     1       1.041   1.621   2.781  1.00  0.00     0.184 C 
HETATM   22  O9  UNL     1       0.623   1.439   1.434  1.00  0.00    -0.326 OA
BRANCH  16  23
HETATM   23  O2  UNL     1       1.137  -2.152   1.010  1.00  0.00    -0.324 OA
BRANCH  23  24
HETATM   24  C5  UNL     1       1.307  -2.531  -0.344  1.00  0.00     0.270 C 
HETATM   25  C6  UNL     1       0.486  -3.830  -0.631  1.00  0.00     0.241 C 
HETATM   26  O3  UNL     1      -0.217  -3.660  -1.850  1.00  0.00    -0.215 OA
HETATM   27  C7  UNL     1       1.369  -5.090  -0.766  1.00  0.00     0.220 C 
HETATM   28  O4  UNL     1       1.859  -5.401   0.531  1.00  0.00    -0.218 OA
HETATM   29  C8  UNL     1       2.521  -4.830  -1.779  1.00  0.00     0.215 C 
HETATM   30  O5  UNL     1       3.607  -5.721  -1.590  1.00  0.00    -0.218 OA
HETATM   31  C9  UNL     1       3.025  -3.361  -1.795  1.00  0.00     0.181 C 
HETATM   32  O6  UNL     1       2.701  -2.709  -0.578  1.00  0.00    -0.326 OA
ENDBRANCH  23  24
ENDBRANCH  16  23
BRANCH  21  33
HETATM   33  C13 UNL     1       1.223   3.125   3.014  1.00  0.00     0.214 C 
HETATM   34  O10 UNL     1      -0.023   3.754   2.817  1.00  0.00    -0.218 OA
ENDBRANCH  21  33
ENDBRANCH  14  15
ENDBRANCH   2  14
BRANCH   1  35
HETATM   35  C21 UNL     1      -0.543   2.629  -1.307  1.00  0.00     0.027 A 
HETATM   36  C22 UNL     1       0.668   2.090  -1.775  1.00  0.00     0.032 A 
HETATM   37  C23 UNL     1       1.729   2.939  -2.143  1.00  0.00     0.156 A 
HETATM   38  O15 UNL     1       2.859   2.426  -2.580  1.00  0.00    -0.188 OA
HETATM   39  C24 UNL     1       1.574   4.334  -2.039  1.00  0.00     0.156 A 
HETATM   40  O16 UNL     1       2.563   5.139  -2.379  1.00  0.00    -0.188 OA
HETATM   41  C25 UNL     1       0.363   4.873  -1.568  1.00  0.00     0.030 A 
HETATM   42  C26 UNL     1      -0.693   4.023  -1.203  1.00  0.00     0.004 A 
ENDBRANCH   1  35
TORSDOF 6
