REMARK  6 active torsions:
REMARK  status: ('A' for Active; 'I' for Inactive)
REMARK    1  A    between atoms: C4_4  and  O7_18 
REMARK    2  A    between atoms: C5_6  and  C6_7 
REMARK    3  A    between atoms: C6_7  and  O2_8 
REMARK    4  A    between atoms: O2_8  and  C7_9 
REMARK    5  A    between atoms: C9_11  and  C11_14 
REMARK    6  A    between atoms: O7_18  and  C12_19 
ROOT
HETATM    1  C1  UNL     1      -1.383   3.647  -0.281  1.00  0.00     0.215 C 
HETATM    2  C2  UNL     1      -0.346   4.715   0.127  1.00  0.00     0.220 C 
HETATM    3  C3  UNL     1       1.074   4.225  -0.234  1.00  0.00     0.241 C 
HETATM    4  C4  UNL     1       1.328   2.803   0.311  1.00  0.00     0.274 C 
HETATM    5  O1  UNL     1       0.315   1.922  -0.154  1.00  0.00    -0.326 OA
HETATM    6  C5  UNL     1      -1.004   2.250   0.264  1.00  0.00     0.180 C 
HETATM    7  O9  UNL     1       2.043   5.100   0.315  1.00  0.00    -0.215 OA
HETATM    8  O10 UNL     1      -0.617   5.934  -0.545  1.00  0.00    -0.218 OA
HETATM    9  O11 UNL     1      -2.660   4.000   0.225  1.00  0.00    -0.218 OA
ENDROOT
BRANCH   6  10
HETATM   10  C6  UNL     1      -1.920   1.137  -0.250  1.00  0.00     0.177 C 
BRANCH  10  11
HETATM   11  O2  UNL     1      -1.560  -0.064   0.395  1.00  0.00    -0.326 OA
BRANCH  11  12
HETATM   12  C7  UNL     1      -2.373  -1.162   0.022  1.00  0.00     0.270 C 
HETATM   13  C8  UNL     1      -2.094  -2.482   0.779  1.00  0.00     0.241 C 
HETATM   14  C9  UNL     1      -2.285  -3.580  -0.316  1.00  0.00     0.217 C 
HETATM   15  O6  UNL     1      -0.810  -2.520   1.397  1.00  0.00    -0.215 OA
HETATM   16  C10 UNL     1      -2.752  -2.787  -1.547  1.00  0.00     0.181 C 
HETATM   17  O5  UNL     1      -1.090  -4.274  -0.652  1.00  0.00    -0.218 OA
HETATM   18  O3  UNL     1      -2.207  -1.510  -1.330  1.00  0.00    -0.326 OA
BRANCH  14  19
HETATM   19  C11 UNL     1      -3.316  -4.631   0.084  1.00  0.00     0.218 C 
HETATM   20  O4  UNL     1      -3.693  -5.344  -1.072  1.00  0.00    -0.218 OA
ENDBRANCH  14  19
ENDBRANCH  11  12
ENDBRANCH  10  11
ENDBRANCH   6  10
BRANCH   4  21
HETATM   21  O7  UNL     1       2.590   2.328  -0.137  1.00  0.00    -0.304 OA
BRANCH  21  22
HETATM   22  C12 UNL     1       2.922   1.086   0.152  1.00  0.00     0.099 A 
HETATM   23  C13 UNL     1       3.883   0.412  -0.623  1.00  0.00     0.020 A 
HETATM   24  C14 UNL     1       4.237  -0.914  -0.314  1.00  0.00    -0.018 A 
HETATM   25  C15 UNL     1       3.629  -1.566   0.772  1.00  0.00     0.023 A 
HETATM   26  C18 UNL     1       5.250  -1.623  -1.137  1.00  0.00     0.031 C 
HETATM   27  C16 UNL     1       2.668  -0.898   1.551  1.00  0.00     0.133 A 
HETATM   28  C17 UNL     1       2.319   0.428   1.238  1.00  0.00     0.052 A 
HETATM   29  O8  UNL     1       2.098  -1.510   2.570  1.00  0.00    -0.190 OA
ENDBRANCH  21  22
ENDBRANCH   4  21
TORSDOF 6
