REMARK  7 active torsions:
REMARK  status: ('A' for Active; 'I' for Inactive)
REMARK    1  A    between atoms: C1_1  and  C22_27 
REMARK    2  A    between atoms: C3_3  and  C13_16 
REMARK    3  A    between atoms: C4_5  and  C5_6 
REMARK    4  A    between atoms: C8_9  and  O3_14 
REMARK    5  A    between atoms: C9_10  and  O2_12 
REMARK    6  A    between atoms: C15_18  and  O5_24 
REMARK    7  A    between atoms: C16_19  and  O4_22 
ROOT
HETATM    1  C1  UNL     1      -0.039  -0.160  -2.340  1.00  0.00     0.034 C 
HETATM    2  C2  UNL     1      -1.363  -0.123  -1.547  1.00  0.00     0.034 C 
HETATM    3  C3  UNL     1      -1.160   1.096  -0.645  1.00  0.00     0.138 C 
HETATM    4  O1  UNL     1       0.203   0.992  -0.328  1.00  0.00    -0.350 OA
HETATM    5  C4  UNL     1       0.939   0.672  -1.484  1.00  0.00     0.138 C 
HETATM    6  C21 UNL     1      -2.631  -0.019  -2.395  1.00  0.00     0.003 C 
ENDROOT
BRANCH   3   7
HETATM    7  C13 UNL     1      -1.986   1.084   0.594  1.00  0.00     0.007 A 
HETATM    8  C14 UNL     1      -1.869   2.129   1.527  1.00  0.00     0.024 A 
HETATM    9  C15 UNL     1      -2.645   2.125   2.699  1.00  0.00     0.116 A 
HETATM   10  C16 UNL     1      -3.545   1.067   2.937  1.00  0.00     0.116 A 
HETATM   11  C17 UNL     1      -3.660   0.022   2.004  1.00  0.00     0.026 A 
HETATM   12  C18 UNL     1      -2.883   0.029   0.834  1.00  0.00     0.000 A 
BRANCH   9  13
HETATM   13  O5  UNL     1      -2.529   3.108   3.568  1.00  0.00    -0.326 OA
HETATM   14  C20 UNL     1      -3.717   3.619   4.158  1.00  0.00     0.181 C 
ENDBRANCH   9  13
BRANCH  10  15
HETATM   15  O4  UNL     1      -4.276   1.053   4.033  1.00  0.00    -0.326 OA
HETATM   16  C19 UNL     1      -4.971  -0.142   4.357  1.00  0.00     0.181 C 
ENDBRANCH  10  15
ENDBRANCH   3   7
BRANCH   1  17
HETATM   17  C22 UNL     1      -0.152   0.469  -3.731  1.00  0.00     0.003 C 
HETATM   18  C23 UNL     1      -0.510  -0.613  -4.750  1.00  0.00     0.000 C 
ENDBRANCH   1  17
BRANCH   5  19
HETATM   19  C5  UNL     1       2.189  -0.043  -1.108  1.00  0.00     0.007 A 
HETATM   20  C6  UNL     1       2.857  -0.840  -2.053  1.00  0.00     0.000 A 
HETATM   21  C7  UNL     1       4.037  -1.514  -1.693  1.00  0.00     0.026 A 
HETATM   22  C8  UNL     1       4.553  -1.392  -0.391  1.00  0.00     0.116 A 
HETATM   23  C9  UNL     1       3.885  -0.594   0.557  1.00  0.00     0.116 A 
HETATM   24  C10 UNL     1       2.705   0.080   0.195  1.00  0.00     0.024 A 
BRANCH  22  25
HETATM   25  O3  UNL     1       5.660  -2.027  -0.063  1.00  0.00    -0.326 OA
HETATM   26  C12 UNL     1       6.299  -2.814  -1.057  1.00  0.00     0.181 C 
ENDBRANCH  22  25
BRANCH  23  27
HETATM   27  O2  UNL     1       4.363  -0.475   1.779  1.00  0.00    -0.326 OA
HETATM   28  C11 UNL     1       4.857  -1.641   2.418  1.00  0.00     0.181 C 
ENDBRANCH  23  27
ENDBRANCH   5  19
TORSDOF 7
