REMARK  4 active torsions:
REMARK  status: ('A' for Active; 'I' for Inactive)
REMARK    1  A    between atoms: C6_8  and  C8_10 
REMARK    2  A    between atoms: C9_12  and  C14_17 
REMARK    3  A    between atoms: C15_18  and  O5_25 
REMARK    4  A    between atoms: C16_19  and  O4_23 
ROOT
HETATM    1  C8  UNL     1      -0.055  -1.455  -1.004  1.00  0.00     0.138 C 
HETATM    2  O3  UNL     1      -0.084  -0.486   0.025  1.00  0.00    -0.350 OA
HETATM    3  C9  UNL     1      -0.840   0.641  -0.365  1.00  0.00     0.140 C 
HETATM    4  C10 UNL     1      -1.533   0.219  -1.664  1.00  0.00     0.034 C 
HETATM    5  C11 UNL     1      -0.469  -0.701  -2.273  1.00  0.00     0.034 C 
HETATM    6  C12 UNL     1       0.662   0.104  -2.926  1.00  0.00     0.003 C 
HETATM    7  C13 UNL     1      -1.922   1.402  -2.547  1.00  0.00     0.003 C 
ENDROOT
BRANCH   3   8
HETATM    8  C14 UNL     1      -1.777   1.043   0.719  1.00  0.00     0.029 A 
HETATM    9  C15 UNL     1      -1.297   1.303   2.018  1.00  0.00     0.115 A 
HETATM   10  C16 UNL     1      -2.195   1.684   3.033  1.00  0.00     0.116 A 
HETATM   11  C17 UNL     1      -3.566   1.799   2.750  1.00  0.00     0.026 A 
HETATM   12  C18 UNL     1      -4.045   1.539   1.455  1.00  0.00     0.002 A 
HETATM   13  C19 UNL     1      -3.150   1.162   0.439  1.00  0.00     0.000 A 
BRANCH   9  14
HETATM   14  O5  UNL     1      -0.010   1.193   2.283  1.00  0.00    -0.326 OA
HETATM   15  C21 UNL     1       0.871   2.158   1.727  1.00  0.00     0.181 C 
ENDBRANCH   9  14
BRANCH  10  16
HETATM   16  O4  UNL     1      -1.754   1.928   4.250  1.00  0.00    -0.326 OA
HETATM   17  C20 UNL     1      -2.691   2.365   5.225  1.00  0.00     0.181 C 
ENDBRANCH  10  16
ENDBRANCH   3   8
BRANCH   1  18
HETATM   18  C6  UNL     1       1.260  -2.113  -1.064  1.00  0.00     0.007 A 
HETATM   19  C5  UNL     1       1.354  -3.488  -1.353  1.00  0.00     0.000 A 
HETATM   20  C4  UNL     1       2.627  -4.098  -1.406  1.00  0.00     0.026 A 
HETATM   21  C3  UNL     1       3.811  -3.350  -1.178  1.00  0.00     0.119 A 
HETATM   22  O1  UNL     1       5.096  -3.707  -1.178  1.00  0.00    -0.300 OA
HETATM   23  C2  UNL     1       3.717  -1.984  -0.891  1.00  0.00     0.119 A 
HETATM   24  C1  UNL     1       5.910  -2.551  -0.887  1.00  0.00     0.304 A 
HETATM   25  O2  UNL     1       4.943  -1.492  -0.713  1.00  0.00    -0.300 OA
HETATM   26  C7  UNL     1       2.440  -1.371  -0.836  1.00  0.00     0.024 A 
ENDBRANCH   1  18
TORSDOF 4
