REMARK  5 active torsions:
REMARK  status: ('A' for Active; 'I' for Inactive)
REMARK    1  A    between atoms: O1_1  and  C1_2 
REMARK    2  A    between atoms: O1_1  and  C10_11 
REMARK    3  A    between atoms: C4_5  and  C5_6 
REMARK    4  A    between atoms: C5_6  and  C6_7 
REMARK    5  A    between atoms: C11_12  and  C17_18 
ROOT
HETATM    1  C10 UNL     1       0.254  -1.139  -0.223  1.00  0.00     0.121 C 
HETATM    2  C11 UNL     1       0.535  -2.633   0.020  1.00  0.00     0.028 C 
HETATM    3  C12 UNL     1       1.822  -3.072  -0.699  1.00  0.00     0.002 C 
HETATM    4  C13 UNL     1       3.022  -2.191  -0.316  1.00  0.00     0.000 C 
HETATM    5  C14 UNL     1       2.740  -0.699  -0.562  1.00  0.00     0.002 C 
HETATM    6  C15 UNL     1       1.455  -0.260   0.160  1.00  0.00     0.030 C 
HETATM    7  C16 UNL     1       3.934   0.166  -0.148  1.00  0.00     0.000 C 
ENDROOT
BRANCH   1   8
HETATM    8  O1  UNL     1      -0.875  -0.738   0.543  1.00  0.00    -0.333 OA
BRANCH   8   9
HETATM    9  C1  UNL     1      -1.248   0.523   0.483  1.00  0.00     0.094 A 
HETATM   10  C2  UNL     1      -1.713   1.180   1.637  1.00  0.00     0.024 A 
HETATM   11  C3  UNL     1      -2.109   2.525   1.574  1.00  0.00    -0.002 A 
HETATM   12  C4  UNL     1      -2.043   3.223   0.354  1.00  0.00    -0.018 A 
HETATM   13  C8  UNL     1      -1.578   2.570  -0.801  1.00  0.00    -0.002 A 
HETATM   14  C9  UNL     1      -1.182   1.223  -0.736  1.00  0.00     0.024 A 
BRANCH  12  15
HETATM   15  C5  UNL     1      -2.463   4.647   0.287  1.00  0.00     0.052 C 
BRANCH  15  16
HETATM   16  C6  UNL     1      -1.293   5.588   0.399  1.00  0.00    -0.021 C 
HETATM   17  C7  UNL     1      -1.459   6.865   0.018  1.00  0.00    -0.005 C 
ENDBRANCH  15  16
ENDBRANCH  12  15
ENDBRANCH   8   9
ENDBRANCH   1   8
BRANCH   2  18
HETATM   18  C17 UNL     1      -0.654  -3.502  -0.406  1.00  0.00     0.002 C 
HETATM   19  C18 UNL     1      -0.311  -4.990  -0.455  1.00  0.00     0.000 C 
HETATM   20  C19 UNL     1      -1.916  -3.213   0.406  1.00  0.00     0.000 C 
ENDBRANCH   2  18
TORSDOF 5
