REMARK  16 active torsions:
REMARK  status: ('A' for Active; 'I' for Inactive)
REMARK    1  A    between atoms: C3_3  and  O5_27 
REMARK    2  A    between atoms: C5_5  and  C7_7 
REMARK    3  A    between atoms: C7_7  and  C8_8 
REMARK    4  A    between atoms: C8_8  and  C9_9 
REMARK    5  A    between atoms: C9_9  and  C10_10 
REMARK    6  A    between atoms: C9_9  and  O3_23 
REMARK    7  A    between atoms: C10_10  and  C11_11 
REMARK    8  A    between atoms: C11_11  and  C12_12 
REMARK    9  A    between atoms: C11_11  and  O1_19 
REMARK   10  A    between atoms: C12_12  and  C13_13 
REMARK   11  A    between atoms: C13_13  and  C14_14 
REMARK   12  A    between atoms: C14_14  and  C15_15 
REMARK   13  A    between atoms: C15_15  and  C16_16 
REMARK   14  A    between atoms: C16_16  and  C17_17 
REMARK   15  A    between atoms: O1_19  and  C19_20 
REMARK   16  A    between atoms: O3_23  and  C21_24 
ROOT
HETATM    1  C9  UNL     1      -0.481  -1.127   2.192  1.00  0.00     0.127 C 
ENDROOT
BRANCH   1   2
HETATM    2  C8  UNL     1       0.306   0.183   2.229  1.00  0.00     0.035 C 
BRANCH   2   3
HETATM    3  C7  UNL     1       0.465   0.736   3.645  1.00  0.00     0.029 C 
BRANCH   3   4
HETATM    4  C5  UNL     1       1.162   2.049   3.645  1.00  0.00    -0.020 A 
HETATM    5  C4  UNL     1       0.416   3.242   3.645  1.00  0.00     0.022 A 
HETATM    6  C3  UNL     1       1.072   4.486   3.645  1.00  0.00     0.119 A 
HETATM    7  C2  UNL     1       2.478   4.537   3.645  1.00  0.00     0.153 A 
HETATM    8  C1  UNL     1       3.223   3.344   3.645  1.00  0.00     0.029 A 
HETATM    9  O6  UNL     1       3.101   5.699   3.645  1.00  0.00    -0.188 OA
HETATM   10  C6  UNL     1       2.566   2.101   3.645  1.00  0.00    -0.002 A 
BRANCH   6  11
HETATM   11  O5  UNL     1       0.367   5.600   3.645  1.00  0.00    -0.326 OA
HETATM   12  C23 UNL     1       1.070   6.834   3.647  1.00  0.00     0.181 C 
ENDBRANCH   6  11
ENDBRANCH   3   4
ENDBRANCH   2   3
ENDBRANCH   1   2
BRANCH   1  13
HETATM   13  C10 UNL     1      -0.576  -1.719   0.785  1.00  0.00     0.060 C 
BRANCH  13  14
HETATM   14  C11 UNL     1      -1.539  -0.945  -0.115  1.00  0.00     0.127 C 
BRANCH  14  15
HETATM   15  C12 UNL     1      -1.668  -1.563  -1.510  1.00  0.00     0.030 C 
BRANCH  15  16
HETATM   16  C13 UNL     1      -0.444  -1.299  -2.386  1.00  0.00     0.003 C 
BRANCH  16  17
HETATM   17  C14 UNL     1      -0.606  -1.844  -3.804  1.00  0.00     0.000 C 
BRANCH  17  18
HETATM   18  C15 UNL     1       0.615  -1.574  -4.685  1.00  0.00     0.000 C 
BRANCH  18  19
HETATM   19  C16 UNL     1       0.453  -2.121  -6.103  1.00  0.00     0.000 C 
BRANCH  19  20
HETATM   20  C17 UNL     1       1.674  -1.852  -6.982  1.00  0.00     0.000 C 
HETATM   21  C18 UNL     1       1.512  -2.399  -8.402  1.00  0.00     0.000 C 
ENDBRANCH  19  20
ENDBRANCH  18  19
ENDBRANCH  17  18
ENDBRANCH  16  17
ENDBRANCH  15  16
ENDBRANCH  14  15
BRANCH  14  22
HETATM   22  O1  UNL     1      -2.819  -0.889   0.496  1.00  0.00    -0.304 OA
BRANCH  22  23
HETATM   23  C19 UNL     1      -3.604   0.035  -0.051  1.00  0.00     0.272 C 
HETATM   24  O2  UNL     1      -3.244   0.793  -0.922  1.00  0.00    -0.264 OA
HETATM   25  C20 UNL     1      -5.006   0.088   0.492  1.00  0.00     0.106 C 
ENDBRANCH  22  23
ENDBRANCH  14  22
ENDBRANCH  13  14
ENDBRANCH   1  13
BRANCH   1  26
HETATM   26  O3  UNL     1       0.129  -2.070   3.061  1.00  0.00    -0.304 OA
BRANCH  26  27
HETATM   27  C21 UNL     1      -0.676  -3.090   3.344  1.00  0.00     0.272 C 
HETATM   28  O4  UNL     1      -1.824  -3.164   2.977  1.00  0.00    -0.264 OA
HETATM   29  C22 UNL     1      -0.057  -4.182   4.176  1.00  0.00     0.106 C 
ENDBRANCH  26  27
ENDBRANCH   1  26
TORSDOF 16
