REMARK  2 active torsions:
REMARK  status: ('A' for Active; 'I' for Inactive)
REMARK    1  A    between atoms: C1_1  and  C2_2 
REMARK    2  A    between atoms: C3_3  and  O1_8 
ROOT
HETATM    1  C2  UNL     1      -1.189   0.311  -0.032  1.00  0.00     0.065 A 
HETATM    2  C3  UNL     1       0.221   0.363  -0.032  1.00  0.00     0.097 A 
HETATM    3  C4  UNL     1       0.961  -0.832  -0.032  1.00  0.00     0.024 A 
HETATM    4  C5  UNL     1       0.305  -2.072  -0.032  1.00  0.00     0.002 A 
HETATM    5  C6  UNL     1      -1.100  -2.125  -0.032  1.00  0.00     0.000 A 
HETATM    6  C7  UNL     1      -1.846  -0.934  -0.032  1.00  0.00     0.005 A 
ENDROOT
BRANCH   1   7
HETATM    7  C1  UNL     1      -1.992   1.570  -0.032  1.00  0.00     0.236 C 
HETATM    8  O2  UNL     1      -3.201   1.537  -0.032  1.00  0.00    -0.283 OA
ENDBRANCH   1   7
BRANCH   2   9
HETATM    9  O1  UNL     1       0.852   1.522  -0.032  1.00  0.00    -0.328 OA
HETATM   10  C8  UNL     1       2.264   1.512   0.109  1.00  0.00     0.181 C 
ENDBRANCH   2   9
TORSDOF 2
