REMARK  2 active torsions:
REMARK  status: ('A' for Active; 'I' for Inactive)
REMARK    1  A    between atoms: C2_2  and  C3_3 
REMARK    2  A    between atoms: C4_4  and  C5_5 
ROOT
HETATM    1  C3  UNL     1       0.979   0.979  -0.004  1.00  0.00     0.028 C 
HETATM    2  C4  UNL     1       0.697  -0.551  -0.121  1.00  0.00     0.026 C 
HETATM    3  C8  UNL     1      -0.648  -0.971   0.516  1.00  0.00     0.031 C 
HETATM    4  C9  UNL     1      -1.727  -0.055   0.002  1.00  0.00     0.011 C 
HETATM    5  C10 UNL     1      -1.551   1.434   0.029  1.00  0.00     0.242 C 
HETATM    6  C11 UNL     1      -0.197   1.818  -0.586  1.00  0.00     0.068 C 
HETATM    7  O1  UNL     1      -2.666   1.922  -0.742  1.00  0.00    -0.271 OA
HETATM    8  C12 UNL     1      -3.490   0.896  -1.010  1.00  0.00     0.293 C 
HETATM    9  C13 UNL     1      -2.897  -0.354  -0.562  1.00  0.00     0.038 C 
HETATM   10  C14 UNL     1      -3.486  -1.730  -0.727  1.00  0.00     0.036 C 
HETATM   11  O2  UNL     1      -4.570   0.973  -1.551  1.00  0.00    -0.259 OA
HETATM   12  O3  UNL     1      -1.656   1.920   1.354  1.00  0.00    -0.191 OA
HETATM   13  C15 UNL     1       1.244   1.369   1.457  1.00  0.00     0.005 C 
ENDROOT
BRANCH   1  14
HETATM   14  C2  UNL     1       2.229   1.326  -0.779  1.00  0.00    -0.026 C 
HETATM   15  C1  UNL     1       2.254   1.078  -2.098  1.00  0.00    -0.005 C 
ENDBRANCH   1  14
BRANCH   2  16
HETATM   16  C5  UNL     1       1.820  -1.395   0.438  1.00  0.00    -0.044 C 
HETATM   17  C6  UNL     1       1.969  -1.689   1.906  1.00  0.00     0.026 C 
HETATM   18  C7  UNL     1       2.725  -1.900  -0.414  1.00  0.00    -0.009 C 
ENDBRANCH   2  16
TORSDOF 2
