REMARK  13 active torsions:
REMARK  status: ('A' for Active; 'I' for Inactive)
REMARK    1  A    between atoms: C1_1  and  C7_9 
REMARK    2  A    between atoms: C2_2  and  C3_3 
REMARK    3  A    between atoms: C3_3  and  C4_4 
REMARK    4  A    between atoms: C4_4  and  C5_5 
REMARK    5  A    between atoms: C5_5  and  O1_6 
REMARK    6  A    between atoms: C8_10  and  C9_11 
REMARK    7  A    between atoms: C9_11  and  C10_13 
REMARK    8  A    between atoms: C11_14  and  C12_15 
REMARK    9  A    between atoms: C12_15  and  C13_16 
REMARK   10  A    between atoms: C13_16  and  C14_17 
REMARK   11  A    between atoms: C14_17  and  C15_18 
REMARK   12  A    between atoms: C15_18  and  C16_19 
REMARK   13  A    between atoms: C16_19  and  C17_20 
ROOT
HETATM    1  C9  UNL     1       0.475  -0.004  -1.119  1.00  0.00     0.238 C 
HETATM    2  O3  UNL     1      -0.322  -0.070  -2.281  1.00  0.00    -0.204 OA
ENDROOT
BRANCH   1   3
HETATM    3  C8  UNL     1       1.230   1.246  -1.119  1.00  0.00    -0.041 C 
HETATM    4  C7  UNL     1       1.848   2.264  -1.119  1.00  0.00    -0.011 C 
BRANCH   4   5
HETATM    5  C1  UNL     1       2.563   3.443  -1.119  1.00  0.00    -0.007 C 
HETATM    6  C2  UNL     1       3.180   4.461  -1.119  1.00  0.00    -0.014 C 
BRANCH   6   7
HETATM    7  C3  UNL     1       3.924   5.691  -1.119  1.00  0.00     0.218 C 
HETATM    8  O2  UNL     1       5.133   5.691  -1.119  1.00  0.00    -0.282 OA
BRANCH   7   9
HETATM    9  C4  UNL     1       3.148   6.982  -1.119  1.00  0.00     0.110 C 
BRANCH   9  10
HETATM   10  C5  UNL     1       4.059   8.209  -1.158  1.00  0.00     0.151 C 
BRANCH  10  11
HETATM   11  O1  UNL     1       3.248   9.361  -1.150  1.00  0.00    -0.351 OA
HETATM   12  C6  UNL     1       3.986  10.561  -1.186  1.00  0.00     0.174 C 
ENDBRANCH  10  11
ENDBRANCH   9  10
ENDBRANCH   7   9
ENDBRANCH   6   7
ENDBRANCH   4   5
ENDBRANCH   1   3
BRANCH   1  13
HETATM   13  C10 UNL     1       1.459  -1.143  -1.119  1.00  0.00     0.015 C 
HETATM   14  C11 UNL     1       1.076  -2.318  -0.596  1.00  0.00    -0.027 C 
BRANCH  14  15
HETATM   15  C12 UNL     1      -0.316  -2.438  -0.037  1.00  0.00     0.026 C 
BRANCH  15  16
HETATM   16  C13 UNL     1      -0.697  -3.885   0.279  1.00  0.00     0.005 C 
BRANCH  16  17
HETATM   17  C14 UNL     1      -2.106  -4.012   0.857  1.00  0.00     0.000 C 
BRANCH  17  18
HETATM   18  C15 UNL     1      -2.488  -5.459   1.170  1.00  0.00     0.000 C 
BRANCH  18  19
HETATM   19  C16 UNL     1      -3.897  -5.586   1.748  1.00  0.00     0.000 C 
BRANCH  19  20
HETATM   20  C17 UNL     1      -4.277  -7.033   2.063  1.00  0.00     0.000 C 
HETATM   21  C18 UNL     1      -5.688  -7.160   2.641  1.00  0.00     0.000 C 
ENDBRANCH  19  20
ENDBRANCH  18  19
ENDBRANCH  17  18
ENDBRANCH  16  17
ENDBRANCH  15  16
ENDBRANCH  14  15
ENDBRANCH   1  13
TORSDOF 13
