REMARK  3 active torsions:
REMARK  status: ('A' for Active; 'I' for Inactive)
REMARK    1  A    between atoms: C15_17  and  C18_20 
REMARK    2  A    between atoms: C18_20  and  C19_21 
REMARK    3  A    between atoms: C19_21  and  C20_22 
ROOT
HETATM    1  C1  UNL     1       5.885  -0.734   0.518  1.00  0.00     0.033 C 
HETATM    2  C2  UNL     1       6.375  -1.109  -0.891  1.00  0.00     0.153 C 
HETATM    3  C3  UNL     1       5.438  -0.566  -1.982  1.00  0.00     0.040 C 
HETATM    4  C4  UNL     1       3.983  -1.022  -1.740  1.00  0.00     0.060 C 
HETATM    5  C5  UNL     1       3.465  -0.598  -0.338  1.00  0.00     0.007 C 
HETATM    6  C6  UNL     1       4.424  -1.166   0.734  1.00  0.00     0.003 C 
HETATM    7  C7  UNL     1       2.016  -1.137  -0.142  1.00  0.00     0.008 C 
HETATM    8  C8  UNL     1       1.078  -0.609  -1.266  1.00  0.00     0.008 C 
HETATM    9  C9  UNL     1       1.598  -0.988  -2.664  1.00  0.00     0.065 C 
HETATM   10  C10 UNL     1       3.037  -0.574  -2.836  1.00  0.00     0.150 C 
HETATM   11  O1  UNL     1       3.402   0.074  -3.789  1.00  0.00    -0.296 OA
HETATM   12  C11 UNL     1      -0.326  -1.193  -1.047  1.00  0.00     0.007 C 
HETATM   13  C12 UNL     1      -0.904  -0.733   0.295  1.00  0.00     0.052 C 
HETATM   14  C13 UNL     1      -0.016  -1.221   1.412  1.00  0.00     0.150 C 
HETATM   15  C14 UNL     1       1.447  -0.861   1.275  1.00  0.00     0.065 C 
HETATM   16  O2  UNL     1      -0.437  -1.858   2.348  1.00  0.00    -0.296 OA
HETATM   17  C15 UNL     1      -2.293  -1.379   0.186  1.00  0.00     0.014 C 
HETATM   18  C16 UNL     1      -2.721  -1.047  -1.252  1.00  0.00     0.001 C 
HETATM   19  C17 UNL     1      -1.424  -0.801  -2.031  1.00  0.00     0.000 C 
HETATM   20  C26 UNL     1      -1.043   0.795   0.385  1.00  0.00     0.007 C 
HETATM   21  C27 UNL     1       3.457   0.937  -0.225  1.00  0.00     0.000 C 
HETATM   22  O4  UNL     1       7.674  -0.588  -1.088  1.00  0.00    -0.223 OA
ENDROOT
BRANCH  17  23
HETATM   23  C18 UNL     1      -3.301  -0.883   1.221  1.00  0.00     0.064 C 
HETATM   24  C25 UNL     1      -3.516  -2.160   2.031  1.00  0.00     0.008 C 
BRANCH  23  25
HETATM   25  C19 UNL     1      -4.572  -0.381   0.590  1.00  0.00     0.186 C 
HETATM   26  O3  UNL     1      -5.297  -1.127  -0.027  1.00  0.00    -0.290 OA
BRANCH  25  27
HETATM   27  C20 UNL     1      -4.918   1.039   0.738  1.00  0.00     0.088 C 
HETATM   28  C21 UNL     1      -4.248   1.994   1.692  1.00  0.00     0.050 C 
HETATM   29  C22 UNL     1      -5.184   3.203   1.797  1.00  0.00     0.030 C 
HETATM   30  C23 UNL     1      -5.928   3.062   0.469  1.00  0.00     0.126 C 
HETATM   31  C24 UNL     1      -4.451   4.531   1.951  1.00  0.00     0.003 C 
HETATM   32  N1  UNL     1      -5.830   1.660   0.090  1.00  0.00    -0.272 NA
ENDBRANCH  25  27
ENDBRANCH  23  25
ENDBRANCH  17  23
TORSDOF 3
