REMARK  1 active torsions:
REMARK  status: ('A' for Active; 'I' for Inactive)
REMARK    1  A    between atoms: C9_9  and  C11_11 
ROOT
HETATM    1  C1  UNL     1      -3.531  -0.467  -0.283  1.00  0.00     0.025 C 
HETATM    2  C2  UNL     1      -3.150   0.998  -0.311  1.00  0.00    -0.035 C 
HETATM    3  C3  UNL     1      -1.916   1.436   0.014  1.00  0.00    -0.048 C 
HETATM    4  C4  UNL     1      -0.818   0.484   0.471  1.00  0.00     0.021 C 
HETATM    5  C5  UNL     1      -1.043  -0.967  -0.031  1.00  0.00     0.032 C 
HETATM    6  C6  UNL     1      -2.477  -1.377   0.367  1.00  0.00     0.007 C 
HETATM    7  C7  UNL     1       0.018  -1.887   0.627  1.00  0.00     0.153 C 
HETATM    8  C8  UNL     1       1.455  -1.424   0.316  1.00  0.00     0.037 C 
HETATM    9  C9  UNL     1       1.682   0.037   0.740  1.00  0.00     0.021 C 
HETATM   10  C10 UNL     1       0.611   0.973   0.146  1.00  0.00     0.008 C 
HETATM   11  O1  UNL     1      -0.133  -3.223   0.188  1.00  0.00    -0.223 OA
HETATM   12  C14 UNL     1      -0.908  -1.023  -1.566  1.00  0.00     0.003 C 
HETATM   13  C15 UNL     1      -1.613   2.910  -0.072  1.00  0.00     0.026 C 
ENDROOT
BRANCH   9  14
HETATM   14  C11 UNL     1       3.072   0.498   0.379  1.00  0.00    -0.044 C 
HETATM   15  C12 UNL     1       3.934   0.775   1.371  1.00  0.00    -0.009 C 
HETATM   16  C13 UNL     1       3.537   0.664  -1.045  1.00  0.00     0.026 C 
ENDBRANCH   9  14
TORSDOF 1
