REMARK  4 active torsions:
REMARK  status: ('A' for Active; 'I' for Inactive)
REMARK    1  A    between atoms: C16_17  and  C19_20 
REMARK    2  A    between atoms: C19_20  and  C21_23 
REMARK    3  A    between atoms: C22_24  and  C23_25 
REMARK    4  A    between atoms: C23_25  and  C24_26 
ROOT
HETATM    1  C1  UNL     1       5.713  -0.940   0.988  1.00  0.00     0.182 C 
HETATM    2  C2  UNL     1       6.689  -1.236  -0.184  1.00  0.00     0.183 C 
HETATM    3  C3  UNL     1       6.127  -0.787  -1.557  1.00  0.00     0.043 C 
HETATM    4  C4  UNL     1       4.602  -0.537  -1.533  1.00  0.00     0.065 C 
HETATM    5  C5  UNL     1       4.250   0.605  -0.531  1.00  0.00     0.013 C 
HETATM    6  C6  UNL     1       5.002   0.416   0.830  1.00  0.00     0.036 C 
HETATM    7  C7  UNL     1       2.703   0.711  -0.303  1.00  0.00     0.021 C 
HETATM    8  C8  UNL     1       1.961  -0.617  -0.252  1.00  0.00    -0.015 C 
HETATM    9  C9  UNL     1       2.525  -1.775  -0.646  1.00  0.00     0.031 C 
HETATM   10  C10 UNL     1       3.853  -1.830  -1.271  1.00  0.00     0.172 C 
HETATM   11  O1  UNL     1       4.326  -2.904  -1.566  1.00  0.00    -0.291 OA
HETATM   12  C11 UNL     1       0.521  -0.523   0.217  1.00  0.00     0.142 C 
HETATM   13  C12 UNL     1      -0.233   0.369  -0.801  1.00  0.00     0.032 C 
HETATM   14  C13 UNL     1       0.420   1.762  -0.885  1.00  0.00     0.003 C 
HETATM   15  C14 UNL     1       1.918   1.635  -1.271  1.00  0.00     0.004 C 
HETATM   16  C15 UNL     1      -0.219  -0.275  -2.199  1.00  0.00     0.003 C 
HETATM   17  C16 UNL     1      -1.674   0.289  -0.271  1.00  0.00     0.033 C 
HETATM   18  C17 UNL     1      -1.811  -1.190   0.137  1.00  0.00     0.005 C 
HETATM   19  C18 UNL     1      -0.387  -1.762   0.230  1.00  0.00     0.035 C 
HETATM   20  O4  UNL     1       0.508   0.027   1.529  1.00  0.00    -0.222 OA
HETATM   21  C28 UNL     1       4.758   1.926  -1.135  1.00  0.00     0.001 C 
HETATM   22  O5  UNL     1       7.943  -0.600   0.006  1.00  0.00    -0.221 OA
HETATM   23  O6  UNL     1       6.357  -1.002   2.250  1.00  0.00    -0.221 OA
ENDROOT
BRANCH  17  24
HETATM   24  C19 UNL     1      -2.744   0.728  -1.266  1.00  0.00     0.154 C 
HETATM   25  O2  UNL     1      -2.819  -0.238  -2.291  1.00  0.00    -0.223 OA
HETATM   26  C20 UNL     1      -2.397   2.113  -1.813  1.00  0.00     0.036 C 
BRANCH  24  27
HETATM   27  C21 UNL     1      -4.096   0.783  -0.566  1.00  0.00     0.170 A 
HETATM   28  C22 UNL     1      -4.227   0.617   0.988  1.00  0.00     0.145 A 
HETATM   29  O3  UNL     1      -4.076   1.838   0.338  1.00  0.00    -0.352 OA
BRANCH  28  30
HETATM   30  C23 UNL     1      -5.582   0.605   1.680  1.00  0.00     0.030 C 
HETATM   31  C27 UNL     1      -5.582   1.627   2.818  1.00  0.00     0.003 C 
BRANCH  30  32
HETATM   32  C24 UNL     1      -5.899  -0.813   2.158  1.00  0.00     0.002 C 
HETATM   33  C25 UNL     1      -7.119  -0.865   3.076  1.00  0.00     0.000 C 
HETATM   34  C26 UNL     1      -5.979  -1.818   1.010  1.00  0.00     0.000 C 
ENDBRANCH  30  32
ENDBRANCH  28  30
ENDBRANCH  24  27
ENDBRANCH  17  24
TORSDOF 4
