REMARK  1 active torsions:
REMARK  status: ('A' for Active; 'I' for Inactive)
REMARK    1  A    between atoms: C1_1  and  C2_2 
ROOT
HETATM    1  C2  UNL     1       1.217   0.313   0.920  1.00  0.00     0.065 C 
HETATM    2  C3  UNL     1       1.969  -0.394  -0.229  1.00  0.00     0.008 C 
HETATM    3  C4  UNL     1       0.981  -1.045  -1.217  1.00  0.00     0.000 C 
HETATM    4  C5  UNL     1      -0.340  -0.256  -1.317  1.00  0.00     0.000 C 
HETATM    5  C6  UNL     1      -0.152   1.262  -1.055  1.00  0.00     0.000 C 
HETATM    6  C7  UNL     1      -0.148   0.861   0.445  1.00  0.00     0.007 C 
HETATM    7  C8  UNL     1      -1.164  -0.236   0.006  1.00  0.00     0.000 C 
HETATM    8  C9  UNL     1      -1.139  -1.529   0.816  1.00  0.00     0.000 C 
HETATM    9  C10 UNL     1      -2.607   0.252  -0.149  1.00  0.00     0.000 C 
ENDROOT
BRANCH   1  10
HETATM   10  C1  UNL     1       2.082   1.373   1.555  1.00  0.00     0.207 C 
HETATM   11  O1  UNL     1       2.420   1.291   2.713  1.00  0.00    -0.288 OA
ENDBRANCH   1  10
TORSDOF 1
