REMARK  2 active torsions:
REMARK  status: ('A' for Active; 'I' for Inactive)
REMARK    1  A    between atoms: C3_3  and  C20_20 
REMARK    2  A    between atoms: C12_12  and  C16_16 
ROOT
HETATM    1  C1  UNL     1      -3.184   1.262   0.320  1.00  0.00     0.153 C 
HETATM    2  C2  UNL     1      -3.424  -0.031   1.103  1.00  0.00     0.043 C 
HETATM    3  C3  UNL     1      -2.805  -1.258   0.389  1.00  0.00     0.081 C 
HETATM    4  C4  UNL     1      -1.539  -0.869  -0.453  1.00  0.00     0.010 C 
HETATM    5  C5  UNL     1      -0.754   0.338   0.137  1.00  0.00     0.006 C 
HETATM    6  C6  UNL     1      -1.680   1.588   0.213  1.00  0.00     0.033 C 
HETATM    7  C7  UNL     1       0.486   0.690  -0.742  1.00  0.00     0.018 C 
HETATM    8  C8  UNL     1       1.324  -0.525  -1.117  1.00  0.00    -0.049 C 
HETATM    9  C9  UNL     1       0.572  -1.740  -1.609  1.00  0.00     0.022 C 
HETATM   10  C10 UNL     1      -0.615  -2.082  -0.709  1.00  0.00     0.005 C 
HETATM   11  C11 UNL     1       2.674  -0.541  -1.043  1.00  0.00    -0.031 C 
HETATM   12  C12 UNL     1       3.496   0.654  -0.607  1.00  0.00     0.036 C 
HETATM   13  C13 UNL     1       2.699   1.961  -0.779  1.00  0.00     0.008 C 
HETATM   14  C14 UNL     1       1.315   1.850  -0.139  1.00  0.00     0.005 C 
HETATM   15  C15 UNL     1       4.779   0.715  -1.441  1.00  0.00     0.009 C 
HETATM   16  C18 UNL     1      -0.287  -0.045   1.553  1.00  0.00     0.000 C 
HETATM   17  C19 UNL     1      -2.494  -2.322   1.449  1.00  0.00     0.011 C 
HETATM   18  O3  UNL     1      -3.857   2.332   0.951  1.00  0.00    -0.223 OA
ENDROOT
BRANCH   3  19
HETATM   19  C20 UNL     1      -3.832  -1.867  -0.537  1.00  0.00     0.184 C 
HETATM   20  O1  UNL     1      -3.588  -2.041  -1.709  1.00  0.00    -0.647 OA
HETATM   21  O2  UNL     1      -4.988  -2.187   0.035  1.00  0.00    -0.647 OA
ENDBRANCH   3  19
BRANCH  12  22
HETATM   22  C16 UNL     1       3.887   0.449   0.836  1.00  0.00    -0.023 C 
HETATM   23  C17 UNL     1       4.649   1.381   1.434  1.00  0.00    -0.005 C 
ENDBRANCH  12  22
TORSDOF 2
