REMARK  3 active torsions:
REMARK  status: ('A' for Active; 'I' for Inactive)
REMARK    1  A    between atoms: C4_5  and  O2_6 
REMARK    2  A    between atoms: C15_19  and  C19_24 
REMARK    3  A    between atoms: C19_24  and  C20_25 
ROOT
HETATM    1  C1  UNL     1      -5.221  -1.877   1.820  1.00  0.00     0.066 A 
HETATM    2  C2  UNL     1      -4.668  -1.096   2.926  1.00  0.00     0.298 A 
HETATM    3  O1  UNL     1      -3.391  -0.754   2.674  1.00  0.00    -0.270 OA
HETATM    4  C3  UNL     1      -3.104  -1.281   1.465  1.00  0.00     0.143 A 
HETATM    5  C4  UNL     1      -4.258  -1.994   0.912  1.00  0.00     0.120 A 
HETATM    6  C6  UNL     1      -1.908  -1.160   0.854  1.00  0.00     0.099 C 
HETATM    7  O3  UNL     1      -1.645  -1.680  -0.340  1.00  0.00    -0.313 OA
HETATM    8  C7  UNL     1      -0.346  -1.246  -0.734  1.00  0.00     0.194 C 
HETATM    9  C8  UNL     1       0.393  -0.736   0.516  1.00  0.00     0.092 C 
HETATM   10  C9  UNL     1      -0.762  -0.420   1.481  1.00  0.00     0.054 C 
HETATM   11  C10 UNL     1      -0.422  -0.889   2.893  1.00  0.00     0.007 C 
HETATM   12  C11 UNL     1       1.139   0.477  -0.045  1.00  0.00     0.251 C 
HETATM   13  N1  UNL     1       2.439   0.187  -0.697  1.00  0.00     0.138 N 
HETATM   14  C12 UNL     1       2.490  -0.844  -1.768  1.00  0.00     0.251 C 
HETATM   15  C13 UNL     1       1.955  -2.234  -1.383  1.00  0.00     0.040 C 
HETATM   16  C14 UNL     1       0.418  -2.383  -1.426  1.00  0.00     0.059 C 
HETATM   17  C15 UNL     1       3.080   1.453  -1.137  1.00  0.00     0.249 C 
HETATM   18  C16 UNL     1       2.051   2.527  -1.576  1.00  0.00     0.038 C 
HETATM   19  C17 UNL     1       0.750   1.928  -2.139  1.00  0.00     0.034 C 
HETATM   20  C18 UNL     1       0.127   1.025  -1.055  1.00  0.00     0.149 C 
HETATM   21  O4  UNL     1      -0.447  -0.135  -1.617  1.00  0.00    -0.335 OA
HETATM   22  O6  UNL     1      -5.295  -0.811   3.918  1.00  0.00    -0.259 OA
HETATM   23  C22 UNL     1      -6.613  -2.441   1.731  1.00  0.00     0.039 C 
ENDROOT
BRANCH   5  24
HETATM   24  O2  UNL     1      -4.330  -2.629  -0.256  1.00  0.00    -0.326 OA
HETATM   25  C5  UNL     1      -5.242  -2.010  -1.152  1.00  0.00     0.181 C 
ENDBRANCH   5  24
BRANCH  17  26
HETATM   26  C19 UNL     1       3.982   1.971  -0.012  1.00  0.00     0.183 C 
HETATM   27  O5  UNL     1       4.826   0.918   0.397  1.00  0.00    -0.221 OA
BRANCH  26  28
HETATM   28  C20 UNL     1       4.859   3.145  -0.453  1.00  0.00     0.035 C 
HETATM   29  C21 UNL     1       4.541   4.434   0.303  1.00  0.00     0.003 C 
ENDBRANCH  26  28
ENDBRANCH  17  26
TORSDOF 3
