REMARK  2 active torsions:
REMARK  status: ('A' for Active; 'I' for Inactive)
REMARK    1  A    between atoms: C3_3  and  C20_24 
REMARK    2  A    between atoms: C15_17  and  C17_20 
ROOT
HETATM    1  C1  UNL     1       3.481  -1.283   0.900  1.00  0.00     0.001 C 
HETATM    2  C2  UNL     1       4.070  -0.199  -0.008  1.00  0.00     0.010 C 
HETATM    3  C3  UNL     1       3.129   0.184  -1.168  1.00  0.00     0.081 C 
HETATM    4  C4  UNL     1       1.736   0.600  -0.592  1.00  0.00     0.043 C 
HETATM    5  C5  UNL     1       1.104  -0.488   0.338  1.00  0.00     0.003 C 
HETATM    6  C6  UNL     1       2.125  -0.838   1.451  1.00  0.00     0.000 C 
HETATM    7  C7  UNL     1      -0.228   0.018   1.008  1.00  0.00     0.003 C 
HETATM    8  C8  UNL     1      -1.260   0.703   0.068  1.00  0.00     0.033 C 
HETATM    9  C9  UNL     1      -0.586   1.678  -0.934  1.00  0.00     0.182 C 
HETATM   10  C10 UNL     1       0.674   1.072  -1.629  1.00  0.00     0.183 C 
HETATM   11  O1  UNL     1       1.191   2.045  -2.525  1.00  0.00    -0.221 OA
HETATM   12  O2  UNL     1      -0.211   2.863  -0.236  1.00  0.00    -0.221 OA
HETATM   13  C11 UNL     1      -2.076  -0.385  -0.643  1.00  0.00     0.005 C 
HETATM   14  C12 UNL     1      -3.096  -0.768   0.426  1.00  0.00     0.031 C 
HETATM   15  C13 UNL     1      -2.369  -1.520   1.565  1.00  0.00     0.003 C 
HETATM   16  C14 UNL     1      -0.908  -1.066   1.904  1.00  0.00     0.000 C 
HETATM   17  C15 UNL     1      -3.656   0.602   0.836  1.00  0.00     0.157 C 
HETATM   18  C16 UNL     1      -2.365   1.438   0.899  1.00  0.00     0.036 C 
HETATM   19  O3  UNL     1      -4.508   1.096  -0.191  1.00  0.00    -0.223 OA
HETATM   20  C18 UNL     1       0.816  -1.766  -0.473  1.00  0.00     0.000 C 
HETATM   21  C19 UNL     1       3.822   1.313  -1.930  1.00  0.00     0.011 C 
ENDROOT
BRANCH   3  22
HETATM   22  C20 UNL     1       3.027  -0.971  -2.135  1.00  0.00     0.184 C 
HETATM   23  O5  UNL     1       2.213  -0.771  -3.168  1.00  0.00    -0.647 OA
HETATM   24  O6  UNL     1       3.652  -1.988  -1.955  1.00  0.00    -0.647 OA
ENDBRANCH   3  22
BRANCH  17  25
HETATM   25  C17 UNL     1      -4.500   0.606   2.121  1.00  0.00     0.212 C 
HETATM   26  O4  UNL     1      -5.461  -0.422   2.022  1.00  0.00    -0.218 OA
ENDBRANCH  17  25
TORSDOF 2
