REMARK  8 active torsions:
REMARK  status: ('A' for Active; 'I' for Inactive)
REMARK    1  A    between atoms: C2_2  and  C3_3 
REMARK    2  A    between atoms: C3_3  and  C4_4 
REMARK    3  A    between atoms: C4_4  and  C5_5 
REMARK    4  A    between atoms: C5_5  and  C6_6 
REMARK    5  A    between atoms: C6_6  and  C7_7 
REMARK    6  A    between atoms: C7_7  and  C8_8 
REMARK    7  A    between atoms: C8_8  and  C9_9 
REMARK    8  A    between atoms: C9_9  and  C10_10 
ROOT
HETATM    1  C5  UNL     1       0.805  -1.233  -0.043  1.00  0.00     0.004 C 
ENDROOT
BRANCH   1   2
HETATM    2  C4  UNL     1       2.272  -1.654  -0.127  1.00  0.00     0.022 C 
BRANCH   2   3
HETATM    3  C3  UNL     1       2.473  -3.107   0.214  1.00  0.00    -0.044 C 
HETATM    4  C12 UNL     1       3.098  -3.894  -0.677  1.00  0.00    -0.009 C 
BRANCH   3   5
HETATM    5  C2  UNL     1       2.006  -3.717   1.508  1.00  0.00     0.022 C 
HETATM    6  C1  UNL     1       2.546  -2.976   2.732  1.00  0.00     0.004 C 
ENDBRANCH   3   5
ENDBRANCH   2   3
ENDBRANCH   1   2
BRANCH   1   7
HETATM    7  C6  UNL     1       0.588   0.232  -0.423  1.00  0.00     0.000 C 
BRANCH   7   8
HETATM    8  C7  UNL     1      -0.879   0.653  -0.340  1.00  0.00     0.000 C 
BRANCH   8   9
HETATM    9  C8  UNL     1      -1.095   2.118  -0.721  1.00  0.00     0.000 C 
BRANCH   9  10
HETATM   10  C9  UNL     1      -2.563   2.539  -0.637  1.00  0.00     0.000 C 
BRANCH  10  11
HETATM   11  C10 UNL     1      -2.779   4.004  -1.018  1.00  0.00     0.000 C 
HETATM   12  C11 UNL     1      -4.247   4.425  -0.934  1.00  0.00     0.000 C 
ENDBRANCH  10  11
ENDBRANCH   9  10
ENDBRANCH   8   9
ENDBRANCH   7   8
ENDBRANCH   1   7
TORSDOF 8
