REMARK  5 active torsions:
REMARK  status: ('A' for Active; 'I' for Inactive)
REMARK    1  A    between atoms: C7_7  and  C15_17 
REMARK    2  A    between atoms: C11_11  and  O1_12 
REMARK    3  A    between atoms: O1_12  and  C12_13 
REMARK    4  A    between atoms: C15_17  and  C16_18 
REMARK    5  A    between atoms: C16_18  and  C17_19 
ROOT
HETATM    1  C1  UNL     1      -2.857   0.631   1.205  1.00  0.00     0.000 C 
HETATM    2  C2  UNL     1      -2.633   1.879   0.359  1.00  0.00     0.000 C 
HETATM    3  C3  UNL     1      -1.160   2.361   0.412  1.00  0.00     0.004 C 
HETATM    4  C4  UNL     1      -0.148   1.180   0.662  1.00  0.00     0.022 C 
HETATM    5  C5  UNL     1      -0.676  -0.154   0.023  1.00  0.00     0.029 C 
HETATM    6  C6  UNL     1      -2.057  -0.549   0.641  1.00  0.00     0.003 C 
HETATM    7  C7  UNL     1       0.328  -1.338   0.170  1.00  0.00     0.127 C 
HETATM    8  C8  UNL     1       1.705  -0.967  -0.412  1.00  0.00     0.032 C 
HETATM    9  C9  UNL     1       2.287   0.270   0.281  1.00  0.00     0.026 C 
HETATM   10  C10 UNL     1       1.346   1.457   0.396  1.00  0.00    -0.020 C 
HETATM   11  C11 UNL     1       1.916   2.682   0.281  1.00  0.00     0.117 C 
HETATM   12  C14 UNL     1       2.705  -2.131  -0.369  1.00  0.00     0.003 C 
HETATM   13  O4  UNL     1       0.504  -1.654   1.543  1.00  0.00    -0.226 OA
HETATM   14  C21 UNL     1      -0.887   0.092  -1.484  1.00  0.00     0.003 C 
HETATM   15  C22 UNL     1      -1.061   3.373   1.564  1.00  0.00     0.000 C 
HETATM   16  C23 UNL     1      -0.889   3.072  -0.924  1.00  0.00     0.000 C 
ENDROOT
BRANCH   7  17
HETATM   17  C15 UNL     1      -0.215  -2.617  -0.484  1.00  0.00     0.035 C 
BRANCH  17  18
HETATM   18  C16 UNL     1       0.074  -3.871   0.342  1.00  0.00     0.031 C 
BRANCH  18  19
HETATM   19  C17 UNL     1      -0.227  -5.129  -0.445  1.00  0.00     0.005 A 
HETATM   20  C18 UNL     1      -1.281  -6.016  -0.242  1.00  0.00     0.025 A 
HETATM   21  C19 UNL     1      -1.135  -7.012  -1.213  1.00  0.00     0.122 A 
HETATM   22  O3  UNL     1      -0.047  -6.795  -2.010  1.00  0.00    -0.303 OA
HETATM   23  C20 UNL     1       0.496  -5.641  -1.527  1.00  0.00     0.118 A 
ENDBRANCH  18  19
ENDBRANCH  17  18
ENDBRANCH   7  17
BRANCH  11  24
HETATM   24  O1  UNL     1       1.297   3.848   0.410  1.00  0.00    -0.275 OA
BRANCH  24  25
HETATM   25  C12 UNL     1       2.031   4.807  -0.147  1.00  0.00     0.277 C 
HETATM   26  O2  UNL     1       2.896   4.600  -0.967  1.00  0.00    -0.264 OA
HETATM   27  C13 UNL     1       1.719   6.203   0.314  1.00  0.00     0.107 C 
ENDBRANCH  24  25
ENDBRANCH  11  24
TORSDOF 5
