REMARK  5 active torsions:
REMARK  status: ('A' for Active; 'I' for Inactive)
REMARK    1  A    between atoms: C2_2  and  O5_21 
REMARK    2  A    between atoms: C4_4  and  N1_11 
REMARK    3  A    between atoms: C5_5  and  C7_7 
REMARK    4  A    between atoms: C7_7  and  O1_8 
REMARK       I    between atoms: N1_11  and  C9_12 
REMARK    5  A    between atoms: C9_12  and  C10_14 
ROOT
HETATM    1  C1  UNL     1      -1.560   3.318   0.842  1.00  0.00     0.025 A 
HETATM    2  C2  UNL     1      -1.387   2.557   2.008  1.00  0.00     0.096 A 
HETATM    3  C3  UNL     1      -0.666   1.352   1.953  1.00  0.00     0.044 A 
HETATM    4  C4  UNL     1      -0.115   0.904   0.734  1.00  0.00     0.092 A 
HETATM    5  C5  UNL     1      -0.293   1.676  -0.438  1.00  0.00     0.081 A 
HETATM    6  C6  UNL     1      -1.015   2.881  -0.377  1.00  0.00     0.009 A 
ENDROOT
BRANCH   4   7
HETATM    7  N1  UNL     1       0.584  -0.277   0.715  1.00  0.00    -0.208 NA
HETATM    8  C9  UNL     1       0.156  -1.311  -0.068  1.00  0.00     0.281 C 
HETATM    9  O3  UNL     1      -0.836  -1.193  -0.746  1.00  0.00    -0.265 OA
BRANCH   8  10
HETATM   10  C10 UNL     1       0.940  -2.584  -0.068  1.00  0.00     0.083 A 
HETATM   11  C11 UNL     1       0.279  -3.828  -0.068  1.00  0.00     0.136 A 
HETATM   12  C12 UNL     1       1.031  -5.018  -0.068  1.00  0.00     0.028 A 
HETATM   13  O4  UNL     1      -1.039  -3.893  -0.068  1.00  0.00    -0.190 OA
HETATM   14  C13 UNL     1       2.436  -4.967  -0.068  1.00  0.00     0.002 A 
HETATM   15  C14 UNL     1       3.092  -3.727  -0.068  1.00  0.00     0.000 A 
HETATM   16  C15 UNL     1       2.346  -2.535  -0.068  1.00  0.00     0.007 A 
ENDBRANCH   8  10
ENDBRANCH   4   7
BRANCH   5  17
HETATM   17  C7  UNL     1       0.274   1.240  -1.756  1.00  0.00     0.297 C 
HETATM   18  O2  UNL     1       1.252   0.533  -1.809  1.00  0.00    -0.259 OA
BRANCH  17  19
HETATM   19  O1  UNL     1      -0.377   1.688  -2.826  1.00  0.00    -0.296 OA
HETATM   20  C8  UNL     1       0.207   1.238  -4.039  1.00  0.00     0.185 C 
ENDBRANCH  17  19
ENDBRANCH   5  17
BRANCH   2  21
HETATM   21  O5  UNL     1      -1.898   2.969   3.150  1.00  0.00    -0.328 OA
HETATM   22  C16 UNL     1      -2.619   4.192   3.154  1.00  0.00     0.181 C 
ENDBRANCH   2  21
TORSDOF 5
