REMARK  1 active torsions:
REMARK  status: ('A' for Active; 'I' for Inactive)
REMARK    1  A    between atoms: C12_14  and  O4_18 
ROOT
HETATM    1  C1  UNL     1       3.854  -0.842  -0.258  1.00  0.00     0.023 A 
HETATM    2  C2  UNL     1       3.652   0.506  -0.627  1.00  0.00    -0.020 A 
HETATM    3  C3  UNL     1       2.436   1.150  -0.311  1.00  0.00    -0.001 A 
HETATM    4  C4  UNL     1       1.412   0.451   0.381  1.00  0.00     0.039 A 
HETATM    5  C5  UNL     1       1.600  -0.920   0.721  1.00  0.00     0.063 A 
HETATM    6  C6  UNL     1       2.836  -1.555   0.418  1.00  0.00     0.134 A 
HETATM    7  O1  UNL     1       3.053  -2.836   0.750  1.00  0.00    -0.190 OA
HETATM    8  C7  UNL     1       0.514  -1.697   1.387  1.00  0.00     0.178 C 
HETATM    9  C8  UNL     1      -0.871  -1.084   1.449  1.00  0.00     0.100 C 
HETATM   10  C9  UNL     1      -0.861   0.457   1.611  1.00  0.00     0.074 C 
HETATM   11  C10 UNL     1       0.160   1.176   0.744  1.00  0.00     0.173 C 
HETATM   12  O2  UNL     1      -0.107   2.309   0.412  1.00  0.00    -0.291 OA
HETATM   13  C11 UNL     1      -2.291   1.008   1.422  1.00  0.00     0.038 C 
HETATM   14  C12 UNL     1      -2.877   0.715   0.020  1.00  0.00     0.118 C 
HETATM   15  C13 UNL     1      -2.156  -0.441  -0.709  1.00  0.00     0.063 C 
HETATM   16  C14 UNL     1      -1.744  -1.574   0.250  1.00  0.00     0.162 C 
HETATM   17  O3  UNL     1      -2.922  -2.195   0.731  1.00  0.00    -0.223 OA
HETATM   18  O5  UNL     1       0.627  -2.797   1.879  1.00  0.00    -0.291 OA
HETATM   19  C16 UNL     1       4.711   1.240  -1.342  1.00  0.00     0.031 C 
ENDROOT
BRANCH  14  20
HETATM   20  O4  UNL     1      -2.809   1.875  -0.789  1.00  0.00    -0.354 OA
HETATM   21  C15 UNL     1      -3.484   1.734  -2.020  1.00  0.00     0.174 C 
ENDBRANCH  14  20
TORSDOF 1
