REMARK  4 active torsions:
REMARK  status: ('A' for Active; 'I' for Inactive)
REMARK    1  A    between atoms: C1_1  and  O4_19 
REMARK    2  A    between atoms: C4_4  and  C7_8 
REMARK    3  A    between atoms: C7_8  and  C8_9 
REMARK    4  A    between atoms: C7_8  and  C10_11 
ROOT
HETATM    1  C1  UNL     1      -1.480   1.397  -2.695  1.00  0.00     0.136 A 
HETATM    2  C2  UNL     1      -2.497   1.109  -1.659  1.00  0.00     0.218 A 
HETATM    3  C3  UNL     1      -2.057   0.707  -0.308  1.00  0.00     0.044 A 
HETATM    4  C4  UNL     1      -0.746   0.609  -0.008  1.00  0.00     0.028 A 
HETATM    5  C5  UNL     1       0.273   0.906  -1.037  1.00  0.00     0.195 A 
HETATM    6  C6  UNL     1      -0.170   1.299  -2.390  1.00  0.00     0.069 A 
HETATM    7  O1  UNL     1       1.453   0.830  -0.782  1.00  0.00    -0.287 OA
HETATM    8  O3  UNL     1      -3.675   1.201  -1.914  1.00  0.00    -0.284 OA
ENDROOT
BRANCH   4   9
HETATM    9  C7  UNL     1      -0.324   0.195   1.379  1.00  0.00     0.070 C 
BRANCH   9  10
HETATM   10  C8  UNL     1       0.471   1.291   2.037  1.00  0.00    -0.018 C 
HETATM   11  C9  UNL     1       0.472   1.365   3.378  1.00  0.00    -0.004 C 
ENDBRANCH   9  10
BRANCH   9  12
HETATM   12  C10 UNL     1       0.403  -1.101   1.379  1.00  0.00    -0.014 A 
HETATM   13  C11 UNL     1      -0.314  -2.310   1.379  1.00  0.00    -0.002 A 
HETATM   14  C12 UNL     1       0.375  -3.535   1.379  1.00  0.00     0.027 A 
HETATM   15  C13 UNL     1       1.781  -3.557   1.379  1.00  0.00     0.131 A 
HETATM   16  C14 UNL     1       2.496  -2.345   1.379  1.00  0.00     0.027 A 
HETATM   17  O2  UNL     1       2.426  -4.706   1.379  1.00  0.00    -0.190 OA
HETATM   18  C15 UNL     1       1.809  -1.119   1.379  1.00  0.00    -0.002 A 
ENDBRANCH   9  12
ENDBRANCH   4   9
BRANCH   1  19
HETATM   19  O4  UNL     1      -1.855   1.753  -3.922  1.00  0.00    -0.325 OA
HETATM   20  C16 UNL     1      -1.414   3.058  -4.264  1.00  0.00     0.181 C 
ENDBRANCH   1  19
TORSDOF 4
