REMARK  7 active torsions:
REMARK  status: ('A' for Active; 'I' for Inactive)
REMARK    1  A    between atoms: C10_10  and  O1_11 
REMARK    2  A    between atoms: O1_11  and  C11_12 
REMARK    3  A    between atoms: C15_19  and  C16_21 
REMARK    4  A    between atoms: C21_28  and  C24_31 
REMARK    5  A    between atoms: C24_31  and  C26_33 
REMARK    6  A    between atoms: C26_33  and  C27_34 
REMARK    7  A    between atoms: C27_34  and  C28_35 
ROOT
HETATM    1  C1  UNL     1       3.193   0.652   1.785  1.00  0.00     0.033 C 
HETATM    2  C2  UNL     1       3.898   1.203   0.541  1.00  0.00     0.152 C 
HETATM    3  C3  UNL     1       2.990   1.182  -0.717  1.00  0.00     0.030 C 
HETATM    4  C4  UNL     1       2.416  -0.268  -0.945  1.00  0.00     0.030 C 
HETATM    5  C5  UNL     1       1.791  -0.937   0.326  1.00  0.00     0.003 C 
HETATM    6  C6  UNL     1       2.762  -0.789   1.524  1.00  0.00     0.003 C 
HETATM    7  C7  UNL     1       0.371  -0.344   0.617  1.00  0.00     0.003 C 
HETATM    8  C8  UNL     1      -0.602  -0.463  -0.596  1.00  0.00     0.003 C 
HETATM    9  C9  UNL     1       0.023   0.127  -1.877  1.00  0.00     0.030 C 
HETATM   10  C10 UNL     1       1.432  -0.437  -2.141  1.00  0.00     0.118 C 
HETATM   11  C17 UNL     1      -1.961   0.242  -0.310  1.00  0.00     0.003 C 
HETATM   12  C18 UNL     1      -2.623  -0.207   1.014  1.00  0.00     0.034 C 
HETATM   13  C19 UNL     1      -1.623  -0.184   2.195  1.00  0.00     0.152 C 
HETATM   14  C20 UNL     1      -0.307  -0.912   1.881  1.00  0.00     0.033 C 
HETATM   15  O7  UNL     1      -2.201  -0.809   3.326  1.00  0.00    -0.224 OA
HETATM   16  C21 UNL     1      -3.764   0.824   1.149  1.00  0.00     0.021 C 
HETATM   17  C22 UNL     1      -3.104   2.145   0.748  1.00  0.00     0.004 C 
HETATM   18  C23 UNL     1      -1.906   1.770  -0.127  1.00  0.00     0.000 C 
HETATM   19  C32 UNL     1      -2.949   0.008  -1.467  1.00  0.00     0.000 C 
HETATM   20  C33 UNL     1      -0.981  -1.936  -0.850  1.00  0.00     0.000 C 
HETATM   21  C34 UNL     1       1.670  -2.451   0.084  1.00  0.00     0.000 C 
HETATM   22  C35 UNL     1       3.863   1.600  -1.912  1.00  0.00     0.003 C 
HETATM   23  C36 UNL     1       1.881   2.232  -0.572  1.00  0.00     0.003 C 
HETATM   24  O8  UNL     1       4.355   2.514   0.824  1.00  0.00    -0.224 OA
ENDROOT
BRANCH  10  25
HETATM   25  O1  UNL     1       1.937   0.115  -3.338  1.00  0.00    -0.332 OA
BRANCH  25  26
HETATM   26  C11 UNL     1       2.852  -0.738  -4.002  1.00  0.00     0.270 C 
HETATM   27  C12 UNL     1       3.443  -0.031  -5.248  1.00  0.00     0.241 C 
HETATM   28  O2  UNL     1       4.230   1.074  -4.832  1.00  0.00    -0.215 OA
HETATM   29  C13 UNL     1       4.318  -1.002  -6.072  1.00  0.00     0.220 C 
HETATM   30  O3  UNL     1       4.684  -0.394  -7.303  1.00  0.00    -0.218 OA
HETATM   31  C14 UNL     1       3.545  -2.311  -6.342  1.00  0.00     0.215 C 
HETATM   32  O4  UNL     1       4.410  -3.270  -6.924  1.00  0.00    -0.218 OA
HETATM   33  C15 UNL     1       2.963  -2.898  -5.037  1.00  0.00     0.184 C 
HETATM   34  O5  UNL     1       2.160  -1.916  -4.395  1.00  0.00    -0.326 OA
BRANCH  33  35
HETATM   35  C16 UNL     1       2.062  -4.113  -5.277  1.00  0.00     0.214 C 
HETATM   36  O6  UNL     1       1.726  -4.668  -4.027  1.00  0.00    -0.218 OA
ENDBRANCH  33  35
ENDBRANCH  25  26
ENDBRANCH  10  25
BRANCH  16  37
HETATM   37  C24 UNL     1      -4.465   0.883   2.484  1.00  0.00    -0.044 C 
HETATM   38  C25 UNL     1      -5.518   0.076   2.692  1.00  0.00    -0.009 C 
BRANCH  37  39
HETATM   39  C26 UNL     1      -4.035   1.803   3.596  1.00  0.00     0.027 C 
BRANCH  39  40
HETATM   40  C27 UNL     1      -4.516   1.328   4.967  1.00  0.00     0.030 C 
BRANCH  40  41
HETATM   41  C28 UNL     1      -3.848   2.065   6.096  1.00  0.00    -0.034 C 
HETATM   42  C29 UNL     1      -4.467   2.106   7.287  1.00  0.00    -0.048 C 
HETATM   43  C30 UNL     1      -3.809   2.861   8.412  1.00  0.00     0.026 C 
HETATM   44  C31 UNL     1      -5.785   1.397   7.440  1.00  0.00     0.026 C 
ENDBRANCH  40  41
ENDBRANCH  39  40
ENDBRANCH  37  39
ENDBRANCH  16  37
TORSDOF 7
