REMARK  5 active torsions:
REMARK  status: ('A' for Active; 'I' for Inactive)
REMARK    1  A    between atoms: C3_3  and  C35_42 
REMARK    2  A    between atoms: C16_16  and  C25_25 
REMARK    3  A    between atoms: C25_25  and  O2_27 
REMARK    4  A    between atoms: O2_27  and  C26_28 
REMARK    5  A    between atoms: C30_32  and  C31_34 
ROOT
HETATM    1  C1  UNL     1       5.633  -0.420  -2.861  1.00  0.00     0.034 C 
HETATM    2  C2  UNL     1       6.664  -0.098  -1.754  1.00  0.00     0.162 C 
HETATM    3  C3  UNL     1       6.068   0.693  -0.539  1.00  0.00     0.106 C 
HETATM    4  C4  UNL     1       4.529   0.494  -0.508  1.00  0.00     0.012 C 
HETATM    5  C5  UNL     1       3.793   1.021  -1.781  1.00  0.00     0.001 C 
HETATM    6  C6  UNL     1       4.629   0.721  -3.061  1.00  0.00     0.003 C 
HETATM    7  C7  UNL     1       2.316   0.453  -1.805  1.00  0.00     0.005 C 
HETATM    8  C8  UNL     1       1.756   0.080  -0.396  1.00  0.00     0.004 C 
HETATM    9  C9  UNL     1       2.301   1.062   0.660  1.00  0.00     0.000 C 
HETATM   10  C10 UNL     1       3.836   0.984   0.787  1.00  0.00     0.001 C 
HETATM   11  C11 UNL     1       0.193   0.043  -0.428  1.00  0.00     0.015 C 
HETATM   12  C12 UNL     1      -0.303  -0.676  -1.676  1.00  0.00    -0.049 C 
HETATM   13  C13 UNL     1       0.516  -1.084  -2.676  1.00  0.00    -0.035 C 
HETATM   14  C14 UNL     1       1.992  -0.727  -2.750  1.00  0.00     0.025 C 
HETATM   15  C15 UNL     1      -1.805  -0.856  -1.820  1.00  0.00     0.027 C 
HETATM   16  C16 UNL     1      -2.666   0.111  -0.959  1.00  0.00     0.082 C 
HETATM   17  C17 UNL     1      -1.959   1.488  -0.939  1.00  0.00     0.010 C 
HETATM   18  C18 UNL     1      -0.488   1.447  -0.418  1.00  0.00     0.004 C 
HETATM   19  C19 UNL     1      -4.072   0.127  -1.598  1.00  0.00     0.010 C 
HETATM   20  C20 UNL     1      -4.692  -1.295  -1.629  1.00  0.00     0.001 C 
HETATM   21  C21 UNL     1      -3.783  -2.371  -2.283  1.00  0.00     0.000 C 
HETATM   22  C22 UNL     1      -2.334  -2.293  -1.742  1.00  0.00     0.004 C 
HETATM   23  C23 UNL     1      -4.352  -3.764  -1.992  1.00  0.00     0.000 C 
HETATM   24  C24 UNL     1      -3.783  -2.176  -3.803  1.00  0.00     0.000 C 
HETATM   25  C32 UNL     1      -0.248  -0.731   0.828  1.00  0.00     0.004 C 
HETATM   26  C33 UNL     1       2.244  -1.338   0.002  1.00  0.00     0.000 C 
HETATM   27  C34 UNL     1       3.691   2.557  -1.686  1.00  0.00     0.000 C 
HETATM   28  C36 UNL     1       6.397   2.199  -0.551  1.00  0.00     0.013 C 
HETATM   29  O10 UNL     1       7.764   0.594  -2.322  1.00  0.00    -0.223 OA
ENDROOT
BRANCH  16  30
HETATM   30  C25 UNL     1      -2.900  -0.322   0.473  1.00  0.00     0.273 C 
HETATM   31  O1  UNL     1      -3.029  -1.490   0.758  1.00  0.00    -0.264 OA
BRANCH  30  32
HETATM   32  O2  UNL     1      -2.949   0.666   1.363  1.00  0.00    -0.273 OA
BRANCH  32  33
HETATM   33  C26 UNL     1      -3.246   0.201   2.672  1.00  0.00     0.276 C 
HETATM   34  C27 UNL     1      -2.953   1.297   3.719  1.00  0.00     0.241 C 
HETATM   35  C28 UNL     1      -3.190   0.760   5.154  1.00  0.00     0.220 C 
HETATM   36  O7  UNL     1      -1.611   1.729   3.590  1.00  0.00    -0.215 OA
HETATM   37  C29 UNL     1      -4.313  -0.313   5.180  1.00  0.00     0.215 C 
HETATM   38  O6  UNL     1      -3.557   1.842   5.990  1.00  0.00    -0.218 OA
HETATM   39  C30 UNL     1      -5.277  -0.174   3.975  1.00  0.00     0.184 C 
HETATM   40  O5  UNL     1      -3.734  -1.606   5.160  1.00  0.00    -0.218 OA
HETATM   41  O3  UNL     1      -4.611  -0.215   2.709  1.00  0.00    -0.326 OA
BRANCH  39  42
HETATM   42  C31 UNL     1      -6.070   1.137   4.025  1.00  0.00     0.214 C 
HETATM   43  O4  UNL     1      -7.207   0.996   3.201  1.00  0.00    -0.218 OA
ENDBRANCH  39  42
ENDBRANCH  32  33
ENDBRANCH  30  32
ENDBRANCH  16  30
BRANCH   3  44
HETATM   44  C35 UNL     1       6.688   0.154   0.730  1.00  0.00     0.187 C 
HETATM   45  O8  UNL     1       6.113  -0.674   1.400  1.00  0.00    -0.647 OA
HETATM   46  O9  UNL     1       7.881   0.654   1.037  1.00  0.00    -0.647 OA
ENDBRANCH   3  44
TORSDOF 5
