REMARK  4 active torsions:
REMARK  status: ('A' for Active; 'I' for Inactive)
REMARK    1  A    between atoms: C15_17  and  C18_20 
REMARK    2  A    between atoms: C18_20  and  C20_22 
REMARK    3  A    between atoms: C20_22  and  C21_23 
REMARK    4  A    between atoms: C21_23  and  C22_24 
ROOT
HETATM    1  C1  UNL     1       5.967  -0.967   1.781  1.00  0.00     0.182 C 
HETATM    2  C2  UNL     1       6.053  -1.408   0.303  1.00  0.00     0.183 C 
HETATM    3  C3  UNL     1       4.865  -2.318  -0.061  1.00  0.00     0.043 C 
HETATM    4  C4  UNL     1       3.488  -1.705   0.311  1.00  0.00     0.065 C 
HETATM    5  C5  UNL     1       3.416  -1.273   1.797  1.00  0.00     0.015 C 
HETATM    6  C6  UNL     1       4.604  -0.324   2.104  1.00  0.00     0.036 C 
HETATM    7  C7  UNL     1       2.008  -0.666   2.143  1.00  0.00     0.052 C 
HETATM    8  C8  UNL     1       0.863  -1.525   1.615  1.00  0.00    -0.012 C 
HETATM    9  C9  UNL     1       1.061  -2.455   0.654  1.00  0.00     0.031 C 
HETATM   10  C10 UNL     1       2.354  -2.652  -0.018  1.00  0.00     0.172 C 
HETATM   11  O1  UNL     1       2.488  -3.557  -0.811  1.00  0.00    -0.291 OA
HETATM   12  C11 UNL     1      -0.514  -1.234   2.203  1.00  0.00     0.142 C 
HETATM   13  C12 UNL     1      -0.891   0.246   1.951  1.00  0.00     0.034 C 
HETATM   14  C13 UNL     1       0.270   1.217   2.242  1.00  0.00     0.036 C 
HETATM   15  C14 UNL     1       1.660   0.787   1.709  1.00  0.00     0.156 C 
HETATM   16  O2  UNL     1       2.568   1.729   2.246  1.00  0.00    -0.223 OA
HETATM   17  C15 UNL     1      -1.250   0.197   0.453  1.00  0.00     0.033 C 
HETATM   18  C16 UNL     1      -1.990  -1.133   0.272  1.00  0.00     0.005 C 
HETATM   19  C17 UNL     1      -1.725  -1.930   1.551  1.00  0.00     0.035 C 
HETATM   20  C28 UNL     1      -2.139   0.674   2.740  1.00  0.00     0.003 C 
HETATM   21  O7  UNL     1      -0.502  -1.537   3.588  1.00  0.00    -0.222 OA
HETATM   22  C29 UNL     1       3.588  -2.521   2.684  1.00  0.00     0.001 C 
HETATM   23  O8  UNL     1       6.041  -0.289  -0.568  1.00  0.00    -0.221 OA
HETATM   24  O9  UNL     1       7.008  -0.061   2.104  1.00  0.00    -0.221 OA
ENDROOT
BRANCH  17  25
HETATM   25  C18 UNL     1      -2.064   1.391  -0.045  1.00  0.00     0.155 C 
HETATM   26  C19 UNL     1      -1.318   2.686   0.273  1.00  0.00     0.036 C 
HETATM   27  O6  UNL     1      -3.295   1.400   0.643  1.00  0.00    -0.223 OA
BRANCH  25  28
HETATM   28  C20 UNL     1      -2.352   1.225  -1.537  1.00  0.00     0.184 C 
HETATM   29  O5  UNL     1      -1.146   1.422  -2.242  1.00  0.00    -0.221 OA
BRANCH  28  30
HETATM   30  C21 UNL     1      -3.379   2.232  -2.055  1.00  0.00     0.060 C 
BRANCH  30  31
HETATM   31  C22 UNL     1      -3.686   2.037  -3.518  1.00  0.00    -0.012 A 
HETATM   32  C23 UNL     1      -4.699   1.055  -4.051  1.00  0.00     0.117 A 
HETATM   33  C24 UNL     1      -6.111   1.389  -3.582  1.00  0.00     0.035 C 
HETATM   34  C25 UNL     1      -4.320  -0.383  -3.721  1.00  0.00     0.035 C 
HETATM   35  O3  UNL     1      -4.623   1.244  -5.477  1.00  0.00    -0.299 OA
HETATM   36  C26 UNL     1      -3.715   2.188  -5.752  1.00  0.00     0.295 A 
HETATM   37  C27 UNL     1      -3.119   2.693  -4.527  1.00  0.00     0.062 A 
HETATM   38  O4  UNL     1      -3.412   2.584  -6.854  1.00  0.00    -0.259 OA
ENDBRANCH  30  31
ENDBRANCH  28  30
ENDBRANCH  25  28
ENDBRANCH  17  25
TORSDOF 4
