REMARK  10 active torsions:
REMARK  status: ('A' for Active; 'I' for Inactive)
REMARK    1  A    between atoms: C2_2  and  O3_12 
REMARK    2  A    between atoms: O3_12  and  C10_13 
REMARK    3  A    between atoms: C10_13  and  C11_14 
REMARK    4  A    between atoms: C12_15  and  C13_16 
REMARK    5  A    between atoms: C13_16  and  C14_17 
REMARK    6  A    between atoms: C14_17  and  C15_18 
REMARK    7  A    between atoms: C15_18  and  C16_19 
REMARK    8  A    between atoms: C15_18  and  O5_23 
REMARK    9  A    between atoms: O5_23  and  C19_24 
REMARK   10  A    between atoms: C20_26  and  C24_33 
ROOT
HETATM    1  C14 UNL     1       1.617   0.928  -0.783  1.00  0.00     0.037 C 
ENDROOT
BRANCH   1   2
HETATM    2  C13 UNL     1       1.855  -0.582  -0.725  1.00  0.00     0.024 C 
BRANCH   2   3
HETATM    3  C12 UNL     1       0.633  -1.371  -1.107  1.00  0.00    -0.046 C 
HETATM    4  C11 UNL     1      -0.533  -0.719  -1.246  1.00  0.00    -0.002 C 
HETATM    5  C25 UNL     1       0.656  -2.857  -1.340  1.00  0.00     0.026 C 
BRANCH   4   6
HETATM    6  C10 UNL     1      -1.756  -1.508  -1.627  1.00  0.00     0.174 C 
BRANCH   6   7
HETATM    7  O3  UNL     1      -2.916  -0.715  -1.420  1.00  0.00    -0.326 OA
BRANCH   7   8
HETATM    8  C2  UNL     1      -4.108  -1.256  -1.705  1.00  0.00     0.096 A 
HETATM    9  C1  UNL     1      -4.184  -2.580  -2.201  1.00  0.00     0.024 A 
HETATM   10  C6  UNL     1      -5.440  -3.156  -2.506  1.00  0.00     0.004 A 
HETATM   11  C5  UNL     1      -6.619  -2.399  -2.311  1.00  0.00     0.023 A 
HETATM   12  C4  UNL     1      -6.551  -1.068  -1.814  1.00  0.00     0.105 A 
HETATM   13  C7  UNL     1      -7.953  -2.973  -2.617  1.00  0.00     0.007 A 
HETATM   14  C3  UNL     1      -5.289  -0.502  -1.514  1.00  0.00     0.049 A 
HETATM   15  O1  UNL     1      -7.680  -0.348  -1.631  1.00  0.00    -0.273 OA
HETATM   16  C9  UNL     1      -8.910  -0.832  -1.896  1.00  0.00     0.300 A 
HETATM   17  C8  UNL     1      -9.049  -2.213  -2.414  1.00  0.00     0.069 A 
HETATM   18  O2  UNL     1      -9.910  -0.176  -1.727  1.00  0.00    -0.259 OA
ENDBRANCH   7   8
ENDBRANCH   6   7
ENDBRANCH   4   6
ENDBRANCH   2   3
ENDBRANCH   1   2
BRANCH   1  19
HETATM   19  C15 UNL     1       2.898   1.736  -0.572  1.00  0.00     0.146 C 
BRANCH  19  20
HETATM   20  C16 UNL     1       3.029   2.900  -1.553  1.00  0.00     0.152 C 
HETATM   21  C17 UNL     1       4.180   3.846  -1.199  1.00  0.00     0.035 C 
HETATM   22  C18 UNL     1       3.072   2.441  -3.012  1.00  0.00     0.035 C 
HETATM   23  O4  UNL     1       1.814   3.584  -1.340  1.00  0.00    -0.224 OA
ENDBRANCH  19  20
BRANCH  19  24
HETATM   24  O5  UNL     1       2.879   2.262   0.736  1.00  0.00    -0.329 OA
BRANCH  24  25
HETATM   25  C19 UNL     1       3.103   1.283   1.732  1.00  0.00     0.270 C 
HETATM   26  O6  UNL     1       1.844   0.842   2.221  1.00  0.00    -0.326 OA
HETATM   27  C20 UNL     1       1.904  -0.186   3.197  1.00  0.00     0.184 C 
HETATM   28  C21 UNL     1       2.664   0.332   4.442  1.00  0.00     0.215 C 
HETATM   29  C22 UNL     1       4.060   0.871   4.063  1.00  0.00     0.220 C 
HETATM   30  O9  UNL     1       2.793  -0.731   5.369  1.00  0.00    -0.218 OA
HETATM   31  C23 UNL     1       3.939   1.877   2.897  1.00  0.00     0.241 C 
HETATM   32  O8  UNL     1       4.652   1.504   5.186  1.00  0.00    -0.218 OA
HETATM   33  O7  UNL     1       5.234   2.207   2.422  1.00  0.00    -0.215 OA
BRANCH  27  34
HETATM   34  C24 UNL     1       0.457  -0.588   3.506  1.00  0.00     0.214 C 
HETATM   35  O10 UNL     1      -0.082  -1.203   2.359  1.00  0.00    -0.218 OA
ENDBRANCH  27  34
ENDBRANCH  24  25
ENDBRANCH  19  24
ENDBRANCH   1  19
TORSDOF 10
