REMARK  0 active torsions:
REMARK  status: ('A' for Active; 'I' for Inactive)
ROOT
HETATM    1  C1  UNL     1       3.595   0.783   0.648  1.00  0.00     0.042 C 
HETATM    2  C2  UNL     1       4.119   0.018  -0.568  1.00  0.00     0.175 C 
HETATM    3  C3  UNL     1       3.181  -1.111  -0.949  1.00  0.00     0.007 C 
HETATM    4  C4  UNL     1       1.706  -0.979  -0.653  1.00  0.00    -0.005 A 
HETATM    5  C5  UNL     1       1.204   0.200  -0.006  1.00  0.00    -0.019 A 
HETATM    6  C6  UNL     1       2.148   1.260   0.456  1.00  0.00     0.029 C 
HETATM    7  C7  UNL     1      -0.209   0.352   0.189  1.00  0.00     0.040 A 
HETATM    8  C8  UNL     1      -1.083  -0.721  -0.176  1.00  0.00     0.026 A 
HETATM    9  C9  UNL     1      -0.575  -1.896  -0.769  1.00  0.00     0.002 A 
HETATM   10  C10 UNL     1       0.805  -2.017  -1.015  1.00  0.00    -0.001 A 
HETATM   11  C11 UNL     1      -2.547  -0.595   0.070  1.00  0.00     0.103 A 
HETATM   12  C12 UNL     1      -3.078   0.536   0.624  1.00  0.00     0.063 A 
HETATM   13  C13 UNL     1      -2.258   1.702   1.007  1.00  0.00     0.236 A 
HETATM   14  C14 UNL     1      -0.789   1.630   0.768  1.00  0.00     0.234 A 
HETATM   15  O1  UNL     1      -0.188   2.637   1.064  1.00  0.00    -0.283 OA
HETATM   16  O2  UNL     1      -2.770   2.683   1.498  1.00  0.00    -0.283 OA
HETATM   17  C15 UNL     1      -4.422   0.309   0.711  1.00  0.00     0.008 A 
HETATM   18  C16 UNL     1      -4.694  -0.971   0.202  1.00  0.00     0.118 A 
HETATM   19  O3  UNL     1      -3.489  -1.566  -0.216  1.00  0.00    -0.305 OA
HETATM   20  C17 UNL     1      -5.453   1.271   1.263  1.00  0.00     0.033 C 
HETATM   21  C18 UNL     1       3.732  -2.195  -1.543  1.00  0.00    -0.002 C 
HETATM   22  O4  UNL     1       4.267   0.907  -1.659  1.00  0.00    -0.219 OA
ENDROOT
TORSDOF 0
