REMARK  3 active torsions:
REMARK  status: ('A' for Active; 'I' for Inactive)
REMARK    1  A    between atoms: C13_14  and  O3_17 
REMARK    2  A    between atoms: O3_17  and  C15_18 
REMARK    3  A    between atoms: C19_22  and  C20_24 
ROOT
HETATM    1  C1  UNL     1       7.164   0.711   1.611  1.00  0.00     0.000 A 
HETATM    2  C2  UNL     1       5.981   1.453   1.412  1.00  0.00     0.003 A 
HETATM    3  C3  UNL     1       4.721   0.801   1.338  1.00  0.00     0.042 A 
HETATM    4  C4  UNL     1       4.658  -0.617   1.467  1.00  0.00     0.042 A 
HETATM    5  C5  UNL     1       5.857  -1.352   1.670  1.00  0.00     0.003 A 
HETATM    6  C6  UNL     1       7.104  -0.691   1.740  1.00  0.00     0.000 A 
HETATM    7  C7  UNL     1       3.361  -1.359   1.396  1.00  0.00     0.198 A 
HETATM    8  C8  UNL     1       2.127  -0.535   1.168  1.00  0.00     0.069 A 
HETATM    9  C9  UNL     1       2.193   0.885   1.041  1.00  0.00     0.044 A 
HETATM   10  C10 UNL     1       3.492   1.627   1.125  1.00  0.00     0.196 A 
HETATM   11  O1  UNL     1       3.545   2.834   1.023  1.00  0.00    -0.287 OA
HETATM   12  C11 UNL     1       1.000   1.625   0.826  1.00  0.00     0.005 A 
HETATM   13  C12 UNL     1      -0.246   0.971   0.736  1.00  0.00     0.026 A 
HETATM   14  C13 UNL     1      -0.316  -0.432   0.861  1.00  0.00     0.122 A 
HETATM   15  C14 UNL     1       0.861  -1.184   1.076  1.00  0.00     0.156 A 
HETATM   16  O2  UNL     1       0.756  -2.516   1.191  1.00  0.00    -0.188 OA
HETATM   17  O9  UNL     1       3.318  -2.564   1.516  1.00  0.00    -0.286 OA
ENDROOT
BRANCH  14  18
HETATM   18  O3  UNL     1      -1.504  -1.047   0.775  1.00  0.00    -0.301 OA
BRANCH  18  19
HETATM   19  C15 UNL     1      -2.576  -0.348   0.156  1.00  0.00     0.274 C 
HETATM   20  C16 UNL     1      -3.828  -1.246   0.094  1.00  0.00     0.241 C 
HETATM   21  C17 UNL     1      -4.969  -0.564  -0.693  1.00  0.00     0.220 C 
HETATM   22  O8  UNL     1      -4.252  -1.523   1.416  1.00  0.00    -0.215 OA
HETATM   23  C18 UNL     1      -4.434  -0.068  -2.055  1.00  0.00     0.215 C 
HETATM   24  O7  UNL     1      -6.029  -1.482  -0.899  1.00  0.00    -0.218 OA
HETATM   25  C19 UNL     1      -3.147   0.773  -1.885  1.00  0.00     0.184 C 
HETATM   26  O6  UNL     1      -5.414   0.729  -2.695  1.00  0.00    -0.218 OA
HETATM   27  O4  UNL     1      -2.184   0.020  -1.160  1.00  0.00    -0.326 OA
BRANCH  25  28
HETATM   28  C20 UNL     1      -2.498   1.152  -3.219  1.00  0.00     0.214 C 
HETATM   29  O5  UNL     1      -1.434   2.039  -2.955  1.00  0.00    -0.218 OA
ENDBRANCH  25  28
ENDBRANCH  18  19
ENDBRANCH  14  18
TORSDOF 3
