REMARK  2 active torsions:
REMARK  status: ('A' for Active; 'I' for Inactive)
REMARK    1  A    between atoms: C3_3  and  C30_33 
REMARK    2  A    between atoms: C16_16  and  C25_26 
ROOT
HETATM    1  C1  UNL     1      -4.922  -1.473   1.076  1.00  0.00     0.033 C 
HETATM    2  C2  UNL     1      -5.610  -0.680  -0.043  1.00  0.00     0.154 C 
HETATM    3  C3  UNL     1      -4.934   0.701  -0.307  1.00  0.00     0.059 C 
HETATM    4  C4  UNL     1      -3.389   0.637  -0.041  1.00  0.00     0.005 C 
HETATM    5  C5  UNL     1      -2.779  -0.779  -0.250  1.00  0.00     0.001 C 
HETATM    6  C6  UNL     1      -3.440  -1.758   0.766  1.00  0.00     0.003 C 
HETATM    7  C7  UNL     1      -1.215  -0.791  -0.057  1.00  0.00     0.005 C 
HETATM    8  C8  UNL     1      -0.613   0.465   0.623  1.00  0.00     0.004 C 
HETATM    9  C9  UNL     1      -1.543   0.871   1.785  1.00  0.00     0.000 C 
HETATM   10  C10 UNL     1      -2.973   1.223   1.334  1.00  0.00     0.000 C 
HETATM   11  C11 UNL     1       0.844   0.137   1.106  1.00  0.00     0.015 C 
HETATM   12  C12 UNL     1       1.697  -0.518   0.008  1.00  0.00    -0.046 C 
HETATM   13  C13 UNL     1       1.102  -1.086  -1.072  1.00  0.00    -0.035 C 
HETATM   14  C14 UNL     1      -0.391  -1.094  -1.318  1.00  0.00     0.025 C 
HETATM   15  C15 UNL     1       3.230  -0.551   0.199  1.00  0.00     0.056 C 
HETATM   16  C16 UNL     1       3.834   0.729   0.854  1.00  0.00     0.084 C 
HETATM   17  C17 UNL     1       2.979   1.195   2.043  1.00  0.00     0.011 C 
HETATM   18  C18 UNL     1       1.520   1.416   1.656  1.00  0.00     0.004 C 
HETATM   19  C19 UNL     1       5.273   0.451   1.381  1.00  0.00     0.011 C 
HETATM   20  C20 UNL     1       6.004  -0.695   0.664  1.00  0.00     0.003 C 
HETATM   21  C21 UNL     1       5.639  -0.740  -0.820  1.00  0.00     0.028 C 
HETATM   22  C22 UNL     1       4.115  -1.016  -1.023  1.00  0.00     0.131 C 
HETATM   23  C23 UNL     1       3.701  -0.375  -2.357  1.00  0.00     0.033 C 
HETATM   24  O1  UNL     1       3.934  -2.418  -1.166  1.00  0.00    -0.226 OA
HETATM   25  C24 UNL     1       6.570  -1.678  -1.607  1.00  0.00     0.003 C 
HETATM   26  C26 UNL     1       0.799  -0.900   2.242  1.00  0.00     0.004 C 
HETATM   27  C27 UNL     1      -0.545   1.635  -0.381  1.00  0.00     0.000 C 
HETATM   28  C28 UNL     1      -3.137  -1.258  -1.670  1.00  0.00     0.000 C 
HETATM   29  C29 UNL     1      -5.576   1.822   0.535  1.00  0.00     0.005 C 
HETATM   30  O5  UNL     1      -6.988  -0.545   0.254  1.00  0.00    -0.223 OA
ENDROOT
BRANCH   3  31
HETATM   31  C30 UNL     1      -5.184   1.078  -1.775  1.00  0.00     0.185 C 
HETATM   32  O4  UNL     1      -5.100   2.480  -1.891  1.00  0.00    -0.221 OA
ENDBRANCH   3  31
BRANCH  16  33
HETATM   33  C25 UNL     1       3.879   1.844  -0.170  1.00  0.00     0.184 C 
HETATM   34  O2  UNL     1       4.906   2.434  -0.402  1.00  0.00    -0.647 OA
HETATM   35  O3  UNL     1       2.721   2.105  -0.771  1.00  0.00    -0.647 OA
ENDBRANCH  16  33
TORSDOF 2
