REMARK  0 active torsions:
REMARK  status: ('A' for Active; 'I' for Inactive)
ROOT
HETATM    1  C1  UNL     1       5.102   0.453  -1.363  1.00  0.00     0.033 C 
HETATM    2  C2  UNL     1       5.764  -0.029  -0.064  1.00  0.00     0.152 C 
HETATM    3  C3  UNL     1       4.943  -1.135   0.645  1.00  0.00     0.028 C 
HETATM    4  C4  UNL     1       3.490  -0.625   0.869  1.00  0.00     0.002 C 
HETATM    5  C5  UNL     1       2.779  -0.121  -0.422  1.00  0.00     0.000 C 
HETATM    6  C6  UNL     1       3.672   0.943  -1.104  1.00  0.00     0.003 C 
HETATM    7  C7  UNL     1       1.389   0.482  -0.047  1.00  0.00     0.000 C 
HETATM    8  C8  UNL     1       0.490  -0.549   0.711  1.00  0.00     0.000 C 
HETATM    9  C9  UNL     1       1.236  -1.074   1.957  1.00  0.00     0.000 C 
HETATM   10  C10 UNL     1       2.613  -1.647   1.617  1.00  0.00     0.000 C 
HETATM   11  C11 UNL     1      -0.916   0.041   1.035  1.00  0.00     0.003 C 
HETATM   12  C12 UNL     1      -1.564   0.486  -0.307  1.00  0.00     0.000 C 
HETATM   13  C13 UNL     1      -0.750   1.605  -0.963  1.00  0.00     0.000 C 
HETATM   14  C14 UNL     1       0.670   1.109  -1.268  1.00  0.00     0.000 C 
HETATM   15  C15 UNL     1      -3.080   0.725  -0.109  1.00  0.00     0.005 C 
HETATM   16  C16 UNL     1      -3.795  -0.654   0.045  1.00  0.00     0.031 C 
HETATM   17  C17 UNL     1      -2.916  -1.650   0.883  1.00  0.00     0.152 C 
HETATM   18  C18 UNL     1      -1.883  -0.941   1.779  1.00  0.00     0.033 C 
HETATM   19  O1  UNL     1      -2.207  -2.574   0.070  1.00  0.00    -0.224 OA
HETATM   20  C19 UNL     1      -5.141  -0.406   0.762  1.00  0.00     0.035 C 
HETATM   21  C20 UNL     1      -6.004   0.576  -0.041  1.00  0.00     0.140 A 
HETATM   22  C21 UNL     1      -5.320   1.611  -1.006  1.00  0.00     0.118 A 
HETATM   23  C22 UNL     1      -3.783   1.639  -1.150  1.00  0.00     0.027 C 
HETATM   24  C23 UNL     1      -3.352   3.109  -1.043  1.00  0.00     0.003 C 
HETATM   25  O2  UNL     1      -5.707   1.895   0.303  1.00  0.00    -0.357 OA
HETATM   26  C24 UNL     1      -6.193   2.422  -1.957  1.00  0.00     0.032 C 
HETATM   27  C25 UNL     1      -4.115  -1.246  -1.346  1.00  0.00     0.003 C 
HETATM   28  C26 UNL     1      -0.730   1.264   1.955  1.00  0.00     0.000 C 
HETATM   29  C27 UNL     1       2.568  -1.281  -1.408  1.00  0.00     0.000 C 
HETATM   30  C28 UNL     1       4.941  -2.434  -0.180  1.00  0.00     0.003 C 
HETATM   31  C29 UNL     1       5.594  -1.441   2.002  1.00  0.00     0.003 C 
HETATM   32  O3  UNL     1       7.072  -0.484  -0.361  1.00  0.00    -0.224 OA
ENDROOT
TORSDOF 0
