REMARK  0 active torsions:
REMARK  status: ('A' for Active; 'I' for Inactive)
ROOT
HETATM    1  C1  UNL     1      -2.643  -0.545   0.021  1.00  0.00     0.002 A 
HETATM    2  C2  UNL     1      -2.549   0.865   0.008  1.00  0.00     0.029 A 
HETATM    3  C3  UNL     1      -1.285   1.500  -0.006  1.00  0.00     0.148 A 
HETATM    4  C4  UNL     1      -0.096   0.723  -0.006  1.00  0.00     0.107 A 
HETATM    5  C5  UNL     1      -0.201  -0.709   0.008  1.00  0.00     0.022 A 
HETATM    6  C6  UNL     1      -1.473  -1.334   0.021  1.00  0.00     0.002 A 
HETATM    7  C7  UNL     1       0.982  -1.494   0.008  1.00  0.00     0.031 A 
HETATM    8  C8  UNL     1       2.244  -0.849  -0.006  1.00  0.00     0.150 A 
HETATM    9  C9  UNL     1       2.299   0.565  -0.020  1.00  0.00     0.126 A 
HETATM   10  N1  UNL     1       1.150   1.328  -0.020  1.00  0.00    -0.240 NA
HETATM   11  O1  UNL     1       3.373  -1.570  -0.008  1.00  0.00    -0.189 OA
HETATM   12  O2  UNL     1      -1.229   2.840  -0.018  1.00  0.00    -0.189 OA
ENDROOT
TORSDOF 0
