REMARK  1 active torsions:
REMARK  status: ('A' for Active; 'I' for Inactive)
REMARK    1  A    between atoms: C1_1  and  C2_2 
ROOT
HETATM    1  C2  UNL     1       0.389   0.670   0.063  1.00  0.00     0.090 A 
HETATM    2  C3  UNL     1      -1.020   0.621   0.063  1.00  0.00     0.139 A 
HETATM    3  C4  UNL     1      -1.672  -0.625   0.063  1.00  0.00     0.055 A 
HETATM    4  C5  UNL     1      -0.930  -1.819   0.063  1.00  0.00     0.133 A 
HETATM    5  C6  UNL     1       0.475  -1.764   0.063  1.00  0.00     0.028 A 
HETATM    6  C7  UNL     1       1.133  -0.524   0.063  1.00  0.00     0.010 A 
HETATM    7  O1  UNL     1      -1.547  -2.985   0.063  1.00  0.00    -0.190 OA
HETATM    8  O2  UNL     1      -1.733   1.730   0.063  1.00  0.00    -0.190 OA
ENDROOT
BRANCH   1   9
HETATM    9  C1  UNL     1       1.100   1.984   0.063  1.00  0.00     0.213 C 
HETATM   10  O3  UNL     1       0.644   2.937   0.653  1.00  0.00    -0.644 OA
HETATM   11  O4  UNL     1       2.238   2.012  -0.621  1.00  0.00    -0.644 OA
ENDBRANCH   1   9
TORSDOF 1
