REMARK  0 active torsions:
REMARK  status: ('A' for Active; 'I' for Inactive)
ROOT
HETATM    1  C1  UNL     1      -0.932   1.799  -0.045  1.00  0.00     0.037 C 
HETATM    2  C2  UNL     1       0.515   1.871   0.498  1.00  0.00     0.034 C 
HETATM    3  C3  UNL     1       0.728   0.432  -0.027  1.00  0.00     0.132 A 
HETATM    4  C4  UNL     1      -0.807   0.264   0.039  1.00  0.00     0.144 A 
HETATM    5  C5  UNL     1      -1.492  -0.576  -1.039  1.00  0.00     0.009 A 
HETATM    6  C6  UNL     1      -2.227  -1.461  -0.358  1.00  0.00     0.066 A 
HETATM    7  C7  UNL     1      -2.074  -1.248   1.074  1.00  0.00     0.296 A 
HETATM    8  O1  UNL     1      -2.633  -1.918   1.910  1.00  0.00    -0.259 OA
HETATM    9  O2  UNL     1      -1.250  -0.230   1.312  1.00  0.00    -0.297 OA
HETATM   10  C8  UNL     1       1.556  -0.490   0.871  1.00  0.00     0.062 A 
HETATM   11  C9  UNL     1       2.488  -1.015   0.070  1.00  0.00     0.045 A 
HETATM   12  C10 UNL     1       2.330  -0.504  -1.279  1.00  0.00     0.292 A 
HETATM   13  O3  UNL     1       3.043  -0.822  -2.203  1.00  0.00    -0.260 OA
HETATM   14  O4  UNL     1       1.306   0.344  -1.338  1.00  0.00    -0.301 OA
ENDROOT
TORSDOF 0
