REMARK  1 active torsions:
REMARK  status: ('A' for Active; 'I' for Inactive)
REMARK    1  A    between atoms: C7_8  and  C10_12 
ROOT
HETATM    1  C1  UNL     1       0.146  -4.083  -0.020  1.00  0.00     0.158 A 
HETATM    2  C2  UNL     1       1.562  -4.104  -0.017  1.00  0.00     0.156 A 
HETATM    3  C3  UNL     1       2.288  -2.890  -0.020  1.00  0.00     0.034 A 
HETATM    4  C4  UNL     1       1.596  -1.654  -0.025  1.00  0.00     0.059 A 
HETATM    5  C5  UNL     1       0.175  -1.630   0.013  1.00  0.00     0.099 A 
HETATM    6  C6  UNL     1      -0.544  -2.848  -0.004  1.00  0.00     0.054 A 
HETATM    7  O1  UNL     1      -0.505  -0.465   0.066  1.00  0.00    -0.328 OA
HETATM    8  C7  UNL     1       0.152   0.738   0.483  1.00  0.00     0.151 C 
HETATM    9  C8  UNL     1       1.515   0.882  -0.223  1.00  0.00     0.104 C 
HETATM   10  C9  UNL     1       2.352  -0.372  -0.081  1.00  0.00     0.178 C 
HETATM   11  O2  UNL     1       3.553  -0.239  -0.031  1.00  0.00    -0.291 OA
HETATM   12  O4  UNL     1       2.218  -5.273  -0.017  1.00  0.00    -0.188 OA
HETATM   13  O5  UNL     1      -0.544  -5.232  -0.033  1.00  0.00    -0.188 OA
ENDROOT
BRANCH   8  14
HETATM   14  C10 UNL     1      -0.743   1.896   0.225  1.00  0.00     0.006 A 
HETATM   15  C11 UNL     1      -1.313   2.075  -1.048  1.00  0.00     0.000 A 
HETATM   16  C12 UNL     1      -2.159   3.171  -1.290  1.00  0.00     0.027 A 
HETATM   17  C13 UNL     1      -2.440   4.089  -0.263  1.00  0.00     0.131 A 
HETATM   18  C14 UNL     1      -1.870   3.907   1.009  1.00  0.00     0.027 A 
HETATM   19  O3  UNL     1      -3.234   5.116  -0.492  1.00  0.00    -0.190 OA
HETATM   20  C15 UNL     1      -1.023   2.812   1.254  1.00  0.00     0.000 A 
ENDBRANCH   8  14
TORSDOF 1
