REMARK  5 active torsions:
REMARK  status: ('A' for Active; 'I' for Inactive)
REMARK    1  A    between atoms: C10_12  and  O6_25 
REMARK    2  A    between atoms: C11_13  and  O4_18 
REMARK    3  A    between atoms: O4_18  and  C15_19 
REMARK    4  A    between atoms: C15_19  and  C16_20 
REMARK    5  A    between atoms: O6_25  and  C20_26 
ROOT
HETATM    1  C1  UNL     1      -1.776   2.930  -1.168  1.00  0.00     0.024 A 
HETATM    2  C2  UNL     1      -0.912   1.809  -1.164  1.00  0.00     0.094 A 
HETATM    3  C3  UNL     1      -1.449   0.494  -1.006  1.00  0.00     0.053 A 
HETATM    4  C4  UNL     1      -2.854   0.322  -0.889  1.00  0.00     0.103 A 
HETATM    5  C5  UNL     1      -3.707   1.459  -0.902  1.00  0.00     0.023 A 
HETATM    6  C6  UNL     1      -3.172   2.760  -1.039  1.00  0.00     0.004 A 
HETATM    7  C7  UNL     1      -5.172   1.252  -0.769  1.00  0.00     0.007 A 
HETATM    8  C8  UNL     1      -5.643  -0.002  -0.642  1.00  0.00     0.069 A 
HETATM    9  C9  UNL     1      -4.705  -1.148  -0.639  1.00  0.00     0.300 A 
HETATM   10  O1  UNL     1      -3.383  -0.916  -0.762  1.00  0.00    -0.273 OA
HETATM   11  O2  UNL     1      -5.158  -2.264  -0.523  1.00  0.00    -0.259 OA
HETATM   12  C10 UNL     1      -0.529  -0.678  -0.971  1.00  0.00     0.180 C 
HETATM   13  C11 UNL     1       0.935  -0.270  -0.726  1.00  0.00     0.182 C 
HETATM   14  C12 UNL     1       1.318   0.947  -1.590  1.00  0.00     0.127 C 
HETATM   15  O3  UNL     1       0.414   2.023  -1.308  1.00  0.00    -0.333 OA
HETATM   16  C13 UNL     1       2.734   1.432  -1.267  1.00  0.00     0.033 C 
HETATM   17  C14 UNL     1       1.226   0.613  -3.086  1.00  0.00     0.033 C 
ENDROOT
BRANCH  13  18
HETATM   18  O4  UNL     1       1.109   0.061   0.647  1.00  0.00    -0.296 OA
BRANCH  18  19
HETATM   19  C15 UNL     1       2.262  -0.389   1.135  1.00  0.00     0.291 C 
HETATM   20  O5  UNL     1       3.146  -0.854   0.451  1.00  0.00    -0.260 OA
BRANCH  19  21
HETATM   21  C16 UNL     1       2.420  -0.293   2.590  1.00  0.00     0.037 C 
HETATM   22  C17 UNL     1       3.471   0.305   3.174  1.00  0.00    -0.025 C 
HETATM   23  C18 UNL     1       4.537   0.904   2.295  1.00  0.00     0.030 C 
HETATM   24  C19 UNL     1       1.355  -0.893   3.469  1.00  0.00     0.036 C 
ENDBRANCH  19  21
ENDBRANCH  18  19
ENDBRANCH  13  18
BRANCH  12  25
HETATM   25  O6  UNL     1      -0.920  -1.600   0.039  1.00  0.00    -0.297 OA
BRANCH  25  26
HETATM   26  C20 UNL     1      -0.365  -2.797  -0.127  1.00  0.00     0.273 C 
HETATM   27  O7  UNL     1       0.293  -3.106  -1.094  1.00  0.00    -0.264 OA
HETATM   28  C21 UNL     1      -0.613  -3.777   0.986  1.00  0.00     0.106 C 
ENDBRANCH  25  26
ENDBRANCH  12  25
TORSDOF 5
