REMARK  1 active torsions:
REMARK  status: ('A' for Active; 'I' for Inactive)
REMARK    1  A    between atoms: C1_1  and  C2_2 
ROOT
HETATM    1  C2  UNL     1       0.658  -0.035   0.104  1.00  0.00     0.106 A 
HETATM    2  C3  UNL     1      -0.182  -1.256   0.051  1.00  0.00     0.240 A 
HETATM    3  C4  UNL     1      -1.650  -1.108   0.029  1.00  0.00     0.234 A 
HETATM    4  C5  UNL     1      -2.219   0.254   0.070  1.00  0.00     0.045 A 
HETATM    5  C6  UNL     1      -1.406   1.328   0.119  1.00  0.00     0.004 A 
HETATM    6  C7  UNL     1       0.064   1.178   0.137  1.00  0.00     0.009 A 
HETATM    7  O1  UNL     1      -2.377  -2.074  -0.021  1.00  0.00    -0.283 OA
HETATM    8  O2  UNL     1       0.320  -2.356   0.025  1.00  0.00    -0.283 OA
ENDROOT
BRANCH   1   9
HETATM    9  C1  UNL     1       2.125  -0.141   0.121  1.00  0.00     0.214 C 
HETATM   10  O3  UNL     1       2.721  -0.219   1.170  1.00  0.00    -0.644 OA
HETATM   11  O4  UNL     1       2.719  -0.143  -1.070  1.00  0.00    -0.644 OA
ENDBRANCH   1   9
TORSDOF 1
