REMARK  3 active torsions:
REMARK  status: ('A' for Active; 'I' for Inactive)
REMARK    1  A    between atoms: S1_1  and  S2_2 
REMARK    2  A    between atoms: S1_1  and  S3_6 
REMARK    3  A    between atoms: S2_2  and  C1_3 
ROOT
HETATM    1  S2  UNL     1       0.852  -1.037   0.814  1.00  0.00    -0.044 SA
ENDROOT
BRANCH   1   2
HETATM    2  S1  UNL     1      -0.642  -2.426   0.811  1.00  0.00    -0.018 SA
BRANCH   2   3
HETATM    3  S3  UNL     1      -0.820  -2.723  -1.199  1.00  0.00    -0.070 SA
HETATM    4  C4  UNL     1      -2.117  -1.543  -1.672  1.00  0.00     0.082 C 
ENDBRANCH   2   3
ENDBRANCH   1   2
BRANCH   1   5
HETATM    5  C1  UNL     1       0.041   0.443   0.814  1.00  0.00     0.038 C 
HETATM    6  C2  UNL     1       0.684   1.623   0.814  1.00  0.00    -0.018 C 
HETATM    7  C3  UNL     1       2.188   1.623   0.814  1.00  0.00     0.031 C 
ENDBRANCH   1   5
TORSDOF 3
