REMARK  3 active torsions:
REMARK  status: ('A' for Active; 'I' for Inactive)
REMARK    1  A    between atoms: C1_1  and  O4_23 
REMARK    2  A    between atoms: C2_2  and  O3_21 
REMARK    3  A    between atoms: C7_7  and  O2_19 
ROOT
HETATM    1  C1  UNL     1      -1.443  -1.420   0.148  1.00  0.00     0.116 A 
HETATM    2  C2  UNL     1      -0.041  -1.543   0.041  1.00  0.00     0.116 A 
HETATM    3  C3  UNL     1       0.814  -0.383   0.035  1.00  0.00     0.026 A 
HETATM    4  C4  UNL     1       0.193   0.914   0.131  1.00  0.00     0.025 A 
HETATM    5  C5  UNL     1      -1.244   1.004   0.238  1.00  0.00     0.028 A 
HETATM    6  C6  UNL     1      -2.045  -0.158   0.246  1.00  0.00     0.028 A 
HETATM    7  C7  UNL     1      -1.881   2.270   0.338  1.00  0.00     0.113 A 
HETATM    8  C8  UNL     1      -1.084   3.428   0.326  1.00  0.00     0.123 A 
HETATM    9  N1  UNL     1       0.279   3.340   0.219  1.00  0.00    -0.239 NA
HETATM   10  C9  UNL     1       0.961   2.135   0.121  1.00  0.00     0.120 A 
HETATM   11  C10 UNL     1       2.447   2.066   0.006  1.00  0.00     0.213 A 
HETATM   12  C11 UNL     1       3.082   0.719  -0.082  1.00  0.00     0.041 A 
HETATM   13  C12 UNL     1       2.303  -0.480  -0.064  1.00  0.00     0.005 A 
HETATM   14  C13 UNL     1       3.010  -1.725  -0.145  1.00  0.00     0.000 A 
HETATM   15  C14 UNL     1       4.418  -1.771  -0.244  1.00  0.00     0.000 A 
HETATM   16  C15 UNL     1       5.164  -0.580  -0.262  1.00  0.00     0.000 A 
HETATM   17  C16 UNL     1       4.498   0.656  -0.182  1.00  0.00     0.003 A 
HETATM   18  O1  UNL     1       3.109   3.080  -0.016  1.00  0.00    -0.285 OA
ENDROOT
BRANCH   1  19
HETATM   19  O4  UNL     1      -2.215  -2.516   0.154  1.00  0.00    -0.326 OA
HETATM   20  C19 UNL     1      -3.621  -2.340   0.246  1.00  0.00     0.181 C 
ENDBRANCH   1  19
BRANCH   2  21
HETATM   21  O3  UNL     1       0.410  -2.799  -0.055  1.00  0.00    -0.326 OA
HETATM   22  C18 UNL     1      -0.055  -3.596  -1.133  1.00  0.00     0.181 C 
ENDBRANCH   2  21
BRANCH   7  23
HETATM   23  O2  UNL     1      -3.213   2.391   0.441  1.00  0.00    -0.327 OA
HETATM   24  C17 UNL     1      -3.742   3.668   0.768  1.00  0.00     0.181 C 
ENDBRANCH   7  23
TORSDOF 3
