REMARK  4 active torsions:
REMARK  status: ('A' for Active; 'I' for Inactive)
REMARK    1  A    between atoms: C4_4  and  O3_9 
REMARK    2  A    between atoms: C5_6  and  C6_7 
REMARK    3  A    between atoms: O3_9  and  C7_10 
REMARK    4  A    between atoms: C16_20  and  C17_21 
ROOT
HETATM    1  C7  UNL     1       0.908  -0.568  -0.350  1.00  0.00     0.122 C 
HETATM    2  C8  UNL     1       0.764  -2.105  -0.457  1.00  0.00     0.030 C 
HETATM    3  C9  UNL     1      -0.647  -2.617  -0.076  1.00  0.00     0.009 C 
HETATM    4  C10 UNL     1      -1.748  -1.900  -0.885  1.00  0.00     0.047 C 
HETATM    5  C11 UNL     1      -1.561  -0.422  -0.582  1.00  0.00    -0.009 C 
HETATM    6  C12 UNL     1      -0.252   0.213  -1.022  1.00  0.00     0.048 C 
HETATM    7  C13 UNL     1      -0.104   0.278  -2.545  1.00  0.00     0.007 C 
HETATM    8  C14 UNL     1      -2.490   0.268   0.111  1.00  0.00     0.186 C 
HETATM    9  C15 UNL     1      -3.592  -0.453   0.775  1.00  0.00     0.321 C 
HETATM   10  O4  UNL     1      -3.674  -1.789   0.687  1.00  0.00    -0.294 OA
HETATM   11  C16 UNL     1      -3.180  -2.387  -0.514  1.00  0.00     0.152 C 
HETATM   12  O6  UNL     1      -4.391   0.192   1.414  1.00  0.00    -0.257 OA
HETATM   13  O7  UNL     1      -2.406   1.592   0.234  1.00  0.00    -0.185 OA
HETATM   14  C21 UNL     1      -1.514  -2.199  -2.377  1.00  0.00     0.007 C 
ENDROOT
BRANCH   1  15
HETATM   15  O3  UNL     1       0.961  -0.224   1.025  1.00  0.00    -0.331 OA
BRANCH  15  16
HETATM   16  C4  UNL     1       1.652   0.983   1.271  1.00  0.00     0.270 C 
HETATM   17  C3  UNL     1       1.406   1.461   2.729  1.00  0.00     0.241 C 
HETATM   18  C2  UNL     1       2.264   2.701   3.070  1.00  0.00     0.220 C 
HETATM   19  O8  UNL     1       0.031   1.731   2.945  1.00  0.00    -0.215 OA
HETATM   20  C1  UNL     1       3.736   2.387   2.717  1.00  0.00     0.215 C 
HETATM   21  O9  UNL     1       1.814   3.830   2.328  1.00  0.00    -0.218 OA
HETATM   22  C5  UNL     1       3.885   1.883   1.262  1.00  0.00     0.184 C 
HETATM   23  O10 UNL     1       4.563   3.518   2.930  1.00  0.00    -0.218 OA
HETATM   24  O1  UNL     1       3.043   0.752   1.068  1.00  0.00    -0.326 OA
BRANCH  22  25
HETATM   25  C6  UNL     1       5.313   1.434   0.930  1.00  0.00     0.214 C 
HETATM   26  O2  UNL     1       5.373   1.139  -0.447  1.00  0.00    -0.218 OA
ENDBRANCH  22  25
ENDBRANCH  15  16
ENDBRANCH   1  15
BRANCH  11  27
HETATM   27  C17 UNL     1      -4.188  -2.113  -1.609  1.00  0.00     0.032 A 
HETATM   28  C18 UNL     1      -5.078  -3.025  -2.188  1.00  0.00     0.121 A 
HETATM   29  O5  UNL     1      -5.852  -2.449  -3.152  1.00  0.00    -0.303 OA
HETATM   30  C19 UNL     1      -5.438  -1.148  -3.182  1.00  0.00     0.122 A 
HETATM   31  C20 UNL     1      -4.420  -0.898  -2.254  1.00  0.00     0.027 A 
ENDBRANCH  11  27
TORSDOF 4
