REMARK  5 active torsions:
REMARK  status: ('A' for Active; 'I' for Inactive)
REMARK    1  A    between atoms: C9_10  and  C11_12 
REMARK    2  A    between atoms: C11_12  and  O2_15 
REMARK    3  A    between atoms: O2_15  and  O3_16 
REMARK    4  A    between atoms: O3_16  and  C14_17 
REMARK    5  A    between atoms: C18_21  and  C19_23 
ROOT
HETATM    1  C11 UNL     1       1.979  -0.025   0.252  1.00  0.00     0.127 C 
HETATM    2  C12 UNL     1       2.568   1.385   0.299  1.00  0.00     0.033 C 
HETATM    3  C13 UNL     1       2.596  -0.887  -0.851  1.00  0.00     0.033 C 
ENDROOT
BRANCH   1   4
HETATM    4  C9  UNL     1       1.992  -0.719   1.619  1.00  0.00     0.028 C 
HETATM    5  C8  UNL     1       2.445  -2.203   1.494  1.00  0.00     0.005 C 
HETATM    6  C7  UNL     1       1.463  -3.178   2.156  1.00  0.00     0.030 C 
HETATM    7  C5  UNL     1       0.000  -2.889   1.785  1.00  0.00     0.123 C 
HETATM    8  C4  UNL     1      -0.019  -1.473   2.340  1.00  0.00     0.052 C 
HETATM    9  C6  UNL     1      -0.506  -2.533   0.350  1.00  0.00     0.177 C 
HETATM   10  O9  UNL     1      -1.008  -3.397   2.653  1.00  0.00    -0.361 OA
HETATM   11  C3  UNL     1      -1.340  -2.023   2.846  1.00  0.00     0.095 C 
HETATM   12  C10 UNL     1       0.719  -0.338   2.387  1.00  0.00     0.007 C 
HETATM   13  C2  UNL     1      -2.238  -1.395   1.740  1.00  0.00     0.030 C 
HETATM   14  C20 UNL     1      -1.197  -1.486   4.268  1.00  0.00     0.030 C 
HETATM   15  C1  UNL     1      -1.973  -2.043   0.365  1.00  0.00     0.038 C 
HETATM   16  O1  UNL     1      -0.412  -3.695  -0.451  1.00  0.00    -0.221 OA
ENDBRANCH   1   4
BRANCH   1  17
HETATM   17  O2  UNL     1       0.639   0.242  -0.096  1.00  0.00    -0.224 OA
BRANCH  17  18
HETATM   18  O3  UNL     1       0.629   0.828  -1.414  1.00  0.00    -0.190 OA
BRANCH  18  19
HETATM   19  C14 UNL     1      -0.619   0.533  -2.012  1.00  0.00     0.303 C 
HETATM   20  C15 UNL     1      -0.703   0.885  -3.535  1.00  0.00     0.244 C 
HETATM   21  C16 UNL     1      -1.307   2.287  -3.830  1.00  0.00     0.220 C 
HETATM   22  O8  UNL     1       0.563   0.773  -4.164  1.00  0.00    -0.215 OA
HETATM   23  C17 UNL     1      -1.162   3.234  -2.621  1.00  0.00     0.215 C 
HETATM   24  O7  UNL     1      -2.689   2.145  -4.101  1.00  0.00    -0.218 OA
HETATM   25  C18 UNL     1      -1.674   2.602  -1.289  1.00  0.00     0.184 C 
HETATM   26  O6  UNL     1       0.201   3.607  -2.519  1.00  0.00    -0.218 OA
HETATM   27  O4  UNL     1      -1.689   1.170  -1.320  1.00  0.00    -0.324 OA
BRANCH  25  28
HETATM   28  C19 UNL     1      -0.945   3.059  -0.015  1.00  0.00     0.214 C 
HETATM   29  O5  UNL     1      -1.262   4.414   0.211  1.00  0.00    -0.218 OA
ENDBRANCH  25  28
ENDBRANCH  18  19
ENDBRANCH  17  18
ENDBRANCH   1  17
TORSDOF 5
