REMARK  7 active torsions:
REMARK  status: ('A' for Active; 'I' for Inactive)
REMARK    1  A    between atoms: C5_5  and  C7_7 
REMARK    2  A    between atoms: C8_8  and  C9_9 
REMARK    3  A    between atoms: C9_9  and  O1_10 
REMARK    4  A    between atoms: O1_10  and  C10_11 
REMARK    5  A    between atoms: C10_11  and  C11_12 
REMARK    6  A    between atoms: C10_11  and  C18_21 
REMARK    7  A    between atoms: C11_12  and  C12_13 
ROOT
HETATM    1  O1  UNL     1      -1.361   0.518  -0.881  1.00  0.00    -0.290 OA
ENDROOT
BRANCH   1   2
HETATM    2  C9  UNL     1      -1.209   1.096   0.307  1.00  0.00     0.296 C 
HETATM    3  O6  UNL     1      -1.361   2.280   0.502  1.00  0.00    -0.259 OA
BRANCH   2   4
HETATM    4  C8  UNL     1      -0.836   0.203   1.408  1.00  0.00     0.068 C 
HETATM    5  C7  UNL     1      -0.656   0.686   2.650  1.00  0.00     0.005 C 
BRANCH   5   6
HETATM    6  C5  UNL     1      -0.275  -0.263   3.738  1.00  0.00     0.002 A 
HETATM    7  C4  UNL     1      -0.695  -1.603   3.686  1.00  0.00     0.002 A 
HETATM    8  C3  UNL     1      -0.336  -2.494   4.711  1.00  0.00     0.029 A 
HETATM    9  C2  UNL     1       0.443  -2.049   5.793  1.00  0.00     0.156 A 
HETATM   10  C1  UNL     1       0.865  -0.707   5.848  1.00  0.00     0.156 A 
HETATM   11  O7  UNL     1       0.777  -2.890   6.752  1.00  0.00    -0.188 OA
HETATM   12  C6  UNL     1       0.504   0.182   4.820  1.00  0.00     0.029 A 
HETATM   13  O8  UNL     1       1.596  -0.281   6.859  1.00  0.00    -0.188 OA
ENDBRANCH   5   6
ENDBRANCH   2   4
ENDBRANCH   1   2
BRANCH   1  14
HETATM   14  C10 UNL     1      -1.781   1.434  -1.881  1.00  0.00     0.215 C 
BRANCH  14  15
HETATM   15  C11 UNL     1      -1.605   0.799  -3.260  1.00  0.00     0.068 C 
BRANCH  15  16
HETATM   16  C12 UNL     1      -0.166   0.479  -3.568  1.00  0.00    -0.021 C 
HETATM   17  C13 UNL     1       0.227  -0.808  -3.662  1.00  0.00     0.005 C 
HETATM   18  C14 UNL     1       1.664  -1.139  -4.014  1.00  0.00     0.208 C 
HETATM   19  C15 UNL     1       2.660  -0.043  -3.541  1.00  0.00     0.209 C 
HETATM   20  O3  UNL     1       2.020  -2.383  -3.441  1.00  0.00    -0.215 OA
HETATM   21  C16 UNL     1       2.125   1.358  -3.773  1.00  0.00     0.009 C 
HETATM   22  O2  UNL     1       3.895  -0.193  -4.215  1.00  0.00    -0.215 OA
HETATM   23  C17 UNL     1       0.797   1.580  -3.762  1.00  0.00    -0.006 C 
ENDBRANCH  15  16
ENDBRANCH  14  15
BRANCH  14  24
HETATM   24  C18 UNL     1      -3.203   1.850  -1.615  1.00  0.00     0.215 C 
HETATM   25  O4  UNL     1      -4.041   1.037  -1.303  1.00  0.00    -0.646 OA
HETATM   26  O5  UNL     1      -3.447   3.151  -1.754  1.00  0.00    -0.646 OA
ENDBRANCH  14  24
ENDBRANCH   1  14
TORSDOF 7
