REMARK  1 active torsions:
REMARK  status: ('A' for Active; 'I' for Inactive)
REMARK    1  A    between atoms: C1_2  and  C6_7 
ROOT
HETATM    1  O1  UNL     1      -0.417   0.895  -0.004  1.00  0.00    -0.308 OA
HETATM    2  C1  UNL     1       0.944   0.843  -0.004  1.00  0.00     0.142 A 
HETATM    3  C2  UNL     1       1.449  -0.459  -0.004  1.00  0.00     0.030 A 
HETATM    4  C3  UNL     1       0.321  -1.281  -0.004  1.00  0.00     0.022 A 
HETATM    5  C4  UNL     1      -0.785  -0.421  -0.004  1.00  0.00     0.078 A 
HETATM    6  C5  UNL     1      -2.240  -0.839  -0.004  1.00  0.00     0.058 C 
ENDROOT
BRANCH   2   7
HETATM    7  C6  UNL     1       1.674   2.102  -0.004  1.00  0.00     0.259 C 
HETATM    8  O2  UNL     1       2.883   2.102  -0.004  1.00  0.00    -0.281 OA
ENDBRANCH   2   7
TORSDOF 1
