REMARK  10 active torsions:
REMARK  status: ('A' for Active; 'I' for Inactive)
REMARK    1  A    between atoms: C2_2  and  O7_25 
REMARK    2  A    between atoms: C5_5  and  C7_7 
REMARK    3  A    between atoms: C8_8  and  C9_9 
REMARK    4  A    between atoms: C9_9  and  O2_11 
REMARK    5  A    between atoms: O2_11  and  C10_12 
REMARK    6  A    between atoms: C10_12  and  C11_13 
REMARK    7  A    between atoms: C10_12  and  C18_22 
REMARK    8  A    between atoms: C11_13  and  C12_14 
REMARK    9  A    between atoms: O7_25  and  C19_26 
REMARK   10  A    between atoms: C23_33  and  C24_35 
ROOT
HETATM    1  C1  UNL     1       2.986  -1.512   0.955  1.00  0.00     0.153 A 
HETATM    2  C2  UNL     1       2.404  -2.147  -0.158  1.00  0.00     0.122 A 
HETATM    3  C3  UNL     1       1.152  -1.719  -0.631  1.00  0.00     0.026 A 
HETATM    4  C4  UNL     1       0.477  -0.664   0.004  1.00  0.00     0.002 A 
HETATM    5  C5  UNL     1       1.057  -0.029   1.117  1.00  0.00     0.002 A 
HETATM    6  C6  UNL     1       2.311  -0.455   1.592  1.00  0.00     0.029 A 
HETATM    7  O13 UNL     1       4.160  -1.906   1.406  1.00  0.00    -0.188 OA
ENDROOT
BRANCH   5   8
HETATM    8  C7  UNL     1       0.342   1.094   1.797  1.00  0.00     0.005 C 
HETATM    9  C8  UNL     1      -0.854   1.477   1.320  1.00  0.00     0.068 C 
BRANCH   9  10
HETATM   10  C9  UNL     1      -1.592   2.576   1.955  1.00  0.00     0.296 C 
HETATM   11  O1  UNL     1      -1.133   3.148   2.914  1.00  0.00    -0.259 OA
BRANCH  10  12
HETATM   12  O2  UNL     1      -2.766   2.875   1.404  1.00  0.00    -0.290 OA
BRANCH  12  13
HETATM   13  C10 UNL     1      -3.357   4.027   1.988  1.00  0.00     0.215 C 
BRANCH  13  14
HETATM   14  C11 UNL     1      -4.815   4.135   1.537  1.00  0.00     0.068 C 
BRANCH  14  15
HETATM   15  C12 UNL     1      -5.604   2.945   1.953  1.00  0.00    -0.017 A 
HETATM   16  C13 UNL     1      -5.709   1.836   1.096  1.00  0.00     0.025 A 
HETATM   17  C14 UNL     1      -6.453   0.707   1.482  1.00  0.00     0.156 A 
HETATM   18  C15 UNL     1      -7.098   0.689   2.734  1.00  0.00     0.156 A 
HETATM   19  O4  UNL     1      -6.547  -0.328   0.672  1.00  0.00    -0.188 OA
HETATM   20  C16 UNL     1      -6.994   1.801   3.590  1.00  0.00     0.029 A 
HETATM   21  O3  UNL     1      -7.799  -0.363   3.105  1.00  0.00    -0.188 OA
HETATM   22  C17 UNL     1      -6.248   2.926   3.201  1.00  0.00    -0.002 A 
ENDBRANCH  14  15
ENDBRANCH  13  14
BRANCH  13  23
HETATM   23  C18 UNL     1      -2.553   5.244   1.621  1.00  0.00     0.215 C 
HETATM   24  O5  UNL     1      -2.379   5.551   0.467  1.00  0.00    -0.646 OA
HETATM   25  O6  UNL     1      -2.066   5.932   2.652  1.00  0.00    -0.646 OA
ENDBRANCH  13  23
ENDBRANCH  12  13
ENDBRANCH  10  12
ENDBRANCH   9  10
ENDBRANCH   5   8
BRANCH   2  26
HETATM   26  O7  UNL     1       3.031  -3.137  -0.760  1.00  0.00    -0.301 OA
BRANCH  26  27
HETATM   27  C19 UNL     1       2.820  -3.311  -2.158  1.00  0.00     0.274 C 
HETATM   28  C20 UNL     1       3.760  -4.397  -2.725  1.00  0.00     0.241 C 
HETATM   29  O8  UNL     1       3.580  -5.594  -1.988  1.00  0.00    -0.215 OA
HETATM   30  C21 UNL     1       5.236  -3.947  -2.672  1.00  0.00     0.220 C 
HETATM   31  O9  UNL     1       6.049  -4.881  -3.365  1.00  0.00    -0.218 OA
HETATM   32  C22 UNL     1       5.371  -2.551  -3.322  1.00  0.00     0.215 C 
HETATM   33  O10 UNL     1       6.678  -2.047  -3.109  1.00  0.00    -0.218 OA
HETATM   34  C23 UNL     1       4.350  -1.549  -2.734  1.00  0.00     0.184 C 
HETATM   35  O11 UNL     1       3.035  -2.084  -2.842  1.00  0.00    -0.326 OA
BRANCH  34  36
HETATM   36  C24 UNL     1       4.344  -0.207  -3.475  1.00  0.00     0.214 C 
HETATM   37  O12 UNL     1       3.498   0.678  -2.777  1.00  0.00    -0.218 OA
ENDBRANCH  34  36
ENDBRANCH  26  27
ENDBRANCH   2  26
TORSDOF 10
