REMARK  12 active torsions:
REMARK  status: ('A' for Active; 'I' for Inactive)
REMARK    1  A    between atoms: C1_1  and  O12_43 
REMARK    2  A    between atoms: C3_3  and  O10_39 
REMARK    3  A    between atoms: C7_8  and  C10_12 
REMARK    4  A    between atoms: C16_19  and  C21_27 
REMARK    5  A    between atoms: C17_20  and  C18_22 
REMARK    6  A    between atoms: C18_22  and  O5_23 
REMARK    7  A    between atoms: O5_23  and  C19_24 
REMARK    8  A    between atoms: C24_30  and  O8_35 
REMARK    9  A    between atoms: C25_31  and  O7_33 
REMARK   10  A    between atoms: O8_35  and  C28_36 
REMARK   11  A    between atoms: O10_39  and  C30_40 
REMARK   12  A    between atoms: O12_43  and  C32_44 
ROOT
HETATM    1  C10 UNL     1       1.797   0.820   0.328  1.00  0.00     0.025 A 
HETATM    2  C11 UNL     1       0.697  -0.057   0.477  1.00  0.00     0.028 A 
HETATM    3  C12 UNL     1      -0.598   0.371   0.104  1.00  0.00     0.116 A 
HETATM    4  C13 UNL     1      -0.797   1.691  -0.385  1.00  0.00     0.117 A 
HETATM    5  C14 UNL     1       0.309   2.561  -0.543  1.00  0.00     0.026 A 
HETATM    6  C15 UNL     1       1.607   2.125  -0.185  1.00  0.00     0.004 A 
HETATM    7  O3  UNL     1      -2.039   2.113  -0.701  1.00  0.00    -0.324 OA
HETATM    8  C16 UNL     1      -3.178   1.355  -0.273  1.00  0.00     0.174 C 
HETATM    9  C17 UNL     1      -2.885  -0.156  -0.435  1.00  0.00     0.183 C 
HETATM   10  O4  UNL     1      -1.646  -0.471   0.215  1.00  0.00    -0.326 OA
ENDROOT
BRANCH   1  11
HETATM   11  C7  UNL     1       3.154   0.371   0.713  1.00  0.00     0.103 A 
HETATM   12  O1  UNL     1       3.615  -0.893   0.578  1.00  0.00    -0.307 OA
HETATM   13  C5  UNL     1       4.854  -1.299   0.930  1.00  0.00     0.107 A 
HETATM   14  C4  UNL     1       5.777  -0.377   1.486  1.00  0.00     0.085 A 
HETATM   15  C6  UNL     1       5.233  -2.649   0.744  1.00  0.00     0.050 A 
HETATM   16  C3  UNL     1       7.078  -0.805   1.860  1.00  0.00     0.110 A 
HETATM   17  C9  UNL     1       5.344   1.033   1.664  1.00  0.00     0.201 A 
HETATM   18  C2  UNL     1       7.449  -2.158   1.670  1.00  0.00     0.050 A 
HETATM   19  C1  UNL     1       6.529  -3.078   1.115  1.00  0.00     0.107 A 
HETATM   20  C8  UNL     1       3.961   1.328   1.233  1.00  0.00     0.067 A 
HETATM   21  O2  UNL     1       5.990   1.951   2.115  1.00  0.00    -0.286 OA
BRANCH  16  22
HETATM   22  O10 UNL     1       7.963   0.055   2.387  1.00  0.00    -0.276 OA
BRANCH  22  23
HETATM   23  C30 UNL     1       9.250  -0.281   2.416  1.00  0.00     0.277 C 
HETATM   24  O11 UNL     1       9.832  -0.623   3.418  1.00  0.00    -0.264 OA
HETATM   25  C31 UNL     1       9.961  -0.211   1.092  1.00  0.00     0.107 C 
ENDBRANCH  22  23
ENDBRANCH  16  22
BRANCH  19  26
HETATM   26  O12 UNL     1       6.885  -4.358   0.938  1.00  0.00    -0.276 OA
BRANCH  26  27
HETATM   27  C32 UNL     1       8.127  -4.633   0.551  1.00  0.00     0.277 C 
HETATM   28  O13 UNL     1       8.863  -3.830   0.027  1.00  0.00    -0.264 OA
HETATM   29  C33 UNL     1       8.578  -6.047   0.805  1.00  0.00     0.107 C 
ENDBRANCH  26  27
ENDBRANCH  19  26
ENDBRANCH   1  11
BRANCH   9  30
HETATM   30  C18 UNL     1      -3.982  -1.051   0.149  1.00  0.00     0.185 C 
BRANCH  30  31
HETATM   31  O5  UNL     1      -3.596  -2.412   0.029  1.00  0.00    -0.299 OA
BRANCH  31  32
HETATM   32  C19 UNL     1      -4.510  -3.244   0.520  1.00  0.00     0.273 C 
HETATM   33  O6  UNL     1      -5.553  -2.881   1.014  1.00  0.00    -0.264 OA
HETATM   34  C20 UNL     1      -4.164  -4.705   0.424  1.00  0.00     0.106 C 
ENDBRANCH  31  32
ENDBRANCH  30  31
ENDBRANCH   9  30
BRANCH   8  35
HETATM   35  C21 UNL     1      -4.369   1.799  -1.045  1.00  0.00     0.010 A 
HETATM   36  C22 UNL     1      -4.357   1.750  -2.449  1.00  0.00     0.000 A 
HETATM   37  C23 UNL     1      -5.486   2.170  -3.174  1.00  0.00     0.027 A 
HETATM   38  C24 UNL     1      -6.627   2.639  -2.500  1.00  0.00     0.125 A 
HETATM   39  C25 UNL     1      -6.639   2.688  -1.094  1.00  0.00     0.117 A 
HETATM   40  C26 UNL     1      -5.510   2.266  -0.369  1.00  0.00     0.024 A 
BRANCH  38  41
HETATM   41  O8  UNL     1      -7.682   3.031  -3.187  1.00  0.00    -0.274 OA
BRANCH  41  42
HETATM   42  C28 UNL     1      -8.217   4.219  -2.924  1.00  0.00     0.277 C 
HETATM   43  O9  UNL     1      -7.688   5.057  -2.232  1.00  0.00    -0.264 OA
HETATM   44  C29 UNL     1      -9.559   4.473  -3.559  1.00  0.00     0.107 C 
ENDBRANCH  41  42
ENDBRANCH  38  41
BRANCH  39  45
HETATM   45  O7  UNL     1      -7.705   3.125  -0.453  1.00  0.00    -0.326 OA
HETATM   46  C27 UNL     1      -7.748   2.967   0.957  1.00  0.00     0.181 C 
ENDBRANCH  39  45
ENDBRANCH   8  35
TORSDOF 12
