REMARK  12 active torsions:
REMARK  status: ('A' for Active; 'I' for Inactive)
REMARK    1  A    between atoms: C10_10  and  O1_11 
REMARK    2  A    between atoms: O1_11  and  C11_12 
REMARK    3  A    between atoms: C15_19  and  C16_21 
REMARK    4  A    between atoms: C16_21  and  O6_22 
REMARK    5  A    between atoms: O6_22  and  C17_23 
REMARK    6  A    between atoms: C23_31  and  C26_34 
REMARK    7  A    between atoms: C26_34  and  O9_35 
REMARK    8  A    between atoms: C26_34  and  C33_47 
REMARK    9  A    between atoms: O9_35  and  C27_36 
REMARK   10  A    between atoms: C31_43  and  C32_45 
REMARK   11  A    between atoms: C33_47  and  C34_48 
REMARK   12  A    between atoms: C34_48  and  C35_49 
ROOT
HETATM    1  C1  UNL     1       4.889   0.916   0.004  1.00  0.00     0.033 C 
HETATM    2  C2  UNL     1       4.623   0.244  -1.352  1.00  0.00     0.152 C 
HETATM    3  C3  UNL     1       4.022  -1.170  -1.168  1.00  0.00     0.030 C 
HETATM    4  C4  UNL     1       2.707  -1.070  -0.318  1.00  0.00     0.030 C 
HETATM    5  C5  UNL     1       2.859  -0.322   1.035  1.00  0.00     0.003 C 
HETATM    6  C6  UNL     1       3.588   1.029   0.807  1.00  0.00     0.003 C 
HETATM    7  C7  UNL     1       1.475  -0.107   1.768  1.00  0.00     0.003 C 
HETATM    8  C8  UNL     1       0.359  -1.176   1.518  1.00  0.00     0.003 C 
HETATM    9  C9  UNL     1       0.992  -2.504   1.059  1.00  0.00     0.030 C 
HETATM   10  C10 UNL     1       1.895  -2.402  -0.193  1.00  0.00     0.118 C 
HETATM   11  C19 UNL     1      -0.855  -0.791   0.590  1.00  0.00     0.003 C 
HETATM   12  C20 UNL     1      -1.281   0.695   0.678  1.00  0.00     0.033 C 
HETATM   13  C21 UNL     1      -0.041   1.613   0.590  1.00  0.00     0.152 C 
HETATM   14  C22 UNL     1       0.861   1.309   1.791  1.00  0.00     0.033 C 
HETATM   15  O8  UNL     1      -0.426   2.971   0.695  1.00  0.00    -0.224 OA
HETATM   16  C23 UNL     1      -2.324   0.842  -0.453  1.00  0.00     0.028 C 
HETATM   17  C24 UNL     1      -1.896  -0.133  -1.549  1.00  0.00     0.002 C 
HETATM   18  C25 UNL     1      -0.744  -0.924  -0.939  1.00  0.00     0.000 C 
HETATM   19  C40 UNL     1      -2.082  -1.684   0.873  1.00  0.00     0.000 C 
HETATM   20  C41 UNL     1      -0.316  -1.416   2.887  1.00  0.00     0.000 C 
HETATM   21  C42 UNL     1       3.758  -1.182   1.947  1.00  0.00     0.000 C 
HETATM   22  C43 UNL     1       3.684  -1.758  -2.547  1.00  0.00     0.003 C 
HETATM   23  C44 UNL     1       5.074  -2.078  -0.508  1.00  0.00     0.003 C 
HETATM   24  O15 UNL     1       5.836   0.193  -2.082  1.00  0.00    -0.224 OA
ENDROOT
BRANCH  16  25
HETATM   25  C26 UNL     1      -2.561   2.234  -1.031  1.00  0.00     0.096 C 
HETATM   26  C39 UNL     1      -3.877   2.246  -1.811  1.00  0.00     0.030 C 
BRANCH  25  27
HETATM   27  O9  UNL     1      -2.666   3.145   0.041  1.00  0.00    -0.334 OA
BRANCH  27  28
HETATM   28  C27 UNL     1      -3.496   4.252  -0.246  1.00  0.00     0.270 C 
HETATM   29  C28 UNL     1      -3.088   5.465   0.648  1.00  0.00     0.241 C 
HETATM   30  O10 UNL     1      -2.043   6.203   0.033  1.00  0.00    -0.215 OA
HETATM   31  C29 UNL     1      -4.287   6.377   0.988  1.00  0.00     0.220 C 
HETATM   32  O11 UNL     1      -4.764   6.984  -0.209  1.00  0.00    -0.218 OA
HETATM   33  C30 UNL     1      -5.385   5.516   1.684  1.00  0.00     0.215 C 
HETATM   34  O12 UNL     1      -6.678   6.088   1.529  1.00  0.00    -0.218 OA
HETATM   35  C31 UNL     1      -5.365   4.014   1.258  1.00  0.00     0.184 C 
HETATM   36  O13 UNL     1      -4.869   3.897  -0.072  1.00  0.00    -0.326 OA
BRANCH  35  37
HETATM   37  C32 UNL     1      -6.723   3.301   1.315  1.00  0.00     0.214 C 
HETATM   38  O14 UNL     1      -6.498   1.916   1.174  1.00  0.00    -0.218 OA
ENDBRANCH  35  37
ENDBRANCH  27  28
ENDBRANCH  25  27
BRANCH  25  39
HETATM   39  C33 UNL     1      -1.363   2.643  -1.889  1.00  0.00     0.032 C 
BRANCH  39  40
HETATM   40  C34 UNL     1      -1.127   4.152  -1.893  1.00  0.00     0.028 C 
BRANCH  40  41
HETATM   41  C35 UNL     1       0.189   4.525  -2.521  1.00  0.00    -0.035 C 
HETATM   42  C36 UNL     1       0.223   5.570  -3.365  1.00  0.00    -0.048 C 
HETATM   43  C37 UNL     1      -1.057   6.320  -3.633  1.00  0.00     0.026 C 
HETATM   44  C38 UNL     1       1.535   5.938  -4.002  1.00  0.00     0.026 C 
ENDBRANCH  40  41
ENDBRANCH  39  40
ENDBRANCH  25  39
ENDBRANCH  16  25
BRANCH  10  45
HETATM   45  O1  UNL     1       2.723  -3.549  -0.182  1.00  0.00    -0.332 OA
BRANCH  45  46
HETATM   46  C11 UNL     1       2.088  -4.699  -0.707  1.00  0.00     0.270 C 
HETATM   47  C12 UNL     1       3.149  -5.733  -1.203  1.00  0.00     0.241 C 
HETATM   48  O2  UNL     1       2.850  -6.133  -2.531  1.00  0.00    -0.215 OA
HETATM   49  C13 UNL     1       3.322  -6.961  -0.262  1.00  0.00     0.220 C 
HETATM   50  O3  UNL     1       2.367  -7.979  -0.529  1.00  0.00    -0.218 OA
HETATM   51  C14 UNL     1       3.135  -6.533   1.209  1.00  0.00     0.215 C 
HETATM   52  O4  UNL     1       4.234  -5.723   1.580  1.00  0.00    -0.218 OA
HETATM   53  C15 UNL     1       1.809  -5.746   1.459  1.00  0.00     0.181 C 
HETATM   54  O5  UNL     1       1.211  -5.291   0.244  1.00  0.00    -0.326 OA
BRANCH  53  55
HETATM   55  C16 UNL     1       0.746  -6.606   2.149  1.00  0.00     0.184 C 
BRANCH  55  56
HETATM   56  O6  UNL     1      -0.402  -5.815   2.414  1.00  0.00    -0.299 OA
BRANCH  56  57
HETATM   57  C17 UNL     1      -1.492  -6.285   1.815  1.00  0.00     0.273 C 
HETATM   58  O7  UNL     1      -1.814  -6.006   0.684  1.00  0.00    -0.264 OA
HETATM   59  C18 UNL     1      -2.330  -7.217   2.650  1.00  0.00     0.106 C 
ENDBRANCH  56  57
ENDBRANCH  55  56
ENDBRANCH  53  55
ENDBRANCH  45  46
ENDBRANCH  10  45
TORSDOF 12
