REMARK  5 active torsions:
REMARK  status: ('A' for Active; 'I' for Inactive)
REMARK    1  A    between atoms: C7_7  and  C9_11 
REMARK    2  A    between atoms: C9_11  and  C10_12 
REMARK    3  A    between atoms: C10_12  and  C11_13 
REMARK    4  A    between atoms: C21_24  and  C22_25 
REMARK    5  A    between atoms: C22_25  and  C23_26 
ROOT
HETATM    1  C1  UNL     1      -1.945   2.459  -1.104  1.00  0.00     0.005 C 
HETATM    2  C2  UNL     1      -0.408   2.615  -1.010  1.00  0.00     0.009 C 
HETATM    3  C3  UNL     1       0.305   1.598  -0.027  1.00  0.00     0.037 C 
HETATM    4  C4  UNL     1      -0.627   0.492   0.449  1.00  0.00     0.036 A 
HETATM    5  C5  UNL     1      -1.801   0.209  -0.107  1.00  0.00    -0.016 A 
HETATM    6  C6  UNL     1      -2.408   1.000  -1.230  1.00  0.00     0.024 C 
HETATM    7  C7  UNL     1      -2.416  -0.981   0.582  1.00  0.00     0.143 A 
HETATM    8  O1  UNL     1      -1.469  -1.287   1.623  1.00  0.00    -0.297 OA
HETATM    9  C8  UNL     1      -0.441  -0.428   1.561  1.00  0.00     0.291 A 
HETATM   10  O2  UNL     1       0.502  -0.400   2.314  1.00  0.00    -0.260 OA
HETATM   11  C13 UNL     1       1.562   1.061  -0.779  1.00  0.00     0.067 A 
HETATM   12  C14 UNL     1       1.062   0.416  -2.027  1.00  0.00     0.042 A 
HETATM   13  C15 UNL     1       0.381   1.180  -2.898  1.00  0.00    -0.025 C 
HETATM   14  C16 UNL     1       0.266   2.613  -2.414  1.00  0.00     0.022 C 
HETATM   15  C17 UNL     1       1.711   3.129  -2.219  1.00  0.00     0.005 C 
HETATM   16  C18 UNL     1       2.480   2.229  -1.209  1.00  0.00     0.011 C 
HETATM   17  C19 UNL     1       1.434  -0.988  -2.043  1.00  0.00     0.296 A 
HETATM   18  O3  UNL     1       2.156  -1.295  -0.955  1.00  0.00    -0.278 OA
HETATM   19  C20 UNL     1       2.279  -0.162  -0.230  1.00  0.00     0.080 A 
HETATM   20  C21 UNL     1       3.008  -0.133   0.904  1.00  0.00    -0.005 C 
HETATM   21  O4  UNL     1       1.121  -1.754  -2.926  1.00  0.00    -0.259 OA
ENDROOT
BRANCH   7  22
HETATM   22  C9  UNL     1      -2.578  -2.186  -0.336  1.00  0.00     0.035 C 
BRANCH  22  23
HETATM   23  C10 UNL     1      -3.203  -3.342   0.445  1.00  0.00     0.003 C 
BRANCH  23  24
HETATM   24  C11 UNL     1      -3.406  -4.590  -0.412  1.00  0.00     0.000 C 
HETATM   25  C12 UNL     1      -4.031  -5.746   0.369  1.00  0.00     0.000 C 
ENDBRANCH  23  24
ENDBRANCH  22  23
ENDBRANCH   7  22
BRANCH  20  26
HETATM   26  C22 UNL     1       3.164   1.115   1.732  1.00  0.00     0.028 C 
BRANCH  26  27
HETATM   27  C23 UNL     1       3.816   0.838   3.086  1.00  0.00     0.005 C 
HETATM   28  C24 UNL     1       3.982   2.104   3.932  1.00  0.00     0.000 C 
ENDBRANCH  26  27
ENDBRANCH  20  26
TORSDOF 5
