REMARK  2 active torsions:
REMARK  status: ('A' for Active; 'I' for Inactive)
REMARK    1  A    between atoms: C3_3  and  C5_5 
REMARK    2  A    between atoms: C5_5  and  C6_7 
ROOT
HETATM    1  C5  UNL     1      -0.938  -0.209   0.039  1.00  0.00     0.391 C 
HETATM    2  N1  UNL     1      -2.305   0.158   0.367  1.00  0.00     0.628 N 
ENDROOT
BRANCH   1   3
HETATM    3  C3  UNL     1      -0.381   0.713  -1.049  1.00  0.00     0.070 A 
HETATM    4  C2  UNL     1       0.730  -0.166  -0.936  1.00  0.00    -0.041 A 
HETATM    5  C1  UNL     1       1.168  -1.449  -0.904  1.00  0.00    -0.009 C 
HETATM    6  C4  UNL     1       1.256   1.129  -0.902  1.00  0.00     0.029 A 
ENDBRANCH   1   3
BRANCH   1   7
HETATM    7  C6  UNL     1      -0.088  -0.209   1.281  1.00  0.00     0.224 C 
HETATM    8  O1  UNL     1       0.352  -1.240   1.732  1.00  0.00    -0.646 OA
HETATM    9  O2  UNL     1       0.129   0.986   1.818  1.00  0.00    -0.646 OA
ENDBRANCH   1   7
TORSDOF 2
