REMARK  2 active torsions:
REMARK  status: ('A' for Active; 'I' for Inactive)
REMARK    1  A    between atoms: C7_8  and  C10_13 
REMARK    2  A    between atoms: C14_17  and  O4_19 
ROOT
HETATM    1  C1  UNL     1      -4.410  -0.842   0.815  1.00  0.00     0.135 A 
HETATM    2  C2  UNL     1      -4.254  -2.145   1.344  1.00  0.00     0.055 A 
HETATM    3  C3  UNL     1      -2.961  -2.684   1.537  1.00  0.00     0.138 A 
HETATM    4  C4  UNL     1      -1.820  -1.910   1.199  1.00  0.00     0.089 A 
HETATM    5  C5  UNL     1      -1.975  -0.603   0.670  1.00  0.00     0.107 A 
HETATM    6  C6  UNL     1      -3.272  -0.072   0.477  1.00  0.00     0.052 A 
HETATM    7  O1  UNL     1      -0.889   0.131   0.348  1.00  0.00    -0.305 OA
HETATM    8  C7  UNL     1       0.381  -0.301   0.502  1.00  0.00     0.128 A 
HETATM    9  C8  UNL     1       0.660  -1.533   0.996  1.00  0.00     0.192 A 
HETATM   10  C9  UNL     1      -0.443  -2.443   1.387  1.00  0.00     0.227 A 
HETATM   11  O2  UNL     1      -0.135  -3.529   1.820  1.00  0.00    -0.284 OA
HETATM   12  O3  UNL     1       1.920  -1.949   1.143  1.00  0.00    -0.185 OA
HETATM   13  O6  UNL     1      -2.832  -3.920   2.041  1.00  0.00    -0.190 OA
HETATM   14  O7  UNL     1      -5.637  -0.334   0.631  1.00  0.00    -0.190 OA
ENDROOT
BRANCH   8  15
HETATM   15  C10 UNL     1       1.504   0.607   0.113  1.00  0.00     0.027 A 
HETATM   16  C11 UNL     1       2.574   0.826   1.000  1.00  0.00     0.004 A 
HETATM   17  C12 UNL     1       3.627   1.678   0.633  1.00  0.00     0.029 A 
HETATM   18  C13 UNL     1       3.619   2.316  -0.621  1.00  0.00     0.153 A 
HETATM   19  C14 UNL     1       2.549   2.098  -1.510  1.00  0.00     0.119 A 
HETATM   20  O5  UNL     1       4.611   3.113  -0.959  1.00  0.00    -0.188 OA
HETATM   21  C15 UNL     1       1.494   1.244  -1.141  1.00  0.00     0.028 A 
BRANCH  19  22
HETATM   22  O4  UNL     1       2.533   2.692  -2.687  1.00  0.00    -0.326 OA
HETATM   23  C16 UNL     1       1.496   2.344  -3.594  1.00  0.00     0.181 C 
ENDBRANCH  19  22
ENDBRANCH   8  15
TORSDOF 2
