REMARK  0 active torsions:
REMARK  status: ('A' for Active; 'I' for Inactive)
ROOT
HETATM    1  C1  UNL     1       0.852   0.809  -0.467  1.00  0.00     0.042 C 
HETATM    2  C2  UNL     1      -0.058  -0.394  -0.549  1.00  0.00     0.091 C 
HETATM    3  C3  UNL     1       0.365  -1.732   0.018  1.00  0.00     0.238 C 
HETATM    4  O1  UNL     1       1.647  -1.975  -0.523  1.00  0.00    -0.331 OA
HETATM    5  C4  UNL     1       2.629  -1.016  -0.092  1.00  0.00     0.145 C 
HETATM    6  C5  UNL     1       2.026   0.342   0.414  1.00  0.00     0.035 C 
HETATM    7  O2  UNL     1      -0.787  -2.475  -0.334  1.00  0.00    -0.328 OA
HETATM    8  C6  UNL     1      -1.933  -1.607  -0.314  1.00  0.00     0.177 C 
HETATM    9  C7  UNL     1      -1.406  -0.219   0.145  1.00  0.00     0.175 C 
HETATM   10  C8  UNL     1      -1.625   1.238  -0.309  1.00  0.00     0.141 C 
HETATM   11  C9  UNL     1      -0.209   1.889  -0.146  1.00  0.00     0.170 C 
HETATM   12  O3  UNL     1      -0.027   2.371   1.170  1.00  0.00    -0.222 OA
HETATM   13 CL1  UNL     1      -2.232   1.365  -1.992  1.00  0.00    -0.110 Cl
HETATM   14  O4  UNL     1      -1.346  -0.209   1.570  1.00  0.00    -0.222 OA
ENDROOT
TORSDOF 0
