REMARK  17 active torsions:
REMARK  status: ('A' for Active; 'I' for Inactive)
REMARK    1  A    between atoms: C2_2  and  O15_46 
REMARK    2  A    between atoms: C3_3  and  O14_44 
REMARK    3  A    between atoms: C4_4  and  O13_42 
REMARK    4  A    between atoms: C5_5  and  O3_11 
REMARK    5  A    between atoms: C6_6  and  C7_7 
REMARK    6  A    between atoms: C7_7  and  O2_9 
REMARK    7  A    between atoms: O3_11  and  C9_12 
REMARK    8  A    between atoms: C10_13  and  O12_40 
REMARK    9  A    between atoms: C11_14  and  O11_38 
REMARK   10  A    between atoms: C12_15  and  C17_22 
REMARK   11  A    between atoms: C13_16  and  C15_18 
REMARK   12  A    between atoms: C15_18  and  O5_20 
REMARK   13  A    between atoms: C18_23  and  O10_36 
REMARK   14  A    between atoms: C19_24  and  O9_34 
REMARK   15  A    between atoms: C20_25  and  O8_32 
REMARK   16  A    between atoms: C22_27  and  C23_28 
REMARK   17  A    between atoms: C23_28  and  O7_30 
ROOT
HETATM    1  C9  UNL     1       0.518   0.506  -1.389  1.00  0.00     0.124 A 
HETATM    2  C10 UNL     1      -0.600   1.342  -1.555  1.00  0.00     0.139 A 
HETATM    3  C11 UNL     1      -1.484   1.561  -0.482  1.00  0.00     0.118 A 
HETATM    4  C12 UNL     1      -1.252   0.939   0.764  1.00  0.00     0.032 A 
HETATM    5  C13 UNL     1      -0.127   0.100   0.928  1.00  0.00     0.067 A 
HETATM    6  C14 UNL     1       0.750  -0.111  -0.149  1.00  0.00     0.032 A 
ENDROOT
BRANCH   1   7
HETATM    7  O3  UNL     1       1.348   0.299  -2.391  1.00  0.00    -0.303 OA
BRANCH   7   8
HETATM    8  C5  UNL     1       2.055  -0.815  -2.391  1.00  0.00     0.129 A 
HETATM    9  C4  UNL     1       1.398  -2.059  -2.391  1.00  0.00     0.141 A 
HETATM   10  C3  UNL     1       2.147  -3.252  -2.391  1.00  0.00     0.140 A 
HETATM   11  C2  UNL     1       3.553  -3.201  -2.391  1.00  0.00     0.118 A 
HETATM   12  C1  UNL     1       4.207  -1.957  -2.391  1.00  0.00     0.034 A 
HETATM   13  C6  UNL     1       3.463  -0.764  -2.391  1.00  0.00     0.090 A 
BRANCH   9  14
HETATM   14  O13 UNL     1       0.080  -2.108  -2.391  1.00  0.00    -0.324 OA
HETATM   15  C30 UNL     1      -0.553  -2.994  -3.303  1.00  0.00     0.182 C 
ENDBRANCH   9  14
BRANCH  10  16
HETATM   16  O14 UNL     1       1.529  -4.416  -2.391  1.00  0.00    -0.324 OA
HETATM   17  C31 UNL     1       2.133  -5.490  -3.096  1.00  0.00     0.182 C 
ENDBRANCH  10  16
BRANCH  11  18
HETATM   18  O15 UNL     1       4.256  -4.315  -2.391  1.00  0.00    -0.326 OA
HETATM   19  C32 UNL     1       5.672  -4.207  -2.391  1.00  0.00     0.181 C 
ENDBRANCH  11  18
BRANCH  13  20
HETATM   20  C7  UNL     1       4.174   0.551  -2.391  1.00  0.00     0.298 C 
HETATM   21  O1  UNL     1       5.369   0.611  -2.561  1.00  0.00    -0.259 OA
BRANCH  20  22
HETATM   22  O2  UNL     1       3.398   1.613  -2.195  1.00  0.00    -0.296 OA
HETATM   23  C8  UNL     1       4.133   2.828  -2.205  1.00  0.00     0.185 C 
ENDBRANCH  20  22
ENDBRANCH  13  20
ENDBRANCH   7   8
ENDBRANCH   1   7
BRANCH   2  24
HETATM   24  O12 UNL     1      -0.818   1.922  -2.719  1.00  0.00    -0.324 OA
HETATM   25  C29 UNL     1       0.289   2.494  -3.397  1.00  0.00     0.182 C 
ENDBRANCH   2  24
BRANCH   3  26
HETATM   26  O11 UNL     1      -2.529   2.350  -0.658  1.00  0.00    -0.326 OA
HETATM   27  C28 UNL     1      -3.328   2.148  -1.815  1.00  0.00     0.181 C 
ENDBRANCH   3  26
BRANCH   5  28
HETATM   28  C15 UNL     1       0.154  -0.576   2.234  1.00  0.00     0.296 C 
HETATM   29  O4  UNL     1      -0.457  -0.279   3.232  1.00  0.00    -0.259 OA
BRANCH  28  30
HETATM   30  O5  UNL     1       1.107  -1.504   2.199  1.00  0.00    -0.296 OA
HETATM   31  C16 UNL     1       1.318  -2.111   3.465  1.00  0.00     0.185 C 
ENDBRANCH  28  30
ENDBRANCH   5  28
BRANCH   4  32
HETATM   32  C17 UNL     1      -2.174   1.170   1.873  1.00  0.00     0.032 A 
HETATM   33  C18 UNL     1      -2.250   2.449   2.467  1.00  0.00     0.118 A 
HETATM   34  C19 UNL     1      -3.137   2.676   3.535  1.00  0.00     0.138 A 
HETATM   35  C20 UNL     1      -3.947   1.633   4.016  1.00  0.00     0.118 A 
HETATM   36  C21 UNL     1      -3.871   0.361   3.424  1.00  0.00     0.032 A 
HETATM   37  C22 UNL     1      -2.990   0.123   2.355  1.00  0.00     0.067 A 
BRANCH  33  38
HETATM   38  O10 UNL     1      -1.496   3.441   2.031  1.00  0.00    -0.326 OA
HETATM   39  C27 UNL     1      -0.111   3.418   2.350  1.00  0.00     0.181 C 
ENDBRANCH  33  38
BRANCH  34  40
HETATM   40  O9  UNL     1      -3.207   3.871   4.090  1.00  0.00    -0.324 OA
HETATM   41  C26 UNL     1      -3.223   5.004   3.232  1.00  0.00     0.182 C 
ENDBRANCH  34  40
BRANCH  35  42
HETATM   42  O8  UNL     1      -4.777   1.846   5.016  1.00  0.00    -0.326 OA
HETATM   43  C25 UNL     1      -4.311   2.605   6.121  1.00  0.00     0.181 C 
ENDBRANCH  35  42
BRANCH  37  44
HETATM   44  C23 UNL     1      -2.938  -1.246   1.754  1.00  0.00     0.296 C 
HETATM   45  O6  UNL     1      -3.352  -2.207   2.357  1.00  0.00    -0.259 OA
BRANCH  44  46
HETATM   46  O7  UNL     1      -2.412  -1.309   0.533  1.00  0.00    -0.296 OA
HETATM   47  C24 UNL     1      -2.516  -2.606  -0.035  1.00  0.00     0.185 C 
ENDBRANCH  44  46
ENDBRANCH  37  44
ENDBRANCH   4  32
TORSDOF 17
