REMARK  7 active torsions:
REMARK  status: ('A' for Active; 'I' for Inactive)
REMARK    1  A    between atoms: C6_6  and  O1_7 
REMARK    2  A    between atoms: O1_7  and  C7_8 
REMARK    3  A    between atoms: C7_8  and  C8_9 
REMARK    4  A    between atoms: C15_18  and  C19_23 
REMARK    5  A    between atoms: C19_23  and  O5_24 
REMARK    6  A    between atoms: O5_24  and  C20_25 
REMARK    7  A    between atoms: C23_28  and  O8_36 
ROOT
HETATM    1  C1  UNL     1      -4.951  -0.189   1.930  1.00  0.00     0.047 A 
HETATM    2  C2  UNL     1      -4.510  -1.480   1.885  1.00  0.00     0.104 A 
HETATM    3  C3  UNL     1      -3.168  -1.842   2.107  1.00  0.00     0.049 A 
HETATM    4  C4  UNL     1      -2.254  -0.797   2.391  1.00  0.00     0.103 A 
HETATM    5  C5  UNL     1      -2.711   0.557   2.449  1.00  0.00     0.045 A 
HETATM    6  C6  UNL     1      -4.082   0.895   2.211  1.00  0.00     0.098 A 
HETATM    7  C12 UNL     1      -1.721   1.615   2.777  1.00  0.00     0.007 C 
HETATM    8  C13 UNL     1      -0.414   1.309   2.891  1.00  0.00     0.061 C 
HETATM    9  C14 UNL     1       0.072  -0.099   2.607  1.00  0.00     0.322 C 
HETATM   10  O2  UNL     1      -0.959  -1.105   2.619  1.00  0.00    -0.284 OA
HETATM   11  O3  UNL     1       0.764  -0.139   1.381  1.00  0.00    -0.307 OA
HETATM   12  C15 UNL     1       1.639  -1.246   1.367  1.00  0.00     0.175 C 
HETATM   13  C16 UNL     1       1.947  -1.441   2.865  1.00  0.00     0.125 C 
HETATM   14  O4  UNL     1       1.113  -0.476   3.481  1.00  0.00    -0.312 OA
HETATM   15  C17 UNL     1       3.383  -1.135   3.277  1.00  0.00     0.033 C 
HETATM   16  C18 UNL     1       1.506  -2.822   3.340  1.00  0.00     0.033 C 
HETATM   17  O10 UNL     1      -5.557  -2.340   1.596  1.00  0.00    -0.305 OA
HETATM   18  C32 UNL     1      -6.676  -1.469   1.467  1.00  0.00     0.123 A 
HETATM   19  C33 UNL     1      -6.279  -0.129   1.678  1.00  0.00     0.031 A 
ENDROOT
BRANCH  12  20
HETATM   20  C19 UNL     1       2.816  -0.926   0.453  1.00  0.00     0.181 C 
BRANCH  20  21
HETATM   21  O5  UNL     1       2.355  -0.787  -0.883  1.00  0.00    -0.324 OA
BRANCH  21  22
HETATM   22  C20 UNL     1       3.182  -1.148  -1.875  1.00  0.00     0.140 A 
HETATM   23  C21 UNL     1       2.939  -2.055  -2.930  1.00  0.00     0.126 A 
HETATM   24  C22 UNL     1       3.850  -2.361  -3.900  1.00  0.00     0.049 A 
HETATM   25  O9  UNL     1       1.766  -2.756  -3.139  1.00  0.00    -0.303 OA
HETATM   26  C23 UNL     1       5.143  -1.785  -3.932  1.00  0.00     0.098 A 
HETATM   27  C30 UNL     1       3.338  -3.258  -4.775  1.00  0.00     0.031 A 
HETATM   28  C24 UNL     1       5.436  -0.861  -2.883  1.00  0.00     0.047 A 
HETATM   29  C25 UNL     1       4.471  -0.545  -1.869  1.00  0.00     0.129 A 
HETATM   30  C28 UNL     1       6.764  -0.189  -2.814  1.00  0.00     0.009 A 
HETATM   31  O6  UNL     1       4.781   0.336  -0.891  1.00  0.00    -0.271 OA
HETATM   32  C26 UNL     1       5.973   0.959  -0.801  1.00  0.00     0.300 A 
HETATM   33  C27 UNL     1       7.012   0.678  -1.814  1.00  0.00     0.069 A 
HETATM   34  O7  UNL     1       6.225   1.744   0.082  1.00  0.00    -0.259 OA
HETATM   35  C31 UNL     1       2.029  -3.516  -4.315  1.00  0.00     0.123 A 
BRANCH  26  36
HETATM   36  O8  UNL     1       6.119  -2.008  -4.826  1.00  0.00    -0.328 OA
HETATM   37  C29 UNL     1       5.742  -2.367  -6.149  1.00  0.00     0.181 C 
ENDBRANCH  26  36
ENDBRANCH  21  22
ENDBRANCH  20  21
ENDBRANCH  12  20
BRANCH   6  38
HETATM   38  O1  UNL     1      -4.397   2.197   2.281  1.00  0.00    -0.326 OA
BRANCH  38  39
HETATM   39  C7  UNL     1      -5.440   2.678   1.445  1.00  0.00     0.174 C 
BRANCH  39  40
HETATM   40  C8  UNL     1      -5.162   4.110   1.068  1.00  0.00    -0.002 C 
HETATM   41  C9  UNL     1      -5.910   4.676   0.107  1.00  0.00    -0.045 C 
HETATM   42  C10 UNL     1      -5.748   6.080  -0.404  1.00  0.00     0.026 C 
HETATM   43  C11 UNL     1      -7.008   3.860  -0.521  1.00  0.00     0.026 C 
ENDBRANCH  39  40
ENDBRANCH  38  39
ENDBRANCH   6  38
TORSDOF 7
