REMARK  0 active torsions:
REMARK  status: ('A' for Active; 'I' for Inactive)
ROOT
HETATM    1  C1  UNL     1      -0.701  -1.385   0.957  1.00  0.00     0.004 A 
HETATM    2  C2  UNL     1      -1.709  -0.328   0.535  1.00  0.00     0.021 A 
HETATM    3  C3  UNL     1      -1.170   0.730  -0.412  1.00  0.00    -0.035 C 
HETATM    4  C4  UNL     1      -0.684   1.842   0.188  1.00  0.00    -0.048 C 
HETATM    5  C5  UNL     1       0.141   2.869  -0.553  1.00  0.00     0.026 C 
HETATM    6  C6  UNL     1       1.637   2.697  -0.226  1.00  0.00     0.029 C 
HETATM    7  C7  UNL     1       2.330   1.553  -0.941  1.00  0.00    -0.034 C 
HETATM    8  C8  UNL     1       2.369   0.262  -0.543  1.00  0.00    -0.048 C 
HETATM    9  C9  UNL     1       1.672  -0.309   0.682  1.00  0.00     0.022 C 
HETATM   10  C10 UNL     1       0.701  -1.463   0.324  1.00  0.00     0.004 C 
HETATM   11  C11 UNL     1       3.164  -0.719  -1.369  1.00  0.00     0.026 C 
HETATM   12  C12 UNL     1      -0.904   2.117   1.656  1.00  0.00     0.026 C 
HETATM   13  C13 UNL     1      -1.918  -1.776   0.125  1.00  0.00     0.004 A 
HETATM   14  C14 UNL     1      -1.762  -2.127  -1.353  1.00  0.00     0.000 C 
HETATM   15  C15 UNL     1      -3.016  -2.555   0.836  1.00  0.00     0.000 C 
ENDROOT
TORSDOF 0
