REMARK  0 active torsions:
REMARK  status: ('A' for Active; 'I' for Inactive)
ROOT
HETATM    1  C1  UNL     1       2.067  -0.734   0.000  1.00  0.00     0.055 A 
HETATM    2  C2  UNL     1       2.166   0.676  -0.043  1.00  0.00     0.133 A 
HETATM    3  C3  UNL     1       0.998   1.473  -0.055  1.00  0.00     0.028 A 
HETATM    4  C4  UNL     1      -0.279   0.856  -0.024  1.00  0.00     0.004 A 
HETATM    5  C5  UNL     1      -0.383  -0.570   0.021  1.00  0.00     0.025 A 
HETATM    6  C6  UNL     1       0.799  -1.361   0.033  1.00  0.00     0.133 A 
HETATM    7  O1  UNL     1       0.736  -2.701   0.074  1.00  0.00    -0.190 OA
HETATM    8  C7  UNL     1      -1.664  -1.180   0.057  1.00  0.00     0.002 A 
HETATM    9  C8  UNL     1      -2.828  -0.377   0.043  1.00  0.00     0.000 A 
HETATM   10  C9  UNL     1      -2.723   1.033  -0.004  1.00  0.00     0.000 A 
HETATM   11  C10 UNL     1      -1.453   1.652  -0.037  1.00  0.00     0.000 A 
HETATM   12  O2  UNL     1       3.373   1.258  -0.072  1.00  0.00    -0.190 OA
ENDROOT
TORSDOF 0
