REMARK  9 active torsions:
REMARK  status: ('A' for Active; 'I' for Inactive)
REMARK    1  A    between atoms: C2_2  and  O4_31 
REMARK    2  A    between atoms: O4_31  and  C28_32 
REMARK    3  A    between atoms: C29_34  and  C46_63 
REMARK    4  A    between atoms: C31_36  and  O12_52 
REMARK    5  A    between atoms: C32_37  and  O6_38 
REMARK    6  A    between atoms: O6_38  and  C33_39 
REMARK    7  A    between atoms: C34_40  and  O10_48 
REMARK    8  A    between atoms: O10_48  and  C39_49 
REMARK    9  A    between atoms: O12_52  and  C41_53 
ROOT
HETATM    1  C28 UNL     1      -3.451   0.900  -0.748  1.00  0.00     0.266 C 
HETATM    2  O5  UNL     1      -3.940   2.191  -0.414  1.00  0.00    -0.326 OA
HETATM    3  C29 UNL     1      -4.340   2.988  -1.520  1.00  0.00     0.184 C 
HETATM    4  C30 UNL     1      -5.504   2.291  -2.258  1.00  0.00     0.211 C 
HETATM    5  C31 UNL     1      -5.125   0.852  -2.674  1.00  0.00     0.183 C 
HETATM    6  C32 UNL     1      -4.563   0.084  -1.457  1.00  0.00     0.204 C 
HETATM    7  O17 UNL     1      -5.832   3.051  -3.408  1.00  0.00    -0.218 OA
ENDROOT
BRANCH   1   8
HETATM    8  O4  UNL     1      -3.045   0.254   0.441  1.00  0.00    -0.331 OA
BRANCH   8   9
HETATM    9  C2  UNL     1      -1.662   0.385   0.701  1.00  0.00     0.122 C 
HETATM   10  C1  UNL     1      -1.268  -0.553   1.861  1.00  0.00     0.030 C 
HETATM   11  C6  UNL     1       0.203  -0.353   2.281  1.00  0.00     0.006 C 
HETATM   12  C5  UNL     1       0.529   1.119   2.625  1.00  0.00     0.015 C 
HETATM   13  C4  UNL     1       0.117   1.955   1.414  1.00  0.00    -0.047 C 
HETATM   14  C7  UNL     1       2.025   1.332   2.981  1.00  0.00     0.004 C 
HETATM   15  C27 UNL     1      -0.318   1.553   3.830  1.00  0.00     0.004 C 
HETATM   16  C3  UNL     1      -1.336   1.857   1.008  1.00  0.00     0.051 C 
HETATM   17  C10 UNL     1       0.982   2.713   0.697  1.00  0.00    -0.035 C 
HETATM   18  C9  UNL     1       2.471   2.727   0.977  1.00  0.00     0.025 C 
HETATM   19  C8  UNL     1       2.885   1.441   1.707  1.00  0.00     0.005 C 
HETATM   20  C11 UNL     1       4.381   1.252   2.029  1.00  0.00     0.005 C 
HETATM   21  C12 UNL     1       4.803   1.635   3.459  1.00  0.00     0.028 C 
HETATM   22  C17 UNL     1       5.387   2.002   1.154  1.00  0.00     0.032 C 
HETATM   23  C13 UNL     1       4.025   0.775   4.486  1.00  0.00     0.003 C 
HETATM   24  C15 UNL     1       6.340   1.406   3.367  1.00  0.00     0.156 C 
HETATM   25  C26 UNL     1       4.479   3.127   3.658  1.00  0.00     0.003 C 
HETATM   26  C14 UNL     1       2.627   0.336   3.990  1.00  0.00     0.000 C 
HETATM   27  C16 UNL     1       6.697   1.736   1.897  1.00  0.00     0.146 C 
HETATM   28  C19 UNL     1       6.859  -0.051   3.531  1.00  0.00     0.082 C 
HETATM   29  O3  UNL     1       7.047   2.272   4.242  1.00  0.00    -0.223 OA
HETATM   30  O1  UNL     1       7.291   0.561   1.383  1.00  0.00    -0.335 OA
HETATM   31  C18 UNL     1       7.900  -0.187   2.410  1.00  0.00     0.189 C 
HETATM   32  C21 UNL     1       8.092  -1.648   1.967  1.00  0.00     0.057 C 
HETATM   33  O2  UNL     1       9.156   0.371   2.809  1.00  0.00    -0.335 OA
HETATM   34  C22 UNL     1       9.166  -1.752   0.873  1.00  0.00     0.007 C 
HETATM   35  C23 UNL     1      10.459  -1.051   1.318  1.00  0.00     0.030 C 
HETATM   36  C24 UNL     1      10.168   0.381   1.805  1.00  0.00     0.145 C 
HETATM   37  C25 UNL     1      11.506  -1.055   0.201  1.00  0.00     0.003 C 
HETATM   38  C20 UNL     1       7.361  -0.455   4.922  1.00  0.00     0.008 C 
ENDBRANCH   8   9
ENDBRANCH   1   8
BRANCH   6  39
HETATM   39  O6  UNL     1      -4.029  -1.158  -1.891  1.00  0.00    -0.324 OA
BRANCH  39  40
HETATM   40  C33 UNL     1      -3.969  -2.127  -0.863  1.00  0.00     0.267 C 
HETATM   41  C34 UNL     1      -4.865  -3.336  -1.215  1.00  0.00     0.213 C 
HETATM   42  C35 UNL     1      -4.256  -4.178  -2.354  1.00  0.00     0.217 C 
HETATM   43  C36 UNL     1      -2.791  -4.529  -2.020  1.00  0.00     0.212 C 
HETATM   44  O9  UNL     1      -5.027  -5.352  -2.539  1.00  0.00    -0.218 OA
HETATM   45  C37 UNL     1      -1.982  -3.262  -1.656  1.00  0.00     0.151 C 
HETATM   46  O8  UNL     1      -2.182  -5.154  -3.135  1.00  0.00    -0.218 OA
HETATM   47  O7  UNL     1      -2.633  -2.557  -0.600  1.00  0.00    -0.329 OA
HETATM   48  C38 UNL     1      -0.568  -3.580  -1.164  1.00  0.00     0.035 C 
BRANCH  41  49
HETATM   49  O10 UNL     1      -5.010  -4.139  -0.049  1.00  0.00    -0.296 OA
BRANCH  49  50
HETATM   50  C39 UNL     1      -5.834  -3.596   0.842  1.00  0.00     0.273 C 
HETATM   51  O11 UNL     1      -6.475  -2.590   0.639  1.00  0.00    -0.264 OA
HETATM   52  C40 UNL     1      -5.928  -4.322   2.156  1.00  0.00     0.106 C 
ENDBRANCH  49  50
ENDBRANCH  41  49
ENDBRANCH  39  40
ENDBRANCH   6  39
BRANCH   3  53
HETATM   53  C46 UNL     1      -4.727   4.359  -0.955  1.00  0.00     0.214 C 
HETATM   54  O18 UNL     1      -3.574   4.947  -0.396  1.00  0.00    -0.218 OA
ENDBRANCH   3  53
BRANCH   5  55
HETATM   55  O12 UNL     1      -6.268   0.182  -3.180  1.00  0.00    -0.326 OA
BRANCH  55  56
HETATM   56  C41 UNL     1      -6.555   0.506  -4.525  1.00  0.00     0.270 C 
HETATM   57  O13 UNL     1      -7.779   1.227  -4.563  1.00  0.00    -0.326 OA
HETATM   58  C42 UNL     1      -8.176   1.662  -5.856  1.00  0.00     0.181 C 
HETATM   59  C43 UNL     1      -8.399   0.441  -6.768  1.00  0.00     0.215 C 
HETATM   60  C44 UNL     1      -7.145  -0.459  -6.818  1.00  0.00     0.220 C 
HETATM   61  O16 UNL     1      -8.721   0.908  -8.065  1.00  0.00    -0.218 OA
HETATM   62  C45 UNL     1      -6.678  -0.783  -5.381  1.00  0.00     0.241 C 
HETATM   63  O15 UNL     1      -7.443  -1.660  -7.512  1.00  0.00    -0.218 OA
HETATM   64  O14 UNL     1      -5.418  -1.436  -5.432  1.00  0.00    -0.215 OA
ENDBRANCH  55  56
ENDBRANCH   5  55
TORSDOF 9
