REMARK  6 active torsions:
REMARK  status: ('A' for Active; 'I' for Inactive)
REMARK    1  A    between atoms: C2_2  and  O2_4 
REMARK    2  A    between atoms: O2_4  and  C3_5 
REMARK    3  A    between atoms: C3_5  and  C4_6 
REMARK    4  A    between atoms: C9_11  and  O6_18 
REMARK    5  A    between atoms: O6_18  and  C13_19 
REMARK    6  A    between atoms: C17_23  and  C18_25 
ROOT
HETATM    1  C4  UNL     1      -2.437   1.383  -0.930  1.00  0.00    -0.011 C 
HETATM    2  C5  UNL     1      -3.775   1.340  -1.031  1.00  0.00    -0.002 C 
HETATM    3  C6  UNL     1      -4.221   0.361  -2.084  1.00  0.00     0.151 C 
HETATM    4  C7  UNL     1      -2.916  -0.375  -2.418  1.00  0.00     0.070 C 
HETATM    5  C8  UNL     1      -1.734   0.433  -1.873  1.00  0.00     0.084 C 
HETATM    6  C9  UNL     1      -0.668  -0.483  -1.197  1.00  0.00     0.246 C 
HETATM    7  O3  UNL     1      -0.838  -1.887  -1.484  1.00  0.00    -0.303 OA
HETATM    8  C10 UNL     1      -2.072  -2.371  -1.273  1.00  0.00     0.120 C 
HETATM    9  C11 UNL     1      -3.121  -1.610  -1.619  1.00  0.00     0.068 C 
HETATM   10  C12 UNL     1      -4.529  -1.746  -1.299  1.00  0.00     0.294 C 
HETATM   11  O4  UNL     1      -5.027  -2.742  -0.830  1.00  0.00    -0.259 OA
HETATM   12  O5  UNL     1      -5.168  -0.608  -1.594  1.00  0.00    -0.296 OA
ENDROOT
BRANCH   6  13
HETATM   13  O6  UNL     1       0.629  -0.082  -1.588  1.00  0.00    -0.304 OA
BRANCH  13  14
HETATM   14  C13 UNL     1       1.654  -0.795  -0.926  1.00  0.00     0.272 C 
HETATM   15  C14 UNL     1       3.031  -0.496  -1.574  1.00  0.00     0.241 C 
HETATM   16  C15 UNL     1       4.178  -1.143  -0.766  1.00  0.00     0.220 C 
HETATM   17  O11 UNL     1       3.045  -1.002  -2.899  1.00  0.00    -0.215 OA
HETATM   18  C16 UNL     1       4.043  -0.776   0.728  1.00  0.00     0.215 C 
HETATM   19  O10 UNL     1       5.428  -0.690  -1.260  1.00  0.00    -0.218 OA
HETATM   20  C17 UNL     1       2.619  -1.070   1.254  1.00  0.00     0.184 C 
HETATM   21  O9  UNL     1       4.973  -1.524   1.492  1.00  0.00    -0.218 OA
HETATM   22  O7  UNL     1       1.668  -0.397   0.439  1.00  0.00    -0.326 OA
BRANCH  20  23
HETATM   23  C18 UNL     1       2.397  -0.578   2.688  1.00  0.00     0.214 C 
HETATM   24  O8  UNL     1       1.139  -1.043   3.123  1.00  0.00    -0.218 OA
ENDBRANCH  20  23
ENDBRANCH  13  14
ENDBRANCH   6  13
BRANCH   1  25
HETATM   25  C3  UNL     1      -1.689   2.275   0.025  1.00  0.00     0.174 C 
BRANCH  25  26
HETATM   26  O2  UNL     1      -2.260   2.166   1.320  1.00  0.00    -0.297 OA
BRANCH  26  27
HETATM   27  C2  UNL     1      -1.641   2.933   2.213  1.00  0.00     0.273 C 
HETATM   28  C1  UNL     1      -2.197   2.867   3.609  1.00  0.00     0.106 C 
HETATM   29  O1  UNL     1      -0.699   3.644   1.951  1.00  0.00    -0.264 OA
ENDBRANCH  26  27
ENDBRANCH  25  26
ENDBRANCH   1  25
TORSDOF 6
