REMARK  12 active torsions:
REMARK  status: ('A' for Active; 'I' for Inactive)
REMARK    1  A    between atoms: C1_1  and  O12_45 
REMARK    2  A    between atoms: C3_3  and  O1_7 
REMARK    3  A    between atoms: O1_7  and  C7_8 
REMARK    4  A    between atoms: C9_11  and  O10_41 
REMARK    5  A    between atoms: C11_13  and  O8_36 
REMARK    6  A    between atoms: C13_15  and  O5_26 
REMARK    7  A    between atoms: O5_26  and  O6_27 
REMARK    8  A    between atoms: O6_27  and  C22_28 
REMARK    9  A    between atoms: C22_28  and  C23_29 
REMARK   10  A    between atoms: O8_36  and  C28_37 
REMARK   11  A    between atoms: O10_41  and  C31_42 
REMARK   12  A    between atoms: O12_45  and  C33_46 
ROOT
HETATM    1  C1  UNL     1       1.154   2.285  -0.680  1.00  0.00     0.157 C 
HETATM    2  C2  UNL     1       0.869   0.873  -0.127  1.00  0.00     0.092 C 
HETATM    3  C3  UNL     1       2.031   0.623   0.844  1.00  0.00     0.130 C 
HETATM    4  C4  UNL     1       2.160   1.975   1.535  1.00  0.00     0.031 C 
HETATM    5  C5  UNL     1       2.090   2.941   0.354  1.00  0.00     0.038 C 
HETATM    6  C6  UNL     1       3.449   2.117   2.338  1.00  0.00     0.003 C 
HETATM    7  C9  UNL     1       0.629  -0.189  -1.223  1.00  0.00     0.150 C 
HETATM    8  C10 UNL     1      -0.006  -1.479  -0.732  1.00  0.00     0.011 C 
HETATM    9  C11 UNL     1      -1.287  -2.000  -1.361  1.00  0.00     0.147 C 
HETATM   10  C12 UNL     1      -2.449  -2.270  -0.383  1.00  0.00     0.068 C 
HETATM   11  C13 UNL     1      -3.006  -1.109   0.484  1.00  0.00     0.158 C 
HETATM   12  C14 UNL     1      -3.650   0.119  -0.230  1.00  0.00     0.056 C 
HETATM   13  C15 UNL     1      -2.596   1.182  -0.645  1.00  0.00     0.145 A 
HETATM   14  C16 UNL     1      -2.283   2.424   0.271  1.00  0.00     0.149 A 
HETATM   15  C17 UNL     1      -1.144   3.432   0.035  1.00  0.00     0.090 C 
HETATM   16  C18 UNL     1      -0.113   3.063  -1.023  1.00  0.00     0.177 C 
HETATM   17  O3  UNL     1      -0.318   3.404  -2.166  1.00  0.00    -0.293 OA
HETATM   18  C19 UNL     1      -0.578   3.691   1.434  1.00  0.00     0.011 C 
HETATM   19  O4  UNL     1      -3.154   2.447  -0.818  1.00  0.00    -0.354 OA
HETATM   20  C20 UNL     1      -4.713   0.723   0.709  1.00  0.00     0.005 C 
HETATM   21  C21 UNL     1      -4.352  -0.293  -1.529  1.00  0.00     0.005 C 
HETATM   22  C30 UNL     1       0.576  -2.182   0.256  1.00  0.00    -0.004 C 
ENDROOT
BRANCH  11  23
HETATM   23  O5  UNL     1      -2.035  -0.688   1.424  1.00  0.00    -0.215 OA
BRANCH  23  24
HETATM   24  O6  UNL     1      -1.842  -1.801   2.275  1.00  0.00    -0.152 OA
BRANCH  24  25
HETATM   25  C22 UNL     1      -0.988  -1.486   3.246  1.00  0.00     0.325 C 
HETATM   26  O7  UNL     1      -0.469  -0.402   3.363  1.00  0.00    -0.257 OA
BRANCH  25  27
HETATM   27  C23 UNL     1      -0.697  -2.586   4.217  1.00  0.00     0.085 A 
HETATM   28  C24 UNL     1      -1.309  -3.844   4.070  1.00  0.00     0.009 A 
HETATM   29  C25 UNL     1      -1.014  -4.854   5.002  1.00  0.00     0.021 A 
HETATM   30  C26 UNL     1      -0.117  -4.584   6.055  1.00  0.00     0.099 A 
HETATM   31  N1  UNL     1       0.471  -3.359   6.190  1.00  0.00    -0.242 NA
HETATM   32  C27 UNL     1       0.191  -2.371   5.291  1.00  0.00     0.104 A 
ENDBRANCH  25  27
ENDBRANCH  24  25
ENDBRANCH  23  24
ENDBRANCH  11  23
BRANCH   9  33
HETATM   33  O8  UNL     1      -1.740  -1.176  -2.424  1.00  0.00    -0.300 OA
BRANCH  33  34
HETATM   34  C28 UNL     1      -2.305  -1.879  -3.402  1.00  0.00     0.273 C 
HETATM   35  O9  UNL     1      -2.650  -3.031  -3.291  1.00  0.00    -0.264 OA
HETATM   36  C29 UNL     1      -2.498  -1.133  -4.695  1.00  0.00     0.106 C 
ENDBRANCH  33  34
ENDBRANCH   9  33
BRANCH   7  37
HETATM   37  O10 UNL     1       1.846  -0.518  -1.877  1.00  0.00    -0.300 OA
BRANCH  37  38
HETATM   38  C31 UNL     1       1.645  -1.088  -3.063  1.00  0.00     0.273 C 
HETATM   39  O11 UNL     1       0.557  -1.219  -3.570  1.00  0.00    -0.264 OA
HETATM   40  C32 UNL     1       2.889  -1.574  -3.758  1.00  0.00     0.106 C 
ENDBRANCH  37  38
ENDBRANCH   7  37
BRANCH   1  41
HETATM   41  O12 UNL     1       1.906   2.158  -1.885  1.00  0.00    -0.299 OA
BRANCH  41  42
HETATM   42  C33 UNL     1       2.326   3.332  -2.346  1.00  0.00     0.273 C 
HETATM   43  O13 UNL     1       2.072   4.393  -1.820  1.00  0.00    -0.264 OA
HETATM   44  C34 UNL     1       3.162   3.268  -3.596  1.00  0.00     0.106 C 
ENDBRANCH  41  42
ENDBRANCH   1  41
BRANCH   3  45
HETATM   45  O1  UNL     1       3.231   0.313   0.145  1.00  0.00    -0.304 OA
BRANCH  45  46
HETATM   46  C7  UNL     1       4.057  -0.441   0.863  1.00  0.00     0.272 C 
HETATM   47  O2  UNL     1       3.820  -0.814   1.988  1.00  0.00    -0.264 OA
HETATM   48  C8  UNL     1       5.344  -0.814   0.180  1.00  0.00     0.106 C 
ENDBRANCH  45  46
ENDBRANCH   3  45
TORSDOF 12
