REMARK  1 active torsions:
REMARK  status: ('A' for Active; 'I' for Inactive)
REMARK    1  A    between atoms: C3_3  and  C8_8 
ROOT
HETATM    1  C1  UNL     1      -1.957  -0.654   0.182  1.00  0.00    -0.026 C 
HETATM    2  C2  UNL     1      -0.766  -1.242  -0.047  1.00  0.00    -0.009 C 
HETATM    3  C3  UNL     1       0.484  -0.457  -0.068  1.00  0.00    -0.027 C 
HETATM    4  C4  UNL     1       0.447   0.889  -0.127  1.00  0.00    -0.030 C 
HETATM    5  C5  UNL     1      -0.883   1.604  -0.223  1.00  0.00     0.030 C 
HETATM    6  C6  UNL     1      -2.031   0.832   0.463  1.00  0.00     0.026 C 
HETATM    7  C7  UNL     1      -3.399   1.399   0.068  1.00  0.00     0.005 C 
ENDROOT
BRANCH   3   8
HETATM    8  C8  UNL     1       1.810  -1.172  -0.025  1.00  0.00     0.022 C 
HETATM    9  C9  UNL     1       2.631  -0.803   1.211  1.00  0.00     0.004 C 
HETATM   10  C10 UNL     1       2.600  -1.014  -1.326  1.00  0.00     0.004 C 
ENDBRANCH   3   8
TORSDOF 1
