REMARK  5 active torsions:
REMARK  status: ('A' for Active; 'I' for Inactive)
REMARK    1  A    between atoms: C2_2  and  O10_38 
REMARK    2  A    between atoms: C13_15  and  O4_18 
REMARK    3  A    between atoms: O4_18  and  C15_19 
REMARK    4  A    between atoms: C17_22  and  C20_26 
REMARK    5  A    between atoms: O10_38  and  C29_39 
ROOT
HETATM    1  C1  UNL     1       3.809  -0.734   0.568  1.00  0.00     0.063 C 
HETATM    2  C2  UNL     1       3.984   0.385   1.609  1.00  0.00     0.132 C 
HETATM    3  C3  UNL     1       2.838   0.451   2.660  1.00  0.00     0.081 C 
HETATM    4  C4  UNL     1       1.488   0.603   1.910  1.00  0.00     0.015 C 
HETATM    5  C5  UNL     1       1.221  -0.682   1.074  1.00  0.00     0.063 C 
HETATM    6  C6  UNL     1       2.371  -0.828   0.004  1.00  0.00     0.157 C 
HETATM    7  O1  UNL     1       2.268   0.162  -1.004  1.00  0.00    -0.223 OA
HETATM    8  C7  UNL     1      -0.182  -0.547   0.363  1.00  0.00     0.070 C 
HETATM    9  C8  UNL     1      -1.381  -0.135   1.275  1.00  0.00     0.060 C 
HETATM   10  C9  UNL     1      -1.033   1.135   2.088  1.00  0.00     0.155 C 
HETATM   11  C10 UNL     1       0.301   0.975   2.840  1.00  0.00     0.034 C 
HETATM   12  O2  UNL     1      -0.943   2.269   1.244  1.00  0.00    -0.223 OA
HETATM   13  C11 UNL     1      -2.594   0.123   0.318  1.00  0.00     0.123 A 
HETATM   14  C12 UNL     1      -2.531  -0.135  -1.197  1.00  0.00     0.061 C 
HETATM   15  C13 UNL     1      -1.869  -1.512  -1.371  1.00  0.00     0.183 C 
HETATM   16  C14 UNL     1      -0.592  -1.686  -0.566  1.00  0.00     0.178 C 
HETATM   17  O3  UNL     1       0.059  -2.699  -0.672  1.00  0.00    -0.293 OA
HETATM   18  C17 UNL     1      -3.988   0.045  -1.707  1.00  0.00     0.032 C 
HETATM   19  C18 UNL     1      -4.582   1.166  -0.813  1.00  0.00     0.037 C 
HETATM   20  C19 UNL     1      -3.834   1.045   0.518  1.00  0.00     0.140 A 
HETATM   21  O6  UNL     1      -3.803  -0.281   0.920  1.00  0.00    -0.356 OA
HETATM   22  C24 UNL     1      -1.721   1.002  -1.834  1.00  0.00     0.006 C 
HETATM   23  C25 UNL     1      -1.732  -1.285   2.242  1.00  0.00     0.005 C 
HETATM   24  C26 UNL     1       1.256  -1.904   2.047  1.00  0.00     0.148 C 
HETATM   25  O8  UNL     1       2.467  -1.979   2.785  1.00  0.00    -0.329 OA
HETATM   26  C27 UNL     1       2.775  -0.824   3.555  1.00  0.00     0.271 C 
HETATM   27  O9  UNL     1       4.004  -1.035   4.223  1.00  0.00    -0.190 OA
HETATM   28  C28 UNL     1       3.084   1.680   3.555  1.00  0.00     0.008 C 
ENDROOT
BRANCH  18  29
HETATM   29  C20 UNL     1      -4.107   0.346  -3.186  1.00  0.00     0.004 A 
HETATM   30  C21 UNL     1      -3.893  -0.541  -4.246  1.00  0.00     0.118 A 
HETATM   31  O7  UNL     1      -4.086   0.055  -5.461  1.00  0.00    -0.303 OA
HETATM   32  C22 UNL     1      -4.428   1.340  -5.152  1.00  0.00     0.122 A 
HETATM   33  C23 UNL     1      -4.453   1.562  -3.772  1.00  0.00     0.025 A 
ENDBRANCH  18  29
BRANCH  15  34
HETATM   34  O4  UNL     1      -1.590  -1.731  -2.748  1.00  0.00    -0.297 OA
BRANCH  34  35
HETATM   35  C15 UNL     1      -1.432  -3.020  -3.031  1.00  0.00     0.273 C 
HETATM   36  O5  UNL     1      -1.637  -3.914  -2.244  1.00  0.00    -0.264 OA
HETATM   37  C16 UNL     1      -0.969  -3.315  -4.434  1.00  0.00     0.106 C 
ENDBRANCH  34  35
ENDBRANCH  15  34
BRANCH   2  38
HETATM   38  O10 UNL     1       4.063   1.627   0.922  1.00  0.00    -0.304 OA
BRANCH  38  39
HETATM   39  C29 UNL     1       5.233   1.797   0.312  1.00  0.00     0.272 C 
HETATM   40  O11 UNL     1       6.154   1.021   0.400  1.00  0.00    -0.264 OA
HETATM   41  C30 UNL     1       5.346   3.045  -0.520  1.00  0.00     0.106 C 
ENDBRANCH  38  39
ENDBRANCH   2  38
TORSDOF 5
