REMARK  7 active torsions:
REMARK  status: ('A' for Active; 'I' for Inactive)
REMARK    1  A    between atoms: C5_5  and  C15_21 
REMARK    2  A    between atoms: C6_6  and  C8_8 
REMARK    3  A    between atoms: C8_8  and  O1_9 
REMARK    4  A    between atoms: O1_9  and  C9_10 
REMARK    5  A    between atoms: C13_17  and  C14_19 
REMARK    6  A    between atoms: C15_21  and  C16_22 
REMARK    7  A    between atoms: C16_22  and  C17_23 
ROOT
HETATM    1  C1  UNL     1      -0.602  -0.645   1.904  1.00  0.00     0.072 C 
HETATM    2  C2  UNL     1      -0.105  -0.523   3.328  1.00  0.00     0.172 C 
HETATM    3  C3  UNL     1       1.342  -0.648   3.584  1.00  0.00     0.029 C 
HETATM    4  C4  UNL     1       2.233  -0.861   2.594  1.00  0.00    -0.041 C 
HETATM    5  C5  UNL     1       1.789  -0.971   1.149  1.00  0.00     0.022 C 
HETATM    6  C6  UNL     1       0.336  -1.496   1.025  1.00  0.00     0.038 C 
HETATM    7  C7  UNL     1       0.277  -2.961   1.483  1.00  0.00     0.003 C 
HETATM    8  C19 UNL     1       3.701  -1.000   2.906  1.00  0.00     0.026 C 
HETATM    9  O8  UNL     1      -0.873  -0.336   4.242  1.00  0.00    -0.291 OA
ENDROOT
BRANCH   6  10
HETATM   10  C8  UNL     1      -0.133  -1.445  -0.434  1.00  0.00     0.146 C 
BRANCH  10  11
HETATM   11  O1  UNL     1      -0.580  -0.137  -0.707  1.00  0.00    -0.329 OA
BRANCH  11  12
HETATM   12  C9  UNL     1      -1.008   0.039  -2.047  1.00  0.00     0.270 C 
HETATM   13  C10 UNL     1      -1.346   1.522  -2.361  1.00  0.00     0.241 C 
HETATM   14  O2  UNL     1      -0.246   2.356  -2.037  1.00  0.00    -0.215 OA
HETATM   15  C11 UNL     1      -2.623   1.988  -1.629  1.00  0.00     0.220 C 
HETATM   16  O3  UNL     1      -2.994   3.281  -2.082  1.00  0.00    -0.218 OA
HETATM   17  C12 UNL     1      -3.764   0.986  -1.914  1.00  0.00     0.215 C 
HETATM   18  O4  UNL     1      -4.889   1.297  -1.111  1.00  0.00    -0.218 OA
HETATM   19  C13 UNL     1      -3.332  -0.469  -1.619  1.00  0.00     0.184 C 
HETATM   20  O5  UNL     1      -2.141  -0.777  -2.340  1.00  0.00    -0.326 OA
BRANCH  19  21
HETATM   21  C14 UNL     1      -4.383  -1.498  -2.053  1.00  0.00     0.214 C 
HETATM   22  O6  UNL     1      -3.994  -2.760  -1.557  1.00  0.00    -0.218 OA
ENDBRANCH  19  21
ENDBRANCH  11  12
ENDBRANCH  10  11
ENDBRANCH   6  10
BRANCH   5  23
HETATM   23  C15 UNL     1       1.969   0.393   0.469  1.00  0.00     0.012 C 
BRANCH  23  24
HETATM   24  C16 UNL     1       3.375   0.965   0.658  1.00  0.00     0.065 C 
BRANCH  24  25
HETATM   25  C17 UNL     1       3.621   2.178  -0.197  1.00  0.00     0.151 C 
HETATM   26  C18 UNL     1       5.008   2.764  -0.213  1.00  0.00     0.072 C 
HETATM   27  O7  UNL     1       2.733   2.668  -0.853  1.00  0.00    -0.296 OA
ENDBRANCH  24  25
ENDBRANCH  23  24
ENDBRANCH   5  23
TORSDOF 7
