REMARK  7 active torsions:
REMARK  status: ('A' for Active; 'I' for Inactive)
REMARK    1  A    between atoms: C8_10  and  C42_58 
REMARK    2  A    between atoms: C22_28  and  C23_29 
REMARK    3  A    between atoms: C23_29  and  C24_30 
REMARK    4  A    between atoms: C31_39  and  C38_50 
REMARK    5  A    between atoms: C33_43  and  C34_44 
REMARK    6  A    between atoms: C38_50  and  C40_52 
REMARK    7  A    between atoms: C42_58  and  C43_59 
ROOT
HETATM    1  C1  UNL     1      -6.381   0.570   2.252  1.00  0.00     0.034 C 
HETATM    2  C2  UNL     1      -4.867   0.477   2.014  1.00  0.00     0.165 C 
HETATM    3  N1  UNL     1      -4.506   1.820   1.572  1.00  0.00    -0.312 N 
HETATM    4  C3  UNL     1      -5.580   2.783   1.770  1.00  0.00     0.105 C 
HETATM    5  C4  UNL     1      -6.600   2.043   2.633  1.00  0.00     0.027 C 
HETATM    6  C5  UNL     1      -3.240   2.145   1.021  1.00  0.00     0.259 C 
HETATM    7  C6  UNL     1      -3.039   3.602   0.641  1.00  0.00     0.216 C 
HETATM    8  N2  UNL     1      -1.734   3.871  -0.018  1.00  0.00    -0.226 NA
HETATM    9  C7  UNL     1      -1.084   5.076   0.119  1.00  0.00     0.274 C 
HETATM   10  C8  UNL     1       0.242   5.289  -0.584  1.00  0.00     0.186 C 
HETATM   11  N3  UNL     1       1.373   4.961   0.318  1.00  0.00    -0.229 NA
HETATM   12  C9  UNL     1       2.371   4.076  -0.033  1.00  0.00     0.272 C 
HETATM   13  C10 UNL     1       3.522   3.772   0.916  1.00  0.00     0.165 C 
HETATM   14  N4  UNL     1       3.111   3.375   2.262  1.00  0.00    -0.312 N 
HETATM   15  C11 UNL     1       3.512   4.336   3.277  1.00  0.00     0.105 C 
HETATM   16  C12 UNL     1       3.992   5.559   2.498  1.00  0.00     0.027 C 
HETATM   17  C13 UNL     1       4.445   4.975   1.150  1.00  0.00     0.034 C 
HETATM   18  C14 UNL     1       2.404   2.191   2.598  1.00  0.00     0.254 C 
HETATM   19  C15 UNL     1       2.025   1.242   1.469  1.00  0.00     0.163 C 
HETATM   20  N5  UNL     1       2.398  -0.131   1.768  1.00  0.00    -0.312 N 
HETATM   21  C16 UNL     1       1.254  -0.982   2.045  1.00  0.00     0.105 C 
HETATM   22  C17 UNL     1       0.080  -0.014   2.166  1.00  0.00     0.027 C 
HETATM   23  C18 UNL     1       0.508   1.168   1.277  1.00  0.00     0.034 C 
HETATM   24  C19 UNL     1       3.750  -0.564   1.762  1.00  0.00     0.259 C 
HETATM   25  C20 UNL     1       4.004  -2.027   2.059  1.00  0.00     0.216 C 
HETATM   26  N6  UNL     1       3.717  -2.887   0.885  1.00  0.00    -0.226 NA
HETATM   27  C21 UNL     1       2.904  -3.996   0.955  1.00  0.00     0.275 C 
HETATM   28  C22 UNL     1       2.664  -4.795  -0.316  1.00  0.00     0.191 C 
HETATM   29  N7  UNL     1       1.670  -5.887  -0.143  1.00  0.00    -0.228 NA
HETATM   30  C30 UNL     1       0.305  -5.699  -0.174  1.00  0.00     0.274 C 
HETATM   31  O1  UNL     1      -0.404  -6.670  -0.037  1.00  0.00    -0.268 OA
HETATM   32  C31 UNL     1      -0.307  -4.316  -0.371  1.00  0.00     0.186 C 
HETATM   33  N8  UNL     1      -1.707  -4.227   0.119  1.00  0.00    -0.229 NA
HETATM   34  C32 UNL     1      -2.377  -3.029   0.242  1.00  0.00     0.274 C 
HETATM   35  O2  UNL     1      -1.828  -1.988  -0.041  1.00  0.00    -0.268 OA
HETATM   36  C33 UNL     1      -3.815  -3.053   0.740  1.00  0.00     0.186 C 
HETATM   37  N9  UNL     1      -4.168  -1.875   1.572  1.00  0.00    -0.229 NA
HETATM   38  C37 UNL     1      -4.510  -0.647   1.053  1.00  0.00     0.272 C 
HETATM   39  O3  UNL     1      -4.525  -0.465  -0.145  1.00  0.00    -0.269 OA
HETATM   40  O4  UNL     1       2.396  -4.313   2.008  1.00  0.00    -0.268 OA
HETATM   41  O5  UNL     1       4.652   0.207   1.529  1.00  0.00    -0.270 OA
HETATM   42  O6  UNL     1       2.115   1.955   3.750  1.00  0.00    -0.270 OA
HETATM   43  O7  UNL     1       2.342   3.527  -1.111  1.00  0.00    -0.269 OA
HETATM   44  O8  UNL     1      -1.568   5.961   0.789  1.00  0.00    -0.268 OA
HETATM   45  O9  UNL     1      -2.391   1.297   0.879  1.00  0.00    -0.270 OA
ENDROOT
BRANCH  28  46
HETATM   46  C23 UNL     1       3.977  -5.385  -0.846  1.00  0.00     0.060 C 
BRANCH  46  47
HETATM   47  C24 UNL     1       4.717  -4.406  -1.686  1.00  0.00    -0.020 A 
HETATM   48  C25 UNL     1       5.947  -3.889  -1.244  1.00  0.00    -0.004 A 
HETATM   49  C26 UNL     1       6.647  -2.965  -2.039  1.00  0.00    -0.000 A 
HETATM   50  C27 UNL     1       6.115  -2.555  -3.275  1.00  0.00    -0.000 A 
HETATM   51  C28 UNL     1       4.885  -3.070  -3.715  1.00  0.00    -0.000 A 
HETATM   52  C29 UNL     1       4.186  -3.996  -2.922  1.00  0.00    -0.004 A 
ENDBRANCH  46  47
ENDBRANCH  28  46
BRANCH  32  53
HETATM   53  C38 UNL     1      -0.256  -3.926  -1.854  1.00  0.00     0.032 C 
HETATM   54  C39 UNL     1       0.674  -2.742  -2.121  1.00  0.00     0.003 C 
BRANCH  53  55
HETATM   55  C40 UNL     1       0.029  -5.117  -2.768  1.00  0.00     0.002 C 
HETATM   56  C41 UNL     1      -1.152  -6.086  -2.861  1.00  0.00     0.000 C 
ENDBRANCH  53  55
ENDBRANCH  32  53
BRANCH  36  57
HETATM   57  C34 UNL     1      -4.797  -3.240  -0.422  1.00  0.00     0.032 C 
HETATM   58  C35 UNL     1      -4.572  -4.549  -1.182  1.00  0.00     0.003 C 
HETATM   59  C36 UNL     1      -6.254  -3.047   0.000  1.00  0.00     0.003 C 
ENDBRANCH  36  57
BRANCH  10  60
HETATM   60  C42 UNL     1       0.387   6.733  -1.078  1.00  0.00     0.034 C 
BRANCH  60  61
HETATM   61  C43 UNL     1      -0.654   7.100  -2.135  1.00  0.00     0.002 C 
HETATM   62  C44 UNL     1      -0.629   8.586  -2.498  1.00  0.00     0.000 C 
HETATM   63  C45 UNL     1      -0.594   6.191  -3.363  1.00  0.00     0.000 C 
ENDBRANCH  60  61
ENDBRANCH  10  60
TORSDOF 7
