REMARK  5 active torsions:
REMARK  status: ('A' for Active; 'I' for Inactive)
REMARK    1  A    between atoms: C12_13  and  O7_26 
REMARK    2  A    between atoms: C14_15  and  C17_20 
REMARK    3  A    between atoms: C17_20  and  O5_22 
REMARK    4  A    between atoms: O7_26  and  C20_27 
REMARK    5  A    between atoms: C20_27  and  C21_28 
ROOT
HETATM    1  C1  UNL     1      -4.203   2.678   0.361  1.00  0.00     0.182 C 
HETATM    2  C2  UNL     1      -5.041   1.473   0.846  1.00  0.00     0.182 C 
HETATM    3  C3  UNL     1      -4.281   0.672   1.928  1.00  0.00     0.033 C 
HETATM    4  C4  UNL     1      -2.865   0.264   1.445  1.00  0.00     0.005 C 
HETATM    5  C5  UNL     1      -2.022   1.484   0.982  1.00  0.00     0.005 C 
HETATM    6  C6  UNL     1      -2.797   2.260  -0.109  1.00  0.00     0.036 C 
HETATM    7  C7  UNL     1      -0.650   0.984   0.408  1.00  0.00     0.038 C 
HETATM    8  C8  UNL     1       0.092   0.018   1.381  1.00  0.00     0.061 C 
HETATM    9  C9  UNL     1      -0.799  -1.135   1.891  1.00  0.00     0.127 C 
HETATM   10  C10 UNL     1      -2.090  -0.564   2.492  1.00  0.00     0.030 C 
HETATM   11  O1  UNL     1      -1.184  -2.055   0.855  1.00  0.00    -0.302 OA
HETATM   12  C11 UNL     1      -0.309  -2.410  -0.102  1.00  0.00     0.300 C 
HETATM   13  C12 UNL     1       0.881  -1.545  -0.447  1.00  0.00     0.213 C 
HETATM   14  C13 UNL     1       1.299  -0.680   0.740  1.00  0.00     0.079 C 
HETATM   15  C14 UNL     1       2.240   0.525   0.600  1.00  0.00     0.203 C 
HETATM   16  C15 UNL     1       1.758   1.588  -0.424  1.00  0.00     0.216 C 
HETATM   17  C16 UNL     1       0.301   2.078  -0.180  1.00  0.00     0.185 C 
HETATM   18  O2  UNL     1       0.371   3.213   0.664  1.00  0.00    -0.221 OA
HETATM   19  O3  UNL     1       1.867   1.090  -1.742  1.00  0.00    -0.218 OA
HETATM   20  O6  UNL     1       2.123   1.094   1.891  1.00  0.00    -0.347 OA
HETATM   21  C19 UNL     1       0.885   0.746   2.486  1.00  0.00     0.145 C 
HETATM   22  O9  UNL     1      -0.467  -3.430  -0.730  1.00  0.00    -0.262 OA
HETATM   23  C25 UNL     1      -1.834   2.418   2.191  1.00  0.00     0.000 C 
HETATM   24  C26 UNL     1      -5.104  -0.531   2.414  1.00  0.00     0.003 C 
HETATM   25  O10 UNL     1      -5.352   0.613  -0.240  1.00  0.00    -0.221 OA
HETATM   26  O11 UNL     1      -4.865   3.377  -0.678  1.00  0.00    -0.221 OA
ENDROOT
BRANCH  13  27
HETATM   27  O7  UNL     1       1.978  -2.357  -0.840  1.00  0.00    -0.291 OA
BRANCH  27  28
HETATM   28  C20 UNL     1       1.859  -2.801  -2.088  1.00  0.00     0.296 C 
HETATM   29  O8  UNL     1       0.922  -2.545  -2.807  1.00  0.00    -0.259 OA
BRANCH  28  30
HETATM   30  C21 UNL     1       2.955  -3.650  -2.570  1.00  0.00     0.060 C 
HETATM   31  C22 UNL     1       3.615  -3.338  -3.697  1.00  0.00    -0.038 C 
HETATM   32  C23 UNL     1       4.730  -4.148  -4.305  1.00  0.00     0.026 C 
HETATM   33  C24 UNL     1       3.232  -2.080  -4.432  1.00  0.00     0.026 C 
ENDBRANCH  28  30
ENDBRANCH  27  28
ENDBRANCH  13  27
BRANCH  15  34
HETATM   34  C17 UNL     1       3.682   0.127   0.391  1.00  0.00     0.299 C 
HETATM   35  O4  UNL     1       4.023  -1.029   0.451  1.00  0.00    -0.262 OA
BRANCH  34  36
HETATM   36  O5  UNL     1       4.516   1.135   0.143  1.00  0.00    -0.297 OA
HETATM   37  C18 UNL     1       5.854   0.695  -0.039  1.00  0.00     0.185 C 
ENDBRANCH  34  36
ENDBRANCH  15  34
TORSDOF 5
