REMARK  9 active torsions:
REMARK  status: ('A' for Active; 'I' for Inactive)
REMARK    1  A    between atoms: C9_9  and  O1_11 
REMARK    2  A    between atoms: O1_11  and  C11_12 
REMARK    3  A    between atoms: C16_18  and  O3_19 
REMARK    4  A    between atoms: O3_19  and  C17_20 
REMARK    5  A    between atoms: C17_20  and  C18_21 
REMARK    6  A    between atoms: C22_26  and  C25_29 
REMARK    7  A    between atoms: C27_31  and  C31_38 
REMARK    8  A    between atoms: C28_33  and  O6_34 
REMARK    9  A    between atoms: O6_34  and  C29_35 
ROOT
HETATM    1  C1  UNL     1      -5.645   0.578  -0.082  1.00  0.00     0.033 C 
HETATM    2  C2  UNL     1      -6.357  -0.473  -0.844  1.00  0.00     0.172 C 
HETATM    3  C3  UNL     1      -5.584  -1.645  -1.424  1.00  0.00     0.056 C 
HETATM    4  C4  UNL     1      -4.062  -1.348  -1.361  1.00  0.00     0.013 C 
HETATM    5  C5  UNL     1      -3.598  -0.834   0.037  1.00  0.00     0.022 C 
HETATM    6  C6  UNL     1      -4.365   0.445   0.318  1.00  0.00    -0.024 C 
HETATM    7  C7  UNL     1      -2.047  -0.719  -0.029  1.00  0.00     0.037 C 
HETATM    8  C8  UNL     1      -1.369  -2.131  -0.062  1.00  0.00     0.043 C 
HETATM    9  C9  UNL     1      -2.227  -3.119  -0.924  1.00  0.00     0.128 C 
HETATM   10  C10 UNL     1      -3.141  -2.445  -1.957  1.00  0.00     0.031 C 
HETATM   11  C13 UNL     1       0.094  -1.910  -0.437  1.00  0.00    -0.047 C 
HETATM   12  C14 UNL     1       0.740  -0.562  -0.227  1.00  0.00     0.018 C 
HETATM   13  C15 UNL     1       0.174   0.072   1.053  1.00  0.00     0.034 C 
HETATM   14  C16 UNL     1      -1.361   0.254   0.971  1.00  0.00     0.126 C 
HETATM   15  C22 UNL     1       2.236  -0.928  -0.109  1.00  0.00     0.013 C 
HETATM   16  C23 UNL     1       2.334  -2.154  -1.031  1.00  0.00     0.026 C 
HETATM   17  C24 UNL     1       0.983  -2.799  -0.904  1.00  0.00    -0.035 C 
HETATM   18  C35 UNL     1       0.551   0.334  -1.455  1.00  0.00     0.004 C 
HETATM   19  C36 UNL     1      -1.279  -2.715   1.358  1.00  0.00     0.007 C 
HETATM   20  C37 UNL     1      -4.010  -1.770   1.184  1.00  0.00     0.004 C 
HETATM   21  C38 UNL     1      -5.943  -2.918  -0.648  1.00  0.00     0.008 C 
HETATM   22  C39 UNL     1      -6.016  -1.830  -2.885  1.00  0.00     0.008 C 
HETATM   23  O9  UNL     1      -7.555  -0.379  -1.002  1.00  0.00    -0.291 OA
ENDROOT
BRANCH  15  24
HETATM   24  C25 UNL     1       3.231   0.170  -0.475  1.00  0.00     0.060 C 
HETATM   25  C26 UNL     1       4.695  -0.252  -0.295  1.00  0.00     0.037 C 
HETATM   26  C27 UNL     1       5.418   1.023   0.156  1.00  0.00     0.147 C 
HETATM   27  O5  UNL     1       4.406   2.002   0.209  1.00  0.00    -0.331 OA
HETATM   28  C28 UNL     1       3.158   1.393   0.436  1.00  0.00     0.242 C 
BRANCH  26  29
HETATM   29  C31 UNL     1       6.504   1.500  -0.799  1.00  0.00     0.167 A 
HETATM   30  C32 UNL     1       7.531   2.615  -0.385  1.00  0.00     0.120 A 
HETATM   31  O8  UNL     1       7.740   1.250  -0.213  1.00  0.00    -0.354 OA
HETATM   32  C33 UNL     1       7.457   3.260   0.994  1.00  0.00     0.032 C 
HETATM   33  C34 UNL     1       8.539   3.129  -1.400  1.00  0.00     0.032 C 
ENDBRANCH  26  29
BRANCH  28  34
HETATM   34  O6  UNL     1       3.045   1.006   1.801  1.00  0.00    -0.276 OA
BRANCH  34  35
HETATM   35  C29 UNL     1       2.871   2.047   2.609  1.00  0.00     0.274 C 
HETATM   36  O7  UNL     1       2.781   3.190   2.227  1.00  0.00    -0.264 OA
HETATM   37  C30 UNL     1       2.791   1.713   4.074  1.00  0.00     0.106 C 
ENDBRANCH  34  35
ENDBRANCH  28  34
ENDBRANCH  15  24
BRANCH  14  38
HETATM   38  O3  UNL     1      -1.611   1.594   0.563  1.00  0.00    -0.301 OA
BRANCH  38  39
HETATM   39  C17 UNL     1      -1.318   2.477   1.512  1.00  0.00     0.291 C 
HETATM   40  O4  UNL     1      -0.906   2.176   2.608  1.00  0.00    -0.260 OA
BRANCH  39  41
HETATM   41  C18 UNL     1      -1.525   3.885   1.158  1.00  0.00     0.037 C 
HETATM   42  C19 UNL     1      -1.963   4.279  -0.049  1.00  0.00    -0.025 C 
HETATM   43  C20 UNL     1      -2.141   5.754  -0.303  1.00  0.00     0.030 C 
HETATM   44  C21 UNL     1      -1.236   4.938   2.195  1.00  0.00     0.036 C 
ENDBRANCH  39  41
ENDBRANCH  38  39
ENDBRANCH  14  38
BRANCH   9  45
HETATM   45  O1  UNL     1      -1.432  -4.092  -1.582  1.00  0.00    -0.304 OA
BRANCH  45  46
HETATM   46  C11 UNL     1      -1.293  -5.203  -0.863  1.00  0.00     0.272 C 
HETATM   47  O2  UNL     1      -1.600  -5.293   0.303  1.00  0.00    -0.264 OA
HETATM   48  C12 UNL     1      -0.715  -6.377  -1.607  1.00  0.00     0.106 C 
ENDBRANCH  45  46
ENDBRANCH   9  45
TORSDOF 9
