REMARK  0 active torsions:
REMARK  status: ('A' for Active; 'I' for Inactive)
ROOT
HETATM    1  C1  UNL     1       4.691  -1.225  -0.961  1.00  0.00     0.033 C 
HETATM    2  C2  UNL     1       5.258  -0.830   0.416  1.00  0.00     0.152 C 
HETATM    3  C3  UNL     1       4.846   0.598   0.877  1.00  0.00     0.028 C 
HETATM    4  C4  UNL     1       3.303   0.711   0.736  1.00  0.00     0.003 C 
HETATM    5  C5  UNL     1       2.766   0.436  -0.703  1.00  0.00     0.004 C 
HETATM    6  C6  UNL     1       3.166  -1.019  -1.047  1.00  0.00     0.003 C 
HETATM    7  C7  UNL     1       1.225   0.740  -0.793  1.00  0.00     0.022 C 
HETATM    8  C8  UNL     1       0.477   0.752   0.570  1.00  0.00     0.007 C 
HETATM    9  C9  UNL     1       1.148   1.805   1.510  1.00  0.00     0.001 C 
HETATM   10  C10 UNL     1       2.666   1.986   1.307  1.00  0.00     0.000 C 
HETATM   11  C11 UNL     1      -1.039   1.084   0.359  1.00  0.00     0.019 C 
HETATM   12  C12 UNL     1      -1.664   0.065  -0.603  1.00  0.00    -0.030 C 
HETATM   13  C13 UNL     1      -0.813  -0.379  -1.736  1.00  0.00    -0.009 C 
HETATM   14  C14 UNL     1       0.492  -0.068  -1.850  1.00  0.00    -0.027 C 
HETATM   15  C15 UNL     1      -2.934  -0.396  -0.445  1.00  0.00    -0.037 C 
HETATM   16  C16 UNL     1      -3.809   0.059   0.731  1.00  0.00     0.121 A 
HETATM   17  C17 UNL     1      -3.287   1.246   1.555  1.00  0.00     0.016 C 
HETATM   18  C18 UNL     1      -1.770   1.170   1.725  1.00  0.00     0.005 C 
HETATM   19  C19 UNL     1      -5.416  -0.139   0.615  1.00  0.00     0.167 A 
HETATM   20  C20 UNL     1      -5.901  -0.910  -0.615  1.00  0.00     0.181 C 
HETATM   21  C21 UNL     1      -4.914  -1.982  -1.143  1.00  0.00     0.034 C 
HETATM   22  C22 UNL     1      -3.525  -1.373  -1.457  1.00  0.00     0.025 C 
HETATM   23  C23 UNL     1      -4.760  -3.109  -0.113  1.00  0.00     0.003 C 
HETATM   24  C24 UNL     1      -5.471  -2.639  -2.414  1.00  0.00     0.003 C 
HETATM   25  O1  UNL     1      -6.156   0.047  -1.627  1.00  0.00    -0.221 OA
HETATM   26  O2  UNL     1      -5.252  -1.008   1.721  1.00  0.00    -0.301 OA
HETATM   27  C25 UNL     1      -3.988  -0.914   1.865  1.00  0.00     0.277 A 
HETATM   28  O3  UNL     1      -3.315  -1.486   2.686  1.00  0.00    -0.264 OA
HETATM   29  C26 UNL     1      -1.201   2.445  -0.340  1.00  0.00     0.004 C 
HETATM   30  C27 UNL     1       0.576  -0.648   1.207  1.00  0.00     0.001 C 
HETATM   31  C28 UNL     1       3.443   1.358  -1.736  1.00  0.00     0.000 C 
HETATM   32  C29 UNL     1       5.566   1.692   0.076  1.00  0.00     0.003 C 
HETATM   33  C30 UNL     1       5.242   0.772   2.352  1.00  0.00     0.003 C 
HETATM   34  O4  UNL     1       6.666  -0.963   0.391  1.00  0.00    -0.224 OA
ENDROOT
TORSDOF 0
