REMARK  0 active torsions:
REMARK  status: ('A' for Active; 'I' for Inactive)
ROOT
HETATM    1  C1  UNL     1       3.816  -0.536   0.823  1.00  0.00     0.005 C 
HETATM    2  C2  UNL     1       3.863   1.023   0.796  1.00  0.00     0.022 C 
HETATM    3  C3  UNL     1       2.982   1.592  -0.309  1.00  0.00    -0.044 C 
HETATM    4  C4  UNL     1       1.656   0.938  -0.606  1.00  0.00     0.026 C 
HETATM    5  C5  UNL     1       1.752  -0.628  -0.604  1.00  0.00     0.024 C 
HETATM    6  C6  UNL     1       2.364  -1.090   0.744  1.00  0.00     0.005 C 
HETATM    7  C7  UNL     1       0.359  -1.224  -0.799  1.00  0.00    -0.002 C 
HETATM    8  C8  UNL     1      -0.705  -0.541  -0.387  1.00  0.00     0.095 A 
HETATM    9  C9  UNL     1      -0.617   0.733   0.254  1.00  0.00     0.002 A 
HETATM   10  C10 UNL     1       0.672   1.422   0.502  1.00  0.00     0.033 C 
HETATM   11  C11 UNL     1      -1.833   1.130   0.565  1.00  0.00     0.040 A 
HETATM   12  C12 UNL     1      -2.750   0.095   0.105  1.00  0.00     0.296 A 
HETATM   13  O1  UNL     1      -2.023  -0.928  -0.478  1.00  0.00    -0.274 OA
HETATM   14  O2  UNL     1      -3.979   0.129   0.211  1.00  0.00    -0.259 OA
HETATM   15  C13 UNL     1      -2.209   2.412   1.251  1.00  0.00     0.036 C 
HETATM   16  C14 UNL     1       2.662  -1.144  -1.750  1.00  0.00     0.005 C 
HETATM   17  C15 UNL     1       3.208   2.825  -0.753  1.00  0.00    -0.009 C 
ENDROOT
TORSDOF 0
