REMARK  0 active torsions:
REMARK  status: ('A' for Active; 'I' for Inactive)
ROOT
HETATM    1  C1  UNL     1       2.356  -2.264  -0.340  1.00  0.00     0.006 C 
HETATM    2  C2  UNL     1       3.004  -1.574   0.877  1.00  0.00     0.024 C 
HETATM    3  C3  UNL     1       2.510  -0.131   1.113  1.00  0.00     0.097 C 
HETATM    4  N1  UNL     1       2.111   0.498  -0.150  1.00  0.00    -0.368 N 
HETATM    5  C4  UNL     1       1.055  -0.172  -0.953  1.00  0.00     0.081 C 
HETATM    6  C5  UNL     1       0.957  -1.695  -0.629  1.00  0.00     0.043 C 
HETATM    7  C6  UNL     1      -0.017  -2.064   0.516  1.00  0.00     0.106 C 
HETATM    8  N2  UNL     1      -1.279  -1.303   0.398  1.00  0.00    -0.322 N 
HETATM    9  C7  UNL     1      -1.107   0.178   0.396  1.00  0.00     0.086 C 
HETATM   10  C8  UNL     1      -0.324   0.555  -0.889  1.00  0.00     0.043 C 
HETATM   11  C9  UNL     1      -0.144   2.068  -1.100  1.00  0.00     0.039 C 
HETATM   12  C10 UNL     1       0.850   2.637  -0.082  1.00  0.00     0.174 C 
HETATM   13  C11 UNL     1       2.217   1.963  -0.246  1.00  0.00     0.130 C 
HETATM   14  O1  UNL     1       0.990   4.027  -0.301  1.00  0.00    -0.221 OA
HETATM   15  C12 UNL     1      -2.449   0.916   0.603  1.00  0.00     0.023 C 
HETATM   16  C13 UNL     1      -3.551   0.342  -0.285  1.00  0.00     0.012 C 
HETATM   17  C14 UNL     1      -3.781  -1.123   0.098  1.00  0.00     0.088 C 
HETATM   18  C15 UNL     1      -2.506  -1.928   0.256  1.00  0.00     0.234 C 
HETATM   19  O2  UNL     1      -2.576  -3.135   0.248  1.00  0.00    -0.272 OA
ENDROOT
TORSDOF 0
