REMARK  0 active torsions:
REMARK  status: ('A' for Active; 'I' for Inactive)
ROOT
HETATM    1  C1  UNL     1       5.162  -2.121  -0.225  1.00  0.00     0.033 C 
HETATM    2  C2  UNL     1       6.264  -1.078   0.033  1.00  0.00     0.153 C 
HETATM    3  C3  UNL     1       5.760   0.106   0.883  1.00  0.00     0.040 C 
HETATM    4  C4  UNL     1       4.506   0.740   0.252  1.00  0.00     0.060 C 
HETATM    5  C5  UNL     1       3.385  -0.316   0.057  1.00  0.00     0.007 C 
HETATM    6  C6  UNL     1       3.900  -1.473  -0.820  1.00  0.00     0.003 C 
HETATM    7  C7  UNL     1       2.223   0.406  -0.662  1.00  0.00     0.001 C 
HETATM    8  C8  UNL     1       1.670   1.551   0.189  1.00  0.00     0.007 C 
HETATM    9  C9  UNL     1       2.754   2.604   0.426  1.00  0.00     0.065 C 
HETATM   10  C10 UNL     1       4.000   1.965   0.992  1.00  0.00     0.150 C 
HETATM   11  O1  UNL     1       4.551   2.404   1.977  1.00  0.00    -0.296 OA
HETATM   12  C11 UNL     1       0.484   1.996  -0.658  1.00  0.00     0.001 C 
HETATM   13  C12 UNL     1      -0.152   0.674  -1.127  1.00  0.00     0.002 C 
HETATM   14  C13 UNL     1       0.949  -0.389  -0.939  1.00  0.00     0.000 C 
HETATM   15  C14 UNL     1      -1.453   0.266  -0.395  1.00  0.00     0.022 C 
HETATM   16  C15 UNL     1      -2.447   1.443  -0.189  1.00  0.00     0.004 C 
HETATM   17  C16 UNL     1      -1.856   2.818  -0.539  1.00  0.00     0.000 C 
HETATM   18  C17 UNL     1      -0.457   2.961   0.070  1.00  0.00     0.000 C 
HETATM   19  C18 UNL     1      -3.822   1.176  -0.828  1.00  0.00     0.018 C 
HETATM   20  C19 UNL     1      -4.383  -0.217  -0.414  1.00  0.00     0.060 C 
HETATM   21  N1  UNL     1      -3.416  -1.299  -0.736  1.00  0.00    -0.372 N 
HETATM   22  C20 UNL     1      -2.063  -0.922  -1.180  1.00  0.00     0.097 C 
HETATM   23  C21 UNL     1      -3.518  -2.508   0.092  1.00  0.00     0.097 C 
HETATM   24  C22 UNL     1      -3.188  -2.228   1.570  1.00  0.00     0.022 C 
HETATM   25  C23 UNL     1      -3.682  -0.844   2.029  1.00  0.00     0.004 C 
HETATM   26  C24 UNL     1      -4.764  -0.264   1.100  1.00  0.00     0.020 C 
HETATM   27  C25 UNL     1      -1.695  -2.422   1.869  1.00  0.00     0.002 C 
HETATM   28  C26 UNL     1      -5.652  -0.500  -1.230  1.00  0.00     0.022 C 
HETATM   29  C27 UNL     1      -3.772   1.356  -2.355  1.00  0.00     0.002 C 
HETATM   30  C28 UNL     1       2.889  -0.861   1.408  1.00  0.00     0.000 C 
HETATM   31  O2  UNL     1       7.348  -1.699   0.695  1.00  0.00    -0.223 OA
ENDROOT
TORSDOF 0
