REMARK  5 active torsions:
REMARK  status: ('A' for Active; 'I' for Inactive)
REMARK    1  A    between atoms: C4_4  and  O2_8 
REMARK    2  A    between atoms: O2_8  and  C7_9 
REMARK    3  A    between atoms: C13_16  and  C22_31 
REMARK    4  A    between atoms: C14_17  and  O5_20 
REMARK    5  A    between atoms: O5_20  and  C16_21 
ROOT
HETATM    1  C7  UNL     1      -3.494  -0.332   0.045  1.00  0.00     0.101 A 
HETATM    2  C8  UNL     1      -3.338  -1.635   0.574  1.00  0.00     0.052 A 
HETATM    3  C9  UNL     1      -2.045  -2.174   0.770  1.00  0.00     0.138 A 
HETATM    4  C10 UNL     1      -0.904  -1.401   0.430  1.00  0.00     0.089 A 
HETATM    5  C11 UNL     1      -1.059  -0.094  -0.100  1.00  0.00     0.107 A 
HETATM    6  C12 UNL     1      -2.356   0.437  -0.291  1.00  0.00     0.049 A 
HETATM    7  O3  UNL     1       0.027   0.642  -0.420  1.00  0.00    -0.305 OA
HETATM    8  C13 UNL     1       1.297   0.209  -0.268  1.00  0.00     0.125 A 
HETATM    9  C14 UNL     1       1.576  -1.022   0.229  1.00  0.00     0.158 A 
HETATM   10  C15 UNL     1       0.473  -1.932   0.619  1.00  0.00     0.224 A 
HETATM   11  O4  UNL     1       0.781  -3.020   1.053  1.00  0.00    -0.284 OA
HETATM   12  O11 UNL     1      -1.916  -3.410   1.272  1.00  0.00    -0.190 OA
ENDROOT
BRANCH   1  13
HETATM   13  O2  UNL     1      -4.721   0.176  -0.137  1.00  0.00    -0.303 OA
BRANCH  13  14
HETATM   14  C4  UNL     1      -4.858   1.305  -0.990  1.00  0.00     0.274 C 
HETATM   15  C3  UNL     1      -6.348   1.664  -1.158  1.00  0.00     0.241 C 
HETATM   16  C2  UNL     1      -6.537   2.799  -2.188  1.00  0.00     0.220 C 
HETATM   17  O12 UNL     1      -6.861   2.064   0.100  1.00  0.00    -0.215 OA
HETATM   18  C1  UNL     1      -5.779   2.453  -3.490  1.00  0.00     0.212 C 
HETATM   19  O13 UNL     1      -7.916   2.973  -2.465  1.00  0.00    -0.218 OA
HETATM   20  C5  UNL     1      -4.315   2.055  -3.201  1.00  0.00     0.151 C 
HETATM   21  O14 UNL     1      -5.783   3.572  -4.359  1.00  0.00    -0.218 OA
HETATM   22  O1  UNL     1      -4.291   0.992  -2.256  1.00  0.00    -0.329 OA
HETATM   23  C6  UNL     1      -3.574   1.556  -4.445  1.00  0.00     0.035 C 
ENDBRANCH  13  14
ENDBRANCH   1  13
BRANCH   8  24
HETATM   24  C22 UNL     1       2.418   1.115  -0.654  1.00  0.00     0.025 A 
HETATM   25  C23 UNL     1       3.512   0.611  -1.381  1.00  0.00     0.004 A 
HETATM   26  C24 UNL     1       4.568   1.465  -1.744  1.00  0.00     0.028 A 
HETATM   27  C25 UNL     1       4.535   2.824  -1.387  1.00  0.00     0.131 A 
HETATM   28  C26 UNL     1       3.439   3.326  -0.660  1.00  0.00     0.028 A 
HETATM   29  O10 UNL     1       5.525   3.623  -1.729  1.00  0.00    -0.190 OA
HETATM   30  C27 UNL     1       2.383   2.474  -0.295  1.00  0.00     0.004 A 
ENDBRANCH   8  24
BRANCH   9  31
HETATM   31  O5  UNL     1       2.836  -1.440   0.375  1.00  0.00    -0.298 OA
BRANCH  31  32
HETATM   32  C16 UNL     1       3.141  -1.774   1.721  1.00  0.00     0.274 C 
HETATM   33  O6  UNL     1       3.412  -3.168   1.795  1.00  0.00    -0.329 OA
HETATM   34  C17 UNL     1       3.689  -3.655   3.102  1.00  0.00     0.151 C 
HETATM   35  C18 UNL     1       4.955  -2.957   3.652  1.00  0.00     0.212 C 
HETATM   36  C21 UNL     1       3.850  -5.174   2.982  1.00  0.00     0.035 C 
HETATM   37  C19 UNL     1       4.813  -1.420   3.611  1.00  0.00     0.220 C 
HETATM   38  O9  UNL     1       5.164  -3.383   4.988  1.00  0.00    -0.218 OA
HETATM   39  C20 UNL     1       4.373  -0.975   2.199  1.00  0.00     0.241 C 
HETATM   40  O8  UNL     1       6.051  -0.813   3.941  1.00  0.00    -0.218 OA
HETATM   41  O7  UNL     1       4.041   0.402   2.207  1.00  0.00    -0.215 OA
ENDBRANCH  31  32
ENDBRANCH   9  31
TORSDOF 5
