REMARK  16 active torsions:
REMARK  status: ('A' for Active; 'I' for Inactive)
REMARK    1  A    between atoms: C2_2  and  O16_64 
REMARK    2  A    between atoms: C15_16  and  C18_19 
REMARK    3  A    between atoms: C18_19  and  O2_21 
REMARK    4  A    between atoms: C18_19  and  C38_53 
REMARK    5  A    between atoms: O2_21  and  C20_22 
REMARK    6  A    between atoms: C20_22  and  C21_23 
REMARK    7  A    between atoms: C25_27  and  C26_29 
REMARK    8  A    between atoms: C26_29  and  O4_30 
REMARK    9  A    between atoms: O4_30  and  C27_31 
REMARK   10  A    between atoms: C29_33  and  O7_38 
REMARK   11  A    between atoms: O7_38  and  C32_39 
REMARK   12  A    between atoms: C32_39  and  C33_40 
REMARK   13  A    between atoms: C38_53  and  C39_54 
REMARK   14  A    between atoms: C39_54  and  C40_55 
REMARK   15  A    between atoms: O16_64  and  C49_65 
REMARK   16  A    between atoms: C53_69  and  C54_71 
ROOT
HETATM    1  C18 UNL     1      -4.428  -0.297  -2.240  1.00  0.00     0.093 C 
HETATM    2  C19 UNL     1      -5.938  -0.514  -2.131  1.00  0.00     0.030 C 
ENDROOT
BRANCH   1   3
HETATM    3  C15 UNL     1      -3.699  -1.350  -1.408  1.00  0.00     0.028 C 
HETATM    4  C12 UNL     1      -2.227  -1.063  -1.057  1.00  0.00     0.033 C 
HETATM    5  C11 UNL     1      -1.695  -2.481  -0.736  1.00  0.00     0.002 C 
HETATM    6  C13 UNL     1      -1.438  -0.369  -2.193  1.00  0.00     0.152 C 
HETATM    7  C8  UNL     1      -0.146  -2.514  -0.588  1.00  0.00     0.000 C 
HETATM    8  C17 UNL     1      -2.309  -3.307  -1.879  1.00  0.00     0.000 C 
HETATM    9  C44 UNL     1      -2.387  -2.998   0.539  1.00  0.00     0.000 C 
HETATM   10  C7  UNL     1       0.555  -1.897  -1.832  1.00  0.00     0.003 C 
HETATM   11  C9  UNL     1       0.373  -3.945  -0.385  1.00  0.00     0.000 C 
HETATM   12  C45 UNL     1       0.109  -1.676   0.684  1.00  0.00     0.000 C 
HETATM   13  C5  UNL     1       2.107  -2.184  -1.918  1.00  0.00     0.000 C 
HETATM   14  C14 UNL     1       0.092  -0.438  -2.008  1.00  0.00     0.033 C 
HETATM   15  C4  UNL     1       2.664  -2.734  -0.568  1.00  0.00     0.002 C 
HETATM   16  C6  UNL     1       2.916  -0.928  -2.332  1.00  0.00     0.003 C 
HETATM   17  C46 UNL     1       2.326  -3.252  -3.008  1.00  0.00     0.000 C 
HETATM   18  C3  UNL     1       4.207  -2.961  -0.543  1.00  0.00     0.025 C 
HETATM   19  C10 UNL     1       1.881  -3.981  -0.078  1.00  0.00     0.000 C 
HETATM   20  C2  UNL     1       4.959  -1.686  -1.002  1.00  0.00     0.118 C 
HETATM   21  C47 UNL     1       4.656  -3.357   0.873  1.00  0.00     0.002 C 
HETATM   22  C48 UNL     1       4.608  -4.121  -1.465  1.00  0.00     0.002 C 
HETATM   23  C1  UNL     1       4.436  -1.166  -2.350  1.00  0.00     0.030 C 
HETATM   24  C16 UNL     1      -3.697  -2.713  -2.111  1.00  0.00     0.002 C 
HETATM   25  O1  UNL     1      -1.801   0.996  -2.266  1.00  0.00    -0.224 OA
BRANCH  20  26
HETATM   26  O16 UNL     1       4.826  -0.654  -0.037  1.00  0.00    -0.332 OA
BRANCH  26  27
HETATM   27  C49 UNL     1       5.918   0.242  -0.027  1.00  0.00     0.270 C 
HETATM   28  C50 UNL     1       6.625   0.250   1.357  1.00  0.00     0.241 C 
HETATM   29  C51 UNL     1       7.752   1.309   1.361  1.00  0.00     0.220 C 
HETATM   30  O21 UNL     1       5.690   0.498   2.398  1.00  0.00    -0.215 OA
HETATM   31  C52 UNL     1       7.262   2.686   0.852  1.00  0.00     0.215 C 
HETATM   32  O20 UNL     1       8.385   1.408   2.627  1.00  0.00    -0.218 OA
HETATM   33  C53 UNL     1       6.502   2.541  -0.492  1.00  0.00     0.184 C 
HETATM   34  O19 UNL     1       6.414   3.320   1.797  1.00  0.00    -0.218 OA
HETATM   35  O17 UNL     1       5.479   1.551  -0.391  1.00  0.00    -0.326 OA
BRANCH  33  36
HETATM   36  C54 UNL     1       7.436   2.184  -1.656  1.00  0.00     0.214 C 
HETATM   37  O18 UNL     1       6.672   2.164  -2.842  1.00  0.00    -0.218 OA
ENDBRANCH  33  36
ENDBRANCH  26  27
ENDBRANCH  20  26
ENDBRANCH   1   3
BRANCH   1  38
HETATM   38  O2  UNL     1      -4.117   0.973  -1.713  1.00  0.00    -0.356 OA
BRANCH  38  39
HETATM   39  C20 UNL     1      -4.709   2.033  -2.430  1.00  0.00     0.174 C 
BRANCH  39  40
HETATM   40  C21 UNL     1      -4.734   3.270  -1.525  1.00  0.00     0.178 C 
HETATM   41  C22 UNL     1      -5.270   4.568  -2.199  1.00  0.00     0.214 C 
HETATM   42  C23 UNL     1      -4.662   5.859  -1.588  1.00  0.00     0.217 C 
HETATM   43  O15 UNL     1      -5.004   4.564  -3.592  1.00  0.00    -0.218 OA
HETATM   44  C24 UNL     1      -4.279   5.606  -0.117  1.00  0.00     0.214 C 
HETATM   45  O14 UNL     1      -5.600   6.920  -1.692  1.00  0.00    -0.218 OA
HETATM   46  C25 UNL     1      -3.291   4.414   0.025  1.00  0.00     0.178 C 
HETATM   47  O13 UNL     1      -3.691   6.760   0.459  1.00  0.00    -0.218 OA
HETATM   48  O3  UNL     1      -3.410   3.488  -1.055  1.00  0.00    -0.349 OA
BRANCH  46  49
HETATM   49  C26 UNL     1      -3.496   3.643   1.336  1.00  0.00     0.177 C 
BRANCH  49  50
HETATM   50  O4  UNL     1      -2.389   2.791   1.523  1.00  0.00    -0.326 OA
BRANCH  50  51
HETATM   51  C27 UNL     1      -1.295   3.428   2.156  1.00  0.00     0.270 C 
HETATM   52  C28 UNL     1      -0.135   2.436   2.447  1.00  0.00     0.238 C 
HETATM   53  C29 UNL     1      -0.506   1.437   3.568  1.00  0.00     0.184 C 
HETATM   54  O12 UNL     1       0.232   1.746   1.264  1.00  0.00    -0.215 OA
HETATM   55  C30 UNL     1      -1.031   2.197   4.809  1.00  0.00     0.211 C 
HETATM   56  C31 UNL     1      -2.147   3.189   4.406  1.00  0.00     0.180 C 
HETATM   57  O6  UNL     1       0.008   2.920   5.451  1.00  0.00    -0.218 OA
HETATM   58  O5  UNL     1      -1.707   4.063   3.365  1.00  0.00    -0.326 OA
BRANCH  53  59
HETATM   59  O7  UNL     1       0.602   0.617   3.910  1.00  0.00    -0.349 OA
BRANCH  59  60
HETATM   60  C32 UNL     1       0.240  -0.514   4.672  1.00  0.00     0.175 C 
BRANCH  60  61
HETATM   61  C33 UNL     1       1.168  -0.588   5.889  1.00  0.00     0.178 C 
HETATM   62  C34 UNL     1       1.953  -1.920   5.955  1.00  0.00     0.214 C 
HETATM   63  C35 UNL     1       1.023  -3.106   6.318  1.00  0.00     0.217 C 
HETATM   64  O11 UNL     1       3.010  -1.787   6.893  1.00  0.00    -0.218 OA
HETATM   65  C36 UNL     1       0.121  -2.791   7.533  1.00  0.00     0.214 C 
HETATM   66  O10 UNL     1       1.746  -4.315   6.492  1.00  0.00    -0.218 OA
HETATM   67  C37 UNL     1      -0.561  -1.416   7.365  1.00  0.00     0.178 C 
HETATM   68  O9  UNL     1       0.855  -2.795   8.748  1.00  0.00    -0.218 OA
HETATM   69  O8  UNL     1       0.395  -0.395   7.074  1.00  0.00    -0.349 OA
ENDBRANCH  60  61
ENDBRANCH  59  60
ENDBRANCH  53  59
ENDBRANCH  50  51
ENDBRANCH  49  50
ENDBRANCH  46  49
ENDBRANCH  39  40
ENDBRANCH  38  39
ENDBRANCH   1  38
BRANCH   1  70
HETATM   70  C38 UNL     1      -3.926  -0.350  -3.684  1.00  0.00     0.032 C 
BRANCH  70  71
HETATM   71  C39 UNL     1      -4.789  -1.244  -4.574  1.00  0.00     0.028 C 
BRANCH  71  72
HETATM   72  C40 UNL     1      -4.268  -1.326  -5.985  1.00  0.00    -0.035 C 
HETATM   73  C41 UNL     1      -4.258  -0.209  -6.731  1.00  0.00    -0.048 C 
HETATM   74  C42 UNL     1      -3.947  -0.330  -8.199  1.00  0.00     0.026 C 
HETATM   75  C43 UNL     1      -4.559   1.105  -6.061  1.00  0.00     0.026 C 
ENDBRANCH  71  72
ENDBRANCH  70  71
ENDBRANCH   1  70
TORSDOF 16
