REMARK  4 active torsions:
REMARK  status: ('A' for Active; 'I' for Inactive)
REMARK    1  A    between atoms: C5_5  and  C7_7 
REMARK    2  A    between atoms: C9_9  and  O3_23 
REMARK    3  A    between atoms: C10_10  and  O2_21 
REMARK    4  A    between atoms: C14_14  and  C17_18 
ROOT
HETATM    1  C7  UNL     1       1.531   0.092   0.422  1.00  0.00     0.028 C 
HETATM    2  C8  UNL     1       0.725   1.406   0.514  1.00  0.00     0.035 C 
HETATM    3  C9  UNL     1      -0.721   0.996   0.209  1.00  0.00     0.127 C 
HETATM    4  C10 UNL     1      -0.795  -0.428   0.805  1.00  0.00     0.135 C 
HETATM    5  C11 UNL     1       0.498  -1.051   0.250  1.00  0.00     0.035 C 
HETATM    6  C12 UNL     1       0.938  -2.348   0.932  1.00  0.00     0.003 C 
HETATM    7  C13 UNL     1      -2.113  -1.092   0.467  1.00  0.00     0.005 C 
HETATM    8  C14 UNL     1      -3.246  -0.359   0.406  1.00  0.00     0.033 C 
HETATM    9  C15 UNL     1      -3.217   1.115   0.621  1.00  0.00     0.175 C 
HETATM   10  C16 UNL     1      -1.883   1.830   0.773  1.00  0.00     0.099 C 
HETATM   11  O1  UNL     1      -4.248   1.746   0.666  1.00  0.00    -0.291 OA
ENDROOT
BRANCH   1  12
HETATM   12  C5  UNL     1       2.541   0.108  -0.650  1.00  0.00    -0.020 A 
HETATM   13  C4  UNL     1       2.711  -1.015  -1.484  1.00  0.00    -0.002 A 
HETATM   14  C3  UNL     1       3.686  -0.976  -2.506  1.00  0.00     0.026 A 
HETATM   15  C2  UNL     1       4.492   0.172  -2.709  1.00  0.00     0.119 A 
HETATM   16  C1  UNL     1       4.322   1.287  -1.883  1.00  0.00     0.119 A 
HETATM   17  O4  UNL     1       5.455   0.430  -3.596  1.00  0.00    -0.300 OA
HETATM   18  C6  UNL     1       3.346   1.250  -0.855  1.00  0.00     0.022 A 
HETATM   19  O5  UNL     1       5.178   2.240  -2.256  1.00  0.00    -0.300 OA
HETATM   20  C22 UNL     1       5.959   1.766  -3.375  1.00  0.00     0.304 A 
ENDBRANCH   1  12
BRANCH   3  21
HETATM   21  O3  UNL     1      -0.871   0.973  -1.207  1.00  0.00    -0.353 OA
HETATM   22  C21 UNL     1      -0.514   2.190  -1.824  1.00  0.00     0.174 C 
ENDBRANCH   3  21
BRANCH   4  23
HETATM   23  O2  UNL     1      -0.711  -0.385   2.227  1.00  0.00    -0.350 OA
HETATM   24  C20 UNL     1      -1.170  -1.566   2.846  1.00  0.00     0.175 C 
ENDBRANCH   4  23
BRANCH   8  25
HETATM   25  C17 UNL     1      -4.524  -1.031   0.117  1.00  0.00    -0.002 C 
HETATM   26  C18 UNL     1      -5.338  -1.410   1.117  1.00  0.00    -0.026 C 
HETATM   27  C19 UNL     1      -4.914  -1.131   2.533  1.00  0.00     0.031 C 
ENDBRANCH   8  25
TORSDOF 4
