REMARK  1 active torsions:
REMARK  status: ('A' for Active; 'I' for Inactive)
REMARK    1  A    between atoms: C17_18  and  C29_30 
ROOT
HETATM    1  C1  UNL     1       5.656   1.199   0.180  1.00  0.00     0.152 C 
HETATM    2  O1  UNL     1       7.037   1.160  -0.133  1.00  0.00    -0.224 OA
HETATM    3  C2  UNL     1       4.910   1.914  -0.955  1.00  0.00     0.033 C 
HETATM    4  C3  UNL     1       3.404   1.973  -0.674  1.00  0.00     0.003 C 
HETATM    5  C4  UNL     1       2.777   0.576  -0.437  1.00  0.00     0.000 C 
HETATM    6  C5  UNL     1       3.574  -0.143   0.692  1.00  0.00     0.002 C 
HETATM    7  C6  UNL     1       5.109  -0.227   0.443  1.00  0.00     0.028 C 
HETATM    8  C7  UNL     1       5.797  -0.799   1.692  1.00  0.00     0.003 C 
HETATM    9  C8  UNL     1       5.418  -1.164  -0.734  1.00  0.00     0.003 C 
HETATM   10  C9  UNL     1       2.945  -1.508   1.018  1.00  0.00     0.000 C 
HETATM   11  C10 UNL     1       1.486  -1.354   1.455  1.00  0.00     0.000 C 
HETATM   12  C11 UNL     1       0.603  -0.631   0.406  1.00  0.00     0.003 C 
HETATM   13  C12 UNL     1       0.484  -1.547  -0.828  1.00  0.00     0.000 C 
HETATM   14  C13 UNL     1      -0.836  -0.377   0.984  1.00  0.00     0.015 C 
HETATM   15  C14 UNL     1      -0.756   0.504   2.242  1.00  0.00     0.004 C 
HETATM   16  C15 UNL     1      -1.475  -1.723   1.404  1.00  0.00     0.005 C 
HETATM   17  C16 UNL     1      -2.977  -1.606   1.615  1.00  0.00     0.014 C 
HETATM   18  C17 UNL     1      -3.684  -1.141   0.330  1.00  0.00     0.093 C 
HETATM   19  C18 UNL     1      -5.178  -0.940   0.670  1.00  0.00     0.014 C 
HETATM   20  C19 UNL     1      -5.967  -0.246  -0.443  1.00  0.00     0.001 C 
HETATM   21  C20 UNL     1      -5.365   1.127  -0.756  1.00  0.00     0.004 C 
HETATM   22  C21 UNL     1      -5.475   2.043   0.473  1.00  0.00     0.000 C 
HETATM   23  C22 UNL     1      -6.149   1.777  -1.900  1.00  0.00     0.000 C 
HETATM   24  C23 UNL     1      -3.889   0.975  -1.162  1.00  0.00     0.022 C 
HETATM   25  C24 UNL     1      -3.018   0.107  -0.252  1.00  0.00    -0.043 C 
HETATM   26  C25 UNL     1      -1.715   0.424   0.014  1.00  0.00    -0.052 C 
HETATM   27  C26 UNL     1      -1.037   1.629  -0.629  1.00  0.00     0.021 C 
HETATM   28  C27 UNL     1       0.414   1.412  -1.068  1.00  0.00     0.004 C 
HETATM   29  C28 UNL     1       1.279   0.711  -0.006  1.00  0.00     0.001 C 
HETATM   30  C30 UNL     1       2.871  -0.213  -1.754  1.00  0.00     0.000 C 
ENDROOT
BRANCH  18  31
HETATM   31  C29 UNL     1      -3.576  -2.221  -0.723  1.00  0.00     0.188 C 
HETATM   32  O2  UNL     1      -3.067  -1.994  -1.797  1.00  0.00    -0.647 OA
HETATM   33  O3  UNL     1      -4.076  -3.402  -0.375  1.00  0.00    -0.647 OA
ENDBRANCH  18  31
TORSDOF 1
