REMARK  7 active torsions:
REMARK  status: ('A' for Active; 'I' for Inactive)
REMARK    1  A    between atoms: C1_1  and  C21_31 
REMARK    2  A    between atoms: C2_2  and  C18_27 
REMARK    3  A    between atoms: C9_9  and  C15_19 
REMARK    4  A    between atoms: C11_11  and  O3_15 
REMARK    5  A    between atoms: O3_15  and  C13_16 
REMARK    6  A    between atoms: C15_19  and  O6_21 
REMARK    7  A    between atoms: C21_31  and  C22_32 
ROOT
HETATM    1  C1  UNL     1       1.209   1.990   0.162  1.00  0.00     0.019 C 
HETATM    2  C2  UNL     1       2.631   1.377   0.180  1.00  0.00     0.061 C 
HETATM    3  C3  UNL     1       2.799   0.318  -0.926  1.00  0.00     0.038 C 
HETATM    4  C4  UNL     1       1.809  -0.838  -0.742  1.00  0.00     0.127 C 
HETATM    5  C5  UNL     1       0.367  -0.289  -0.764  1.00  0.00     0.061 C 
HETATM    6  C6  UNL     1       0.135   0.856   0.264  1.00  0.00     0.039 C 
HETATM    7  C7  UNL     1      -1.357   1.320   0.316  1.00  0.00     0.185 C 
HETATM    8  C8  UNL     1      -2.385   0.174   0.078  1.00  0.00     0.216 C 
HETATM    9  C9  UNL     1      -1.879  -0.928  -0.893  1.00  0.00     0.203 C 
HETATM   10  C10 UNL     1      -0.514  -1.519  -0.512  1.00  0.00     0.079 C 
HETATM   11  C11 UNL     1      -0.236  -2.143   0.853  1.00  0.00     0.213 C 
HETATM   12  C12 UNL     1       1.246  -2.281   1.109  1.00  0.00     0.300 C 
HETATM   13  O1  UNL     1       2.145  -1.496   0.490  1.00  0.00    -0.302 OA
HETATM   14  O2  UNL     1       1.608  -3.115   1.908  1.00  0.00    -0.262 OA
HETATM   15  O7  UNL     1      -1.555  -0.297  -2.119  1.00  0.00    -0.347 OA
HETATM   16  C17 UNL     1      -0.178   0.033  -2.168  1.00  0.00     0.145 C 
HETATM   17  O8  UNL     1      -2.750  -0.391   1.324  1.00  0.00    -0.218 OA
HETATM   18  O9  UNL     1      -1.625   2.330  -0.639  1.00  0.00    -0.221 OA
HETATM   19  C20 UNL     1       1.070   2.838  -1.113  1.00  0.00     0.001 C 
ENDROOT
BRANCH   1  20
HETATM   20  C21 UNL     1       1.047   2.932   1.365  1.00  0.00     0.098 C 
BRANCH  20  21
HETATM   21  C22 UNL     1       0.430   4.250   0.984  1.00  0.00     0.185 C 
HETATM   22  O11 UNL     1      -0.768   4.412   1.027  1.00  0.00    -0.647 OA
HETATM   23  O12 UNL     1       1.291   5.190   0.607  1.00  0.00    -0.647 OA
ENDBRANCH  20  21
ENDBRANCH   1  20
BRANCH   2  24
HETATM   24  C18 UNL     1       3.719   2.422   0.082  1.00  0.00     0.151 C 
HETATM   25  O10 UNL     1       3.463   3.598   0.176  1.00  0.00    -0.296 OA
HETATM   26  C19 UNL     1       5.133   1.951  -0.141  1.00  0.00     0.072 C 
ENDBRANCH   2  24
BRANCH   9  27
HETATM   27  C15 UNL     1      -2.922  -1.986  -1.168  1.00  0.00     0.299 C 
HETATM   28  O5  UNL     1      -2.643  -3.160  -1.129  1.00  0.00    -0.262 OA
BRANCH  27  29
HETATM   29  O6  UNL     1      -4.137  -1.523  -1.447  1.00  0.00    -0.297 OA
HETATM   30  C16 UNL     1      -5.068  -2.564  -1.701  1.00  0.00     0.185 C 
ENDBRANCH  27  29
ENDBRANCH   9  27
BRANCH  11  31
HETATM   31  O3  UNL     1      -0.863  -3.416   0.918  1.00  0.00    -0.294 OA
BRANCH  31  32
HETATM   32  C13 UNL     1      -1.023  -3.840   2.170  1.00  0.00     0.273 C 
HETATM   33  O4  UNL     1      -0.764  -3.172   3.144  1.00  0.00    -0.264 OA
HETATM   34  C14 UNL     1      -1.561  -5.238   2.309  1.00  0.00     0.106 C 
ENDBRANCH  31  32
ENDBRANCH  11  31
TORSDOF 7
