REMARK  1 active torsions:
REMARK  status: ('A' for Active; 'I' for Inactive)
REMARK    1  A    between atoms: C10_11  and  O3_16 
ROOT
HETATM    1  C1  UNL     1      -4.140  -0.897  -0.307  1.00  0.00     0.131 A 
HETATM    2  C2  UNL     1      -3.996   0.390  -0.877  1.00  0.00     0.029 A 
HETATM    3  C3  UNL     1      -2.721   0.998  -0.938  1.00  0.00     0.027 A 
HETATM    4  C4  UNL     1      -1.586   0.320  -0.430  1.00  0.00     0.103 A 
HETATM    5  C5  UNL     1      -1.730  -0.977   0.139  1.00  0.00     0.064 A 
HETATM    6  C6  UNL     1      -3.012  -1.580   0.199  1.00  0.00     0.033 A 
HETATM    7  C7  UNL     1      -0.529  -1.703   0.672  1.00  0.00     0.202 A 
HETATM    8  C8  UNL     1       0.762  -0.942   0.549  1.00  0.00     0.089 A 
HETATM    9  C9  UNL     1       0.768   0.357  -0.039  1.00  0.00     0.127 A 
HETATM   10  O1  UNL     1      -0.377   0.914  -0.492  1.00  0.00    -0.305 OA
HETATM   11  C10 UNL     1       1.981   1.076  -0.150  1.00  0.00     0.117 A 
HETATM   12  C11 UNL     1       3.188   0.510   0.316  1.00  0.00     0.028 A 
HETATM   13  C12 UNL     1       3.188  -0.780   0.896  1.00  0.00     0.030 A 
HETATM   14  C13 UNL     1       1.981  -1.506   1.014  1.00  0.00     0.136 A 
HETATM   15  O2  UNL     1       2.010  -2.727   1.568  1.00  0.00    -0.190 OA
HETATM   16  O4  UNL     1      -0.601  -2.809   1.160  1.00  0.00    -0.286 OA
HETATM   17  O5  UNL     1      -5.351  -1.469  -0.248  1.00  0.00    -0.190 OA
ENDROOT
BRANCH  11  18
HETATM   18  O3  UNL     1       1.989   2.299  -0.699  1.00  0.00    -0.326 OA
HETATM   19  C14 UNL     1       3.223   3.000  -0.748  1.00  0.00     0.181 C 
ENDBRANCH  11  18
TORSDOF 1
