REMARK  16 active torsions:
REMARK  status: ('A' for Active; 'I' for Inactive)
REMARK    1  A    between atoms: C6_6  and  C7_7 
REMARK    2  A    between atoms: C8_8  and  C9_9 
REMARK    3  A    between atoms: C13_13  and  C23_32 
REMARK    4  A    between atoms: C15_15  and  O3_19 
REMARK    5  A    between atoms: O3_19  and  C17_20 
REMARK    6  A    between atoms: C17_20  and  C18_21 
REMARK    7  A    between atoms: C26_35  and  C41_63 
REMARK    8  A    between atoms: C28_37  and  O16_50 
REMARK    9  A    between atoms: C30_40  and  C31_41 
REMARK   10  A    between atoms: C31_41  and  C32_43 
REMARK   11  A    between atoms: C32_43  and  C33_45 
REMARK   12  A    between atoms: C33_45  and  C34_47 
REMARK   13  A    between atoms: O16_50  and  C35_51 
REMARK   14  A    between atoms: C35_51  and  C36_52 
REMARK   15  A    between atoms: C41_63  and  C43_65 
REMARK   16  A    between atoms: C44_66  and  C45_67 
ROOT
HETATM    1  C23 UNL     1       0.631   0.830  -1.670  1.00  0.00     0.064 C 
HETATM    2  C24 UNL     1      -0.650   1.416  -1.166  1.00  0.00     0.043 A 
HETATM    3  C25 UNL     1      -1.992   0.861  -1.350  1.00  0.00     0.195 A 
HETATM    4  C26 UNL     1      -3.137   1.596  -0.772  1.00  0.00     0.065 A 
HETATM    5  C27 UNL     1      -2.945   2.750  -0.086  1.00  0.00     0.171 A 
HETATM    6  C28 UNL     1      -1.553   3.346   0.129  1.00  0.00     0.302 A 
HETATM    7  C29 UNL     1      -0.426   2.551  -0.502  1.00  0.00     0.131 A 
HETATM    8  O10 UNL     1       0.865   2.885  -0.467  1.00  0.00    -0.330 OA
HETATM    9  C30 UNL     1       1.611   1.939  -1.246  1.00  0.00     0.159 C 
HETATM   10  O15 UNL     1      -1.531   4.650  -0.412  1.00  0.00    -0.181 OA
HETATM   11  O22 UNL     1      -4.004   3.389   0.420  1.00  0.00    -0.189 OA
HETATM   12  O24 UNL     1      -2.149  -0.172  -1.959  1.00  0.00    -0.287 OA
ENDROOT
BRANCH   1  13
HETATM   13  C13 UNL     1       0.961  -0.508  -1.000  1.00  0.00     0.065 C 
HETATM   14  C11 UNL     1       0.330  -1.676  -1.740  1.00  0.00    -0.015 C 
HETATM   15  C10 UNL     1      -0.436  -2.729  -0.996  1.00  0.00     0.061 C 
HETATM   16  C12 UNL     1       0.508  -1.715  -3.078  1.00  0.00    -0.004 C 
HETATM   17  C9  UNL     1      -1.313  -3.545  -1.647  1.00  0.00     0.134 C 
HETATM   18  C16 UNL     1      -0.203  -2.852   0.477  1.00  0.00     0.231 C 
HETATM   19  O25 UNL     1      -1.529  -3.436  -2.957  1.00  0.00    -0.190 OA
HETATM   20  C15 UNL     1       0.625  -1.801   1.193  1.00  0.00     0.303 C 
HETATM   21  O1  UNL     1      -0.658  -3.777   1.113  1.00  0.00    -0.286 OA
HETATM   22  C14 UNL     1       0.521  -0.430   0.479  1.00  0.00     0.218 C 
HETATM   23  O2  UNL     1       0.172  -1.662   2.531  1.00  0.00    -0.184 OA
HETATM   24  O9  UNL     1       1.299   0.561   1.143  1.00  0.00    -0.217 OA
BRANCH  17  25
HETATM   25  C8  UNL     1      -2.090  -4.596  -0.965  1.00  0.00     0.028 C 
HETATM   26  C7  UNL     1      -2.172  -5.832  -1.482  1.00  0.00     0.002 C 
BRANCH  26  27
HETATM   27  C6  UNL     1      -2.971  -6.863  -0.756  1.00  0.00     0.000 A 
HETATM   28  C1  UNL     1      -3.076  -8.166  -1.273  1.00  0.00     0.002 A 
HETATM   29  C2  UNL     1      -3.828  -9.135  -0.588  1.00  0.00     0.027 A 
HETATM   30  C3  UNL     1      -4.477  -8.807   0.615  1.00  0.00     0.131 A 
HETATM   31  C4  UNL     1      -4.369  -7.504   1.131  1.00  0.00     0.027 A 
HETATM   32  O26 UNL     1      -5.182  -9.717   1.256  1.00  0.00    -0.190 OA
HETATM   33  C5  UNL     1      -3.619  -6.531   0.447  1.00  0.00     0.002 A 
ENDBRANCH  26  27
ENDBRANCH  17  25
BRANCH  20  34
HETATM   34  O3  UNL     1       1.969  -2.250   1.225  1.00  0.00    -0.323 OA
BRANCH  34  35
HETATM   35  C17 UNL     1       2.131  -3.479   1.898  1.00  0.00     0.178 C 
BRANCH  35  36
HETATM   36  C18 UNL     1       3.617  -3.848   1.873  1.00  0.00     0.180 C 
HETATM   37  C19 UNL     1       3.895  -5.264   2.428  1.00  0.00     0.215 C 
HETATM   38  C20 UNL     1       5.410  -5.539   2.537  1.00  0.00     0.220 C 
HETATM   39  O8  UNL     1       3.293  -6.213   1.564  1.00  0.00    -0.218 OA
HETATM   40  C21 UNL     1       6.104  -4.385   3.295  1.00  0.00     0.244 C 
HETATM   41  O7  UNL     1       5.627  -6.764   3.219  1.00  0.00    -0.218 OA
HETATM   42  C22 UNL     1       5.707  -3.012   2.699  1.00  0.00     0.303 C 
HETATM   43  O6  UNL     1       7.512  -4.547   3.213  1.00  0.00    -0.215 OA
HETATM   44  O4  UNL     1       6.234  -1.959   3.482  1.00  0.00    -0.187 OA
HETATM   45  O5  UNL     1       4.293  -2.887   2.674  1.00  0.00    -0.324 OA
ENDBRANCH  35  36
ENDBRANCH  34  35
ENDBRANCH  20  34
ENDBRANCH   1  13
BRANCH   9  46
HETATM   46  C31 UNL     1       2.191   2.654  -2.463  1.00  0.00     0.213 C 
HETATM   47  O11 UNL     1       1.127   3.236  -3.182  1.00  0.00    -0.218 OA
BRANCH  46  48
HETATM   48  C32 UNL     1       3.125   3.773  -2.000  1.00  0.00     0.218 C 
HETATM   49  O12 UNL     1       4.143   3.199  -1.213  1.00  0.00    -0.218 OA
BRANCH  48  50
HETATM   50  C33 UNL     1       3.781   4.514  -3.166  1.00  0.00     0.218 C 
HETATM   51  O13 UNL     1       2.816   5.363  -3.748  1.00  0.00    -0.218 OA
BRANCH  50  52
HETATM   52  C34 UNL     1       4.969   5.369  -2.729  1.00  0.00     0.218 C 
HETATM   53  O14 UNL     1       5.547   5.945  -3.877  1.00  0.00    -0.218 OA
ENDBRANCH  50  52
ENDBRANCH  48  50
ENDBRANCH  46  48
ENDBRANCH   9  46
BRANCH   4  54
HETATM   54  C41 UNL     1      -4.498   1.059  -0.951  1.00  0.00     0.005 C 
HETATM   55  C42 UNL     1      -5.053   0.273  -0.014  1.00  0.00     0.000 C 
BRANCH  54  56
HETATM   56  C43 UNL     1      -5.236   1.400  -2.174  1.00  0.00     0.000 C 
HETATM   57  C44 UNL     1      -4.904   2.486  -2.893  1.00  0.00     0.000 C 
BRANCH  57  58
HETATM   58  C45 UNL     1      -5.684   2.791  -4.127  1.00  0.00     0.000 A 
HETATM   59  C46 UNL     1      -5.381   3.936  -4.887  1.00  0.00     0.002 A 
HETATM   60  C47 UNL     1      -6.115   4.223  -6.049  1.00  0.00     0.027 A 
HETATM   61  C48 UNL     1      -7.154   3.369  -6.459  1.00  0.00     0.131 A 
HETATM   62  C49 UNL     1      -7.457   2.227  -5.699  1.00  0.00     0.027 A 
HETATM   63  O23 UNL     1      -7.844   3.641  -7.551  1.00  0.00    -0.190 OA
HETATM   64  C50 UNL     1      -6.723   1.937  -4.535  1.00  0.00     0.002 A 
ENDBRANCH  57  58
ENDBRANCH  54  56
ENDBRANCH   4  54
BRANCH   6  65
HETATM   65  O16 UNL     1      -1.309   3.434   1.516  1.00  0.00    -0.321 OA
BRANCH  65  66
HETATM   66  C35 UNL     1      -0.313   4.375   1.844  1.00  0.00     0.178 C 
BRANCH  66  67
HETATM   67  C36 UNL     1       0.088   4.160   3.309  1.00  0.00     0.180 C 
HETATM   68  C37 UNL     1       1.053   5.246   3.834  1.00  0.00     0.215 C 
HETATM   69  C38 UNL     1       1.559   4.910   5.256  1.00  0.00     0.220 C 
HETATM   70  O21 UNL     1       0.371   6.488   3.850  1.00  0.00    -0.218 OA
HETATM   71  C39 UNL     1       2.107   3.467   5.293  1.00  0.00     0.244 C 
HETATM   72  O20 UNL     1       2.578   5.824   5.631  1.00  0.00    -0.218 OA
HETATM   73  C40 UNL     1       1.088   2.469   4.684  1.00  0.00     0.303 C 
HETATM   74  O19 UNL     1       2.379   3.102   6.637  1.00  0.00    -0.215 OA
HETATM   75  O17 UNL     1       1.654   1.176   4.596  1.00  0.00    -0.187 OA
HETATM   76  O18 UNL     1       0.725   2.891   3.377  1.00  0.00    -0.324 OA
ENDBRANCH  66  67
ENDBRANCH  65  66
ENDBRANCH   6  65
TORSDOF 16
