REMARK  3 active torsions:
REMARK  status: ('A' for Active; 'I' for Inactive)
REMARK    1  A    between atoms: C9_10  and  C10_12 
REMARK    2  A    between atoms: C12_17  and  O6_19 
REMARK    3  A    between atoms: O6_19  and  C14_20 
ROOT
HETATM    1  C1  UNL     1      -0.020  -0.309   0.352  1.00  0.00     0.028 A 
HETATM    2  C2  UNL     1       0.047   0.738  -0.615  1.00  0.00     0.094 A 
HETATM    3  C3  UNL     1      -1.145   1.293  -1.137  1.00  0.00     0.049 A 
HETATM    4  C4  UNL     1      -2.404   0.803  -0.721  1.00  0.00     0.107 A 
HETATM    5  C5  UNL     1      -2.471  -0.250   0.231  1.00  0.00     0.087 A 
HETATM    6  C6  UNL     1      -1.281  -0.807   0.766  1.00  0.00     0.134 A 
HETATM    7  O1  UNL     1      -1.342  -1.801   1.664  1.00  0.00    -0.190 OA
HETATM    8  C7  UNL     1      -3.813  -0.748   0.645  1.00  0.00     0.201 A 
HETATM    9  C8  UNL     1      -4.961  -0.072   0.006  1.00  0.00     0.065 A 
HETATM   10  C9  UNL     1      -4.774   0.924  -0.888  1.00  0.00     0.114 A 
HETATM   11  O2  UNL     1      -3.535   1.338  -1.230  1.00  0.00    -0.308 OA
HETATM   12  O4  UNL     1      -4.061  -1.631   1.434  1.00  0.00    -0.286 OA
HETATM   13  O5  UNL     1       1.230   1.228  -1.051  1.00  0.00    -0.333 OA
HETATM   14  C11 UNL     1       2.467   0.555  -0.775  1.00  0.00     0.124 C 
HETATM   15  C12 UNL     1       2.443   0.045   0.680  1.00  0.00     0.154 C 
HETATM   16  C13 UNL     1       1.230  -0.873   0.916  1.00  0.00     0.063 C 
HETATM   17  C16 UNL     1       2.617  -0.602  -1.775  1.00  0.00     0.033 C 
HETATM   18  C17 UNL     1       3.600   1.562  -0.986  1.00  0.00     0.033 C 
ENDROOT
BRANCH  15  19
HETATM   19  O6  UNL     1       3.641  -0.664   0.969  1.00  0.00    -0.301 OA
BRANCH  19  20
HETATM   20  C14 UNL     1       3.812  -0.852   2.276  1.00  0.00     0.272 C 
HETATM   21  O7  UNL     1       3.098  -0.375   3.125  1.00  0.00    -0.264 OA
HETATM   22  C15 UNL     1       4.984  -1.721   2.647  1.00  0.00     0.106 C 
ENDBRANCH  19  20
ENDBRANCH  15  19
BRANCH  10  23
HETATM   23  C10 UNL     1      -5.987   1.570  -1.504  1.00  0.00     0.233 C 
HETATM   24  O3  UNL     1      -6.471   0.760  -2.551  1.00  0.00    -0.213 OA
ENDBRANCH  10  23
TORSDOF 3
