REMARK  4 active torsions:
REMARK  status: ('A' for Active; 'I' for Inactive)
REMARK    1  A    between atoms: C2_2  and  C16_21 
REMARK    2  A    between atoms: C7_8  and  C15_19 
REMARK    3  A    between atoms: C8_9  and  C9_11 
REMARK    4  A    between atoms: C16_21  and  O7_23 
ROOT
HETATM    1  C1  UNL     1      -3.916  -1.115   0.971  1.00  0.00     0.007 A 
HETATM    2  C2  UNL     1      -3.729   0.254   0.662  1.00  0.00     0.065 A 
HETATM    3  C3  UNL     1      -2.432   0.754   0.393  1.00  0.00     0.032 A 
HETATM    4  C4  UNL     1      -1.320  -0.117   0.438  1.00  0.00     0.117 A 
HETATM    5  C5  UNL     1      -1.508  -1.496   0.721  1.00  0.00     0.116 A 
HETATM    6  C6  UNL     1      -2.805  -1.990   1.000  1.00  0.00     0.026 A 
HETATM    7  O1  UNL     1      -0.451  -2.334   0.721  1.00  0.00    -0.326 OA
HETATM    8  C7  UNL     1       0.797  -1.910   0.154  1.00  0.00     0.186 C 
HETATM    9  C8  UNL     1       1.063  -0.438   0.547  1.00  0.00     0.174 C 
HETATM   10  O2  UNL     1      -0.078   0.361   0.211  1.00  0.00    -0.324 OA
ENDROOT
BRANCH   9  11
HETATM   11  C9  UNL     1       2.266   0.131  -0.119  1.00  0.00     0.010 A 
HETATM   12  C10 UNL     1       3.430   0.387   0.627  1.00  0.00     0.000 A 
HETATM   13  C11 UNL     1       4.563   0.924  -0.006  1.00  0.00     0.029 A 
HETATM   14  C12 UNL     1       4.539   1.209  -1.383  1.00  0.00     0.156 A 
HETATM   15  C13 UNL     1       3.373   0.953  -2.129  1.00  0.00     0.156 A 
HETATM   16  O4  UNL     1       5.606   1.713  -1.969  1.00  0.00    -0.188 OA
HETATM   17  C14 UNL     1       2.238   0.414  -1.496  1.00  0.00     0.028 A 
HETATM   18  O3  UNL     1       3.340   1.215  -3.422  1.00  0.00    -0.188 OA
ENDBRANCH   9  11
BRANCH   8  19
HETATM   19  C15 UNL     1       1.895  -2.869   0.625  1.00  0.00     0.215 C 
HETATM   20  O5  UNL     1       1.576  -4.164   0.164  1.00  0.00    -0.218 OA
ENDBRANCH   8  19
BRANCH   2  21
HETATM   21  C16 UNL     1      -4.893   1.164   0.621  1.00  0.00     0.296 C 
HETATM   22  O6  UNL     1      -6.057   0.912   0.822  1.00  0.00    -0.259 OA
BRANCH  21  23
HETATM   23  O7  UNL     1      -4.438   2.373   0.309  1.00  0.00    -0.296 OA
HETATM   24  C17 UNL     1      -5.479   3.338   0.232  1.00  0.00     0.185 C 
ENDBRANCH  21  23
ENDBRANCH   2  21
TORSDOF 4
