REMARK  2 active torsions:
REMARK  status: ('A' for Active; 'I' for Inactive)
REMARK    1  A    between atoms: C3_3  and  C9_14 
REMARK    2  A    between atoms: C4_5  and  N1_6 
ROOT
HETATM    1  C1  UNL     1       0.316   0.971  -1.086  1.00  0.00     0.234 C 
HETATM    2  C2  UNL     1      -0.486   2.092  -0.406  1.00  0.00     0.216 C 
HETATM    3  C3  UNL     1      -0.063   1.936   1.055  1.00  0.00     0.183 C 
HETATM    4  O1  UNL     1      -0.063   0.533   1.188  1.00  0.00    -0.331 OA
HETATM    5  C4  UNL     1       0.494  -0.080   0.041  1.00  0.00     0.242 C 
HETATM    6  O5  UNL     1      -0.156   3.369  -0.922  1.00  0.00    -0.218 OA
HETATM    7  O6  UNL     1      -0.369   0.500  -2.236  1.00  0.00    -0.216 OA
ENDROOT
BRANCH   5   8
HETATM    8  N1  UNL     1      -0.115  -1.397  -0.139  1.00  0.00    -0.254 N 
HETATM    9  C5  UNL     1      -1.498  -1.523  -0.240  1.00  0.00     0.354 A 
HETATM   10  N2  UNL     1      -2.080  -2.770  -0.410  1.00  0.00    -0.153 NA
HETATM   11  O3  UNL     1      -2.203  -0.543  -0.182  1.00  0.00    -0.244 OA
HETATM   12  C6  UNL     1      -1.297  -3.902  -0.480  1.00  0.00     0.285 A 
HETATM   13  C7  UNL     1       0.168  -3.738  -0.367  1.00  0.00     0.082 A 
HETATM   14  O2  UNL     1      -1.795  -4.994  -0.629  1.00  0.00    -0.265 OA
HETATM   15  C8  UNL     1       0.701  -2.510  -0.203  1.00  0.00     0.087 A 
ENDBRANCH   5   8
BRANCH   3  16
HETATM   16  C9  UNL     1       1.342   2.445   1.385  1.00  0.00     0.214 C 
HETATM   17  O4  UNL     1       1.580   2.229   2.756  1.00  0.00    -0.218 OA
ENDBRANCH   3  16
TORSDOF 2
