REMARK  10 active torsions:
REMARK  status: ('A' for Active; 'I' for Inactive)
REMARK    1  A    between atoms: C3_3  and  C32_41 
REMARK    2  A    between atoms: C11_12  and  O2_13 
REMARK    3  A    between atoms: N1_16  and  C15_18 
REMARK    4  A    between atoms: C18_22  and  O8_39 
REMARK    5  A    between atoms: C20_24  and  O4_25 
REMARK    6  A    between atoms: O4_25  and  C21_26 
REMARK    7  A    between atoms: C21_26  and  C22_27 
REMARK    8  A    between atoms: C24_29  and  O6_35 
REMARK    9  A    between atoms: C25_30  and  O5_33 
REMARK   10  A    between atoms: C32_41  and  O9_42 
ROOT
HETATM    1  C1  UNL     1      -2.821   2.033   0.355  1.00  0.00     0.033 C 
HETATM    2  C2  UNL     1      -3.134   0.724   1.000  1.00  0.00     0.007 C 
HETATM    3  C3  UNL     1      -2.152  -0.430   0.559  1.00  0.00     0.061 C 
HETATM    4  C4  UNL     1      -0.613  -0.105   0.940  1.00  0.00     0.036 C 
HETATM    5  C5  UNL     1      -0.344   1.306   0.261  1.00  0.00     0.060 C 
HETATM    6  C6  UNL     1      -1.405   2.431   0.652  1.00  0.00     0.154 C 
HETATM    7  O1  UNL     1      -1.180   3.642  -0.051  1.00  0.00    -0.223 OA
HETATM    8  C7  UNL     1       1.053   1.952   0.781  1.00  0.00     0.009 C 
HETATM    9  C8  UNL     1       2.107   1.008   0.701  1.00  0.00     0.056 C 
HETATM   10  C9  UNL     1       2.233   0.449  -0.702  1.00  0.00     0.135 C 
HETATM   11  C10 UNL     1       0.845  -0.333  -1.150  1.00  0.00     0.087 C 
HETATM   12  C11 UNL     1       0.459  -1.286   0.119  1.00  0.00     0.120 C 
HETATM   13  C13 UNL     1      -0.313   0.769  -1.340  1.00  0.00     0.226 C 
HETATM   14  N1  UNL     1      -1.595   0.112  -1.911  1.00  0.00     0.135 N 
HETATM   15  C14 UNL     1      -2.172  -0.835  -0.979  1.00  0.00     0.253 C 
HETATM   16  O3  UNL     1       3.333  -0.459  -0.630  1.00  0.00    -0.226 OA
HETATM   17  C17 UNL     1       2.503   1.533  -1.726  1.00  0.00     0.060 C 
HETATM   18  C18 UNL     1       3.573   2.494  -1.288  1.00  0.00     0.120 C 
HETATM   19  C19 UNL     1       3.218   2.966   0.162  1.00  0.00     0.055 C 
HETATM   20  C20 UNL     1       3.274   1.804   1.155  1.00  0.00     0.129 C 
HETATM   21  C30 UNL     1       1.667   3.327   0.138  1.00  0.00     0.005 C 
ENDROOT
BRANCH  20  22
HETATM   22  O4  UNL     1       4.449   0.960   1.091  1.00  0.00    -0.301 OA
BRANCH  22  23
HETATM   23  C21 UNL     1       5.744   1.440   1.233  1.00  0.00     0.296 C 
HETATM   24  O7  UNL     1       6.009   2.632   1.424  1.00  0.00    -0.259 OA
BRANCH  23  25
HETATM   25  C22 UNL     1       6.777   0.437   0.934  1.00  0.00     0.065 A 
HETATM   26  C23 UNL     1       8.059   0.751   0.767  1.00  0.00     0.032 A 
HETATM   27  C24 UNL     1       9.057  -0.293   0.384  1.00  0.00     0.116 A 
HETATM   28  C25 UNL     1       8.630  -1.575   0.222  1.00  0.00     0.116 A 
HETATM   29  C26 UNL     1       7.207  -1.881   0.423  1.00  0.00     0.026 A 
HETATM   30  C27 UNL     1       6.340  -0.933   0.749  1.00  0.00     0.007 A 
BRANCH  27  31
HETATM   31  O6  UNL     1      10.418   0.189   0.206  1.00  0.00    -0.326 OA
HETATM   32  C29 UNL     1      11.443  -0.739  -0.190  1.00  0.00     0.181 C 
ENDBRANCH  27  31
BRANCH  28  33
HETATM   33  O5  UNL     1       9.478  -2.653  -0.140  1.00  0.00    -0.326 OA
HETATM   34  C28 UNL     1       8.754  -3.894  -0.236  1.00  0.00     0.181 C 
ENDBRANCH  28  33
ENDBRANCH  23  25
ENDBRANCH  22  23
ENDBRANCH  20  22
BRANCH  18  35
HETATM   35  O8  UNL     1       3.530   3.597  -2.237  1.00  0.00    -0.354 OA
HETATM   36  C31 UNL     1       4.518   4.615  -1.960  1.00  0.00     0.174 C 
ENDBRANCH  18  35
BRANCH  12  37
HETATM   37  O2  UNL     1      -0.160  -2.589  -0.096  1.00  0.00    -0.354 OA
HETATM   38  C12 UNL     1       0.012  -3.451   1.050  1.00  0.00     0.174 C 
ENDBRANCH  12  37
BRANCH   3  39
HETATM   39  C32 UNL     1      -2.758  -1.625   1.397  1.00  0.00     0.144 C 
BRANCH  39  40
HETATM   40  O9  UNL     1      -3.121  -1.264   2.841  1.00  0.00    -0.351 OA
HETATM   41  C33 UNL     1      -2.087  -1.027   3.856  1.00  0.00     0.174 C 
ENDBRANCH  39  40
ENDBRANCH   3  39
BRANCH  14  42
HETATM   42  C15 UNL     1      -2.640   0.959  -2.596  1.00  0.00     0.250 C 
HETATM   43  C16 UNL     1      -2.064   1.728  -3.800  1.00  0.00     0.037 C 
ENDBRANCH  14  42
TORSDOF 10
