REMARK  9 active torsions:
REMARK  status: ('A' for Active; 'I' for Inactive)
REMARK    1  A    between atoms: C3_3  and  O5_21 
REMARK    2  A    between atoms: C4_4  and  O3_9 
REMARK    3  A    between atoms: C5_6  and  C6_7 
REMARK    4  A    between atoms: O3_9  and  C7_10 
REMARK    5  A    between atoms: C10_13  and  C13_16 
REMARK    6  A    between atoms: C13_16  and  C14_17 
REMARK    7  A    between atoms: C14_17  and  C15_18 
REMARK    8  A    between atoms: O5_21  and  C17_22 
REMARK    9  A    between atoms: C17_22  and  C18_23 
ROOT
HETATM    1  C1  UNL     1       3.483   1.241  -2.882  1.00  0.00     0.215 C 
HETATM    2  C2  UNL     1       2.693  -0.027  -3.271  1.00  0.00     0.217 C 
HETATM    3  C3  UNL     1       1.263   0.057  -2.711  1.00  0.00     0.214 C 
HETATM    4  C4  UNL     1       1.278   0.383  -1.207  1.00  0.00     0.272 C 
HETATM    5  O1  UNL     1       2.014   1.578  -0.980  1.00  0.00    -0.326 OA
HETATM    6  C5  UNL     1       3.382   1.520  -1.364  1.00  0.00     0.184 C 
HETATM    7  O10 UNL     1       2.634  -0.161  -4.680  1.00  0.00    -0.218 OA
HETATM    8  O11 UNL     1       4.848   1.081  -3.226  1.00  0.00    -0.218 OA
ENDROOT
BRANCH   3   9
HETATM    9  O5  UNL     1       0.596  -1.182  -2.912  1.00  0.00    -0.293 OA
BRANCH   9  10
HETATM   10  C17 UNL     1      -0.728  -1.050  -2.912  1.00  0.00     0.296 C 
HETATM   11  O9  UNL     1      -1.298   0.015  -2.912  1.00  0.00    -0.259 OA
BRANCH  10  12
HETATM   12  C18 UNL     1      -1.495  -2.332  -2.912  1.00  0.00     0.067 A 
HETATM   13  C19 UNL     1      -2.901  -2.312  -2.912  1.00  0.00     0.035 A 
HETATM   14  C20 UNL     1      -3.625  -3.517  -2.912  1.00  0.00     0.158 A 
HETATM   15  O6  UNL     1      -4.942  -3.491  -2.912  1.00  0.00    -0.188 OA
HETATM   16  C21 UNL     1      -2.940  -4.747  -2.912  1.00  0.00     0.181 A 
HETATM   17  O7  UNL     1      -3.617  -5.878  -2.912  1.00  0.00    -0.186 OA
HETATM   18  C22 UNL     1      -1.533  -4.769  -2.912  1.00  0.00     0.158 A 
HETATM   19  O8  UNL     1      -0.888  -5.919  -2.912  1.00  0.00    -0.188 OA
HETATM   20  C23 UNL     1      -0.813  -3.562  -2.912  1.00  0.00     0.035 A 
ENDBRANCH  10  12
ENDBRANCH   9  10
ENDBRANCH   3   9
BRANCH   4  21
HETATM   21  O3  UNL     1      -0.053   0.557  -0.743  1.00  0.00    -0.304 OA
BRANCH  21  22
HETATM   22  C7  UNL     1      -0.227   0.973   0.495  1.00  0.00     0.097 A 
HETATM   23  C8  UNL     1      -1.379   1.701   0.841  1.00  0.00     0.024 A 
HETATM   24  C9  UNL     1      -1.566   2.145   2.161  1.00  0.00    -0.002 A 
HETATM   25  C10 UNL     1      -0.599   1.862   3.141  1.00  0.00    -0.022 A 
HETATM   26  C11 UNL     1       0.555   1.134   2.799  1.00  0.00    -0.002 A 
HETATM   27  C12 UNL     1       0.739   0.691   1.478  1.00  0.00     0.024 A 
BRANCH  25  28
HETATM   28  C13 UNL     1      -0.795   2.330   4.538  1.00  0.00     0.034 C 
BRANCH  28  29
HETATM   29  C14 UNL     1      -1.841   1.491   5.272  1.00  0.00     0.069 C 
BRANCH  29  30
HETATM   30  C15 UNL     1      -2.046   1.943   6.693  1.00  0.00     0.151 C 
HETATM   31  C16 UNL     1      -2.950   1.122   7.573  1.00  0.00     0.072 C 
HETATM   32  O4  UNL     1      -1.501   2.936   7.114  1.00  0.00    -0.296 OA
ENDBRANCH  29  30
ENDBRANCH  28  29
ENDBRANCH  25  28
ENDBRANCH  21  22
ENDBRANCH   4  21
BRANCH   6  33
HETATM   33  C6  UNL     1       4.013   2.857  -0.957  1.00  0.00     0.214 C 
HETATM   34  O2  UNL     1       4.009   2.937   0.450  1.00  0.00    -0.218 OA
ENDBRANCH   6  33
TORSDOF 9
