REMARK  5 active torsions:
REMARK  status: ('A' for Active; 'I' for Inactive)
REMARK    1  A    between atoms: C1_1  and  C2_2 
REMARK    2  A    between atoms: C4_4  and  C9_10 
REMARK    3  A    between atoms: C5_5  and  O1_8 
REMARK    4  A    between atoms: C16_17  and  C18_20 
REMARK    5  A    between atoms: C21_23  and  O3_26 
ROOT
HETATM    1  C9  UNL     1      -2.232  -1.063   0.398  1.00  0.00     0.050 A 
HETATM    2  C10 UNL     1      -3.367  -1.858   0.717  1.00  0.00     0.135 A 
HETATM    3  C11 UNL     1      -3.203  -3.164   1.232  1.00  0.00     0.055 A 
HETATM    4  C12 UNL     1      -1.910  -3.693   1.438  1.00  0.00     0.138 A 
HETATM    5  C13 UNL     1      -0.773  -2.908   1.123  1.00  0.00     0.087 A 
HETATM    6  C14 UNL     1       0.607  -3.436   1.326  1.00  0.00     0.202 A 
HETATM    7  C15 UNL     1       1.699  -2.510   0.957  1.00  0.00     0.067 A 
HETATM    8  C16 UNL     1       1.430  -1.277   0.473  1.00  0.00     0.103 A 
HETATM    9  O2  UNL     1       0.162  -0.850   0.309  1.00  0.00    -0.307 OA
HETATM   10  C17 UNL     1      -0.930  -1.594   0.604  1.00  0.00     0.107 A 
HETATM   11  O4  UNL     1       0.926  -4.522   1.752  1.00  0.00    -0.286 OA
HETATM   12  O5  UNL     1      -1.779  -4.936   1.930  1.00  0.00    -0.190 OA
HETATM   13  O6  UNL     1      -4.609  -1.383   0.533  1.00  0.00    -0.190 OA
ENDROOT
BRANCH   1  14
HETATM   14  C4  UNL     1      -2.404   0.283  -0.135  1.00  0.00     0.026 A 
HETATM   15  C3  UNL     1      -1.797   0.627  -1.357  1.00  0.00     0.008 A 
HETATM   16  C2  UNL     1      -1.953   1.922  -1.885  1.00  0.00     0.065 A 
HETATM   17  C7  UNL     1      -2.717   2.875  -1.187  1.00  0.00     0.008 A 
HETATM   18  C6  UNL     1      -3.322   2.533   0.031  1.00  0.00     0.024 A 
HETATM   19  C5  UNL     1      -3.170   1.240   0.565  1.00  0.00     0.094 A 
BRANCH  16  20
HETATM   20  C1  UNL     1      -1.309   2.283  -3.182  1.00  0.00     0.211 C 
HETATM   21  O7  UNL     1      -1.373   3.410  -3.615  1.00  0.00    -0.644 OA
HETATM   22  O8  UNL     1      -0.678   1.289  -3.799  1.00  0.00    -0.644 OA
ENDBRANCH  16  20
BRANCH  19  23
HETATM   23  O1  UNL     1      -3.748   0.941   1.713  1.00  0.00    -0.328 OA
HETATM   24  C8  UNL     1      -4.506   1.953   2.361  1.00  0.00     0.181 C 
ENDBRANCH  19  23
ENDBRANCH   1  14
BRANCH   8  25
HETATM   25  C18 UNL     1       2.570  -0.379   0.117  1.00  0.00     0.023 A 
HETATM   26  C19 UNL     1       2.395   1.016   0.117  1.00  0.00     0.004 A 
HETATM   27  C20 UNL     1       3.467   1.859  -0.219  1.00  0.00     0.024 A 
HETATM   28  C21 UNL     1       4.719   1.314  -0.553  1.00  0.00     0.094 A 
HETATM   29  C22 UNL     1       4.893  -0.082  -0.551  1.00  0.00     0.024 A 
HETATM   30  C23 UNL     1       3.822  -0.928  -0.217  1.00  0.00     0.004 A 
BRANCH  28  31
HETATM   31  O3  UNL     1       5.725   2.105  -0.867  1.00  0.00    -0.328 OA
HETATM   32  C24 UNL     1       6.985   1.510  -1.139  1.00  0.00     0.181 C 
ENDBRANCH  28  31
ENDBRANCH   8  25
TORSDOF 5
