REMARK  4 active torsions:
REMARK  status: ('A' for Active; 'I' for Inactive)
REMARK    1  A    between atoms: C3_3  and  C20_22 
REMARK    2  A    between atoms: C7_7  and  C12_12 
REMARK    3  A    between atoms: C12_12  and  C13_13 
REMARK    4  A    between atoms: C13_13  and  C14_14 
ROOT
HETATM    1  C1  UNL     1      -3.049   0.219  -0.043  1.00  0.00     0.033 C 
HETATM    2  C2  UNL     1      -3.094  -1.322  -0.203  1.00  0.00     0.154 C 
HETATM    3  C3  UNL     1      -2.035  -2.059   0.654  1.00  0.00     0.059 C 
HETATM    4  C4  UNL     1      -0.584  -1.504   0.424  1.00  0.00     0.005 C 
HETATM    5  C5  UNL     1      -0.502  -0.062  -0.154  1.00  0.00     0.004 C 
HETATM    6  C6  UNL     1      -1.674   0.770   0.393  1.00  0.00     0.003 C 
HETATM    7  C7  UNL     1       0.871   0.525   0.270  1.00  0.00     0.023 C 
HETATM    8  C8  UNL     1       2.008  -0.457   0.025  1.00  0.00    -0.044 C 
HETATM    9  C9  UNL     1       1.723  -1.752  -0.715  1.00  0.00     0.022 C 
HETATM   10  C10 UNL     1       0.387  -2.434  -0.338  1.00  0.00     0.004 C 
HETATM   11  C11 UNL     1       3.248  -0.186   0.473  1.00  0.00    -0.009 C 
HETATM   12  C18 UNL     1      -0.580  -0.055  -1.695  1.00  0.00     0.000 C 
HETATM   13  C19 UNL     1      -2.426  -1.844   2.125  1.00  0.00     0.005 C 
HETATM   14  O4  UNL     1      -2.945  -1.670  -1.568  1.00  0.00    -0.223 OA
ENDROOT
BRANCH   7  15
HETATM   15  C12 UNL     1       1.162   1.879  -0.394  1.00  0.00     0.030 C 
BRANCH  15  16
HETATM   16  C13 UNL     1       1.994   2.781   0.481  1.00  0.00    -0.020 C 
BRANCH  16  17
HETATM   17  C14 UNL     1       2.758   3.766  -0.033  1.00  0.00     0.061 A 
HETATM   18  C15 UNL     1       2.941   4.152  -1.428  1.00  0.00     0.300 A 
HETATM   19  O1  UNL     1       3.801   5.188  -1.498  1.00  0.00    -0.271 OA
HETATM   20  O2  UNL     1       2.398   3.619  -2.367  1.00  0.00    -0.259 OA
HETATM   21  C16 UNL     1       4.164   5.477  -0.227  1.00  0.00     0.126 A 
HETATM   22  C17 UNL     1       3.592   4.686   0.697  1.00  0.00     0.032 A 
ENDBRANCH  16  17
ENDBRANCH  15  16
ENDBRANCH   7  15
BRANCH   3  23
HETATM   23  C20 UNL     1      -2.110  -3.576   0.418  1.00  0.00     0.185 C 
HETATM   24  O3  UNL     1      -3.430  -3.998   0.672  1.00  0.00    -0.221 OA
ENDBRANCH   3  23
TORSDOF 4
