REMARK  0 active torsions:
REMARK  status: ('A' for Active; 'I' for Inactive)
ROOT
HETATM    1  C1  UNL     1       3.756  -0.359  -0.377  1.00  0.00     0.018 C 
HETATM    2  C2  UNL     1       3.305  -1.627   0.361  1.00  0.00     0.004 C 
HETATM    3  C3  UNL     1       1.859  -1.469   0.875  1.00  0.00     0.000 C 
HETATM    4  C4  UNL     1       0.893  -0.877  -0.182  1.00  0.00     0.000 C 
HETATM    5  C5  UNL     1       1.535   0.342  -0.904  1.00  0.00     0.004 C 
HETATM    6  C6  UNL     1       2.123   1.434   0.020  1.00  0.00     0.022 C 
HETATM    7  C7  UNL     1       3.469   0.889   0.406  1.00  0.00    -0.044 C 
HETATM    8  C8  UNL     1       4.293   1.439   1.317  1.00  0.00    -0.009 C 
HETATM    9  C9  UNL     1       0.600   0.926  -1.969  1.00  0.00     0.000 C 
HETATM   10  C10 UNL     1      -0.742   1.299  -1.328  1.00  0.00     0.000 C 
HETATM   11  C11 UNL     1      -1.432   0.078  -0.682  1.00  0.00     0.000 C 
HETATM   12  C12 UNL     1      -0.535  -0.607   0.387  1.00  0.00     0.000 C 
HETATM   13  C13 UNL     1      -1.178  -1.963   0.797  1.00  0.00     0.000 C 
HETATM   14  C14 UNL     1      -2.711  -2.012   0.662  1.00  0.00     0.000 C 
HETATM   15  C15 UNL     1      -3.344  -0.635   0.881  1.00  0.00     0.000 C 
HETATM   16  C16 UNL     1      -2.873   0.398  -0.170  1.00  0.00     0.000 C 
HETATM   17  C17 UNL     1      -2.955   1.795   0.461  1.00  0.00     0.000 C 
HETATM   18  C18 UNL     1      -3.836   0.375  -1.367  1.00  0.00     0.000 C 
HETATM   19  C19 UNL     1      -0.459   0.299   1.627  1.00  0.00     0.000 C 
HETATM   20  C20 UNL     1       2.828  -0.170  -1.578  1.00  0.00     0.004 C 
ENDROOT
TORSDOF 0
