REMARK  0 active torsions:
REMARK  status: ('A' for Active; 'I' for Inactive)
ROOT
HETATM    1  C1  UNL     1      -2.272   2.232  -0.031  1.00  0.00     0.036 C 
HETATM    2  C2  UNL     1      -3.336   1.250   0.482  1.00  0.00     0.038 C 
HETATM    3  C3  UNL     1      -2.727   0.100   1.299  1.00  0.00     0.250 C 
HETATM    4  N1  UNL     1      -1.697  -0.648   0.547  1.00  0.00     0.138 N 
HETATM    5  C4  UNL     1      -1.166   0.023  -0.664  1.00  0.00     0.250 C 
HETATM    6  C5  UNL     1      -0.940   1.529  -0.412  1.00  0.00     0.176 C 
HETATM    7  C6  UNL     1       0.144   1.748   0.668  1.00  0.00     0.136 C 
HETATM    8  N2  UNL     1       1.348   0.867   0.564  1.00  0.00    -0.319 N 
HETATM    9  C7  UNL     1       1.350  -0.438  -0.182  1.00  0.00     0.086 C 
HETATM   10  C8  UNL     1       0.133  -0.666  -1.125  1.00  0.00     0.054 C 
HETATM   11  C9  UNL     1      -0.141  -2.160  -1.389  1.00  0.00     0.006 C 
HETATM   12  C10 UNL     1      -0.797  -2.840  -0.180  1.00  0.00     0.035 C 
HETATM   13  C11 UNL     1      -2.027  -2.063   0.314  1.00  0.00     0.250 C 
HETATM   14  C12 UNL     1       2.670  -0.623  -0.977  1.00  0.00     0.023 C 
HETATM   15  C13 UNL     1       3.957  -0.225  -0.229  1.00  0.00     0.012 C 
HETATM   16  C14 UNL     1       3.695   0.313   1.182  1.00  0.00     0.088 C 
HETATM   17  C15 UNL     1       2.502   1.238   1.225  1.00  0.00     0.234 C 
HETATM   18  O1  UNL     1       2.564   2.281   1.836  1.00  0.00    -0.272 OA
HETATM   19  O2  UNL     1      -0.475   2.135  -1.609  1.00  0.00    -0.222 OA
ENDROOT
TORSDOF 0
