REMARK  4 active torsions:
REMARK  status: ('A' for Active; 'I' for Inactive)
REMARK    1  A    between atoms: C4_4  and  C7_7 
REMARK    2  A    between atoms: C10_11  and  C11_12 
REMARK    3  A    between atoms: C12_15  and  C16_20 
REMARK    4  A    between atoms: C17_21  and  C18_22 
ROOT
HETATM    1  C7  UNL     1      -0.990   1.293  -0.695  1.00  0.00     0.158 A 
HETATM    2  O1  UNL     1       0.215   2.076  -0.660  1.00  0.00    -0.326 OA
HETATM    3  C8  UNL     1       1.297   1.299  -0.639  1.00  0.00     0.116 A 
HETATM    4  C9  UNL     1       0.969  -0.066  -0.637  1.00  0.00     0.015 A 
HETATM    5  C10 UNL     1      -0.537  -0.207  -0.662  1.00  0.00     0.143 A 
HETATM    6  C12 UNL     1       2.000  -1.041  -0.605  1.00  0.00    -0.001 A 
HETATM    7  C13 UNL     1       3.354  -0.660  -0.586  1.00  0.00     0.002 A 
HETATM    8  C14 UNL     1       3.680   0.709  -0.592  1.00  0.00     0.029 A 
HETATM    9  C15 UNL     1       2.664   1.695  -0.617  1.00  0.00     0.153 A 
HETATM   10  O4  UNL     1       3.127   2.953  -0.617  1.00  0.00    -0.188 OA
ENDROOT
BRANCH   1  11
HETATM   11  C4  UNL     1      -1.865   1.672   0.445  1.00  0.00     0.008 A 
HETATM   12  C3  UNL     1      -1.346   1.703   1.750  1.00  0.00     0.028 A 
HETATM   13  C2  UNL     1      -2.168   2.063   2.832  1.00  0.00     0.156 A 
HETATM   14  C1  UNL     1      -3.518   2.391   2.607  1.00  0.00     0.156 A 
HETATM   15  O7  UNL     1      -1.674   2.088   4.055  1.00  0.00    -0.188 OA
HETATM   16  C6  UNL     1      -4.037   2.359   1.301  1.00  0.00     0.029 A 
HETATM   17  O8  UNL     1      -4.297   2.727   3.615  1.00  0.00    -0.188 OA
HETATM   18  C5  UNL     1      -3.213   2.000   0.221  1.00  0.00     0.000 A 
ENDBRANCH   1  11
BRANCH   5  19
HETATM   19  C11 UNL     1      -0.973  -0.992  -1.875  1.00  0.00     0.192 C 
HETATM   20  O2  UNL     1      -0.693  -0.617  -2.990  1.00  0.00    -0.647 OA
HETATM   21  O3  UNL     1      -1.666  -2.098  -1.617  1.00  0.00    -0.647 OA
ENDBRANCH   5  19
BRANCH   6  22
HETATM   22  C16 UNL     1       1.649  -2.479  -0.594  1.00  0.00     0.006 C 
HETATM   23  C17 UNL     1       2.481  -3.350  -1.188  1.00  0.00     0.070 C 
BRANCH  23  24
HETATM   24  C18 UNL     1       2.176  -4.785  -1.201  1.00  0.00     0.211 C 
HETATM   25  O5  UNL     1       3.065  -5.559  -1.814  1.00  0.00    -0.644 OA
HETATM   26  O6  UNL     1       1.168  -5.201  -0.678  1.00  0.00    -0.644 OA
ENDBRANCH  23  24
ENDBRANCH   6  22
TORSDOF 4
