REMARK  1 active torsions:
REMARK  status: ('A' for Active; 'I' for Inactive)
REMARK    1  A    between atoms: C5_5  and  C6_6 
ROOT
HETATM    1  C1  UNL     1      -3.547  -0.633   0.529  1.00  0.00     0.030 C 
HETATM    2  C2  UNL     1      -2.092  -0.244   0.563  1.00  0.00    -0.026 A 
HETATM    3  C3  UNL     1      -1.750   1.053   0.445  1.00  0.00    -0.030 A 
HETATM    4  C4  UNL     1      -0.307   1.504   0.467  1.00  0.00     0.030 A 
HETATM    5  C5  UNL     1       0.770   0.399   0.631  1.00  0.00     0.026 A 
HETATM    6  C9  UNL     1       0.242  -1.013   0.762  1.00  0.00    -0.026 A 
HETATM    7  C10 UNL     1      -1.074  -1.291   0.725  1.00  0.00    -0.009 A 
ENDROOT
BRANCH   5   8
HETATM    8  C6  UNL     1       1.797   0.446  -0.506  1.00  0.00     0.004 C 
HETATM    9  C7  UNL     1       3.086  -0.304  -0.168  1.00  0.00     0.000 C 
HETATM   10  C8  UNL     1       1.205   0.024  -1.852  1.00  0.00     0.000 C 
ENDBRANCH   5   8
TORSDOF 1
