REMARK  5 active torsions:
REMARK  status: ('A' for Active; 'I' for Inactive)
REMARK    1  A    between atoms: C2_2  and  C7_9 
REMARK    2  A    between atoms: C8_10  and  C9_11 
REMARK    3  A    between atoms: C9_11  and  O3_12 
REMARK    4  A    between atoms: O3_12  and  C10_13 
REMARK    5  A    between atoms: C14_17  and  C16_19 
ROOT
HETATM    1  C9  UNL     1       0.129  -0.100   0.592  1.00  0.00     0.296 C 
HETATM    2  O8  UNL     1      -0.051   0.637   1.533  1.00  0.00    -0.259 OA
ENDROOT
BRANCH   1   3
HETATM    3  C8  UNL     1      -0.971  -0.918   0.070  1.00  0.00     0.068 C 
HETATM    4  C7  UNL     1      -2.192  -0.863   0.627  1.00  0.00     0.005 C 
BRANCH   4   5
HETATM    5  C2  UNL     1      -3.280  -1.715   0.060  1.00  0.00     0.002 A 
HETATM    6  C1  UNL     1      -3.272  -2.053  -1.305  1.00  0.00     0.002 A 
HETATM    7  C6  UNL     1      -4.295  -2.855  -1.834  1.00  0.00     0.029 A 
HETATM    8  C5  UNL     1      -5.330  -3.324  -1.006  1.00  0.00     0.156 A 
HETATM    9  C4  UNL     1      -5.338  -2.986   0.361  1.00  0.00     0.156 A 
HETATM   10  O1  UNL     1      -6.287  -4.076  -1.510  1.00  0.00    -0.188 OA
HETATM   11  C3  UNL     1      -4.313  -2.184   0.890  1.00  0.00     0.029 A 
HETATM   12  O2  UNL     1      -6.305  -3.420   1.146  1.00  0.00    -0.188 OA
ENDBRANCH   4   5
ENDBRANCH   1   3
BRANCH   1  13
HETATM   13  O3  UNL     1       1.295  -0.230  -0.033  1.00  0.00    -0.298 OA
BRANCH  13  14
HETATM   14  C10 UNL     1       2.271   0.686   0.445  1.00  0.00     0.162 C 
HETATM   15  C11 UNL     1       3.668   0.279  -0.047  1.00  0.00     0.214 C 
HETATM   16  C12 UNL     1       4.740   1.272   0.469  1.00  0.00     0.207 C 
HETATM   17  O7  UNL     1       3.963  -1.053   0.340  1.00  0.00    -0.218 OA
HETATM   18  C13 UNL     1       4.332   2.719   0.281  1.00  0.00     0.011 C 
HETATM   19  O6  UNL     1       4.988   1.082   1.849  1.00  0.00    -0.216 OA
HETATM   20  C14 UNL     1       3.055   3.104   0.058  1.00  0.00     0.043 C 
HETATM   21  C15 UNL     1       1.928   2.094  -0.067  1.00  0.00     0.065 C 
BRANCH  20  22
HETATM   22  C16 UNL     1       2.721   4.529  -0.074  1.00  0.00     0.206 C 
HETATM   23  O4  UNL     1       3.519   5.377   0.246  1.00  0.00    -0.644 OA
HETATM   24  O5  UNL     1       1.510   4.797  -0.561  1.00  0.00    -0.644 OA
ENDBRANCH  20  22
ENDBRANCH  13  14
ENDBRANCH   1  13
TORSDOF 5
