REMARK  2 active torsions:
REMARK  status: ('A' for Active; 'I' for Inactive)
REMARK    1  A    between atoms: C3_3  and  C20_22 
REMARK    2  A    between atoms: C12_13  and  C15_17 
ROOT
HETATM    1  C1  UNL     1       3.041   1.479   0.453  1.00  0.00     0.001 C 
HETATM    2  C2  UNL     1       4.010   0.373  -0.004  1.00  0.00     0.010 C 
HETATM    3  C3  UNL     1       3.309  -0.805  -0.733  1.00  0.00     0.079 C 
HETATM    4  C4  UNL     1       1.803  -0.846  -0.346  1.00  0.00     0.018 C 
HETATM    5  C5  UNL     1       1.021   0.432  -0.781  1.00  0.00     0.005 C 
HETATM    6  C6  UNL     1       1.910   1.693  -0.555  1.00  0.00     0.000 C 
HETATM    7  C7  UNL     1      -0.301   0.467   0.039  1.00  0.00     0.025 C 
HETATM    8  C8  UNL     1      -1.084  -0.848  -0.016  1.00  0.00     0.010 C 
HETATM    9  C9  UNL     1      -0.387  -2.119  -0.348  1.00  0.00     0.169 C 
HETATM   10  C10 UNL     1       1.055  -2.109  -0.803  1.00  0.00     0.069 C 
HETATM   11  O1  UNL     1      -0.963  -3.182  -0.256  1.00  0.00    -0.292 OA
HETATM   12  C11 UNL     1      -2.416  -0.863   0.238  1.00  0.00     0.002 C 
HETATM   13  C12 UNL     1      -3.246   0.369   0.537  1.00  0.00     0.145 C 
HETATM   14  C13 UNL     1      -2.428   1.674   0.621  1.00  0.00     0.035 C 
HETATM   15  C14 UNL     1      -1.230   1.647  -0.328  1.00  0.00     0.007 C 
HETATM   16  O2  UNL     1      -4.170   0.508  -0.522  1.00  0.00    -0.222 OA
HETATM   17  C18 UNL     1       0.658   0.371  -2.277  1.00  0.00     0.000 C 
HETATM   18  C19 UNL     1       3.469  -0.666  -2.254  1.00  0.00     0.011 C 
ENDROOT
BRANCH   3  19
HETATM   19  C20 UNL     1       4.008  -2.088  -0.346  1.00  0.00     0.184 C 
HETATM   20  O3  UNL     1       4.531  -2.209   0.738  1.00  0.00    -0.647 OA
HETATM   21  O4  UNL     1       3.998  -3.041  -1.274  1.00  0.00    -0.647 OA
ENDBRANCH   3  19
BRANCH  13  22
HETATM   22  C15 UNL     1      -4.082   0.162   1.803  1.00  0.00     0.032 C 
HETATM   23  C16 UNL     1      -3.238  -0.273   3.002  1.00  0.00     0.003 C 
HETATM   24  C17 UNL     1      -4.982   1.357   2.119  1.00  0.00     0.003 C 
ENDBRANCH  13  22
TORSDOF 2
