REMARK  9 active torsions:
REMARK  status: ('A' for Active; 'I' for Inactive)
REMARK    1  A    between atoms: C1_1  and  O3_13 
REMARK    2  A    between atoms: C2_2  and  O2_11 
REMARK    3  A    between atoms: C4_4  and  C7_7 
REMARK    4  A    between atoms: C8_8  and  C9_9 
REMARK    5  A    between atoms: O3_13  and  C11_14 
REMARK    6  A    between atoms: C12_16  and  C16_23 
REMARK    7  A    between atoms: C16_23  and  O8_24 
REMARK    8  A    between atoms: O8_24  and  C17_25 
REMARK    9  A    between atoms: C18_27  and  C21_32 
ROOT
HETATM    1  C11 UNL     1       0.332   2.852  -0.299  1.00  0.00     0.274 C 
HETATM    2  O4  UNL     1      -0.680   1.971  -0.764  1.00  0.00    -0.326 OA
HETATM    3  C12 UNL     1      -1.998   2.299  -0.346  1.00  0.00     0.180 C 
HETATM    4  C13 UNL     1      -2.379   3.695  -0.891  1.00  0.00     0.215 C 
HETATM    5  C14 UNL     1      -1.340   4.764  -0.482  1.00  0.00     0.220 C 
HETATM    6  C15 UNL     1       0.078   4.273  -0.846  1.00  0.00     0.241 C 
HETATM    7  O5  UNL     1       1.047   5.148  -0.297  1.00  0.00    -0.215 OA
HETATM    8  O6  UNL     1      -1.613   5.982  -1.156  1.00  0.00    -0.218 OA
HETATM    9  O7  UNL     1      -3.654   4.049  -0.385  1.00  0.00    -0.218 OA
ENDROOT
BRANCH   1  10
HETATM   10  O3  UNL     1       1.596   2.377  -0.748  1.00  0.00    -0.302 OA
BRANCH  10  11
HETATM   11  C1  UNL     1       1.992   1.189  -0.334  1.00  0.00     0.119 A 
HETATM   12  C2  UNL     1       2.275   0.973   1.027  1.00  0.00     0.116 A 
HETATM   13  C3  UNL     1       2.697  -0.297   1.461  1.00  0.00     0.026 A 
HETATM   14  C4  UNL     1       2.838  -1.350   0.537  1.00  0.00     0.002 A 
HETATM   15  C5  UNL     1       2.555  -1.131  -0.822  1.00  0.00     0.002 A 
HETATM   16  C6  UNL     1       2.133   0.139  -1.254  1.00  0.00     0.026 A 
BRANCH  12  17
HETATM   17  O2  UNL     1       2.147   1.953   1.899  1.00  0.00    -0.326 OA
HETATM   18  C10 UNL     1       2.484   1.691   3.252  1.00  0.00     0.181 C 
ENDBRANCH  12  17
BRANCH  14  19
HETATM   19  C7  UNL     1       3.287  -2.695   1.002  1.00  0.00    -0.002 C 
HETATM   20  C8  UNL     1       3.953  -2.789   2.164  1.00  0.00     0.009 C 
BRANCH  20  21
HETATM   21  C9  UNL     1       4.404  -4.149   2.627  1.00  0.00     0.209 C 
HETATM   22  O1  UNL     1       5.473  -4.004   3.535  1.00  0.00    -0.215 OA
ENDBRANCH  20  21
ENDBRANCH  14  19
ENDBRANCH  10  11
ENDBRANCH   1  10
BRANCH   3  23
HETATM   23  C16 UNL     1      -2.916   1.186  -0.861  1.00  0.00     0.177 C 
BRANCH  23  24
HETATM   24  O8  UNL     1      -2.588  -0.004  -0.180  1.00  0.00    -0.326 OA
BRANCH  24  25
HETATM   25  C17 UNL     1      -3.395  -1.107  -0.564  1.00  0.00     0.270 C 
HETATM   26  O9  UNL     1      -3.092  -1.516  -1.879  1.00  0.00    -0.326 OA
HETATM   27  C18 UNL     1      -1.910  -2.293  -1.904  1.00  0.00     0.184 C 
HETATM   28  C19 UNL     1      -1.807  -2.924  -0.496  1.00  0.00     0.217 C 
HETATM   29  C20 UNL     1      -3.070  -2.385   0.217  1.00  0.00     0.241 C 
HETATM   30  O11 UNL     1      -0.602  -2.500   0.121  1.00  0.00    -0.218 OA
HETATM   31  O10 UNL     1      -2.932  -2.184   1.615  1.00  0.00    -0.215 OA
BRANCH  27  32
HETATM   32  C21 UNL     1      -2.045  -3.326  -3.016  1.00  0.00     0.214 C 
HETATM   33  O12 UNL     1      -1.969  -2.656  -4.254  1.00  0.00    -0.218 OA
ENDBRANCH  27  32
ENDBRANCH  24  25
ENDBRANCH  23  24
ENDBRANCH   3  23
TORSDOF 9
