REMARK  14 active torsions:
REMARK  status: ('A' for Active; 'I' for Inactive)
REMARK    1  A    between atoms: C1_1  and  O3_24 
REMARK    2  A    between atoms: C5_5  and  C7_7 
REMARK    3  A    between atoms: C7_7  and  C8_8 
REMARK    4  A    between atoms: C8_8  and  C9_9 
REMARK    5  A    between atoms: C9_9  and  C10_10 
REMARK    6  A    between atoms: C10_10  and  C11_11 
REMARK    7  A    between atoms: C11_11  and  C12_12 
REMARK    8  A    between atoms: C12_12  and  C13_13 
REMARK    9  A    between atoms: C13_13  and  C14_14 
REMARK   10  A    between atoms: C14_14  and  C15_15 
REMARK   11  A    between atoms: C15_15  and  C16_16 
REMARK   12  A    between atoms: C17_17  and  C18_18 
REMARK   13  A    between atoms: C18_18  and  C19_19 
REMARK   14  A    between atoms: C19_19  and  C20_20 
ROOT
HETATM    1  C9  UNL     1      -2.699  -1.066   0.209  1.00  0.00     0.000 C 
ENDROOT
BRANCH   1   2
HETATM    2  C8  UNL     1      -3.451  -2.397   0.209  1.00  0.00     0.005 C 
BRANCH   2   3
HETATM    3  C7  UNL     1      -4.971  -2.217   0.209  1.00  0.00     0.029 C 
BRANCH   3   4
HETATM    4  C5  UNL     1      -5.676  -3.527   0.209  1.00  0.00     0.007 A 
HETATM    5  C4  UNL     1      -7.084  -3.574   0.209  1.00  0.00     0.152 A 
HETATM    6  C3  UNL     1      -7.740  -4.820   0.209  1.00  0.00     0.158 A 
HETATM    7  O1  UNL     1      -7.789  -2.459   0.209  1.00  0.00    -0.188 OA
HETATM    8  C2  UNL     1      -6.990  -6.008   0.209  1.00  0.00     0.054 A 
HETATM    9  O2  UNL     1      -9.059  -4.875   0.209  1.00  0.00    -0.188 OA
HETATM   10  C1  UNL     1      -5.586  -5.963   0.209  1.00  0.00     0.096 A 
HETATM   11  C6  UNL     1      -4.932  -4.719   0.209  1.00  0.00     0.022 A 
BRANCH  10  12
HETATM   12  O3  UNL     1      -4.887  -7.078   0.209  1.00  0.00    -0.328 OA
HETATM   13  C22 UNL     1      -3.471  -6.979   0.209  1.00  0.00     0.181 C 
ENDBRANCH  10  12
ENDBRANCH   3   4
ENDBRANCH   2   3
ENDBRANCH   1   2
BRANCH   1  14
HETATM   14  C10 UNL     1      -1.182  -1.246   0.209  1.00  0.00     0.000 C 
BRANCH  14  15
HETATM   15  C11 UNL     1      -0.430   0.086   0.209  1.00  0.00     0.000 C 
BRANCH  15  16
HETATM   16  C12 UNL     1       1.088  -0.094   0.209  1.00  0.00     0.000 C 
BRANCH  16  17
HETATM   17  C13 UNL     1       1.840   1.236   0.209  1.00  0.00     0.000 C 
BRANCH  17  18
HETATM   18  C14 UNL     1       3.359   1.057   0.209  1.00  0.00     0.005 C 
BRANCH  18  19
HETATM   19  C15 UNL     1       4.111   2.389   0.203  1.00  0.00     0.026 C 
BRANCH  19  20
HETATM   20  C16 UNL     1       5.606   2.205   0.222  1.00  0.00    -0.031 C 
HETATM   21  C17 UNL     1       6.383   3.242  -0.127  1.00  0.00    -0.031 C 
BRANCH  21  22
HETATM   22  C18 UNL     1       5.723   4.535  -0.522  1.00  0.00     0.026 C 
BRANCH  22  23
HETATM   23  C19 UNL     1       6.692   5.717  -0.494  1.00  0.00     0.005 C 
BRANCH  23  24
HETATM   24  C20 UNL     1       6.031   7.029  -0.920  1.00  0.00     0.000 C 
HETATM   25  C21 UNL     1       7.000   8.213  -0.887  1.00  0.00     0.000 C 
ENDBRANCH  23  24
ENDBRANCH  22  23
ENDBRANCH  21  22
ENDBRANCH  19  20
ENDBRANCH  18  19
ENDBRANCH  17  18
ENDBRANCH  16  17
ENDBRANCH  15  16
ENDBRANCH  14  15
ENDBRANCH   1  14
TORSDOF 14
