REMARK  13 active torsions:
REMARK  status: ('A' for Active; 'I' for Inactive)
REMARK    1  A    between atoms: C3_3  and  O4_27 
REMARK    2  A    between atoms: C5_5  and  C7_7 
REMARK    3  A    between atoms: C7_7  and  C8_8 
REMARK    4  A    between atoms: C8_8  and  C9_9 
REMARK    5  A    between atoms: C11_11  and  C12_12 
REMARK    6  A    between atoms: C12_12  and  C13_13 
REMARK    7  A    between atoms: C13_13  and  C14_14 
REMARK    8  A    between atoms: C14_14  and  C15_15 
REMARK    9  A    between atoms: C15_15  and  C16_16 
REMARK   10  A    between atoms: C16_16  and  C17_17 
REMARK   11  A    between atoms: C17_17  and  C18_18 
REMARK   12  A    between atoms: C18_18  and  C19_19 
REMARK   13  A    between atoms: C21_22  and  O3_25 
ROOT
HETATM    1  C9  UNL     1       0.449  -1.914  -0.600  1.00  0.00     0.123 C 
HETATM    2  C10 UNL     1      -0.488  -0.682  -0.605  1.00  0.00     0.059 C 
HETATM    3  C11 UNL     1       0.256   0.678  -0.641  1.00  0.00     0.122 C 
HETATM    4  O1  UNL     1       1.520   0.508  -0.019  1.00  0.00    -0.316 OA
HETATM    5  C21 UNL     1       2.363  -0.467  -0.637  1.00  0.00     0.296 C 
HETATM    6  O2  UNL     1       1.664  -1.557  -1.242  1.00  0.00    -0.316 OA
HETATM    7  C22 UNL     1       3.289  -1.022   0.447  1.00  0.00     0.096 C 
ENDROOT
BRANCH   1   8
HETATM    8  C8  UNL     1      -0.141  -3.123  -1.332  1.00  0.00     0.035 C 
BRANCH   8   9
HETATM    9  C7  UNL     1       0.695  -4.389  -1.148  1.00  0.00     0.029 C 
BRANCH   9  10
HETATM   10  C5  UNL     1       0.084  -5.555  -1.842  1.00  0.00    -0.020 A 
HETATM   11  C4  UNL     1       0.420  -5.834  -3.178  1.00  0.00     0.022 A 
HETATM   12  C3  UNL     1      -0.156  -6.934  -3.836  1.00  0.00     0.119 A 
HETATM   13  C2  UNL     1      -1.074  -7.758  -3.156  1.00  0.00     0.153 A 
HETATM   14  C1  UNL     1      -1.408  -7.477  -1.820  1.00  0.00     0.029 A 
HETATM   15  O5  UNL     1      -1.619  -8.791  -3.766  1.00  0.00    -0.188 OA
HETATM   16  C6  UNL     1      -0.832  -6.375  -1.162  1.00  0.00    -0.002 A 
BRANCH  12  17
HETATM   17  O4  UNL     1       0.164  -7.192  -5.090  1.00  0.00    -0.326 OA
HETATM   18  C24 UNL     1       0.363  -8.547  -5.461  1.00  0.00     0.181 C 
ENDBRANCH  12  17
ENDBRANCH   9  10
ENDBRANCH   8   9
ENDBRANCH   1   8
BRANCH   3  19
HETATM   19  C12 UNL     1      -0.494   1.793   0.092  1.00  0.00     0.030 C 
BRANCH  19  20
HETATM   20  C13 UNL     1       0.150   3.164  -0.107  1.00  0.00     0.003 C 
BRANCH  20  21
HETATM   21  C14 UNL     1      -0.658   4.295   0.529  1.00  0.00     0.000 C 
BRANCH  21  22
HETATM   22  C15 UNL     1      -0.594   4.277   2.057  1.00  0.00     0.000 C 
BRANCH  22  23
HETATM   23  C16 UNL     1      -1.344   5.449   2.693  1.00  0.00     0.000 C 
BRANCH  23  24
HETATM   24  C17 UNL     1      -1.277   5.432   4.221  1.00  0.00     0.000 C 
BRANCH  24  25
HETATM   25  C18 UNL     1      -2.117   6.539   4.860  1.00  0.00     0.000 C 
BRANCH  25  26
HETATM   26  C19 UNL     1      -1.543   7.934   4.611  1.00  0.00     0.000 C 
HETATM   27  C20 UNL     1      -0.209   8.158   5.324  1.00  0.00     0.000 C 
ENDBRANCH  25  26
ENDBRANCH  24  25
ENDBRANCH  23  24
ENDBRANCH  22  23
ENDBRANCH  21  22
ENDBRANCH  20  21
ENDBRANCH  19  20
ENDBRANCH   3  19
BRANCH   5  28
HETATM   28  O3  UNL     1       3.176   0.144  -1.613  1.00  0.00    -0.310 OA
HETATM   29  C23 UNL     1       2.445   0.635  -2.715  1.00  0.00     0.179 C 
ENDBRANCH   5  28
TORSDOF 13
