REMARK  11 active torsions:
REMARK  status: ('A' for Active; 'I' for Inactive)
REMARK    1  A    between atoms: C1_1  and  O19_57 
REMARK    2  A    between atoms: C4_4  and  C7_7 
REMARK    3  A    between atoms: C8_8  and  O10_36 
REMARK    4  A    between atoms: C12_13  and  C22_30 
REMARK    5  A    between atoms: C13_14  and  O3_18 
REMARK    6  A    between atoms: O3_18  and  C16_19 
REMARK    7  A    between atoms: C20_23  and  C21_25 
REMARK    8  A    between atoms: C22_30  and  C23_31 
REMARK    9  A    between atoms: O10_36  and  C27_37 
REMARK   10  A    between atoms: C29_39  and  O13_45 
REMARK   11  A    between atoms: O13_45  and  C33_46 
ROOT
HETATM    1  C7  UNL     1      -0.027   0.072  -0.361  1.00  0.00     0.125 A 
HETATM    2  C8  UNL     1       0.256  -1.158   0.133  1.00  0.00     0.158 A 
HETATM    3  C9  UNL     1      -0.846  -2.070   0.525  1.00  0.00     0.224 A 
HETATM    4  C10 UNL     1      -2.225  -1.543   0.338  1.00  0.00     0.089 A 
HETATM    5  C11 UNL     1      -2.385  -0.236  -0.191  1.00  0.00     0.103 A 
HETATM    6  O1  UNL     1      -1.297   0.500  -0.512  1.00  0.00    -0.305 OA
HETATM    7  C12 UNL     1      -3.684   0.293  -0.383  1.00  0.00     0.028 A 
HETATM    8  C13 UNL     1      -4.820  -0.484  -0.043  1.00  0.00     0.097 A 
HETATM    9  C14 UNL     1      -4.656  -1.785   0.486  1.00  0.00     0.052 A 
HETATM   10  C15 UNL     1      -3.361  -2.320   0.678  1.00  0.00     0.138 A 
HETATM   11  O2  UNL     1      -3.229  -3.557   1.182  1.00  0.00    -0.190 OA
HETATM   12  O9  UNL     1      -0.531  -3.156   0.959  1.00  0.00    -0.284 OA
ENDROOT
BRANCH   2  13
HETATM   13  O10 UNL     1       1.516  -1.570   0.277  1.00  0.00    -0.298 OA
BRANCH  13  14
HETATM   14  C27 UNL     1       1.871  -2.570  -0.668  1.00  0.00     0.274 C 
HETATM   15  C28 UNL     1       3.240  -2.227  -1.295  1.00  0.00     0.238 C 
HETATM   16  C29 UNL     1       4.379  -2.440  -0.270  1.00  0.00     0.186 C 
HETATM   17  O18 UNL     1       3.430  -3.020  -2.455  1.00  0.00    -0.215 OA
HETATM   18  C30 UNL     1       4.295  -3.824   0.414  1.00  0.00     0.209 C 
HETATM   19  C31 UNL     1       2.865  -4.092   0.951  1.00  0.00     0.151 C 
HETATM   20  O12 UNL     1       4.654  -4.867  -0.477  1.00  0.00    -0.218 OA
HETATM   21  O11 UNL     1       1.883  -3.867  -0.064  1.00  0.00    -0.329 OA
HETATM   22  C32 UNL     1       2.533  -3.248   2.190  1.00  0.00     0.035 C 
BRANCH  16  23
HETATM   23  O13 UNL     1       5.656  -2.207  -0.840  1.00  0.00    -0.326 OA
BRANCH  23  24
HETATM   24  C33 UNL     1       6.664  -1.977   0.125  1.00  0.00     0.270 C 
HETATM   25  C34 UNL     1       8.063  -2.240  -0.518  1.00  0.00     0.241 C 
HETATM   26  C35 UNL     1       8.805  -0.945  -0.902  1.00  0.00     0.220 C 
HETATM   27  O17 UNL     1       8.869  -2.951   0.406  1.00  0.00    -0.215 OA
HETATM   28  C36 UNL     1       8.840   0.051   0.299  1.00  0.00     0.212 C 
HETATM   29  O16 UNL     1       8.131  -0.402  -2.029  1.00  0.00    -0.218 OA
HETATM   30  C37 UNL     1       7.631  -0.080   1.272  1.00  0.00     0.151 C 
HETATM   31  O15 UNL     1       8.965   1.400  -0.133  1.00  0.00    -0.218 OA
HETATM   32  O14 UNL     1       6.512  -0.631   0.588  1.00  0.00    -0.329 OA
HETATM   33  C38 UNL     1       7.942  -0.934   2.510  1.00  0.00     0.035 C 
ENDBRANCH  23  24
ENDBRANCH  16  23
ENDBRANCH  13  14
ENDBRANCH   2  13
BRANCH   1  34
HETATM   34  C4  UNL     1       1.092   0.984  -0.752  1.00  0.00     0.025 A 
HETATM   35  C3  UNL     1       0.980   1.785  -1.902  1.00  0.00     0.004 A 
HETATM   36  C2  UNL     1       2.033   2.643  -2.268  1.00  0.00     0.024 A 
HETATM   37  C1  UNL     1       3.201   2.701  -1.488  1.00  0.00     0.094 A 
HETATM   38  C6  UNL     1       3.311   1.898  -0.338  1.00  0.00     0.024 A 
HETATM   39  C5  UNL     1       2.260   1.041   0.029  1.00  0.00     0.004 A 
BRANCH  37  40
HETATM   40  O19 UNL     1       4.188   3.504  -1.832  1.00  0.00    -0.328 OA
HETATM   41  C39 UNL     1       5.238   3.709  -0.898  1.00  0.00     0.181 C 
ENDBRANCH  37  40
ENDBRANCH   1  34
BRANCH   7  42
HETATM   42  C22 UNL     1      -3.856   1.648  -0.934  1.00  0.00     0.056 C 
BRANCH  42  43
HETATM   43  C23 UNL     1      -3.658   1.684  -2.426  1.00  0.00    -0.030 C 
HETATM   44  C24 UNL     1      -4.231   2.678  -3.123  1.00  0.00    -0.048 C 
HETATM   45  C25 UNL     1      -5.008   3.820  -2.529  1.00  0.00     0.026 C 
HETATM   46  C26 UNL     1      -4.098   2.670  -4.623  1.00  0.00     0.026 C 
ENDBRANCH  42  43
ENDBRANCH   7  42
BRANCH   8  47
HETATM   47  O3  UNL     1      -6.055   0.010  -0.219  1.00  0.00    -0.304 OA
BRANCH  47  48
HETATM   48  C16 UNL     1      -6.647   0.727   0.855  1.00  0.00     0.274 C 
HETATM   49  C17 UNL     1      -7.141  -0.248   1.949  1.00  0.00     0.241 C 
HETATM   50  C18 UNL     1      -7.891   0.523   3.059  1.00  0.00     0.220 C 
HETATM   51  O8  UNL     1      -7.981  -1.231   1.359  1.00  0.00    -0.215 OA
HETATM   52  C19 UNL     1      -8.979   1.428   2.436  1.00  0.00     0.215 C 
HETATM   53  O7  UNL     1      -8.449  -0.369   4.010  1.00  0.00    -0.218 OA
HETATM   54  C20 UNL     1      -8.375   2.326   1.330  1.00  0.00     0.184 C 
HETATM   55  O6  UNL     1      -9.551   2.256   3.432  1.00  0.00    -0.218 OA
HETATM   56  O4  UNL     1      -7.723   1.518   0.359  1.00  0.00    -0.326 OA
BRANCH  54  57
HETATM   57  C21 UNL     1      -9.434   3.146   0.584  1.00  0.00     0.214 C 
HETATM   58  O5  UNL     1      -8.770   4.047  -0.273  1.00  0.00    -0.218 OA
ENDBRANCH  54  57
ENDBRANCH  47  48
ENDBRANCH   8  47
TORSDOF 11
