REMARK  0 active torsions:
REMARK  status: ('A' for Active; 'I' for Inactive)
ROOT
HETATM    1  C1  UNL     1       2.986   1.328   0.523  1.00  0.00     0.030 C 
HETATM    2  C2  UNL     1       1.877   2.408   0.688  1.00  0.00     0.036 C 
HETATM    3  C3  UNL     1       0.553   1.943   0.107  1.00  0.00     0.040 A 
HETATM    4  C4  UNL     1      -0.371   1.219   0.738  1.00  0.00     0.009 A 
HETATM    5  C5  UNL     1      -1.402   0.807  -0.285  1.00  0.00     0.170 A 
HETATM    6  C6  UNL     1      -1.516  -0.723  -0.430  1.00  0.00     0.026 A 
HETATM    7  C7  UNL     1      -0.514  -1.611  -0.838  1.00  0.00     0.080 A 
HETATM    8  C8  UNL     1       0.949  -1.424  -1.256  1.00  0.00     0.073 C 
HETATM    9  C9  UNL     1       1.750  -0.721  -0.184  1.00  0.00    -0.042 C 
HETATM   10  C10 UNL     1       2.572   0.301  -0.512  1.00  0.00    -0.034 C 
HETATM   11  C11 UNL     1       1.559  -1.147   1.254  1.00  0.00     0.026 C 
HETATM   12  O1  UNL     1      -1.074  -2.861  -0.818  1.00  0.00    -0.310 OA
HETATM   13  C12 UNL     1      -2.383  -2.688  -0.400  1.00  0.00     0.118 A 
HETATM   14  C13 UNL     1      -2.713  -1.350  -0.141  1.00  0.00     0.003 A 
HETATM   15  C14 UNL     1      -4.033  -0.770   0.330  1.00  0.00     0.033 C 
HETATM   16  O2  UNL     1      -0.979   1.428  -1.512  1.00  0.00    -0.292 OA
HETATM   17  C15 UNL     1       0.127   2.139  -1.270  1.00  0.00     0.292 A 
HETATM   18  O3  UNL     1       0.711   2.840  -2.064  1.00  0.00    -0.259 OA
ENDROOT
TORSDOF 0
