REMARK  3 active torsions:
REMARK  status: ('A' for Active; 'I' for Inactive)
REMARK    1  A    between atoms: C2_2  and  C16_20 
REMARK    2  A    between atoms: C9_10  and  O2_11 
REMARK    3  A    between atoms: C12_14  and  C13_16 
ROOT
HETATM    1  C1  UNL     1      -3.326  -0.102   0.981  1.00  0.00     0.300 A 
HETATM    2  C2  UNL     1      -3.076  -0.180  -0.482  1.00  0.00     0.066 A 
HETATM    3  C3  UNL     1      -1.819  -0.037  -0.953  1.00  0.00     0.009 A 
HETATM    4  C4  UNL     1      -0.703   0.195   0.008  1.00  0.00     0.045 A 
HETATM    5  C5  UNL     1      -1.014   0.252   1.387  1.00  0.00     0.107 A 
HETATM    6  O1  UNL     1      -2.287   0.105   1.815  1.00  0.00    -0.273 OA
HETATM    7  C6  UNL     1       0.025   0.467   2.313  1.00  0.00     0.049 A 
HETATM    8  C7  UNL     1       1.369   0.629   1.899  1.00  0.00     0.094 A 
HETATM    9  C8  UNL     1       1.652   0.570   0.525  1.00  0.00     0.025 A 
HETATM   10  C9  UNL     1       0.635   0.354  -0.441  1.00  0.00     0.094 A 
HETATM   11  C11 UNL     1       3.137   0.771   0.338  1.00  0.00     0.063 A 
HETATM   12  C12 UNL     1       3.629   0.945   1.809  1.00  0.00     0.154 A 
HETATM   13  O3  UNL     1       2.459   0.834   2.637  1.00  0.00    -0.331 OA
HETATM   14  O7  UNL     1      -4.455  -0.225   1.397  1.00  0.00    -0.259 OA
ENDROOT
BRANCH   2  15
HETATM   15  C16 UNL     1      -4.203  -0.414  -1.439  1.00  0.00     0.031 A 
HETATM   16  C17 UNL     1      -4.992  -1.578  -1.342  1.00  0.00     0.133 A 
HETATM   17  C18 UNL     1      -6.047  -1.783  -2.248  1.00  0.00     0.055 A 
HETATM   18  O6  UNL     1      -4.750  -2.479  -0.408  1.00  0.00    -0.190 OA
HETATM   19  C19 UNL     1      -6.319  -0.836  -3.250  1.00  0.00     0.133 A 
HETATM   20  C20 UNL     1      -5.530   0.324  -3.346  1.00  0.00     0.028 A 
HETATM   21  O5  UNL     1      -7.309  -1.033  -4.098  1.00  0.00    -0.190 OA
HETATM   22  C21 UNL     1      -4.475   0.535  -2.441  1.00  0.00     0.004 A 
ENDBRANCH   2  15
BRANCH  10  23
HETATM   23  O2  UNL     1       0.812   0.283  -1.769  1.00  0.00    -0.328 OA
HETATM   24  C10 UNL     1       1.932   0.953  -2.330  1.00  0.00     0.181 C 
ENDBRANCH  10  23
BRANCH  12  25
HETATM   25  C13 UNL     1       4.639  -0.127   2.205  1.00  0.00     0.152 C 
HETATM   26  C14 UNL     1       5.875  -0.016   1.315  1.00  0.00     0.036 C 
HETATM   27  C15 UNL     1       4.967   0.008   3.692  1.00  0.00     0.036 C 
HETATM   28  O4  UNL     1       4.057  -1.393   1.996  1.00  0.00    -0.224 OA
ENDBRANCH  12  25
TORSDOF 3
