REMARK  6 active torsions:
REMARK  status: ('A' for Active; 'I' for Inactive)
REMARK    1  A    between atoms: C15_17  and  C18_21 
REMARK    2  A    between atoms: C18_21  and  C19_22 
REMARK    3  A    between atoms: C19_22  and  C20_23 
REMARK    4  A    between atoms: C20_23  and  C21_24 
REMARK    5  A    between atoms: C21_24  and  C22_25 
REMARK    6  A    between atoms: C22_25  and  C24_27 
ROOT
HETATM    1  C1  UNL     1       5.115  -1.338  -0.740  1.00  0.00     0.033 C 
HETATM    2  C2  UNL     1       5.568  -0.315  -1.793  1.00  0.00     0.152 C 
HETATM    3  C3  UNL     1       4.639   0.924  -1.830  1.00  0.00     0.029 C 
HETATM    4  C4  UNL     1       4.426   1.510  -0.392  1.00  0.00     0.009 C 
HETATM    5  C5  UNL     1       3.969   0.478   0.686  1.00  0.00     0.021 C 
HETATM    6  C6  UNL     1       4.990  -0.690   0.645  1.00  0.00     0.007 C 
HETATM    7  C7  UNL     1       2.490   0.088   0.514  1.00  0.00     0.006 C 
HETATM    8  C8  UNL     1       1.627   0.939  -0.115  1.00  0.00    -0.014 C 
HETATM    9  C9  UNL     1       2.016   2.359  -0.519  1.00  0.00     0.170 C 
HETATM   10  C10 UNL     1       3.500   2.730  -0.355  1.00  0.00     0.038 C 
HETATM   11  O1  UNL     1       1.266   3.307   0.215  1.00  0.00    -0.219 OA
HETATM   12  C11 UNL     1       0.223   0.451  -0.471  1.00  0.00     0.046 C 
HETATM   13  C12 UNL     1      -0.361  -0.432   0.647  1.00  0.00     0.013 C 
HETATM   14  C13 UNL     1       0.555  -1.647   0.791  1.00  0.00     0.069 C 
HETATM   15  C14 UNL     1       1.986  -1.221   1.043  1.00  0.00     0.169 C 
HETATM   16  O2  UNL     1       2.684  -1.955   1.701  1.00  0.00    -0.292 OA
HETATM   17  C15 UNL     1      -1.781  -0.734   0.141  1.00  0.00     0.004 C 
HETATM   18  C16 UNL     1      -2.219   0.580  -0.523  1.00  0.00     0.033 C 
HETATM   19  C17 UNL     1      -0.953   1.447  -0.594  1.00  0.00     0.155 C 
HETATM   20  O3  UNL     1      -0.924   2.197  -1.795  1.00  0.00    -0.223 OA
HETATM   21  C26 UNL     1      -0.445   0.328   1.983  1.00  0.00     0.001 C 
HETATM   22  C27 UNL     1       0.336  -0.332  -1.793  1.00  0.00     0.007 C 
HETATM   23  C28 UNL     1       4.059   1.111   2.082  1.00  0.00     0.004 C 
HETATM   24  C29 UNL     1       5.233   2.004  -2.750  1.00  0.00     0.003 C 
HETATM   25  C30 UNL     1       3.320   0.484  -2.475  1.00  0.00     0.003 C 
HETATM   26  O7  UNL     1       6.904   0.066  -1.512  1.00  0.00    -0.224 OA
ENDROOT
BRANCH  17  27
HETATM   27  C18 UNL     1      -2.756  -1.203   1.219  1.00  0.00     0.007 C 
HETATM   28  C25 UNL     1      -2.236  -2.496   1.848  1.00  0.00     0.000 C 
BRANCH  27  29
HETATM   29  C19 UNL     1      -4.150  -1.359   0.613  1.00  0.00     0.065 C 
BRANCH  29  30
HETATM   30  C20 UNL     1      -5.203  -1.625   1.656  1.00  0.00     0.151 C 
HETATM   31  O6  UNL     1      -4.963  -1.488   2.832  1.00  0.00    -0.296 OA
BRANCH  30  32
HETATM   32  C21 UNL     1      -6.566  -2.065   1.190  1.00  0.00     0.075 C 
BRANCH  32  33
HETATM   33  C22 UNL     1      -7.268  -0.996   0.352  1.00  0.00     0.095 C 
HETATM   34  C23 UNL     1      -8.418  -1.563  -0.482  1.00  0.00     0.012 C 
BRANCH  33  35
HETATM   35  C24 UNL     1      -7.684   0.195   1.170  1.00  0.00     0.185 C 
HETATM   36  O4  UNL     1      -8.645   0.859   0.860  1.00  0.00    -0.647 OA
HETATM   37  O5  UNL     1      -6.926   0.445   2.233  1.00  0.00    -0.647 OA
ENDBRANCH  33  35
ENDBRANCH  32  33
ENDBRANCH  30  32
ENDBRANCH  29  30
ENDBRANCH  27  29
ENDBRANCH  17  27
TORSDOF 6
