REMARK  11 active torsions:
REMARK  status: ('A' for Active; 'I' for Inactive)
REMARK    1  A    between atoms: C1_1  and  C21_27 
REMARK    2  A    between atoms: C3_3  and  O5_24 
REMARK    3  A    between atoms: C5_5  and  C7_7 
REMARK    4  A    between atoms: C7_7  and  C8_8 
REMARK    5  A    between atoms: C9_9  and  C12_14 
REMARK    6  A    between atoms: C12_14  and  C13_15 
REMARK    7  A    between atoms: C15_17  and  O4_22 
REMARK    8  A    between atoms: C21_27  and  C22_28 
REMARK    9  A    between atoms: C21_27  and  C30_39 
REMARK   10  A    between atoms: C22_28  and  C23_30 
REMARK   11  A    between atoms: C27_34  and  O8_36 
ROOT
HETATM    1  C1  UNL     1       2.316  -0.301   1.678  1.00  0.00     0.010 A 
HETATM    2  C2  UNL     1       3.566   0.010   1.106  1.00  0.00     0.149 A 
HETATM    3  C3  UNL     1       3.670   1.066   0.182  1.00  0.00     0.119 A 
HETATM    4  C4  UNL     1       2.527   1.811  -0.166  1.00  0.00     0.022 A 
HETATM    5  C5  UNL     1       1.281   1.500   0.406  1.00  0.00    -0.020 A 
HETATM    6  C6  UNL     1       1.178   0.445   1.328  1.00  0.00    -0.006 A 
HETATM    7  O6  UNL     1       4.637  -0.688   1.430  1.00  0.00    -0.188 OA
ENDROOT
BRANCH   5   8
HETATM    8  C7  UNL     1       0.076   2.287   0.039  1.00  0.00     0.036 C 
BRANCH   8   9
HETATM    9  C8  UNL     1      -0.455   1.891  -1.336  1.00  0.00     0.093 C 
HETATM   10  C9  UNL     1      -1.697   2.711  -1.699  1.00  0.00     0.044 C 
HETATM   11  C10 UNL     1      -2.795   1.789  -1.150  1.00  0.00     0.153 C 
HETATM   12  O1  UNL     1      -2.330   0.449  -1.299  1.00  0.00    -0.302 OA
HETATM   13  C11 UNL     1      -1.004   0.494  -1.326  1.00  0.00     0.272 C 
HETATM   14  O2  UNL     1      -0.285  -0.479  -1.353  1.00  0.00    -0.264 OA
BRANCH  10  15
HETATM   15  C12 UNL     1      -1.840   2.830  -3.215  1.00  0.00     0.029 C 
BRANCH  15  16
HETATM   16  C13 UNL     1      -3.031   3.637  -3.590  1.00  0.00    -0.020 A 
HETATM   17  C14 UNL     1      -4.160   3.010  -4.144  1.00  0.00     0.022 A 
HETATM   18  C15 UNL     1      -5.289   3.768  -4.500  1.00  0.00     0.119 A 
HETATM   19  C16 UNL     1      -5.289   5.160  -4.301  1.00  0.00     0.153 A 
HETATM   20  C17 UNL     1      -4.158   5.787  -3.748  1.00  0.00     0.029 A 
HETATM   21  O3  UNL     1      -6.342   5.881  -4.633  1.00  0.00    -0.188 OA
HETATM   22  C18 UNL     1      -3.031   5.029  -3.393  1.00  0.00    -0.002 A 
BRANCH  18  23
HETATM   23  O4  UNL     1      -6.344   3.172  -5.020  1.00  0.00    -0.326 OA
HETATM   24  C19 UNL     1      -6.254   1.783  -5.305  1.00  0.00     0.181 C 
ENDBRANCH  18  23
ENDBRANCH  15  16
ENDBRANCH  10  15
ENDBRANCH   8   9
ENDBRANCH   5   8
BRANCH   3  25
HETATM   25  O5  UNL     1       4.834   1.363  -0.359  1.00  0.00    -0.326 OA
HETATM   26  C20 UNL     1       4.871   2.387  -1.344  1.00  0.00     0.181 C 
ENDBRANCH   3  25
BRANCH   1  27
HETATM   27  C21 UNL     1       2.195  -1.416   2.654  1.00  0.00     0.092 C 
BRANCH  27  28
HETATM   28  C22 UNL     1       2.850  -2.695   2.133  1.00  0.00     0.181 C 
HETATM   29  O7  UNL     1       2.424  -2.897   0.805  1.00  0.00    -0.218 OA
BRANCH  28  30
HETATM   30  C23 UNL     1       2.477  -3.875   2.957  1.00  0.00     0.010 A 
HETATM   31  C24 UNL     1       3.467  -4.596   3.643  1.00  0.00     0.000 A 
HETATM   32  C25 UNL     1       3.111  -5.711   4.420  1.00  0.00     0.029 A 
HETATM   33  C26 UNL     1       1.766  -6.109   4.514  1.00  0.00     0.153 A 
HETATM   34  C27 UNL     1       0.773  -5.387   3.826  1.00  0.00     0.119 A 
HETATM   35  O9  UNL     1       1.439  -7.156   5.246  1.00  0.00    -0.188 OA
HETATM   36  C28 UNL     1       1.131  -4.272   3.049  1.00  0.00     0.025 A 
BRANCH  34  37
HETATM   37  O8  UNL     1      -0.490  -5.752   3.910  1.00  0.00    -0.326 OA
HETATM   38  C29 UNL     1      -0.967  -6.721   2.986  1.00  0.00     0.181 C 
ENDBRANCH  34  37
ENDBRANCH  28  30
ENDBRANCH  27  28
BRANCH  27  39
HETATM   39  C30 UNL     1       2.709  -1.012   4.037  1.00  0.00     0.190 C 
HETATM   40  O10 UNL     1       4.115  -0.930   3.979  1.00  0.00    -0.220 OA
ENDBRANCH  27  39
ENDBRANCH   1  27
TORSDOF 11
