REMARK  5 active torsions:
REMARK  status: ('A' for Active; 'I' for Inactive)
REMARK    1  A    between atoms: C1_1  and  C20_25 
REMARK    2  A    between atoms: C2_2  and  C19_23 
REMARK    3  A    between atoms: C6_6  and  C7_7 
REMARK    4  A    between atoms: C9_9  and  O2_14 
REMARK    5  A    between atoms: C16_18  and  O3_20 
ROOT
HETATM    1  C1  UNL     1      -1.869   0.211  -0.625  1.00  0.00     0.044 C 
HETATM    2  C2  UNL     1      -2.289  -1.148  -1.203  1.00  0.00     0.041 C 
HETATM    3  C3  UNL     1      -1.424  -2.266  -0.600  1.00  0.00     0.029 C 
HETATM    4  C4  UNL     1       0.033  -1.980  -0.619  1.00  0.00    -0.024 A 
HETATM    5  C5  UNL     1       0.535  -0.654  -0.775  1.00  0.00    -0.020 A 
HETATM    6  C6  UNL     1      -0.383   0.518  -0.936  1.00  0.00     0.043 C 
HETATM    7  C14 UNL     1       1.944  -0.449  -0.791  1.00  0.00     0.025 A 
HETATM    8  C15 UNL     1       2.836  -1.533  -0.639  1.00  0.00     0.153 A 
HETATM    9  C16 UNL     1       2.332  -2.842  -0.477  1.00  0.00     0.119 A 
HETATM   10  C17 UNL     1       0.938  -3.064  -0.471  1.00  0.00     0.022 A 
HETATM   11  O4  UNL     1       4.158  -1.316  -0.648  1.00  0.00    -0.188 OA
ENDROOT
BRANCH   6  12
HETATM   12  C7  UNL     1       0.061   1.717  -0.123  1.00  0.00    -0.038 C 
HETATM   13  C8  UNL     1       0.322   1.611   1.193  1.00  0.00     0.018 C 
HETATM   14  C9  UNL     1       0.799   2.768   1.982  1.00  0.00     0.115 C 
HETATM   15  C10 UNL     1       1.246   3.883   1.365  1.00  0.00     0.131 C 
HETATM   16  C11 UNL     1       1.299   3.918  -0.148  1.00  0.00     0.061 C 
HETATM   17  O1  UNL     1       1.635   4.938   2.078  1.00  0.00    -0.193 OA
HETATM   18  C12 UNL     1       0.211   3.055  -0.813  1.00  0.00     0.029 C 
BRANCH  14  19
HETATM   19  O2  UNL     1       0.785   2.697   3.311  1.00  0.00    -0.326 OA
HETATM   20  C13 UNL     1       1.570   1.621   3.803  1.00  0.00     0.181 C 
ENDBRANCH  14  19
ENDBRANCH   6  12
BRANCH   1  21
HETATM   21  C20 UNL     1      -2.777   1.340  -1.133  1.00  0.00     0.183 C 
HETATM   22  O6  UNL     1      -3.945   1.357  -0.344  1.00  0.00    -0.221 OA
ENDBRANCH   1  21
BRANCH   2  23
HETATM   23  C19 UNL     1      -3.775  -1.436  -0.967  1.00  0.00     0.183 C 
HETATM   24  O5  UNL     1      -4.055  -2.734  -1.443  1.00  0.00    -0.221 OA
ENDBRANCH   2  23
BRANCH   9  25
HETATM   25  O3  UNL     1       3.172  -3.877  -0.332  1.00  0.00    -0.326 OA
HETATM   26  C18 UNL     1       2.615  -5.168  -0.146  1.00  0.00     0.181 C 
ENDBRANCH   9  25
TORSDOF 5
