REMARK  1 active torsions:
REMARK  status: ('A' for Active; 'I' for Inactive)
REMARK    1  A    between atoms: C2_2  and  C8_8 
ROOT
HETATM    1  C1  UNL     1      -0.332   0.842  -0.570  1.00  0.00     0.007 C 
HETATM    2  C2  UNL     1      -0.604  -0.299   0.441  1.00  0.00     0.040 C 
HETATM    3  C3  UNL     1       0.156  -1.555   0.059  1.00  0.00    -0.041 C 
HETATM    4  C4  UNL     1       1.463  -1.394  -0.691  1.00  0.00     0.022 C 
HETATM    5  C5  UNL     1       2.113  -0.037  -0.396  1.00  0.00     0.004 C 
HETATM    6  C6  UNL     1       1.184   1.162  -0.670  1.00  0.00     0.001 C 
HETATM    7  C7  UNL     1      -0.313  -2.777   0.369  1.00  0.00    -0.008 C 
HETATM    8  C10 UNL     1      -0.850   0.416  -1.953  1.00  0.00     0.001 C 
HETATM    9  C11 UNL     1      -1.102   2.108  -0.168  1.00  0.00     0.001 C 
ENDROOT
BRANCH   2  10
HETATM   10  C8  UNL     1      -0.246   0.080   1.857  1.00  0.00    -0.022 C 
HETATM   11  C9  UNL     1      -1.199   0.008   2.801  1.00  0.00    -0.004 C 
ENDBRANCH   2  10
TORSDOF 1
