REMARK  6 active torsions:
REMARK  status: ('A' for Active; 'I' for Inactive)
REMARK    1  A    between atoms: C1_1  and  C2_2 
REMARK    2  A    between atoms: C1_1  and  O2_6 
REMARK    3  A    between atoms: C2_2  and  C3_3 
REMARK    4  A    between atoms: O2_6  and  C5_7 
REMARK    5  A    between atoms: C5_7  and  C6_8 
REMARK    6  A    between atoms: C6_8  and  C7_9 
ROOT
HETATM    1  C1  UNL     1      -0.617   0.221   1.105  1.00  0.00     0.272 C 
HETATM    2  O1  UNL     1      -1.635  -0.426   1.160  1.00  0.00    -0.264 OA
ENDROOT
BRANCH   1   3
HETATM    3  C2  UNL     1      -0.115   0.978   2.305  1.00  0.00     0.096 C 
BRANCH   3   4
HETATM    4  C3  UNL     1      -0.564   0.348   3.623  1.00  0.00     0.010 C 
HETATM    5  C4  UNL     1      -0.023   1.090   4.848  1.00  0.00     0.001 C 
ENDBRANCH   3   4
ENDBRANCH   1   3
BRANCH   1   6
HETATM    6  O2  UNL     1       0.137   0.324   0.016  1.00  0.00    -0.302 OA
BRANCH   6   7
HETATM    7  C5  UNL     1      -0.391  -0.412  -1.078  1.00  0.00     0.152 C 
BRANCH   7   8
HETATM    8  C6  UNL     1       0.525  -0.246  -2.293  1.00  0.00     0.033 C 
BRANCH   8   9
HETATM    9  C7  UNL     1       0.024  -1.012  -3.518  1.00  0.00     0.003 C 
HETATM   10  C8  UNL     1       0.938  -0.844  -4.732  1.00  0.00     0.000 C 
ENDBRANCH   8   9
ENDBRANCH   7   8
ENDBRANCH   6   7
ENDBRANCH   1   6
TORSDOF 6
