REMARK  0 active torsions:
REMARK  status: ('A' for Active; 'I' for Inactive)
ROOT
HETATM    1  C1  UNL     1      -1.961  -0.982  -0.049  1.00  0.00     0.071 A 
HETATM    2  C2  UNL     1      -2.020   0.361   0.051  1.00  0.00     0.126 A 
HETATM    3  O1  UNL     1      -0.936   1.174   0.096  1.00  0.00    -0.307 OA
HETATM    4  C3  UNL     1       0.297   0.604   0.039  1.00  0.00     0.106 A 
HETATM    5  C4  UNL     1       0.513  -0.729  -0.062  1.00  0.00     0.188 A 
HETATM    6  C5  UNL     1      -0.649  -1.621  -0.113  1.00  0.00     0.225 A 
HETATM    7  O2  UNL     1      -0.532  -2.820  -0.207  1.00  0.00    -0.284 OA
HETATM    8  O3  UNL     1       1.746  -1.232  -0.113  1.00  0.00    -0.185 OA
HETATM    9  C6  UNL     1       1.502   1.506   0.090  1.00  0.00     0.061 C 
ENDROOT
TORSDOF 0
