REMARK  10 active torsions:
REMARK  status: ('A' for Active; 'I' for Inactive)
REMARK    1  A    between atoms: C5_5  and  C7_7 
REMARK    2  A    between atoms: C7_7  and  O1_8 
REMARK    3  A    between atoms: O1_8  and  C8_9 
REMARK    4  A    between atoms: C8_9  and  C9_10 
REMARK    5  A    between atoms: C9_10  and  C10_11 
REMARK    6  A    between atoms: C11_12  and  C22_32 
REMARK    7  A    between atoms: C12_13  and  O5_20 
REMARK    8  A    between atoms: C14_16  and  C15_17 
REMARK    9  A    between atoms: O5_20  and  C16_21 
REMARK   10  A    between atoms: C20_25  and  C21_27 
ROOT
HETATM    1  C10 UNL     1       0.002  -0.805  -0.600  1.00  0.00     0.042 C 
HETATM    2  C11 UNL     1      -1.467  -1.184  -0.885  1.00  0.00     0.083 C 
HETATM    3  C12 UNL     1      -2.406  -0.137  -0.252  1.00  0.00     0.246 C 
HETATM    4  O2  UNL     1      -2.162  -0.018   1.156  1.00  0.00    -0.303 OA
HETATM    5  C13 UNL     1      -0.887  -0.022   1.590  1.00  0.00     0.121 C 
HETATM    6  C14 UNL     1       0.185  -0.367   0.842  1.00  0.00     0.067 C 
ENDROOT
BRANCH   1   7
HETATM    7  C9  UNL     1       0.975  -1.922  -1.006  1.00  0.00     0.038 C 
BRANCH   7   8
HETATM    8  C8  UNL     1       2.375  -1.397  -1.322  1.00  0.00     0.152 C 
BRANCH   8   9
HETATM    9  O1  UNL     1       3.305  -1.936  -0.393  1.00  0.00    -0.298 OA
BRANCH   9  10
HETATM   10  C7  UNL     1       4.547  -1.516  -0.617  1.00  0.00     0.296 C 
HETATM   11  O11 UNL     1       4.852  -0.762  -1.510  1.00  0.00    -0.259 OA
BRANCH  10  12
HETATM   12  C5  UNL     1       5.576  -2.045   0.328  1.00  0.00     0.067 A 
HETATM   13  C4  UNL     1       6.924  -1.672   0.182  1.00  0.00     0.035 A 
HETATM   14  C3  UNL     1       7.895  -2.168   1.068  1.00  0.00     0.158 A 
HETATM   15  C2  UNL     1       7.516  -3.041   2.107  1.00  0.00     0.181 A 
HETATM   16  O12 UNL     1       9.156  -1.815   0.926  1.00  0.00    -0.188 OA
HETATM   17  C1  UNL     1       6.168  -3.414   2.254  1.00  0.00     0.158 A 
HETATM   18  O13 UNL     1       8.426  -3.506   2.939  1.00  0.00    -0.186 OA
HETATM   19  C6  UNL     1       5.199  -2.916   1.365  1.00  0.00     0.035 A 
HETATM   20  O14 UNL     1       5.809  -4.231   3.225  1.00  0.00    -0.188 OA
ENDBRANCH  10  12
ENDBRANCH   9  10
ENDBRANCH   8   9
ENDBRANCH   7   8
ENDBRANCH   1   7
BRANCH   2  21
HETATM   21  C22 UNL     1      -1.813  -2.561  -0.363  1.00  0.00    -0.021 C 
HETATM   22  C23 UNL     1      -2.174  -3.508  -1.246  1.00  0.00    -0.005 C 
ENDBRANCH   2  21
BRANCH   6  23
HETATM   23  C15 UNL     1       1.543  -0.322   1.410  1.00  0.00     0.209 C 
HETATM   24  O3  UNL     1       2.262   0.758   1.107  1.00  0.00    -0.644 OA
HETATM   25  O4  UNL     1       1.947  -1.227   2.102  1.00  0.00    -0.644 OA
ENDBRANCH   6  23
BRANCH   3  26
HETATM   26  O5  UNL     1      -2.240   1.115  -0.887  1.00  0.00    -0.303 OA
BRANCH  26  27
HETATM   27  C16 UNL     1      -3.117   2.109  -0.391  1.00  0.00     0.272 C 
HETATM   28  C17 UNL     1      -2.719   3.504  -0.936  1.00  0.00     0.241 C 
HETATM   29  C18 UNL     1      -3.756   4.574  -0.527  1.00  0.00     0.220 C 
HETATM   30  O10 UNL     1      -1.443   3.865  -0.428  1.00  0.00    -0.215 OA
HETATM   31  C19 UNL     1      -5.178   4.092  -0.889  1.00  0.00     0.215 C 
HETATM   32  O9  UNL     1      -3.479   5.797  -1.193  1.00  0.00    -0.218 OA
HETATM   33  C20 UNL     1      -5.449   2.676  -0.338  1.00  0.00     0.184 C 
HETATM   34  O8  UNL     1      -6.139   4.982  -0.350  1.00  0.00    -0.218 OA
HETATM   35  O6  UNL     1      -4.440   1.787  -0.803  1.00  0.00    -0.326 OA
BRANCH  33  36
HETATM   36  C21 UNL     1      -6.793   2.104  -0.803  1.00  0.00     0.214 C 
HETATM   37  O7  UNL     1      -7.014   0.896  -0.109  1.00  0.00    -0.218 OA
ENDBRANCH  33  36
ENDBRANCH  26  27
ENDBRANCH   3  26
TORSDOF 10
