REMARK  2 active torsions:
REMARK  status: ('A' for Active; 'I' for Inactive)
REMARK    1  A    between atoms: C8_8  and  O6_34 
REMARK    2  A    between atoms: O6_34  and  C29_35 
ROOT
HETATM    1  C1  UNL     1      -6.134   2.677   0.212  1.00  0.00     0.191 A 
HETATM    2  C2  UNL     1      -6.668   1.352   0.219  1.00  0.00     0.034 A 
HETATM    3  C3  UNL     1      -5.704   0.512  -0.151  1.00  0.00    -0.035 A 
HETATM    4  C4  UNL     1      -4.370   1.214  -0.508  1.00  0.00     0.071 A 
HETATM    5  C5  UNL     1      -4.712   2.631  -0.162  1.00  0.00     0.015 A 
HETATM    6  C6  UNL     1      -3.901   3.691  -0.199  1.00  0.00    -0.042 C 
HETATM    7  C7  UNL     1      -2.474   3.643  -0.562  1.00  0.00     0.052 C 
HETATM    8  C8  UNL     1      -1.514   2.619   0.139  1.00  0.00     0.131 C 
HETATM    9  C9  UNL     1      -1.739   1.071  -0.294  1.00  0.00     0.066 C 
HETATM   10  C10 UNL     1      -3.123   0.561   0.135  1.00  0.00     0.135 C 
HETATM   11  O1  UNL     1      -3.034  -0.671  -0.222  1.00  0.00    -0.304 OA
HETATM   12  C11 UNL     1      -1.829  -1.146  -0.045  1.00  0.00     0.271 C 
HETATM   13  C12 UNL     1      -0.591  -0.005   0.358  1.00  0.00     0.086 C 
HETATM   14  C13 UNL     1       0.057  -1.576   0.149  1.00  0.00     0.030 C 
HETATM   15  C14 UNL     1       1.631  -1.708  -0.408  1.00  0.00     0.038 C 
HETATM   16  C15 UNL     1       2.519  -2.953   0.229  1.00  0.00     0.129 C 
HETATM   17  C16 UNL     1       4.047  -3.031  -0.094  1.00  0.00     0.056 C 
HETATM   18  C17 UNL     1       4.301  -4.354   0.468  1.00  0.00     0.043 C 
HETATM   19  C18 UNL     1       3.098  -5.113   0.256  1.00  0.00     0.292 C 
HETATM   20  O2  UNL     1       2.081  -4.258  -0.115  1.00  0.00    -0.301 OA
HETATM   21  O3  UNL     1       3.003  -6.340   0.366  1.00  0.00    -0.260 OA
HETATM   22  C19 UNL     1       5.497  -4.855   0.771  1.00  0.00     0.001 C 
HETATM   23  C20 UNL     1       4.950  -1.861   0.408  1.00  0.00     0.009 C 
HETATM   24  C21 UNL     1       4.638  -0.772  -0.585  1.00  0.00     0.031 C 
HETATM   25  C22 UNL     1       3.430   0.197  -0.475  1.00  0.00     0.130 C 
HETATM   26  C23 UNL     1       2.068  -0.357   0.062  1.00  0.00     0.047 C 
HETATM   27  C24 UNL     1       0.884   0.602  -0.287  1.00  0.00     0.016 C 
HETATM   28  C25 UNL     1       1.934  -0.554   1.425  1.00  0.00    -0.029 C 
HETATM   29  C26 UNL     1       0.814  -1.242   1.522  1.00  0.00    -0.031 C 
HETATM   30  O4  UNL     1       3.244   0.575  -1.845  1.00  0.00    -0.226 OA
HETATM   31  C27 UNL     1       3.771   1.460   0.335  1.00  0.00     0.033 C 
HETATM   32  C28 UNL     1      -0.025  -1.199  -1.515  1.00  0.00     0.005 C 
HETATM   33  O5  UNL     1      -1.795  -2.389   0.147  1.00  0.00    -0.264 OA
HETATM   34  C31 UNL     1      -4.420   5.065   0.129  1.00  0.00     0.026 C 
HETATM   35  C32 UNL     1      -5.940  -0.969  -0.261  1.00  0.00     0.027 C 
HETATM   36  O8  UNL     1      -6.795   3.673   0.526  1.00  0.00    -0.287 OA
ENDROOT
BRANCH   8  37
HETATM   37  O6  UNL     1      -0.214   3.120  -0.241  1.00  0.00    -0.304 OA
BRANCH  37  38
HETATM   38  C29 UNL     1       0.073   4.410   0.324  1.00  0.00     0.272 C 
HETATM   39  O7  UNL     1      -0.698   4.965   1.122  1.00  0.00    -0.264 OA
HETATM   40  C30 UNL     1       1.365   5.090  -0.015  1.00  0.00     0.106 C 
ENDBRANCH  37  38
ENDBRANCH   8  37
TORSDOF 2
