REMARK  3 active torsions:
REMARK  status: ('A' for Active; 'I' for Inactive)
REMARK    1  A    between atoms: C4_4  and  C7_7 
REMARK    2  A    between atoms: C7_7  and  C8_8 
REMARK    3  A    between atoms: C9_9  and  C10_10 
ROOT
HETATM    1  C7  UNL     1       0.547   1.856  -0.289  1.00  0.00     0.198 C 
HETATM    2  O3  UNL     1       0.096   2.824  -0.851  1.00  0.00    -0.286 OA
ENDROOT
BRANCH   1   3
HETATM    3  C4  UNL     1       1.848   1.926   0.446  1.00  0.00     0.064 A 
HETATM    4  C3  UNL     1       2.904   2.717  -0.051  1.00  0.00     0.136 A 
HETATM    5  C2  UNL     1       4.121   2.774   0.653  1.00  0.00     0.055 A 
HETATM    6  O4  UNL     1       2.762   3.406  -1.166  1.00  0.00    -0.190 OA
HETATM    7  C1  UNL     1       4.291   2.045   1.842  1.00  0.00     0.133 A 
HETATM    8  C6  UNL     1       3.234   1.258   2.332  1.00  0.00     0.028 A 
HETATM    9  O5  UNL     1       5.434   2.102   2.496  1.00  0.00    -0.190 OA
HETATM   10  C5  UNL     1       2.016   1.197   1.637  1.00  0.00     0.007 A 
ENDBRANCH   1   3
BRANCH   1  11
HETATM   11  C8  UNL     1      -0.178   0.578  -0.312  1.00  0.00     0.042 C 
HETATM   12  C9  UNL     1      -1.383   0.486  -0.898  1.00  0.00     0.003 C 
BRANCH  12  13
HETATM   13  C10 UNL     1      -2.080  -0.834  -0.898  1.00  0.00     0.002 A 
HETATM   14  C11 UNL     1      -1.336  -2.025  -0.898  1.00  0.00     0.002 A 
HETATM   15  C12 UNL     1      -1.996  -3.266  -0.898  1.00  0.00     0.029 A 
HETATM   16  C13 UNL     1      -3.400  -3.320  -0.898  1.00  0.00     0.156 A 
HETATM   17  C14 UNL     1      -4.148  -2.127  -0.898  1.00  0.00     0.156 A 
HETATM   18  O2  UNL     1      -4.012  -4.488  -0.898  1.00  0.00    -0.188 OA
HETATM   19  C15 UNL     1      -3.486  -0.887  -0.898  1.00  0.00     0.029 A 
HETATM   20  O1  UNL     1      -5.465  -2.170  -0.898  1.00  0.00    -0.188 OA
ENDBRANCH  12  13
ENDBRANCH   1  11
TORSDOF 3
