REMARK  1 active torsions:
REMARK  status: ('A' for Active; 'I' for Inactive)
REMARK    1  A    between atoms: C10_12  and  C11_13 
ROOT
HETATM    1  C1  UNL     1      -4.873   0.178   0.184  1.00  0.00     0.135 A 
HETATM    2  C2  UNL     1      -4.649   1.572   0.123  1.00  0.00     0.055 A 
HETATM    3  C3  UNL     1      -3.330   2.076   0.051  1.00  0.00     0.138 A 
HETATM    4  C4  UNL     1      -2.229   1.180   0.035  1.00  0.00     0.086 A 
HETATM    5  C5  UNL     1      -2.457  -0.223   0.076  1.00  0.00     0.102 A 
HETATM    6  C6  UNL     1      -3.779  -0.717   0.164  1.00  0.00     0.052 A 
HETATM    7  O1  UNL     1      -1.436  -1.104   0.045  1.00  0.00    -0.326 OA
HETATM    8  C7  UNL     1      -0.150  -0.727  -0.461  1.00  0.00     0.178 C 
HETATM    9  C8  UNL     1       0.252   0.686  -0.070  1.00  0.00     0.047 C 
HETATM   10  C9  UNL     1      -0.830   1.699  -0.006  1.00  0.00     0.198 C 
HETATM   11  O2  UNL     1      -0.500   2.865   0.006  1.00  0.00    -0.287 OA
HETATM   12  C10 UNL     1       1.539   1.012   0.201  1.00  0.00     0.001 C 
HETATM   13  O4  UNL     1      -3.141   3.402   0.000  1.00  0.00    -0.190 OA
HETATM   14  O5  UNL     1      -6.125  -0.297   0.260  1.00  0.00    -0.190 OA
ENDROOT
BRANCH  12  15
HETATM   15  C11 UNL     1       2.676   0.043   0.137  1.00  0.00    -0.000 A 
HETATM   16  C12 UNL     1       2.791  -0.836  -0.955  1.00  0.00     0.002 A 
HETATM   17  C13 UNL     1       3.859  -1.746  -1.016  1.00  0.00     0.027 A 
HETATM   18  C14 UNL     1       4.816  -1.783   0.014  1.00  0.00     0.131 A 
HETATM   19  C15 UNL     1       4.699  -0.904   1.105  1.00  0.00     0.027 A 
HETATM   20  O3  UNL     1       5.818  -2.637  -0.043  1.00  0.00    -0.190 OA
HETATM   21  C16 UNL     1       3.631   0.008   1.168  1.00  0.00     0.002 A 
ENDBRANCH  12  15
TORSDOF 1
