REMARK  5 active torsions:
REMARK  status: ('A' for Active; 'I' for Inactive)
REMARK    1  A    between atoms: O1_1  and  C1_2 
REMARK    2  A    between atoms: O1_1  and  C7_13 
REMARK    3  A    between atoms: C5_9  and  C6_11 
REMARK    4  A    between atoms: C7_13  and  C8_14 
REMARK    5  A    between atoms: C8_14  and  C9_15 
ROOT
HETATM    1  C1  UNL     1       0.517   0.789  -0.795  1.00  0.00     0.270 C 
HETATM    2  C2  UNL     1       0.449   2.328  -0.570  1.00  0.00     0.241 C 
HETATM    3  O2  UNL     1       1.709   2.920  -0.834  1.00  0.00    -0.215 OA
HETATM    4  C3  UNL     1      -0.668   3.000  -1.400  1.00  0.00     0.220 C 
HETATM    5  O3  UNL     1      -0.391   2.853  -2.785  1.00  0.00    -0.218 OA
HETATM    6  C4  UNL     1      -2.028   2.310  -1.092  1.00  0.00     0.215 C 
HETATM    7  O4  UNL     1      -2.729   3.086  -0.139  1.00  0.00    -0.218 OA
HETATM    8  C5  UNL     1      -1.877   0.873  -0.521  1.00  0.00     0.184 C 
HETATM    9  O5  UNL     1      -0.758   0.242  -1.133  1.00  0.00    -0.326 OA
ENDROOT
BRANCH   1  10
HETATM   10  O1  UNL     1       1.023   0.156   0.363  1.00  0.00    -0.329 OA
BRANCH  10  11
HETATM   11  C7  UNL     1       1.289  -1.215   0.178  1.00  0.00     0.145 C 
BRANCH  11  12
HETATM   12  C8  UNL     1       1.892  -1.766   1.471  1.00  0.00     0.032 C 
BRANCH  12  13
HETATM   13  C9  UNL     1       2.223  -3.256   1.379  1.00  0.00     0.003 C 
HETATM   14  C10 UNL     1       2.826  -3.807   2.672  1.00  0.00     0.000 C 
ENDBRANCH  12  13
ENDBRANCH  11  12
ENDBRANCH  10  11
ENDBRANCH   1  10
BRANCH   8  15
HETATM   15  C6  UNL     1      -3.106   0.002  -0.799  1.00  0.00     0.214 C 
HETATM   16  O6  UNL     1      -2.959  -1.205  -0.084  1.00  0.00    -0.218 OA
ENDBRANCH   8  15
TORSDOF 5
