REMARK  25 active torsions:
REMARK  status: ('A' for Active; 'I' for Inactive)
REMARK    1  A    between atoms: C1_1  and  C32_34 
REMARK    2  A    between atoms: C4_4  and  C7_7 
REMARK    3  A    between atoms: C8_8  and  C9_9 
REMARK    4  A    between atoms: C9_9  and  O1_10 
REMARK    5  A    between atoms: O1_10  and  C10_11 
REMARK    6  A    between atoms: C10_11  and  C11_12 
REMARK    7  A    between atoms: C11_12  and  C12_13 
REMARK    8  A    between atoms: C12_13  and  C13_14 
REMARK    9  A    between atoms: C13_14  and  C14_15 
REMARK   10  A    between atoms: C14_15  and  C15_16 
REMARK   11  A    between atoms: C15_16  and  C16_17 
REMARK   12  A    between atoms: C16_17  and  C17_18 
REMARK   13  A    between atoms: C17_18  and  C18_19 
REMARK   14  A    between atoms: C18_19  and  C19_20 
REMARK   15  A    between atoms: C19_20  and  C20_21 
REMARK   16  A    between atoms: C20_21  and  C21_22 
REMARK   17  A    between atoms: C21_22  and  C22_23 
REMARK   18  A    between atoms: C22_23  and  C23_24 
REMARK   19  A    between atoms: C23_24  and  C24_25 
REMARK   20  A    between atoms: C24_25  and  C25_26 
REMARK   21  A    between atoms: C25_26  and  C26_27 
REMARK   22  A    between atoms: C26_27  and  C27_28 
REMARK   23  A    between atoms: C27_28  and  C28_29 
REMARK   24  A    between atoms: C28_29  and  C29_30 
REMARK   25  A    between atoms: C29_30  and  C30_31 
ROOT
HETATM    1  C13 UNL     1      -4.459  -2.297   0.000  1.00  0.00     0.000 C 
ENDROOT
BRANCH   1   2
HETATM    2  C12 UNL     1      -5.977  -2.109   0.000  1.00  0.00     0.003 C 
BRANCH   2   3
HETATM    3  C11 UNL     1      -6.734  -3.438   0.000  1.00  0.00     0.033 C 
BRANCH   3   4
HETATM    4  C10 UNL     1      -8.252  -3.250   0.000  1.00  0.00     0.152 C 
BRANCH   4   5
HETATM    5  O1  UNL     1      -8.887  -4.522   0.000  1.00  0.00    -0.298 OA
BRANCH   5   6
HETATM    6  C9  UNL     1     -10.213  -4.424   0.000  1.00  0.00     0.296 C 
HETATM    7  O2  UNL     1     -10.813  -3.375   0.000  1.00  0.00    -0.259 OA
BRANCH   6   8
HETATM    8  C8  UNL     1     -10.944  -5.697   0.000  1.00  0.00     0.068 C 
HETATM    9  C7  UNL     1     -12.287  -5.715   0.000  1.00  0.00     0.005 C 
BRANCH   9  10
HETATM   10  C4  UNL     1     -12.987  -7.035   0.000  1.00  0.00     0.000 A 
HETATM   11  C3  UNL     1     -14.393  -7.088   0.000  1.00  0.00     0.000 A 
HETATM   12  C2  UNL     1     -15.051  -8.330   0.000  1.00  0.00     0.006 A 
HETATM   13  C1  UNL     1     -14.305  -9.524   0.000  1.00  0.00     0.064 A 
HETATM   14  C6  UNL     1     -12.899  -9.471   0.000  1.00  0.00     0.006 A 
HETATM   15  C5  UNL     1     -12.240  -8.229   0.000  1.00  0.00     0.000 A 
BRANCH  13  16
HETATM   16  C32 UNL     1     -15.004 -10.844   0.000  1.00  0.00     0.211 C 
HETATM   17  O3  UNL     1     -16.211 -10.906   0.000  1.00  0.00    -0.644 OA
HETATM   18  O4  UNL     1     -14.205 -11.906   0.000  1.00  0.00    -0.644 OA
ENDBRANCH  13  16
ENDBRANCH   9  10
ENDBRANCH   6   8
ENDBRANCH   5   6
ENDBRANCH   4   5
ENDBRANCH   3   4
ENDBRANCH   2   3
ENDBRANCH   1   2
BRANCH   1  19
HETATM   19  C14 UNL     1      -3.701  -0.969   0.000  1.00  0.00     0.000 C 
BRANCH  19  20
HETATM   20  C15 UNL     1      -2.184  -1.156   0.000  1.00  0.00     0.000 C 
BRANCH  20  21
HETATM   21  C16 UNL     1      -1.424   0.170   0.000  1.00  0.00     0.000 C 
BRANCH  21  22
HETATM   22  C17 UNL     1       0.094  -0.018   0.000  1.00  0.00     0.000 C 
BRANCH  22  23
HETATM   23  C18 UNL     1       0.852   1.311   0.000  1.00  0.00     0.000 C 
BRANCH  23  24
HETATM   24  C19 UNL     1       2.369   1.123   0.000  1.00  0.00     0.000 C 
BRANCH  24  25
HETATM   25  C20 UNL     1       3.127   2.451   0.000  1.00  0.00     0.000 C 
BRANCH  25  26
HETATM   26  C21 UNL     1       4.645   2.264   0.000  1.00  0.00     0.000 C 
BRANCH  26  27
HETATM   27  C22 UNL     1       5.402   3.592   0.000  1.00  0.00     0.000 C 
BRANCH  27  28
HETATM   28  C23 UNL     1       6.920   3.404   0.000  1.00  0.00     0.000 C 
BRANCH  28  29
HETATM   29  C24 UNL     1       7.680   4.730   0.000  1.00  0.00     0.000 C 
BRANCH  29  30
HETATM   30  C25 UNL     1       9.197   4.545   0.000  1.00  0.00     0.000 C 
BRANCH  30  31
HETATM   31  C26 UNL     1       9.955   5.871   0.000  1.00  0.00     0.000 C 
BRANCH  31  32
HETATM   32  C27 UNL     1      11.473   5.684   0.000  1.00  0.00     0.000 C 
BRANCH  32  33
HETATM   33  C28 UNL     1      12.231   7.012   0.000  1.00  0.00     0.000 C 
BRANCH  33  34
HETATM   34  C29 UNL     1      13.748   6.824   0.000  1.00  0.00     0.000 C 
BRANCH  34  35
HETATM   35  C30 UNL     1      14.506   8.152   0.000  1.00  0.00     0.000 C 
HETATM   36  C31 UNL     1      16.024   7.965   0.000  1.00  0.00     0.000 C 
ENDBRANCH  34  35
ENDBRANCH  33  34
ENDBRANCH  32  33
ENDBRANCH  31  32
ENDBRANCH  30  31
ENDBRANCH  29  30
ENDBRANCH  28  29
ENDBRANCH  27  28
ENDBRANCH  26  27
ENDBRANCH  25  26
ENDBRANCH  24  25
ENDBRANCH  23  24
ENDBRANCH  22  23
ENDBRANCH  21  22
ENDBRANCH  20  21
ENDBRANCH  19  20
ENDBRANCH   1  19
TORSDOF 25
