REMARK  6 active torsions:
REMARK  status: ('A' for Active; 'I' for Inactive)
REMARK    1  A    between atoms: C7_8  and  C10_12 
REMARK    2  A    between atoms: C12_14  and  C16_20 
REMARK    3  A    between atoms: C16_20  and  C17_21 
REMARK    4  A    between atoms: C18_22  and  C20_24 
REMARK    5  A    between atoms: C20_24  and  C21_25 
REMARK    6  A    between atoms: C21_25  and  C22_26 
ROOT
HETATM    1  C10 UNL     1      -0.840  -1.139  -0.262  1.00  0.00     0.031 A 
HETATM    2  C11 UNL     1       0.273  -0.676  -0.984  1.00  0.00    -0.002 A 
HETATM    3  C12 UNL     1       0.557  -1.199  -2.258  1.00  0.00     0.007 A 
HETATM    4  C13 UNL     1      -0.275  -2.192  -2.813  1.00  0.00     0.129 A 
HETATM    5  C14 UNL     1      -1.387  -2.652  -2.084  1.00  0.00     0.054 A 
HETATM    6  C15 UNL     1      -1.674  -2.131  -0.811  1.00  0.00     0.131 A 
HETATM    7  O3  UNL     1      -2.719  -2.572  -0.141  1.00  0.00    -0.190 OA
HETATM    8  O4  UNL     1      -0.020  -2.690  -4.006  1.00  0.00    -0.190 OA
ENDROOT
BRANCH   1   9
HETATM    9  C7  UNL     1      -1.127  -0.574   1.090  1.00  0.00     0.153 C 
HETATM   10  O1  UNL     1      -2.441  -0.969   1.514  1.00  0.00    -0.328 OA
HETATM   11  C5  UNL     1      -3.539  -0.318   1.072  1.00  0.00     0.101 A 
HETATM   12  C4  UNL     1      -3.453   0.977   0.488  1.00  0.00     0.083 A 
HETATM   13  C6  UNL     1      -4.803  -0.945   1.199  1.00  0.00     0.052 A 
HETATM   14  C3  UNL     1      -4.619   1.603  -0.025  1.00  0.00     0.138 A 
HETATM   15  C9  UNL     1      -2.131   1.664   0.428  1.00  0.00     0.180 C 
HETATM   16  C2  UNL     1      -5.871   0.959   0.088  1.00  0.00     0.055 A 
HETATM   17  O5  UNL     1      -4.555   2.811  -0.607  1.00  0.00    -0.190 OA
HETATM   18  C1  UNL     1      -5.965  -0.309   0.709  1.00  0.00     0.135 A 
HETATM   19  O6  UNL     1      -7.158  -0.908   0.828  1.00  0.00    -0.190 OA
HETATM   20  C8  UNL     1      -0.986   0.961   1.125  1.00  0.00     0.104 C 
HETATM   21  O2  UNL     1      -1.887   2.719  -0.113  1.00  0.00    -0.291 OA
ENDBRANCH   1   9
BRANCH   3  22
HETATM   22  C16 UNL     1       1.736  -0.699  -3.014  1.00  0.00     0.054 C 
BRANCH  22  23
HETATM   23  C17 UNL     1       2.936  -0.502  -2.125  1.00  0.00    -0.030 C 
HETATM   24  C18 UNL     1       3.231   0.740  -1.715  1.00  0.00    -0.048 C 
HETATM   25  C19 UNL     1       2.348   1.875  -2.164  1.00  0.00     0.026 C 
BRANCH  24  26
HETATM   26  C20 UNL     1       4.430   0.937  -0.826  1.00  0.00     0.026 C 
BRANCH  26  27
HETATM   27  C21 UNL     1       4.041   1.303   0.607  1.00  0.00     0.030 C 
BRANCH  27  28
HETATM   28  C22 UNL     1       3.336   0.178   1.314  1.00  0.00    -0.034 C 
HETATM   29  C23 UNL     1       3.232   0.226   2.652  1.00  0.00    -0.048 C 
HETATM   30  C24 UNL     1       3.803   1.418   3.373  1.00  0.00     0.026 C 
HETATM   31  C25 UNL     1       2.551  -0.912   3.363  1.00  0.00     0.026 C 
ENDBRANCH  27  28
ENDBRANCH  26  27
ENDBRANCH  24  26
ENDBRANCH  22  23
ENDBRANCH   3  22
TORSDOF 6
