REMARK  3 active torsions:
REMARK  status: ('A' for Active; 'I' for Inactive)
REMARK    1  A    between atoms: C12_14  and  C13_15 
REMARK    2  A    between atoms: C15_17  and  O3_24 
REMARK    3  A    between atoms: C17_19  and  O1_21 
ROOT
HETATM    1  C1  UNL     1      -6.988  -0.402   0.107  1.00  0.00     0.000 A 
HETATM    2  C2  UNL     1      -6.496  -0.697  -1.184  1.00  0.00     0.002 A 
HETATM    3  C3  UNL     1      -5.106  -0.648  -1.445  1.00  0.00     0.019 A 
HETATM    4  C4  UNL     1      -4.193  -0.307  -0.416  1.00  0.00     0.087 A 
HETATM    5  C5  UNL     1      -4.701  -0.014   0.891  1.00  0.00     0.074 A 
HETATM    6  C6  UNL     1      -6.094  -0.062   1.146  1.00  0.00     0.006 A 
HETATM    7  C7  UNL     1      -3.746   0.344   1.982  1.00  0.00     0.263 A 
HETATM    8  N1  UNL     1      -2.396   0.350   1.576  1.00  0.00    -0.281 N 
HETATM    9  C8  UNL     1      -2.029   0.041   0.252  1.00  0.00     0.142 A 
HETATM   10  N2  UNL     1      -2.852  -0.271  -0.711  1.00  0.00    -0.229 NA
HETATM   11  C9  UNL     1      -0.568   0.141   0.172  1.00  0.00     0.014 A 
HETATM   12  C10 UNL     1      -0.010   0.539   1.521  1.00  0.00     0.054 A 
HETATM   13  C11 UNL     1      -1.248   0.662   2.428  1.00  0.00     0.115 A 
HETATM   14  C12 UNL     1       0.182  -0.088  -0.928  1.00  0.00    -0.001 C 
HETATM   15  O4  UNL     1      -4.010   0.615   3.131  1.00  0.00    -0.267 OA
ENDROOT
BRANCH  14  16
HETATM   16  C13 UNL     1       1.670   0.031  -0.918  1.00  0.00     0.004 A 
HETATM   17  C14 UNL     1       2.279   1.223  -0.490  1.00  0.00     0.026 A 
HETATM   18  C15 UNL     1       3.682   1.338  -0.482  1.00  0.00     0.121 A 
HETATM   19  C16 UNL     1       4.477   0.254  -0.902  1.00  0.00     0.175 A 
HETATM   20  C17 UNL     1       3.867  -0.939  -1.330  1.00  0.00     0.121 A 
HETATM   21  O2  UNL     1       5.791   0.359  -0.895  1.00  0.00    -0.186 OA
HETATM   22  C18 UNL     1       2.467  -1.051  -1.338  1.00  0.00     0.026 A 
BRANCH  18  23
HETATM   23  O3  UNL     1       4.246   2.457  -0.080  1.00  0.00    -0.326 OA
HETATM   24  C20 UNL     1       4.955   2.443   1.150  1.00  0.00     0.181 C 
ENDBRANCH  18  23
BRANCH  20  25
HETATM   25  O1  UNL     1       4.608  -1.957  -1.725  1.00  0.00    -0.326 OA
HETATM   26  C19 UNL     1       3.945  -3.139  -2.149  1.00  0.00     0.181 C 
ENDBRANCH  20  25
ENDBRANCH  14  16
TORSDOF 3
