REMARK  10 active torsions:
REMARK  status: ('A' for Active; 'I' for Inactive)
REMARK    1  A    between atoms: C10_10  and  O1_11 
REMARK    2  A    between atoms: O1_11  and  C11_12 
REMARK    3  A    between atoms: C12_13  and  O2_14 
REMARK    4  A    between atoms: O2_14  and  C13_15 
REMARK    5  A    between atoms: C14_16  and  O3_17 
REMARK    6  A    between atoms: O3_17  and  C15_18 
REMARK    7  A    between atoms: C22_31  and  C23_33 
REMARK    8  A    between atoms: C26_39  and  C27_41 
REMARK    9  A    between atoms: C32_48  and  C35_51 
REMARK   10  A    between atoms: C38_54  and  C39_56 
ROOT
HETATM    1  C1  UNL     1       3.750   2.320   3.195  1.00  0.00     0.033 C 
HETATM    2  C2  UNL     1       4.441   2.883   1.947  1.00  0.00     0.152 C 
HETATM    3  C3  UNL     1       3.525   2.813   0.701  1.00  0.00     0.030 C 
HETATM    4  C4  UNL     1       2.936   1.371   0.494  1.00  0.00     0.030 C 
HETATM    5  C5  UNL     1       2.305   0.719   1.773  1.00  0.00     0.003 C 
HETATM    6  C6  UNL     1       3.277   0.881   2.969  1.00  0.00     0.003 C 
HETATM    7  C7  UNL     1       0.889   1.316   2.057  1.00  0.00     0.003 C 
HETATM    8  C8  UNL     1      -0.078   1.193   0.838  1.00  0.00     0.003 C 
HETATM    9  C9  UNL     1       0.551   1.789  -0.445  1.00  0.00     0.030 C 
HETATM   10  C10 UNL     1       1.982   1.299  -0.734  1.00  0.00     0.118 C 
HETATM   11  C28 UNL     1      -1.438   1.902   1.115  1.00  0.00     0.003 C 
HETATM   12  C29 UNL     1      -2.104   1.461   2.440  1.00  0.00     0.033 C 
HETATM   13  C30 UNL     1      -1.113   1.490   3.627  1.00  0.00     0.152 C 
HETATM   14  C31 UNL     1       0.203   0.758   3.320  1.00  0.00     0.033 C 
HETATM   15  O16 UNL     1      -1.699   0.871   4.756  1.00  0.00    -0.224 OA
HETATM   16  C32 UNL     1      -3.240   2.492   2.574  1.00  0.00     0.028 C 
HETATM   17  C33 UNL     1      -2.580   3.813   2.170  1.00  0.00     0.002 C 
HETATM   18  C34 UNL     1      -1.383   3.432   1.297  1.00  0.00     0.000 C 
HETATM   19  C43 UNL     1      -2.426   1.666  -0.039  1.00  0.00     0.000 C 
HETATM   20  C44 UNL     1      -0.465  -0.279   0.590  1.00  0.00     0.000 C 
HETATM   21  C45 UNL     1       2.178  -0.801   1.568  1.00  0.00     0.000 C 
HETATM   22  C46 UNL     1       4.320   3.232  -0.547  1.00  0.00     0.003 C 
HETATM   23  C47 UNL     1       2.432   3.871   0.881  1.00  0.00     0.003 C 
HETATM   24  O19 UNL     1       5.645   2.164   1.727  1.00  0.00    -0.224 OA
ENDROOT
BRANCH  10  25
HETATM   25  O1  UNL     1       1.928  -0.023  -1.234  1.00  0.00    -0.332 OA
BRANCH  25  26
HETATM   26  C11 UNL     1       3.080  -0.391  -1.967  1.00  0.00     0.267 C 
HETATM   27  C12 UNL     1       2.744  -0.607  -3.471  1.00  0.00     0.207 C 
HETATM   28  C24 UNL     1       3.971  -1.127  -4.258  1.00  0.00     0.217 C 
HETATM   29  O12 UNL     1       4.887  -0.057  -4.410  1.00  0.00    -0.218 OA
HETATM   30  C25 UNL     1       4.689  -2.275  -3.512  1.00  0.00     0.215 C 
HETATM   31  O13 UNL     1       3.938  -3.469  -3.656  1.00  0.00    -0.218 OA
HETATM   32  C26 UNL     1       4.898  -1.955  -2.008  1.00  0.00     0.184 C 
HETATM   33  O14 UNL     1       3.672  -1.559  -1.404  1.00  0.00    -0.326 OA
BRANCH  27  34
HETATM   34  O2  UNL     1       1.680  -1.533  -3.625  1.00  0.00    -0.324 OA
BRANCH  34  35
HETATM   35  C13 UNL     1       0.424  -0.912  -3.814  1.00  0.00     0.267 C 
HETATM   36  C14 UNL     1      -0.785  -1.865  -3.516  1.00  0.00     0.207 C 
HETATM   37  C20 UNL     1      -2.010  -1.447  -4.356  1.00  0.00     0.217 C 
HETATM   38  O8  UNL     1      -3.133  -2.273  -4.086  1.00  0.00    -0.218 OA
HETATM   39  C21 UNL     1      -1.666  -1.463  -5.869  1.00  0.00     0.215 C 
HETATM   40  O9  UNL     1      -2.512  -0.535  -6.525  1.00  0.00    -0.218 OA
HETATM   41  C22 UNL     1      -0.162  -1.141  -6.145  1.00  0.00     0.184 C 
HETATM   42  O10 UNL     1       0.350  -0.311  -5.109  1.00  0.00    -0.326 OA
BRANCH  36  43
HETATM   43  O3  UNL     1      -0.471  -3.227  -3.793  1.00  0.00    -0.324 OA
BRANCH  43  44
HETATM   44  C15 UNL     1       0.098  -3.904  -2.689  1.00  0.00     0.270 C 
HETATM   45  C16 UNL     1       0.916  -5.135  -3.176  1.00  0.00     0.241 C 
HETATM   46  O4  UNL     1       1.760  -5.563  -2.121  1.00  0.00    -0.215 OA
HETATM   47  C17 UNL     1       0.027  -6.324  -3.604  1.00  0.00     0.220 C 
HETATM   48  O5  UNL     1      -0.535  -6.029  -4.873  1.00  0.00    -0.218 OA
HETATM   49  C18 UNL     1      -1.080  -6.567  -2.549  1.00  0.00     0.215 C 
HETATM   50  O6  UNL     1      -2.010  -7.537  -2.998  1.00  0.00    -0.218 OA
HETATM   51  C19 UNL     1      -1.826  -5.270  -2.174  1.00  0.00     0.181 C 
HETATM   52  O7  UNL     1      -0.893  -4.285  -1.738  1.00  0.00    -0.326 OA
ENDBRANCH  43  44
ENDBRANCH  36  43
BRANCH  41  53
HETATM   53  C23 UNL     1       0.115  -0.441  -7.481  1.00  0.00     0.214 C 
HETATM   54  O11 UNL     1       1.504  -0.484  -7.721  1.00  0.00    -0.218 OA
ENDBRANCH  41  53
ENDBRANCH  34  35
ENDBRANCH  27  34
BRANCH  32  55
HETATM   55  C27 UNL     1       5.457  -3.135  -1.205  1.00  0.00     0.214 C 
HETATM   56  O15 UNL     1       5.934  -2.643   0.027  1.00  0.00    -0.218 OA
ENDBRANCH  32  55
ENDBRANCH  25  26
ENDBRANCH  10  25
BRANCH  16  57
HETATM   57  C35 UNL     1      -3.914   2.596   3.940  1.00  0.00     0.093 C 
HETATM   58  C36 UNL     1      -3.106   3.379   4.969  1.00  0.00     0.030 C 
HETATM   59  C37 UNL     1      -3.533   2.748   6.299  1.00  0.00     0.035 C 
HETATM   60  C38 UNL     1      -4.174   1.406   5.914  1.00  0.00     0.143 C 
HETATM   61  O17 UNL     1      -3.990   1.314   4.518  1.00  0.00    -0.359 OA
HETATM   62  C42 UNL     1      -5.322   3.160   3.756  1.00  0.00     0.030 C 
BRANCH  60  63
HETATM   63  C39 UNL     1      -5.672   1.375   6.217  1.00  0.00     0.152 C 
HETATM   64  O18 UNL     1      -5.858   0.727   7.455  1.00  0.00    -0.224 OA
HETATM   65  C40 UNL     1      -6.395   0.576   5.133  1.00  0.00     0.035 C 
HETATM   66  C41 UNL     1      -6.195   2.807   6.342  1.00  0.00     0.035 C 
ENDBRANCH  60  63
ENDBRANCH  16  57
TORSDOF 10
