REMARK  16 active torsions:
REMARK  status: ('A' for Active; 'I' for Inactive)
REMARK    1  A    between atoms: C1_1  and  C2_2 
REMARK    2  A    between atoms: C1_1  and  O2_20 
REMARK    3  A    between atoms: C2_2  and  C3_3 
REMARK    4  A    between atoms: C3_3  and  C4_4 
REMARK    5  A    between atoms: C4_4  and  C5_5 
REMARK    6  A    between atoms: C5_5  and  C6_6 
REMARK    7  A    between atoms: C6_6  and  C7_7 
REMARK    8  A    between atoms: C7_7  and  C8_8 
REMARK    9  A    between atoms: C8_8  and  C9_9 
REMARK   10  A    between atoms: C10_10  and  C11_11 
REMARK   11  A    between atoms: C11_11  and  C12_12 
REMARK   12  A    between atoms: C13_13  and  C14_14 
REMARK   13  A    between atoms: C14_14  and  C15_15 
REMARK   14  A    between atoms: C15_15  and  C16_16 
REMARK   15  A    between atoms: C16_16  and  C17_17 
REMARK   16  A    between atoms: O2_20  and  C19_21 
ROOT
HETATM    1  C7  UNL     1      -2.150   1.746   0.356  1.00  0.00     0.005 C 
ENDROOT
BRANCH   1   2
HETATM    2  C6  UNL     1      -0.621   1.752   0.352  1.00  0.00     0.000 C 
BRANCH   2   3
HETATM    3  C5  UNL     1      -0.039   3.113  -0.031  1.00  0.00     0.000 C 
BRANCH   3   4
HETATM    4  C4  UNL     1       1.490   3.119  -0.035  1.00  0.00     0.001 C 
BRANCH   4   5
HETATM    5  C3  UNL     1       2.074   4.481  -0.418  1.00  0.00     0.010 C 
BRANCH   5   6
HETATM    6  C2  UNL     1       3.602   4.486  -0.422  1.00  0.00     0.096 C 
BRANCH   6   7
HETATM    7  C1  UNL     1       4.170   5.826  -0.809  1.00  0.00     0.272 C 
HETATM    8  O1  UNL     1       3.445   6.764  -1.045  1.00  0.00    -0.264 OA
BRANCH   7   9
HETATM    9  O2  UNL     1       5.498   5.883  -0.865  1.00  0.00    -0.302 OA
BRANCH   9  10
HETATM   10  C19 UNL     1       5.969   7.170  -1.234  1.00  0.00     0.152 C 
HETATM   11  C20 UNL     1       7.496   7.162  -1.279  1.00  0.00     0.035 C 
ENDBRANCH   9  10
ENDBRANCH   7   9
ENDBRANCH   6   7
ENDBRANCH   5   6
ENDBRANCH   4   5
ENDBRANCH   3   4
ENDBRANCH   2   3
ENDBRANCH   1   2
BRANCH   1  12
HETATM   12  C8  UNL     1      -2.734   0.385   0.738  1.00  0.00     0.026 C 
BRANCH  12  13
HETATM   13  C9  UNL     1      -4.240   0.385   0.738  1.00  0.00    -0.030 C 
HETATM   14  C10 UNL     1      -4.881  -0.795   0.738  1.00  0.00    -0.026 C 
BRANCH  14  15
HETATM   15  C11 UNL     1      -4.061  -2.057   0.738  1.00  0.00     0.051 C 
BRANCH  15  16
HETATM   16  C12 UNL     1      -4.932  -3.252   1.025  1.00  0.00    -0.026 C 
HETATM   17  C13 UNL     1      -4.424  -4.479   0.822  1.00  0.00    -0.030 C 
BRANCH  17  18
HETATM   18  C14 UNL     1      -3.010  -4.596   0.318  1.00  0.00     0.026 C 
BRANCH  18  19
HETATM   19  C15 UNL     1      -2.449  -6.010   0.481  1.00  0.00     0.005 C 
BRANCH  19  20
HETATM   20  C16 UNL     1      -1.018  -6.139  -0.039  1.00  0.00     0.000 C 
BRANCH  20  21
HETATM   21  C17 UNL     1      -0.455  -7.551   0.125  1.00  0.00     0.000 C 
HETATM   22  C18 UNL     1       0.977  -7.680  -0.393  1.00  0.00     0.000 C 
ENDBRANCH  20  21
ENDBRANCH  19  20
ENDBRANCH  18  19
ENDBRANCH  17  18
ENDBRANCH  15  16
ENDBRANCH  14  15
ENDBRANCH  12  13
ENDBRANCH   1  12
TORSDOF 16
