REMARK  6 active torsions:
REMARK  status: ('A' for Active; 'I' for Inactive)
REMARK    1  A    between atoms: C2_2  and  C9_13 
REMARK    2  A    between atoms: C5_5  and  O1_8 
REMARK    3  A    between atoms: O1_8  and  C7_9 
REMARK    4  A    between atoms: C7_9  and  C8_10 
REMARK    5  A    between atoms: C9_13  and  C10_14 
REMARK    6  A    between atoms: C10_14  and  C11_15 
ROOT
HETATM    1  C1  UNL     1       1.463   1.410  -0.268  1.00  0.00     0.073 A 
HETATM    2  C2  UNL     1       0.186   0.885  -0.576  1.00  0.00     0.050 A 
HETATM    3  C3  UNL     1      -0.099  -0.467  -0.332  1.00  0.00     0.006 A 
HETATM    4  C4  UNL     1       0.881  -1.307   0.219  1.00  0.00     0.025 A 
HETATM    5  C5  UNL     1       2.153  -0.805   0.527  1.00  0.00     0.106 A 
HETATM    6  C6  UNL     1       2.453   0.555   0.285  1.00  0.00     0.091 A 
HETATM    7 CL1  UNL     1       4.035   1.129   0.682  1.00  0.00    -0.079 Cl
HETATM    8 CL2  UNL     1       1.791   3.080  -0.576  1.00  0.00    -0.081 Cl
ENDROOT
BRANCH   2   9
HETATM    9  C9  UNL     1      -0.892   1.744  -1.162  1.00  0.00     0.192 C 
HETATM   10  O4  UNL     1      -0.635   2.584  -1.992  1.00  0.00    -0.287 OA
BRANCH   9  11
HETATM   11  C10 UNL     1      -2.275   1.547  -0.709  1.00  0.00     0.017 C 
HETATM   12  C13 UNL     1      -2.533   1.160   0.551  1.00  0.00    -0.001 C 
BRANCH  11  13
HETATM   13  C11 UNL     1      -3.432   1.769  -1.645  1.00  0.00     0.030 C 
HETATM   14  C12 UNL     1      -4.057   3.154  -1.481  1.00  0.00     0.005 C 
ENDBRANCH  11  13
ENDBRANCH   9  11
ENDBRANCH   2   9
BRANCH   5  15
HETATM   15  O1  UNL     1       3.053  -1.619   1.043  1.00  0.00    -0.319 OA
BRANCH  15  16
HETATM   16  C7  UNL     1       2.682  -2.973   1.256  1.00  0.00     0.246 C 
BRANCH  16  17
HETATM   17  C8  UNL     1       3.846  -3.725   1.844  1.00  0.00     0.217 C 
HETATM   18  O2  UNL     1       3.621  -5.012   2.092  1.00  0.00    -0.645 OA
HETATM   19  O3  UNL     1       4.897  -3.172   2.066  1.00  0.00    -0.645 OA
ENDBRANCH  16  17
ENDBRANCH  15  16
ENDBRANCH   5  15
TORSDOF 6
