REMARK  0 active torsions:
REMARK  status: ('A' for Active; 'I' for Inactive)
ROOT
HETATM    1  C1  UNL     1       2.356  -1.467  -0.594  1.00  0.00     0.000 C 
HETATM    2  C2  UNL     1       3.145  -0.584   0.397  1.00  0.00     0.000 C 
HETATM    3  C3  UNL     1       2.268   0.348   1.281  1.00  0.00     0.001 C 
HETATM    4  C4  UNL     1       0.873   0.525   0.631  1.00  0.00     0.009 C 
HETATM    5  C5  UNL     1       0.086  -0.815   0.397  1.00  0.00     0.046 C 
HETATM    6  C6  UNL     1       1.045  -1.975   0.018  1.00  0.00     0.006 C 
HETATM    7  C7  UNL     1      -0.959  -0.459  -0.621  1.00  0.00    -0.020 A 
HETATM    8  C8  UNL     1      -1.848   0.543  -0.156  1.00  0.00     0.001 A 
HETATM    9  C9  UNL     1      -1.557   1.025   1.227  1.00  0.00     0.137 C 
HETATM   10  C10 UNL     1      -0.090   1.547   1.309  1.00  0.00     0.035 C 
HETATM   11  O1  UNL     1      -1.590  -0.113   2.096  1.00  0.00    -0.352 OA
HETATM   12  C11 UNL     1      -0.703  -1.180   1.705  1.00  0.00     0.146 C 
HETATM   13  C12 UNL     1      -2.902   1.008  -0.974  1.00  0.00    -0.004 A 
HETATM   14  C13 UNL     1      -3.061   0.465  -2.273  1.00  0.00     0.003 A 
HETATM   15  C14 UNL     1      -2.166  -0.533  -2.744  1.00  0.00     0.127 A 
HETATM   16  C15 UNL     1      -1.111  -0.998  -1.922  1.00  0.00     0.023 A 
HETATM   17  O2  UNL     1      -2.313  -1.045  -3.975  1.00  0.00    -0.191 OA
HETATM   18  C16 UNL     1      -4.156   0.943  -3.131  1.00  0.00     0.033 C 
HETATM   19  C17 UNL     1       2.951   1.717   1.406  1.00  0.00     0.000 C 
HETATM   20  C18 UNL     1       2.145  -0.232   2.694  1.00  0.00     0.000 C 
ENDROOT
TORSDOF 0
