REMARK  10 active torsions:
REMARK  status: ('A' for Active; 'I' for Inactive)
REMARK    1  A    between atoms: C1_1  and  O13_40 
REMARK    2  A    between atoms: C3_3  and  O11_37 
REMARK    3  A    between atoms: C8_8  and  C26_35 
REMARK    4  A    between atoms: C9_9  and  C19_22 
REMARK    5  A    between atoms: C10_10  and  C11_11 
REMARK    6  A    between atoms: C13_13  and  O3_20 
REMARK    7  A    between atoms: C15_15  and  O1_17 
REMARK    8  A    between atoms: C19_22  and  O4_23 
REMARK    9  A    between atoms: O4_23  and  C20_24 
REMARK   10  A    between atoms: C24_28  and  C25_30 
ROOT
HETATM    1  C1  UNL     1       2.918  -3.748   1.076  1.00  0.00     0.121 A 
HETATM    2  C2  UNL     1       3.432  -2.449   0.883  1.00  0.00     0.175 A 
HETATM    3  C3  UNL     1       2.549  -1.355   0.725  1.00  0.00     0.117 A 
HETATM    4  C4  UNL     1       1.133  -1.539   0.783  1.00  0.00     0.002 A 
HETATM    5  C5  UNL     1       0.625  -2.867   0.949  1.00  0.00    -0.022 A 
HETATM    6  C6  UNL     1       1.523  -3.955   1.102  1.00  0.00     0.022 A 
HETATM    7  C7  UNL     1      -0.834  -3.152   0.965  1.00  0.00     0.029 C 
HETATM    8  C8  UNL     1      -1.689  -2.047   0.326  1.00  0.00     0.041 C 
HETATM    9  C9  UNL     1      -1.291  -0.685   0.912  1.00  0.00     0.041 C 
HETATM   10  C10 UNL     1       0.203  -0.365   0.652  1.00  0.00     0.049 C 
HETATM   11  O12 UNL     1       4.758  -2.252   0.852  1.00  0.00    -0.186 OA
ENDROOT
BRANCH   9  12
HETATM   12  C19 UNL     1      -2.201   0.440   0.395  1.00  0.00     0.146 C 
BRANCH  12  13
HETATM   13  O4  UNL     1      -2.182   0.406  -1.016  1.00  0.00    -0.329 OA
BRANCH  13  14
HETATM   14  C20 UNL     1      -2.986   1.408  -1.607  1.00  0.00     0.270 C 
HETATM   15  C21 UNL     1      -2.172   2.721  -1.768  1.00  0.00     0.241 C 
HETATM   16  C22 UNL     1      -1.213   2.703  -2.982  1.00  0.00     0.220 C 
HETATM   17  O9  UNL     1      -3.078   3.801  -1.916  1.00  0.00    -0.215 OA
HETATM   18  C23 UNL     1      -1.879   2.108  -4.244  1.00  0.00     0.215 C 
HETATM   19  O8  UNL     1      -0.080   1.922  -2.654  1.00  0.00    -0.218 OA
HETATM   20  C24 UNL     1      -2.689   0.818  -3.957  1.00  0.00     0.184 C 
HETATM   21  O7  UNL     1      -2.738   3.076  -4.817  1.00  0.00    -0.218 OA
HETATM   22  O5  UNL     1      -3.570   0.992  -2.844  1.00  0.00    -0.326 OA
BRANCH  20  23
HETATM   23  C25 UNL     1      -1.805  -0.418  -3.742  1.00  0.00     0.214 C 
HETATM   24  O6  UNL     1      -1.207  -0.752  -4.975  1.00  0.00    -0.218 OA
ENDBRANCH  20  23
ENDBRANCH  13  14
ENDBRANCH  12  13
ENDBRANCH   9  12
BRANCH   8  25
HETATM   25  C26 UNL     1      -3.184  -2.338   0.518  1.00  0.00     0.183 C 
HETATM   26  O10 UNL     1      -3.867  -1.910  -0.639  1.00  0.00    -0.221 OA
ENDBRANCH   8  25
BRANCH  10  27
HETATM   27  C11 UNL     1       0.623   0.772   1.531  1.00  0.00    -0.014 A 
HETATM   28  C12 UNL     1       0.982   2.006   0.963  1.00  0.00     0.022 A 
HETATM   29  C13 UNL     1       1.377   3.074   1.787  1.00  0.00     0.121 A 
HETATM   30  C14 UNL     1       1.412   2.908   3.184  1.00  0.00     0.175 A 
HETATM   31  C15 UNL     1       1.053   1.672   3.754  1.00  0.00     0.121 A 
HETATM   32  O2  UNL     1       1.781   3.908   3.957  1.00  0.00    -0.186 OA
HETATM   33  C16 UNL     1       0.658   0.606   2.926  1.00  0.00     0.022 A 
BRANCH  29  34
HETATM   34  O3  UNL     1       1.713   4.231   1.248  1.00  0.00    -0.326 OA
HETATM   35  C18 UNL     1       1.588   4.371  -0.160  1.00  0.00     0.181 C 
ENDBRANCH  29  34
BRANCH  31  36
HETATM   36  O1  UNL     1       1.084   1.512   5.063  1.00  0.00    -0.326 OA
HETATM   37  C17 UNL     1       0.947   0.193   5.574  1.00  0.00     0.181 C 
ENDBRANCH  31  36
ENDBRANCH  10  27
BRANCH   3  38
HETATM   38  O11 UNL     1       3.078  -0.143   0.510  1.00  0.00    -0.326 OA
HETATM   39  C27 UNL     1       3.498   0.180  -0.807  1.00  0.00     0.181 C 
ENDBRANCH   3  38
BRANCH   1  40
HETATM   40  O13 UNL     1       3.752  -4.787   1.234  1.00  0.00    -0.326 OA
HETATM   41  C28 UNL     1       3.188  -6.086   1.332  1.00  0.00     0.181 C 
ENDBRANCH   1  40
TORSDOF 10
