REMARK  1 active torsions:
REMARK  status: ('A' for Active; 'I' for Inactive)
REMARK    1  A    between atoms: C1_1  and  C7_8 
ROOT
HETATM    1  C1  UNL     1       0.307   0.686   0.096  1.00  0.00     0.011 A 
HETATM    2  C2  UNL     1      -1.098   0.633   0.096  1.00  0.00     0.000 A 
HETATM    3  C3  UNL     1      -1.754  -0.609   0.096  1.00  0.00     0.027 A 
HETATM    4  C4  UNL     1      -1.012  -1.803   0.096  1.00  0.00     0.131 A 
HETATM    5  C5  UNL     1       0.395  -1.748   0.096  1.00  0.00     0.027 A 
HETATM    6  C6  UNL     1       1.053  -0.506   0.096  1.00  0.00     0.000 A 
HETATM    7  O1  UNL     1      -1.629  -2.967   0.096  1.00  0.00    -0.190 OA
ENDROOT
BRANCH   1   8
HETATM    8  C7  UNL     1       1.004   1.998   0.096  1.00  0.00     0.209 C 
HETATM    9  O2  UNL     1       1.223   2.414  -1.232  1.00  0.00    -0.215 OA
ENDBRANCH   1   8
TORSDOF 1
