REMARK  0 active torsions:
REMARK  status: ('A' for Active; 'I' for Inactive)
ROOT
HETATM    1  C1  UNL     1       1.908   1.973  -1.416  1.00  0.00     0.000 C 
HETATM    2  C2  UNL     1       3.082   1.188  -0.814  1.00  0.00     0.000 C 
HETATM    3  C3  UNL     1       2.752   0.576   0.576  1.00  0.00     0.003 C 
HETATM    4  C4  UNL     1       1.213   0.326   0.727  1.00  0.00     0.040 C 
HETATM    5  C5  UNL     1       0.576  -0.105  -0.637  1.00  0.00     0.026 C 
HETATM    6  C6  UNL     1       0.654   1.096  -1.621  1.00  0.00     0.002 C 
HETATM    7  C7  UNL     1      -0.863  -0.674  -0.418  1.00  0.00     0.100 C 
HETATM    8  C8  UNL     1      -0.834  -1.951   0.486  1.00  0.00     0.085 C 
HETATM    9  C9  UNL     1       0.256  -1.904   1.537  1.00  0.00     0.183 C 
HETATM   10  C10 UNL     1       0.727  -0.527   1.941  1.00  0.00     0.209 C 
HETATM   11  O1  UNL     1       1.672  -0.584   2.992  1.00  0.00    -0.215 OA
HETATM   12  O2  UNL     1       0.717  -2.922   2.004  1.00  0.00    -0.293 OA
HETATM   13  C11 UNL     1      -2.166  -2.312   1.160  1.00  0.00     0.010 C 
HETATM   14  C12 UNL     1      -1.611  -0.994  -1.729  1.00  0.00     0.031 C 
HETATM   15  C13 UNL     1      -3.070  -0.715  -1.385  1.00  0.00     0.036 C 
HETATM   16  C14 UNL     1      -2.914   0.498  -0.475  1.00  0.00     0.141 C 
HETATM   17  O3  UNL     1      -1.676   0.322   0.195  1.00  0.00    -0.357 OA
HETATM   18  C15 UNL     1      -4.041   0.752   0.537  1.00  0.00     0.180 C 
HETATM   19  O4  UNL     1      -4.244   2.168   0.570  1.00  0.00    -0.326 OA
HETATM   20  C16 UNL     1      -3.666   2.697  -0.508  1.00  0.00     0.114 C 
HETATM   21  C17 UNL     1      -2.914   1.820  -1.182  1.00  0.00     0.029 C 
HETATM   22  C18 UNL     1       1.342  -1.293  -1.256  1.00  0.00     0.002 C 
HETATM   23  C19 UNL     1       3.217   1.563   1.658  1.00  0.00     0.000 C 
HETATM   24  C20 UNL     1       3.549  -0.725   0.738  1.00  0.00     0.000 C 
ENDROOT
TORSDOF 0
