REMARK  4 active torsions:
REMARK  status: ('A' for Active; 'I' for Inactive)
REMARK    1  A    between atoms: C2_2  and  O2_12 
REMARK    2  A    between atoms: C4_4  and  C8_9 
REMARK    3  A    between atoms: C6_6  and  O1_7 
REMARK    4  A    between atoms: C8_9  and  C9_10 
ROOT
HETATM    1  C1  UNL     1      -1.002   1.779   0.301  1.00  0.00     0.175 A 
HETATM    2  C2  UNL     1       0.404   1.830   0.301  1.00  0.00     0.121 A 
HETATM    3  C3  UNL     1       1.148   0.637   0.301  1.00  0.00     0.022 A 
HETATM    4  C4  UNL     1       0.492  -0.606   0.301  1.00  0.00    -0.014 A 
HETATM    5  C5  UNL     1      -0.912  -0.655   0.301  1.00  0.00     0.022 A 
HETATM    6  C6  UNL     1      -1.662   0.535   0.301  1.00  0.00     0.121 A 
HETATM    7  O3  UNL     1      -1.703   2.896   0.301  1.00  0.00    -0.186 OA
ENDROOT
BRANCH   4   8
HETATM    8  C8  UNL     1       1.281  -1.865   0.301  1.00  0.00     0.052 C 
BRANCH   8   9
HETATM    9  C9  UNL     1       1.617  -2.324  -1.094  1.00  0.00    -0.021 C 
HETATM   10  C10 UNL     1       0.693  -3.018  -1.779  1.00  0.00    -0.005 C 
ENDBRANCH   8   9
ENDBRANCH   4   8
BRANCH   2  11
HETATM   11  O2  UNL     1       1.025   2.992   0.301  1.00  0.00    -0.326 OA
HETATM   12  C11 UNL     1       2.439   2.992   0.430  1.00  0.00     0.181 C 
ENDBRANCH   2  11
BRANCH   6  13
HETATM   13  O1  UNL     1      -2.979   0.482   0.301  1.00  0.00    -0.326 OA
HETATM   14  C7  UNL     1      -3.594  -0.797   0.301  1.00  0.00     0.181 C 
ENDBRANCH   6  13
TORSDOF 4
