REMARK  4 active torsions:
REMARK  status: ('A' for Active; 'I' for Inactive)
REMARK    1  A    between atoms: C15_17  and  C18_21 
REMARK    2  A    between atoms: C18_21  and  C19_22 
REMARK    3  A    between atoms: C19_22  and  C20_23 
REMARK    4  A    between atoms: C20_23  and  C21_24 
ROOT
HETATM    1  C1  UNL     1       4.838   1.342  -1.096  1.00  0.00     0.033 C 
HETATM    2  C2  UNL     1       5.570   0.045  -0.723  1.00  0.00     0.152 C 
HETATM    3  C3  UNL     1       4.902  -0.674   0.492  1.00  0.00     0.029 C 
HETATM    4  C4  UNL     1       3.414  -0.229   0.670  1.00  0.00     0.009 C 
HETATM    5  C5  UNL     1       2.651  -0.031  -0.666  1.00  0.00     0.021 C 
HETATM    6  C6  UNL     1       3.358   1.111  -1.461  1.00  0.00     0.007 C 
HETATM    7  C7  UNL     1       1.164   0.291  -0.453  1.00  0.00     0.007 C 
HETATM    8  C8  UNL     1       0.574   0.164   0.770  1.00  0.00    -0.010 C 
HETATM    9  C9  UNL     1       1.250  -0.539   1.939  1.00  0.00     0.171 C 
HETATM   10  C10 UNL     1       2.623  -1.141   1.609  1.00  0.00     0.038 C 
HETATM   11  O1  UNL     1       0.453  -1.615   2.400  1.00  0.00    -0.219 OA
HETATM   12  C11 UNL     1      -0.816   0.777   0.934  1.00  0.00     0.069 C 
HETATM   13  C12 UNL     1      -1.701   0.305  -0.236  1.00  0.00     0.017 C 
HETATM   14  C13 UNL     1      -1.144   0.965  -1.502  1.00  0.00     0.070 C 
HETATM   15  C14 UNL     1       0.354   0.742  -1.633  1.00  0.00     0.169 C 
HETATM   16  O2  UNL     1       0.871   0.924  -2.711  1.00  0.00    -0.292 OA
HETATM   17  C15 UNL     1      -3.117   0.686   0.242  1.00  0.00     0.009 C 
HETATM   18  C16 UNL     1      -3.086   0.217   1.707  1.00  0.00     0.065 C 
HETATM   19  C17 UNL     1      -1.658   0.430   2.135  1.00  0.00     0.153 C 
HETATM   20  O3  UNL     1      -1.271   0.352   3.277  1.00  0.00    -0.296 OA
HETATM   21  C23 UNL     1      -1.662  -1.229  -0.377  1.00  0.00     0.001 C 
HETATM   22  C24 UNL     1      -0.658   2.301   0.982  1.00  0.00     0.011 C 
HETATM   23  C25 UNL     1       2.678  -1.336  -1.477  1.00  0.00     0.004 C 
HETATM   24  C26 UNL     1       5.664  -0.275   1.764  1.00  0.00     0.003 C 
HETATM   25  C27 UNL     1       5.020  -2.207   0.385  1.00  0.00     0.003 C 
HETATM   26  O6  UNL     1       5.615  -0.775  -1.881  1.00  0.00    -0.224 OA
ENDROOT
BRANCH  17  27
HETATM   27  C18 UNL     1      -4.256   0.057  -0.557  1.00  0.00     0.001 C 
HETATM   28  C22 UNL     1      -4.139   0.469  -2.023  1.00  0.00     0.000 C 
BRANCH  27  29
HETATM   29  C19 UNL     1      -5.596   0.459   0.064  1.00  0.00     0.011 C 
BRANCH  29  30
HETATM   30  C20 UNL     1      -6.756  -0.406  -0.428  1.00  0.00     0.098 C 
BRANCH  30  31
HETATM   31  C21 UNL     1      -8.057  -0.059   0.246  1.00  0.00     0.185 C 
HETATM   32  O4  UNL     1      -8.559  -0.805   1.053  1.00  0.00    -0.647 OA
HETATM   33  O5  UNL     1      -8.586   1.107  -0.113  1.00  0.00    -0.647 OA
ENDBRANCH  30  31
ENDBRANCH  29  30
ENDBRANCH  27  29
ENDBRANCH  17  27
TORSDOF 4
