REMARK  0 active torsions:
REMARK  status: ('A' for Active; 'I' for Inactive)
ROOT
HETATM    1  C1  UNL     1       2.924  -1.540   0.572  1.00  0.00     0.004 C 
HETATM    2  C2  UNL     1       3.170  -0.457  -0.483  1.00  0.00     0.022 C 
HETATM    3  C3  UNL     1       2.067   0.580  -0.473  1.00  0.00    -0.044 C 
HETATM    4  C4  UNL     1       0.640   0.044  -0.538  1.00  0.00     0.023 C 
HETATM    5  C5  UNL     1       0.401  -1.083   0.522  1.00  0.00     0.010 C 
HETATM    6  C6  UNL     1       1.520  -2.145   0.438  1.00  0.00     0.001 C 
HETATM    7  C7  UNL     1      -0.967  -1.787   0.282  1.00  0.00     0.051 C 
HETATM    8  C8  UNL     1      -2.062  -0.788  -0.035  1.00  0.00     0.073 A 
HETATM    9  C9  UNL     1      -1.854   0.529  -0.394  1.00  0.00    -0.005 A 
HETATM   10  C10 UNL     1      -0.465   1.140  -0.487  1.00  0.00     0.032 C 
HETATM   11  C11 UNL     1      -3.061   1.117  -0.622  1.00  0.00     0.001 A 
HETATM   12  C12 UNL     1      -4.056   0.170  -0.406  1.00  0.00     0.118 A 
HETATM   13  O1  UNL     1      -3.436  -1.028  -0.035  1.00  0.00    -0.310 OA
HETATM   14  C13 UNL     1      -3.284   2.555  -1.038  1.00  0.00     0.033 C 
HETATM   15  C14 UNL     1       0.406  -0.468   1.932  1.00  0.00     0.001 C 
HETATM   16  C15 UNL     1       2.371   1.893  -0.408  1.00  0.00    -0.009 C 
ENDROOT
TORSDOF 0
