REMARK  7 active torsions:
REMARK  status: ('A' for Active; 'I' for Inactive)
REMARK    1  A    between atoms: C10_10  and  O1_11 
REMARK    2  A    between atoms: O1_11  and  C11_12 
REMARK    3  A    between atoms: C15_16  and  C16_18 
REMARK    4  A    between atoms: C21_28  and  C24_31 
REMARK    5  A    between atoms: C24_31  and  C25_33 
REMARK    6  A    between atoms: C26_34  and  C27_35 
REMARK    7  A    between atoms: C27_35  and  C28_36 
ROOT
HETATM    1  C1  UNL     1       3.644   1.156   1.717  1.00  0.00     0.033 C 
HETATM    2  C2  UNL     1       4.352   1.707   0.477  1.00  0.00     0.152 C 
HETATM    3  C3  UNL     1       3.447   1.686  -0.783  1.00  0.00     0.030 C 
HETATM    4  C4  UNL     1       2.871   0.238  -1.014  1.00  0.00     0.030 C 
HETATM    5  C5  UNL     1       2.246  -0.432   0.256  1.00  0.00     0.003 C 
HETATM    6  C6  UNL     1       3.215  -0.285   1.455  1.00  0.00     0.003 C 
HETATM    7  C7  UNL     1       0.826   0.162   0.547  1.00  0.00     0.003 C 
HETATM    8  C8  UNL     1      -0.147   0.043  -0.666  1.00  0.00     0.003 C 
HETATM    9  C9  UNL     1       0.480   0.635  -1.947  1.00  0.00     0.030 C 
HETATM   10  C10 UNL     1       1.887   0.068  -2.211  1.00  0.00     0.118 C 
HETATM   11  C17 UNL     1      -1.506   0.748  -0.385  1.00  0.00     0.003 C 
HETATM   12  C18 UNL     1      -2.164   0.295   0.939  1.00  0.00     0.033 C 
HETATM   13  C19 UNL     1      -1.170   0.320   2.123  1.00  0.00     0.152 C 
HETATM   14  C20 UNL     1       0.148  -0.406   1.811  1.00  0.00     0.033 C 
HETATM   15  O7  UNL     1      -1.752  -0.303   3.252  1.00  0.00    -0.224 OA
HETATM   16  C21 UNL     1      -3.303   1.324   1.080  1.00  0.00     0.035 C 
HETATM   17  C22 UNL     1      -2.652   2.647   0.676  1.00  0.00     0.003 C 
HETATM   18  C23 UNL     1      -1.453   2.275  -0.199  1.00  0.00     0.000 C 
HETATM   19  C32 UNL     1      -2.498   0.512  -1.537  1.00  0.00     0.000 C 
HETATM   20  C33 UNL     1      -0.524  -1.430  -0.924  1.00  0.00     0.000 C 
HETATM   21  C34 UNL     1       2.125  -1.947   0.014  1.00  0.00     0.000 C 
HETATM   22  C35 UNL     1       4.322   2.104  -1.979  1.00  0.00     0.003 C 
HETATM   23  C36 UNL     1       2.338   2.738  -0.643  1.00  0.00     0.003 C 
HETATM   24  O11 UNL     1       4.809   3.020   0.758  1.00  0.00    -0.224 OA
ENDROOT
BRANCH  10  25
HETATM   25  O1  UNL     1       2.394   0.621  -3.408  1.00  0.00    -0.332 OA
BRANCH  25  26
HETATM   26  C11 UNL     1       3.289  -0.240  -4.084  1.00  0.00     0.270 C 
HETATM   27  C12 UNL     1       3.881   0.465  -5.332  1.00  0.00     0.241 C 
HETATM   28  C13 UNL     1       4.734  -0.514  -6.170  1.00  0.00     0.220 C 
HETATM   29  O6  UNL     1       4.686   1.557  -4.920  1.00  0.00    -0.215 OA
HETATM   30  C14 UNL     1       3.939  -1.811  -6.438  1.00  0.00     0.215 C 
HETATM   31  O5  UNL     1       5.096   0.094  -7.401  1.00  0.00    -0.218 OA
HETATM   32  C15 UNL     1       3.361  -2.397  -5.129  1.00  0.00     0.184 C 
HETATM   33  O4  UNL     1       4.787  -2.779  -7.033  1.00  0.00    -0.218 OA
HETATM   34  O2  UNL     1       2.578  -1.406  -4.477  1.00  0.00    -0.326 OA
BRANCH  32  35
HETATM   35  C16 UNL     1       2.443  -3.598  -5.369  1.00  0.00     0.214 C 
HETATM   36  O3  UNL     1       2.055  -4.111  -4.115  1.00  0.00    -0.218 OA
ENDBRANCH  32  35
ENDBRANCH  25  26
ENDBRANCH  10  25
BRANCH  16  37
HETATM   37  C24 UNL     1      -3.975   1.420   2.447  1.00  0.00     0.145 C 
HETATM   38  O8  UNL     1      -3.041   1.951   3.361  1.00  0.00    -0.222 OA
HETATM   39  C31 UNL     1      -5.164   2.377   2.365  1.00  0.00     0.038 C 
BRANCH  37  40
HETATM   40  C25 UNL     1      -4.360   0.070   2.994  1.00  0.00     0.001 C 
HETATM   41  C26 UNL     1      -5.049   0.018   4.147  1.00  0.00     0.006 C 
BRANCH  41  42
HETATM   42  C27 UNL     1      -5.434  -1.330   4.691  1.00  0.00     0.202 C 
HETATM   43  O10 UNL     1      -6.647  -1.746   4.106  1.00  0.00    -0.216 OA
BRANCH  42  44
HETATM   44  C28 UNL     1      -5.615  -1.314   6.209  1.00  0.00     0.159 C 
HETATM   45  C29 UNL     1      -6.166  -2.635   6.752  1.00  0.00     0.036 C 
HETATM   46  C30 UNL     1      -4.362  -0.850   6.949  1.00  0.00     0.036 C 
HETATM   47  O9  UNL     1      -6.664  -0.426   6.520  1.00  0.00    -0.223 OA
ENDBRANCH  42  44
ENDBRANCH  41  42
ENDBRANCH  37  40
ENDBRANCH  16  37
TORSDOF 7
