REMARK  4 active torsions:
REMARK  status: ('A' for Active; 'I' for Inactive)
REMARK    1  A    between atoms: C15_16  and  C18_19 
REMARK    2  A    between atoms: C18_19  and  C19_20 
REMARK    3  A    between atoms: C19_20  and  C20_21 
REMARK    4  A    between atoms: C20_21  and  C21_23 
ROOT
HETATM    1  C1  UNL     1      -6.045  -1.266   0.565  1.00  0.00     0.065 C 
HETATM    2  C2  UNL     1      -6.594   0.004   1.166  1.00  0.00     0.151 C 
HETATM    3  C3  UNL     1      -5.973   1.283   0.668  1.00  0.00     0.065 C 
HETATM    4  C4  UNL     1      -4.430   1.242   0.676  1.00  0.00     0.007 C 
HETATM    5  C5  UNL     1      -3.844  -0.031   0.000  1.00  0.00     0.003 C 
HETATM    6  C6  UNL     1      -4.512  -1.287   0.623  1.00  0.00     0.008 C 
HETATM    7  C7  UNL     1      -2.266  -0.057   0.102  1.00  0.00     0.030 C 
HETATM    8  C8  UNL     1      -1.629   1.350   0.324  1.00  0.00     0.002 C 
HETATM    9  C9  UNL     1      -2.420   2.422  -0.445  1.00  0.00     0.000 C 
HETATM   10  C10 UNL     1      -3.859   2.553   0.080  1.00  0.00     0.000 C 
HETATM   11  C11 UNL     1      -0.160   1.244  -0.187  1.00  0.00     0.000 C 
HETATM   12  C12 UNL     1       0.588  -0.021   0.318  1.00  0.00     0.003 C 
HETATM   13  C13 UNL     1      -0.143  -0.779   1.438  1.00  0.00     0.033 C 
HETATM   14  C14 UNL     1      -1.615  -1.094   1.074  1.00  0.00     0.152 C 
HETATM   15  O1  UNL     1      -1.652  -2.383   0.490  1.00  0.00    -0.224 OA
HETATM   16  C15 UNL     1       1.959   0.473   0.811  1.00  0.00     0.000 C 
HETATM   17  C16 UNL     1       2.158   1.799   0.090  1.00  0.00     0.000 C 
HETATM   18  C17 UNL     1       0.766   2.406   0.209  1.00  0.00     0.000 C 
HETATM   19  C26 UNL     1      -0.090   1.205  -1.725  1.00  0.00     0.000 C 
HETATM   20  C27 UNL     1      -1.619   1.744   1.815  1.00  0.00     0.000 C 
HETATM   21  C28 UNL     1      -4.236   0.004  -1.488  1.00  0.00     0.000 C 
HETATM   22  O4  UNL     1      -7.469  -0.006   1.998  1.00  0.00    -0.296 OA
ENDROOT
BRANCH  16  23
HETATM   23  C18 UNL     1       3.084  -0.512   0.504  1.00  0.00     0.003 C 
HETATM   24  C25 UNL     1       2.781  -1.855   1.170  1.00  0.00     0.000 C 
BRANCH  23  25
HETATM   25  C19 UNL     1       4.418   0.082   0.955  1.00  0.00     0.036 C 
BRANCH  25  26
HETATM   26  C20 UNL     1       5.621  -0.686   0.410  1.00  0.00     0.181 C 
HETATM   27  O2  UNL     1       6.791  -0.115   0.949  1.00  0.00    -0.221 OA
BRANCH  26  28
HETATM   28  C21 UNL     1       5.674  -0.539  -1.103  1.00  0.00     0.170 A 
HETATM   29  C22 UNL     1       5.234  -1.693  -2.074  1.00  0.00     0.120 A 
HETATM   30  O3  UNL     1       6.531  -1.508  -1.609  1.00  0.00    -0.354 OA
HETATM   31  C23 UNL     1       4.715  -3.014  -1.516  1.00  0.00     0.032 C 
HETATM   32  C24 UNL     1       5.227  -1.457  -3.576  1.00  0.00     0.032 C 
ENDBRANCH  26  28
ENDBRANCH  25  26
ENDBRANCH  23  25
ENDBRANCH  16  23
TORSDOF 4
