REMARK  8 active torsions:
REMARK  status: ('A' for Active; 'I' for Inactive)
REMARK    1  A    between atoms: C7_8  and  C24_37 
REMARK    2  A    between atoms: C8_9  and  O3_12 
REMARK    3  A    between atoms: O3_12  and  C10_13 
REMARK    4  A    between atoms: C13_16  and  O5_20 
REMARK    5  A    between atoms: O5_20  and  C16_21 
REMARK    6  A    between atoms: C20_25  and  C21_27 
REMARK    7  A    between atoms: C21_27  and  O7_28 
REMARK    8  A    between atoms: O7_28  and  C22_29 
ROOT
HETATM    1  C10 UNL     1      -0.899  -0.332  -1.328  1.00  0.00     0.274 C 
HETATM    2  C11 UNL     1       0.584  -0.756  -1.264  1.00  0.00     0.241 C 
HETATM    3  C12 UNL     1       1.217  -0.371   0.090  1.00  0.00     0.217 C 
HETATM    4  C13 UNL     1       0.326  -0.879   1.246  1.00  0.00     0.178 C 
HETATM    5  C14 UNL     1      -1.147  -0.445   1.055  1.00  0.00     0.148 C 
HETATM    6  O4  UNL     1      -1.604  -0.879  -0.221  1.00  0.00    -0.329 OA
HETATM    7  C15 UNL     1      -2.090  -1.059   2.094  1.00  0.00     0.035 C 
HETATM    8  O12 UNL     1       2.512  -0.939   0.195  1.00  0.00    -0.218 OA
HETATM    9  O13 UNL     1       1.279  -0.119  -2.320  1.00  0.00    -0.215 OA
ENDROOT
BRANCH   1  10
HETATM   10  O3  UNL     1      -1.492  -0.810  -2.527  1.00  0.00    -0.298 OA
BRANCH  10  11
HETATM   11  C8  UNL     1      -2.750  -0.394  -2.674  1.00  0.00     0.158 A 
HETATM   12  C7  UNL     1      -3.029   0.838  -3.170  1.00  0.00     0.125 A 
HETATM   13  O1  UNL     1      -4.299   1.270  -3.322  1.00  0.00    -0.305 OA
HETATM   14  C5  UNL     1      -5.385   0.533  -3.002  1.00  0.00     0.107 A 
HETATM   15  C4  UNL     1      -5.231  -0.773  -2.473  1.00  0.00     0.089 A 
HETATM   16  C6  UNL     1      -6.682   1.067  -3.193  1.00  0.00     0.052 A 
HETATM   17  C3  UNL     1      -6.371  -1.547  -2.133  1.00  0.00     0.138 A 
HETATM   18  C9  UNL     1      -3.854  -1.305  -2.283  1.00  0.00     0.224 A 
HETATM   19  C2  UNL     1      -7.664  -1.006  -2.328  1.00  0.00     0.055 A 
HETATM   20  O15 UNL     1      -6.242  -2.783  -1.631  1.00  0.00    -0.190 OA
HETATM   21  C1  UNL     1      -7.821   0.297  -2.857  1.00  0.00     0.135 A 
HETATM   22  O16 UNL     1      -9.047   0.803  -3.039  1.00  0.00    -0.190 OA
HETATM   23  O2  UNL     1      -3.545  -2.391  -1.850  1.00  0.00    -0.284 OA
BRANCH  12  24
HETATM   24  C24 UNL     1      -1.908   1.742  -3.557  1.00  0.00     0.025 A 
HETATM   25  C25 UNL     1      -0.797   1.231  -4.250  1.00  0.00     0.004 A 
HETATM   26  C26 UNL     1       0.260   2.084  -4.613  1.00  0.00     0.028 A 
HETATM   27  C27 UNL     1       0.209   3.451  -4.289  1.00  0.00     0.131 A 
HETATM   28  C28 UNL     1      -0.904   3.961  -3.596  1.00  0.00     0.028 A 
HETATM   29  O14 UNL     1       1.199   4.250  -4.631  1.00  0.00    -0.190 OA
HETATM   30  C29 UNL     1      -1.961   3.110  -3.230  1.00  0.00     0.004 A 
ENDBRANCH  12  24
ENDBRANCH  10  11
ENDBRANCH   1  10
BRANCH   4  31
HETATM   31  O5  UNL     1       0.795  -0.359   2.479  1.00  0.00    -0.326 OA
BRANCH  31  32
HETATM   32  C16 UNL     1       1.904  -1.068   2.994  1.00  0.00     0.270 C 
HETATM   33  C17 UNL     1       1.666  -1.437   4.483  1.00  0.00     0.241 C 
HETATM   34  C18 UNL     1       2.930  -2.070   5.106  1.00  0.00     0.220 C 
HETATM   35  O11 UNL     1       0.588  -2.355   4.570  1.00  0.00    -0.215 OA
HETATM   36  C19 UNL     1       4.160  -1.182   4.818  1.00  0.00     0.215 C 
HETATM   37  O10 UNL     1       2.754  -2.215   6.506  1.00  0.00    -0.218 OA
HETATM   38  C20 UNL     1       4.269  -0.842   3.316  1.00  0.00     0.181 C 
HETATM   39  O9  UNL     1       5.342  -1.855   5.219  1.00  0.00    -0.218 OA
HETATM   40  O6  UNL     1       3.057  -0.244   2.879  1.00  0.00    -0.326 OA
BRANCH  38  41
HETATM   41  C21 UNL     1       5.389   0.158   3.010  1.00  0.00     0.184 C 
BRANCH  41  42
HETATM   42  O7  UNL     1       5.428   0.414   1.615  1.00  0.00    -0.299 OA
BRANCH  42  43
HETATM   43  C22 UNL     1       6.383   1.277   1.283  1.00  0.00     0.273 C 
HETATM   44  O8  UNL     1       7.135   1.789   2.082  1.00  0.00    -0.264 OA
HETATM   45  C23 UNL     1       6.480   1.594  -0.184  1.00  0.00     0.106 C 
ENDBRANCH  42  43
ENDBRANCH  41  42
ENDBRANCH  38  41
ENDBRANCH  31  32
ENDBRANCH   4  31
TORSDOF 8
