REMARK  0 active torsions:
REMARK  status: ('A' for Active; 'I' for Inactive)
ROOT
HETATM    1  O1  UNL     1       1.955   1.256  -0.133  1.00  0.00    -0.305 OA
HETATM    2  C1  UNL     1       2.760   0.084  -0.041  1.00  0.00     0.123 A 
HETATM    3  C2  UNL     1       1.941  -1.063   0.065  1.00  0.00     0.028 A 
HETATM    4  C3  UNL     1       0.672  -0.592   0.039  1.00  0.00     0.021 A 
HETATM    5  C4  UNL     1       0.660   0.769  -0.076  1.00  0.00     0.096 A 
HETATM    6  C5  UNL     1      -0.531   1.527  -0.125  1.00  0.00     0.001 A 
HETATM    7  C6  UNL     1      -1.760   0.820  -0.049  1.00  0.00    -0.003 A 
HETATM    8  C7  UNL     1      -1.766  -0.600   0.069  1.00  0.00    -0.004 A 
HETATM    9  C8  UNL     1      -0.541  -1.322   0.114  1.00  0.00    -0.020 A 
HETATM   10  C9  UNL     1      -0.551  -2.791   0.237  1.00  0.00     0.031 C 
HETATM   11  C10 UNL     1      -0.502   2.994  -0.248  1.00  0.00     0.033 C 
ENDROOT
TORSDOF 0
