REMARK  8 active torsions:
REMARK  status: ('A' for Active; 'I' for Inactive)
REMARK    1  A    between atoms: C1_1  and  C33_48 
REMARK    2  A    between atoms: C3_4  and  C4_5 
REMARK    3  A    between atoms: C4_5  and  C6_7 
REMARK    4  A    between atoms: C9_11  and  C10_12 
REMARK    5  A    between atoms: C10_12  and  C11_13 
REMARK    6  A    between atoms: C20_24  and  C21_25 
REMARK    7  A    between atoms: C21_25  and  C22_26 
REMARK    8  A    between atoms: C33_48  and  C34_49 
ROOT
HETATM    1  C1  UNL     1       4.223   1.608  -0.449  1.00  0.00     0.186 C 
HETATM    2  N1  UNL     1       2.754   1.797  -0.369  1.00  0.00    -0.229 NA
HETATM    3  C2  UNL     1       1.934   1.549  -1.445  1.00  0.00     0.274 C 
HETATM    4  C3  UNL     1       0.434   1.711  -1.287  1.00  0.00     0.186 C 
HETATM    5  N2  UNL     1      -0.203   2.344  -2.477  1.00  0.00    -0.229 NA
HETATM    6  C8  UNL     1      -1.563   2.520  -2.670  1.00  0.00     0.274 C 
HETATM    7  C9  UNL     1      -2.633   2.065  -1.688  1.00  0.00     0.186 C 
HETATM    8  N3  UNL     1      -2.975   0.629  -1.873  1.00  0.00    -0.229 NA
HETATM    9  C14 UNL     1      -3.928  -0.008  -1.109  1.00  0.00     0.272 C 
HETATM   10  C15 UNL     1      -4.219  -1.480  -1.346  1.00  0.00     0.165 C 
HETATM   11  C16 UNL     1      -5.672  -1.857  -1.022  1.00  0.00     0.034 C 
HETATM   12  C17 UNL     1      -5.631  -2.213   0.475  1.00  0.00     0.027 C 
HETATM   13  C18 UNL     1      -4.258  -2.863   0.648  1.00  0.00     0.105 C 
HETATM   14  N4  UNL     1      -3.451  -2.328  -0.439  1.00  0.00    -0.312 N 
HETATM   15  C19 UNL     1      -2.072  -2.603  -0.629  1.00  0.00     0.257 C 
HETATM   16  C20 UNL     1      -1.406  -3.488   0.418  1.00  0.00     0.189 C 
HETATM   17  N5  UNL     1      -0.148  -4.121  -0.063  1.00  0.00    -0.228 NA
HETATM   18  C28 UNL     1       1.018  -3.418  -0.268  1.00  0.00     0.277 C 
HETATM   19  C29 UNL     1       2.242  -4.180  -0.738  1.00  0.00     0.218 C 
HETATM   20  N6  UNL     1       3.490  -3.377  -0.711  1.00  0.00    -0.226 NA
HETATM   21  C30 UNL     1       3.969  -2.730  -1.826  1.00  0.00     0.277 C 
HETATM   22  C31 UNL     1       5.242  -1.914  -1.727  1.00  0.00     0.218 C 
HETATM   23  N7  UNL     1       4.945  -0.469  -1.643  1.00  0.00    -0.226 NA
HETATM   24  C32 UNL     1       4.559   0.127  -0.465  1.00  0.00     0.274 C 
HETATM   25  O2  UNL     1       4.477  -0.525   0.551  1.00  0.00    -0.268 OA
HETATM   26  O3  UNL     1       3.383  -2.807  -2.883  1.00  0.00    -0.268 OA
HETATM   27  O4  UNL     1       1.055  -2.223  -0.074  1.00  0.00    -0.268 OA
HETATM   28  O5  UNL     1      -1.477  -2.150  -1.582  1.00  0.00    -0.270 OA
HETATM   29  O6  UNL     1      -4.533   0.606  -0.258  1.00  0.00    -0.269 OA
HETATM   30  O7  UNL     1      -1.926   3.070  -3.684  1.00  0.00    -0.268 OA
HETATM   31  O8  UNL     1       2.408   1.197  -2.502  1.00  0.00    -0.268 OA
ENDROOT
BRANCH  16  32
HETATM   32  C21 UNL     1      -1.152  -2.725   1.725  1.00  0.00     0.060 C 
BRANCH  32  33
HETATM   33  C22 UNL     1      -2.379  -2.031   2.199  1.00  0.00    -0.020 A 
HETATM   34  C23 UNL     1      -3.108  -2.553   3.283  1.00  0.00    -0.002 A 
HETATM   35  C24 UNL     1      -4.266  -1.896   3.731  1.00  0.00     0.027 A 
HETATM   36  C25 UNL     1      -4.701  -0.717   3.100  1.00  0.00     0.131 A 
HETATM   37  C26 UNL     1      -3.971  -0.199   2.016  1.00  0.00     0.027 A 
HETATM   38  O1  UNL     1      -5.789  -0.103   3.520  1.00  0.00    -0.190 OA
HETATM   39  C27 UNL     1      -2.811  -0.853   1.564  1.00  0.00    -0.002 A 
ENDBRANCH  32  33
ENDBRANCH  16  32
BRANCH   7  40
HETATM   40  C10 UNL     1      -2.313   2.393  -0.221  1.00  0.00     0.034 C 
BRANCH  40  41
HETATM   41  C11 UNL     1      -2.033   3.879   0.004  1.00  0.00     0.002 C 
HETATM   42  C12 UNL     1      -3.274   4.750  -0.193  1.00  0.00     0.000 C 
HETATM   43  C13 UNL     1      -1.324   4.151   1.332  1.00  0.00     0.000 C 
ENDBRANCH  40  41
ENDBRANCH   7  40
BRANCH   4  44
HETATM   44  C4  UNL     1      -0.139   0.322  -1.002  1.00  0.00     0.032 C 
HETATM   45  C5  UNL     1       0.471  -0.762  -1.891  1.00  0.00     0.003 C 
BRANCH  44  46
HETATM   46  C6  UNL     1      -0.094  -0.039   0.484  1.00  0.00     0.002 C 
HETATM   47  C7  UNL     1       1.328  -0.273   0.992  1.00  0.00     0.000 C 
ENDBRANCH  44  46
ENDBRANCH   4  44
BRANCH   1  48
HETATM   48  C33 UNL     1       4.918   2.317   0.717  1.00  0.00     0.034 C 
BRANCH  48  49
HETATM   49  C34 UNL     1       6.395   2.602   0.437  1.00  0.00     0.002 C 
HETATM   50  C35 UNL     1       7.055   3.424   1.545  1.00  0.00     0.000 C 
HETATM   51  C36 UNL     1       7.184   1.338   0.092  1.00  0.00     0.000 C 
ENDBRANCH  48  49
ENDBRANCH   1  48
TORSDOF 8
