REMARK  7 active torsions:
REMARK  status: ('A' for Active; 'I' for Inactive)
REMARK    1  A    between atoms: C3_3  and  C7_8 
REMARK    2  A    between atoms: C7_8  and  C8_9 
REMARK    3  A    between atoms: C11_12  and  O3_25 
REMARK    4  A    between atoms: C13_14  and  C14_15 
REMARK    5  A    between atoms: C14_15  and  C15_16 
REMARK    6  A    between atoms: C15_16  and  C16_17 
REMARK    7  A    between atoms: C18_19  and  O2_23 
ROOT
HETATM    1  C8  UNL     1       0.977  -0.381  -1.728  1.00  0.00     0.004 A 
HETATM    2  C9  UNL     1       1.586  -0.543  -2.988  1.00  0.00     0.129 A 
HETATM    3  C10 UNL     1       0.789  -0.650  -4.143  1.00  0.00     0.051 A 
HETATM    4  C11 UNL     1      -0.611  -0.599  -4.047  1.00  0.00     0.096 A 
HETATM    5  C12 UNL     1      -1.217  -0.439  -2.789  1.00  0.00     0.020 A 
HETATM    6  C13 UNL     1      -0.428  -0.330  -1.629  1.00  0.00    -0.021 A 
HETATM    7  O4  UNL     1       2.900  -0.592  -3.096  1.00  0.00    -0.190 OA
ENDROOT
BRANCH   6   8
HETATM    8  C14 UNL     1      -1.092  -0.162  -0.309  1.00  0.00     0.031 C 
BRANCH   8   9
HETATM    9  C15 UNL     1      -1.189  -1.488   0.445  1.00  0.00     0.031 C 
BRANCH   9  10
HETATM   10  C16 UNL     1      -1.789  -1.308   1.793  1.00  0.00    -0.020 A 
HETATM   11  C17 UNL     1      -0.982  -1.394   2.942  1.00  0.00     0.020 A 
HETATM   12  C18 UNL     1      -1.547  -1.226   4.219  1.00  0.00     0.094 A 
HETATM   13  C19 UNL     1      -2.924  -0.969   4.344  1.00  0.00     0.024 A 
HETATM   14  C20 UNL     1      -3.732  -0.881   3.197  1.00  0.00     0.002 A 
HETATM   15  C21 UNL     1      -3.166  -1.051   1.922  1.00  0.00    -0.004 A 
BRANCH  12  16
HETATM   16  O2  UNL     1      -0.791  -1.307   5.295  1.00  0.00    -0.328 OA
HETATM   17  C22 UNL     1      -1.420  -1.203   6.563  1.00  0.00     0.181 C 
ENDBRANCH  12  16
ENDBRANCH   9  10
ENDBRANCH   8   9
ENDBRANCH   6   8
BRANCH   1  18
HETATM   18  C7  UNL     1       1.820  -0.267  -0.508  1.00  0.00     0.054 C 
BRANCH  18  19
HETATM   19  C3  UNL     1       2.516   1.045  -0.508  1.00  0.00    -0.018 A 
HETATM   20  C2  UNL     1       1.772   2.238  -0.508  1.00  0.00    -0.002 A 
HETATM   21  C1  UNL     1       2.430   3.479  -0.508  1.00  0.00     0.027 A 
HETATM   22  C6  UNL     1       3.834   3.533  -0.508  1.00  0.00     0.131 A 
HETATM   23  C5  UNL     1       4.578   2.340  -0.508  1.00  0.00     0.027 A 
HETATM   24  O1  UNL     1       4.451   4.699  -0.508  1.00  0.00    -0.190 OA
HETATM   25  C4  UNL     1       3.922   1.098  -0.508  1.00  0.00    -0.002 A 
ENDBRANCH  18  19
ENDBRANCH   1  18
BRANCH   4  26
HETATM   26  O3  UNL     1      -1.354  -0.701  -5.131  1.00  0.00    -0.328 OA
HETATM   27  C23 UNL     1      -2.764  -0.644  -4.980  1.00  0.00     0.181 C 
ENDBRANCH   4  26
TORSDOF 7
