REMARK  6 active torsions:
REMARK  status: ('A' for Active; 'I' for Inactive)
REMARK    1  A    between atoms: C1_1  and  C21_35 
REMARK    2  A    between atoms: C2_2  and  O1_3 
REMARK    3  A    between atoms: O1_3  and  O2_4 
REMARK    4  A    between atoms: O2_4  and  C3_5 
REMARK    5  A    between atoms: C12_20  and  O9_21 
REMARK    6  A    between atoms: O9_21  and  C13_22 
ROOT
HETATM    1  C1  UNL     1       1.275   1.225   0.658  1.00  0.00     0.128 A 
HETATM    2  C2  UNL     1       1.555  -0.006   1.154  1.00  0.00     0.192 A 
HETATM    3  C8  UNL     1       0.451  -0.916   1.545  1.00  0.00     0.227 A 
HETATM    4  O7  UNL     1       0.762  -2.002   1.978  1.00  0.00    -0.284 OA
HETATM    5  C9  UNL     1      -0.926  -0.385   1.355  1.00  0.00     0.089 A 
HETATM    6  C10 UNL     1      -2.066  -1.158   1.695  1.00  0.00     0.138 A 
HETATM    7  O8  UNL     1      -1.938  -2.394   2.197  1.00  0.00    -0.190 OA
HETATM    8  C11 UNL     1      -3.359  -0.619   1.500  1.00  0.00     0.052 A 
HETATM    9  C12 UNL     1      -3.516   0.684   0.971  1.00  0.00     0.101 A 
HETATM   10  C19 UNL     1      -2.377   1.453   0.635  1.00  0.00     0.049 A 
HETATM   11  C20 UNL     1      -1.080   0.922   0.826  1.00  0.00     0.107 A 
HETATM   12  O14 UNL     1       0.006   1.658   0.506  1.00  0.00    -0.305 OA
ENDROOT
BRANCH   2  13
HETATM   13  O1  UNL     1       2.814  -0.422   1.301  1.00  0.00    -0.187 OA
BRANCH  13  14
HETATM   14  O2  UNL     1       3.318  -0.885   0.060  1.00  0.00    -0.185 OA
BRANCH  14  15
HETATM   15  C3  UNL     1       4.645  -1.293   0.334  1.00  0.00     0.303 C 
HETATM   16  C4  UNL     1       5.393  -1.680  -0.975  1.00  0.00     0.244 C 
HETATM   17  O3  UNL     1       4.684  -2.684  -1.686  1.00  0.00    -0.215 OA
HETATM   18  C5  UNL     1       6.811  -2.213  -0.672  1.00  0.00     0.220 C 
HETATM   19  O4  UNL     1       7.611  -1.117  -0.260  1.00  0.00    -0.218 OA
HETATM   20  C6  UNL     1       6.740  -3.289   0.441  1.00  0.00     0.215 C 
HETATM   21  O5  UNL     1       8.035  -3.693   0.850  1.00  0.00    -0.218 OA
HETATM   22  C7  UNL     1       5.938  -2.809   1.668  1.00  0.00     0.181 C 
HETATM   23  O6  UNL     1       4.646  -2.375   1.260  1.00  0.00    -0.324 OA
ENDBRANCH  14  15
ENDBRANCH  13  14
ENDBRANCH   2  13
BRANCH   1  24
HETATM   24  C21 UNL     1       2.396   2.131   0.271  1.00  0.00     0.025 A 
HETATM   25  C22 UNL     1       2.295   2.926  -0.885  1.00  0.00     0.004 A 
HETATM   26  C23 UNL     1       3.352   3.778  -1.248  1.00  0.00     0.028 A 
HETATM   27  C24 UNL     1       4.514   3.840  -0.461  1.00  0.00     0.131 A 
HETATM   28  O15 UNL     1       5.504   4.639  -0.803  1.00  0.00    -0.190 OA
HETATM   29  C25 UNL     1       4.615   3.045   0.695  1.00  0.00     0.028 A 
HETATM   30  C26 UNL     1       3.559   2.192   1.060  1.00  0.00     0.004 A 
ENDBRANCH   1  24
BRANCH   9  31
HETATM   31  O9  UNL     1      -4.742   1.192   0.789  1.00  0.00    -0.303 OA
BRANCH  31  32
HETATM   32  C13 UNL     1      -5.842   0.291   0.781  1.00  0.00     0.274 C 
HETATM   33  O10 UNL     1      -5.651  -0.709  -0.219  1.00  0.00    -0.329 OA
HETATM   34  C14 UNL     1      -5.572  -0.230  -1.557  1.00  0.00     0.151 C 
HETATM   35  C15 UNL     1      -6.879   0.510  -1.930  1.00  0.00     0.212 C 
HETATM   36  C18 UNL     1      -5.303  -1.447  -2.447  1.00  0.00     0.035 C 
HETATM   37  C16 UNL     1      -7.192   1.627  -0.910  1.00  0.00     0.220 C 
HETATM   38  O13 UNL     1      -6.731   1.065  -3.225  1.00  0.00    -0.218 OA
HETATM   39  C17 UNL     1      -7.153   1.072   0.531  1.00  0.00     0.241 C 
HETATM   40  O12 UNL     1      -8.444   2.236  -1.186  1.00  0.00    -0.218 OA
HETATM   41  O11 UNL     1      -8.250   0.205   0.777  1.00  0.00    -0.215 OA
ENDBRANCH  31  32
ENDBRANCH   9  31
TORSDOF 6
