REMARK  10 active torsions:
REMARK  status: ('A' for Active; 'I' for Inactive)
REMARK    1  A    between atoms: C3_3  and  O16_63 
REMARK    2  A    between atoms: C4_4  and  O2_7 
REMARK    3  A    between atoms: O2_7  and  C6_8 
REMARK    4  A    between atoms: C8_10  and  C47_59 
REMARK    5  A    between atoms: C9_12  and  O5_15 
REMARK    6  A    between atoms: O5_15  and  C11_16 
REMARK    7  A    between atoms: C29_34  and  C37_42 
REMARK    8  A    between atoms: C37_42  and  O7_44 
REMARK    9  A    between atoms: O7_44  and  C38_45 
REMARK   10  A    between atoms: C42_49  and  C43_51 
ROOT
HETATM    1  C11 UNL     1      -3.248  -1.010  -0.338  1.00  0.00     0.118 C 
HETATM    2  C12 UNL     1      -2.565   0.293  -0.783  1.00  0.00     0.030 C 
HETATM    3  C13 UNL     1      -1.151   0.033  -1.316  1.00  0.00     0.003 C 
HETATM    4  C14 UNL     1      -1.090  -1.062  -2.418  1.00  0.00     0.001 C 
HETATM    5  C15 UNL     1      -1.883  -2.344  -1.998  1.00  0.00     0.002 C 
HETATM    6  C16 UNL     1      -3.326  -2.043  -1.486  1.00  0.00     0.025 C 
HETATM    7  C17 UNL     1      -4.008  -3.336  -1.006  1.00  0.00     0.002 C 
HETATM    8  C18 UNL     1      -4.197  -1.504  -2.633  1.00  0.00     0.002 C 
HETATM    9  C19 UNL     1      -1.094  -3.285  -1.047  1.00  0.00     0.000 C 
HETATM   10  C20 UNL     1       0.273  -2.775  -0.590  1.00  0.00     0.000 C 
HETATM   11  C21 UNL     1       1.174  -2.291  -1.748  1.00  0.00     0.004 C 
HETATM   12  C22 UNL     1       0.369  -1.457  -2.813  1.00  0.00     0.005 C 
HETATM   13  C23 UNL     1       1.176  -0.283  -3.424  1.00  0.00     0.025 C 
HETATM   14  C24 UNL     1       2.668  -0.510  -3.447  1.00  0.00    -0.035 C 
HETATM   15  C25 UNL     1       3.273  -1.057  -2.373  1.00  0.00    -0.049 C 
HETATM   16  C26 UNL     1       2.410  -1.498  -1.199  1.00  0.00     0.015 C 
HETATM   17  C27 UNL     1       3.260  -2.363  -0.236  1.00  0.00     0.004 C 
HETATM   18  C28 UNL     1       4.547  -1.670   0.244  1.00  0.00     0.010 C 
HETATM   19  C29 UNL     1       5.270  -0.836  -0.850  1.00  0.00     0.082 C 
HETATM   20  C30 UNL     1       4.783  -1.244  -2.272  1.00  0.00     0.027 C 
HETATM   21  C31 UNL     1       5.602  -0.537  -3.379  1.00  0.00     0.004 C 
HETATM   22  C32 UNL     1       7.121  -0.746  -3.240  1.00  0.00     0.000 C 
HETATM   23  C33 UNL     1       7.584  -0.314  -1.838  1.00  0.00     0.001 C 
HETATM   24  C34 UNL     1       6.799  -1.031  -0.729  1.00  0.00     0.010 C 
HETATM   25  C35 UNL     1       7.467  -2.221  -3.471  1.00  0.00     0.000 C 
HETATM   26  C36 UNL     1       7.850   0.090  -4.299  1.00  0.00     0.000 C 
HETATM   27  C44 UNL     1       1.973  -0.236  -0.443  1.00  0.00     0.004 C 
HETATM   28  C45 UNL     1       1.693  -3.562  -2.455  1.00  0.00     0.000 C 
HETATM   29  C46 UNL     1      -1.748  -0.465  -3.674  1.00  0.00     0.000 C 
ENDROOT
BRANCH   1  30
HETATM   30  O5  UNL     1      -4.543  -0.695   0.145  1.00  0.00    -0.332 OA
BRANCH  30  31
HETATM   31  C9  UNL     1      -4.526   0.119   1.299  1.00  0.00     0.270 C 
HETATM   32  O3  UNL     1      -4.725   1.469   0.898  1.00  0.00    -0.318 OA
HETATM   33  C8  UNL     1      -4.686   2.422   1.953  1.00  0.00     0.237 C 
HETATM   34  C7  UNL     1      -5.822   2.117   2.959  1.00  0.00     0.220 C 
HETATM   35  C6  UNL     1      -5.735   0.666   3.475  1.00  0.00     0.187 C 
HETATM   36  O15 UNL     1      -5.725   3.018   4.049  1.00  0.00    -0.217 OA
HETATM   37  C10 UNL     1      -5.647  -0.309   2.279  1.00  0.00     0.238 C 
HETATM   38  O4  UNL     1      -5.375  -1.617   2.758  1.00  0.00    -0.215 OA
BRANCH  33  39
HETATM   39  C47 UNL     1      -4.803   3.793   1.334  1.00  0.00     0.217 C 
HETATM   40  O13 UNL     1      -5.869   4.359   1.273  1.00  0.00    -0.646 OA
HETATM   41  O14 UNL     1      -3.664   4.305   0.875  1.00  0.00    -0.646 OA
ENDBRANCH  33  39
BRANCH  35  42
HETATM   42  O2  UNL     1      -6.879   0.361   4.260  1.00  0.00    -0.326 OA
BRANCH  42  43
HETATM   43  C4  UNL     1      -6.584  -0.435   5.391  1.00  0.00     0.267 C 
HETATM   44  C3  UNL     1      -6.059   0.436   6.565  1.00  0.00     0.204 C 
HETATM   45  C2  UNL     1      -5.807  -0.447   7.811  1.00  0.00     0.217 C 
HETATM   46  C1  UNL     1      -7.039  -1.330   8.113  1.00  0.00     0.214 C 
HETATM   47  O17 UNL     1      -5.463   0.346   8.940  1.00  0.00    -0.218 OA
HETATM   48  C5  UNL     1      -7.510  -2.088   6.852  1.00  0.00     0.181 C 
HETATM   49  O18 UNL     1      -6.721  -2.283   9.111  1.00  0.00    -0.218 OA
HETATM   50  O1  UNL     1      -7.735  -1.174   5.787  1.00  0.00    -0.326 OA
BRANCH  44  51
HETATM   51  O16 UNL     1      -6.994   1.465   6.865  1.00  0.00    -0.346 OA
HETATM   52  C48 UNL     1      -6.387   2.660   7.301  1.00  0.00     0.175 C 
ENDBRANCH  44  51
ENDBRANCH  42  43
ENDBRANCH  35  42
ENDBRANCH  30  31
ENDBRANCH   1  30
BRANCH  19  53
HETATM   53  C37 UNL     1       4.969   0.635  -0.627  1.00  0.00     0.273 C 
HETATM   54  O6  UNL     1       4.709   1.055   0.477  1.00  0.00    -0.264 OA
BRANCH  53  55
HETATM   55  O7  UNL     1       5.016   1.393  -1.719  1.00  0.00    -0.273 OA
BRANCH  55  56
HETATM   56  C38 UNL     1       5.674   2.631  -1.488  1.00  0.00     0.276 C 
HETATM   57  C39 UNL     1       6.334   3.141  -2.801  1.00  0.00     0.241 C 
HETATM   58  C40 UNL     1       5.445   4.151  -3.572  1.00  0.00     0.220 C 
HETATM   59  O12 UNL     1       7.570   3.758  -2.496  1.00  0.00    -0.215 OA
HETATM   60  C41 UNL     1       3.947   3.854  -3.334  1.00  0.00     0.215 C 
HETATM   61  O11 UNL     1       5.764   4.151  -4.953  1.00  0.00    -0.218 OA
HETATM   62  C42 UNL     1       3.613   3.859  -1.809  1.00  0.00     0.184 C 
HETATM   63  O10 UNL     1       3.603   2.606  -3.918  1.00  0.00    -0.218 OA
HETATM   64  O8  UNL     1       4.756   3.598  -0.990  1.00  0.00    -0.326 OA
BRANCH  62  65
HETATM   65  C43 UNL     1       2.480   2.914  -1.377  1.00  0.00     0.214 C 
HETATM   66  O9  UNL     1       2.250   3.104   0.002  1.00  0.00    -0.218 OA
ENDBRANCH  62  65
ENDBRANCH  55  56
ENDBRANCH  53  55
ENDBRANCH  19  53
TORSDOF 10
