REMARK  4 active torsions:
REMARK  status: ('A' for Active; 'I' for Inactive)
REMARK    1  A    between atoms: C1_1  and  C16_25 
REMARK    2  A    between atoms: C2_2  and  O4_13 
REMARK    3  A    between atoms: O4_13  and  C10_14 
REMARK    4  A    between atoms: C14_18  and  C15_20 
ROOT
HETATM    1  C1  UNL     1      -0.326   1.787  -0.860  1.00  0.00     0.122 A 
HETATM    2  C2  UNL     1      -0.387   0.371  -0.840  1.00  0.00     0.120 A 
HETATM    3  C3  UNL     1      -1.651  -0.264  -0.822  1.00  0.00     0.030 A 
HETATM    4  C4  UNL     1      -2.842   0.504  -0.824  1.00  0.00     0.050 A 
HETATM    5  C5  UNL     1      -2.736   1.926  -0.844  1.00  0.00     0.104 A 
HETATM    6  O1  UNL     1      -1.494   2.518  -0.861  1.00  0.00    -0.305 OA
HETATM    7  C6  UNL     1      -3.908   2.719  -0.848  1.00  0.00     0.052 A 
HETATM    8  C7  UNL     1      -5.180   2.102  -0.830  1.00  0.00     0.135 A 
HETATM    9  C8  UNL     1      -5.285   0.691  -0.809  1.00  0.00     0.055 A 
HETATM   10  C9  UNL     1      -4.121  -0.113  -0.805  1.00  0.00     0.135 A 
HETATM   11  O2  UNL     1      -4.248  -1.449  -0.785  1.00  0.00    -0.190 OA
HETATM   12  O3  UNL     1      -6.289   2.854  -0.834  1.00  0.00    -0.190 OA
ENDROOT
BRANCH   2  13
HETATM   13  O4  UNL     1       0.730  -0.371  -0.838  1.00  0.00    -0.302 OA
BRANCH  13  14
HETATM   14  C10 UNL     1       0.662  -1.678  -0.285  1.00  0.00     0.274 C 
HETATM   15  C11 UNL     1       2.070  -2.307  -0.235  1.00  0.00     0.241 C 
HETATM   16  C12 UNL     1       2.047  -3.674   0.486  1.00  0.00     0.220 C 
HETATM   17  O9  UNL     1       2.543  -2.467  -1.561  1.00  0.00    -0.215 OA
HETATM   18  C13 UNL     1       1.330  -3.531   1.846  1.00  0.00     0.215 C 
HETATM   19  O8  UNL     1       3.375  -4.133   0.685  1.00  0.00    -0.218 OA
HETATM   20  C14 UNL     1      -0.045  -2.840   1.689  1.00  0.00     0.184 C 
HETATM   21  O7  UNL     1       1.131  -4.811   2.420  1.00  0.00    -0.218 OA
HETATM   22  O5  UNL     1       0.127  -1.592   1.029  1.00  0.00    -0.326 OA
BRANCH  20  23
HETATM   23  C15 UNL     1      -0.719  -2.539   3.031  1.00  0.00     0.214 C 
HETATM   24  O6  UNL     1      -2.031  -2.094   2.775  1.00  0.00    -0.218 OA
ENDBRANCH  20  23
ENDBRANCH  13  14
ENDBRANCH   2  13
BRANCH   1  25
HETATM   25  C16 UNL     1       0.943   2.500  -0.877  1.00  0.00     0.029 A 
HETATM   26  C17 UNL     1       1.135   3.574  -1.764  1.00  0.00     0.032 A 
HETATM   27  C18 UNL     1       2.361   4.264  -1.783  1.00  0.00     0.158 A 
HETATM   28  C19 UNL     1       3.396   3.877  -0.912  1.00  0.00     0.181 A 
HETATM   29  O12 UNL     1       2.535   5.270  -2.615  1.00  0.00    -0.188 OA
HETATM   30  C20 UNL     1       3.207   2.803  -0.024  1.00  0.00     0.158 A 
HETATM   31  O11 UNL     1       4.547   4.524  -0.928  1.00  0.00    -0.186 OA
HETATM   32  C21 UNL     1       1.980   2.115  -0.008  1.00  0.00     0.032 A 
HETATM   33  O10 UNL     1       4.174   2.438   0.793  1.00  0.00    -0.188 OA
ENDBRANCH   1  25
TORSDOF 4
