REMARK  2 active torsions:
REMARK  status: ('A' for Active; 'I' for Inactive)
REMARK    1  A    between atoms: C4_4  and  O1_16 
REMARK    2  A    between atoms: C8_8  and  C9_9 
ROOT
HETATM    1  C1  UNL     1       1.703   2.162   0.627  1.00  0.00     0.000 C 
HETATM    2  C2  UNL     1       2.879   1.223   0.955  1.00  0.00     0.002 C 
HETATM    3  C3  UNL     1       2.924   0.018   0.016  1.00  0.00     0.027 C 
HETATM    4  C4  UNL     1       1.652  -0.855   0.154  1.00  0.00     0.093 C 
HETATM    5  C5  UNL     1       1.861  -1.963   1.195  1.00  0.00     0.030 C 
HETATM    6  C6  UNL     1       0.381  -0.014   0.504  1.00  0.00     0.025 C 
HETATM    7  C7  UNL     1      -0.951  -0.697   0.107  1.00  0.00     0.006 C 
HETATM    8  C8  UNL     1      -2.182   0.108   0.555  1.00  0.00     0.018 C 
HETATM    9  C12 UNL     1      -2.109   1.535  -0.006  1.00  0.00     0.004 C 
HETATM   10  C13 UNL     1      -0.809   2.233   0.410  1.00  0.00     0.000 C 
HETATM   11  C14 UNL     1       0.465   1.455   0.004  1.00  0.00     0.002 C 
HETATM   12  C15 UNL     1       0.582   1.471  -1.529  1.00  0.00     0.000 C 
ENDROOT
BRANCH   4  13
HETATM   13  O1  UNL     1       1.484  -1.527  -1.082  1.00  0.00    -0.356 OA
HETATM   14  C16 UNL     1       2.543  -2.410  -1.383  1.00  0.00     0.174 C 
ENDBRANCH   4  13
BRANCH   8  15
HETATM   15  C9  UNL     1      -3.465  -0.576   0.152  1.00  0.00    -0.044 C 
HETATM   16  C10 UNL     1      -4.346  -0.900   1.113  1.00  0.00    -0.009 C 
HETATM   17  C11 UNL     1      -3.803  -0.912  -1.275  1.00  0.00     0.026 C 
ENDBRANCH   8  15
TORSDOF 2
