REMARK  7 active torsions:
REMARK  status: ('A' for Active; 'I' for Inactive)
REMARK    1  A    between atoms: C2_2  and  O4_34 
REMARK    2  A    between atoms: C9_9  and  C11_11 
REMARK    3  A    between atoms: C25_27  and  C28_30 
REMARK    4  A    between atoms: O4_34  and  C31_35 
REMARK    5  A    between atoms: C34_38  and  O7_43 
REMARK    6  A    between atoms: C35_39  and  C36_41 
REMARK    7  A    between atoms: O7_43  and  C37_44 
ROOT
HETATM    1  C1  UNL     1      -1.283  -2.682   1.324  1.00  0.00     0.030 C 
HETATM    2  C2  UNL     1      -2.164  -1.432   1.207  1.00  0.00     0.122 C 
HETATM    3  C3  UNL     1      -1.656  -0.494   0.103  1.00  0.00     0.051 C 
HETATM    4  C4  UNL     1      -0.182  -0.176   0.260  1.00  0.00    -0.047 C 
HETATM    5  C5  UNL     1       0.772  -1.344   0.520  1.00  0.00     0.015 C 
HETATM    6  C6  UNL     1       0.174  -2.285   1.596  1.00  0.00     0.006 C 
HETATM    7  C7  UNL     1       2.162  -0.836   0.982  1.00  0.00     0.004 C 
HETATM    8  C8  UNL     1       2.645   0.322   0.086  1.00  0.00     0.004 C 
HETATM    9  C9  UNL     1       1.693   1.520   0.270  1.00  0.00     0.021 C 
HETATM   10  C10 UNL     1       0.240   1.107   0.158  1.00  0.00    -0.035 C 
HETATM   11  C14 UNL     1       4.129   0.695   0.338  1.00  0.00     0.003 C 
HETATM   12  C15 UNL     1       4.774   0.102   1.604  1.00  0.00     0.003 C 
HETATM   13  C16 UNL     1       4.531  -1.424   1.734  1.00  0.00     0.000 C 
HETATM   14  C17 UNL     1       3.238  -1.930   1.070  1.00  0.00     0.000 C 
HETATM   15  C18 UNL     1       6.244   0.516   1.371  1.00  0.00     0.032 C 
HETATM   16  C19 UNL     1       6.455   0.273  -0.117  1.00  0.00     0.118 C 
HETATM   17  C20 UNL     1       5.069   0.193  -0.762  1.00  0.00     0.030 C 
HETATM   18  O1  UNL     1       7.131  -0.961  -0.158  1.00  0.00    -0.337 OA
HETATM   19  C21 UNL     1       8.063  -1.053   0.900  1.00  0.00     0.187 C 
HETATM   20  C22 UNL     1       7.344  -0.318   2.061  1.00  0.00     0.054 C 
HETATM   21  C23 UNL     1       8.262   0.580   2.891  1.00  0.00     0.005 C 
HETATM   22  O2  UNL     1       8.242  -2.432   1.254  1.00  0.00    -0.335 OA
HETATM   23  C24 UNL     1       9.387  -3.102   0.725  1.00  0.00     0.147 C 
HETATM   24  C25 UNL     1       9.686  -2.658  -0.719  1.00  0.00     0.063 C 
HETATM   25  C26 UNL     1       9.988  -1.148  -0.764  1.00  0.00     0.010 C 
HETATM   26  C27 UNL     1       9.391  -0.402   0.445  1.00  0.00     0.057 C 
HETATM   27  C29 UNL     1       4.250   0.857   2.826  1.00  0.00     0.000 C 
HETATM   28  C30 UNL     1       0.900  -2.106  -0.809  1.00  0.00     0.004 C 
ENDROOT
BRANCH   2  29
HETATM   29  O4  UNL     1      -3.492  -1.820   0.918  1.00  0.00    -0.331 OA
BRANCH  29  30
HETATM   30  C31 UNL     1      -4.408  -0.744   0.953  1.00  0.00     0.270 C 
HETATM   31  C32 UNL     1      -5.711  -1.164   1.682  1.00  0.00     0.241 C 
HETATM   32  C33 UNL     1      -6.781  -0.053   1.590  1.00  0.00     0.217 C 
HETATM   33  O13 UNL     1      -5.424  -1.428   3.045  1.00  0.00    -0.215 OA
HETATM   34  C34 UNL     1      -6.941   0.402   0.121  1.00  0.00     0.181 C 
HETATM   35  O12 UNL     1      -8.020  -0.535   2.082  1.00  0.00    -0.218 OA
HETATM   36  C35 UNL     1      -5.576   0.752  -0.512  1.00  0.00     0.181 C 
HETATM   37  O5  UNL     1      -4.701  -0.361  -0.383  1.00  0.00    -0.326 OA
BRANCH  34  38
HETATM   38  O7  UNL     1      -7.775   1.549   0.064  1.00  0.00    -0.326 OA
BRANCH  38  39
HETATM   39  C37 UNL     1      -8.656   1.541  -1.041  1.00  0.00     0.270 C 
HETATM   40  C38 UNL     1      -9.287   2.943  -1.240  1.00  0.00     0.241 C 
HETATM   41  C39 UNL     1     -10.369   2.914  -2.344  1.00  0.00     0.220 C 
HETATM   42  O11 UNL     1      -8.274   3.867  -1.604  1.00  0.00    -0.215 OA
HETATM   43  C40 UNL     1     -11.359   1.758  -2.078  1.00  0.00     0.212 C 
HETATM   44  O10 UNL     1     -11.067   4.148  -2.367  1.00  0.00    -0.218 OA
HETATM   45  C41 UNL     1     -10.617   0.422  -1.850  1.00  0.00     0.151 C 
HETATM   46  O9  UNL     1     -12.231   1.609  -3.186  1.00  0.00    -0.218 OA
HETATM   47  O8  UNL     1      -9.676   0.582  -0.797  1.00  0.00    -0.329 OA
HETATM   48  C42 UNL     1     -11.553  -0.719  -1.436  1.00  0.00     0.035 C 
ENDBRANCH  38  39
ENDBRANCH  34  38
BRANCH  36  49
HETATM   49  C36 UNL     1      -5.676   1.064  -2.008  1.00  0.00     0.214 C 
HETATM   50  O6  UNL     1      -4.371   1.262  -2.504  1.00  0.00    -0.218 OA
ENDBRANCH  36  49
ENDBRANCH  29  30
ENDBRANCH   2  29
BRANCH   9  51
HETATM   51  C11 UNL     1       1.988   2.637  -0.736  1.00  0.00     0.004 C 
HETATM   52  C12 UNL     1       1.693   2.225  -2.180  1.00  0.00     0.000 C 
HETATM   53  C13 UNL     1       1.328   3.963  -0.356  1.00  0.00     0.000 C 
ENDBRANCH   9  51
BRANCH  24  54
HETATM   54  C28 UNL     1      10.821  -3.482  -1.338  1.00  0.00     0.185 C 
HETATM   55  O3  UNL     1      10.932  -3.127  -2.697  1.00  0.00    -0.221 OA
ENDBRANCH  24  54
TORSDOF 7
