REMARK  4 active torsions:
REMARK  status: ('A' for Active; 'I' for Inactive)
REMARK    1  A    between atoms: C1_2  and  C14_16 
REMARK    2  A    between atoms: C5_6  and  O2_13 
REMARK    3  A    between atoms: C7_8  and  C9_10 
REMARK    4  A    between atoms: C16_18  and  O5_25 
ROOT
HETATM    1  O1  UNL     1       0.160   1.092  -0.933  1.00  0.00    -0.327 OA
HETATM    2  C1  UNL     1      -1.041   0.305  -1.006  1.00  0.00     0.148 A 
HETATM    3  C2  UNL     1      -0.588  -1.193  -0.937  1.00  0.00     0.056 A 
HETATM    4  C3  UNL     1       0.914  -1.049  -0.928  1.00  0.00     0.004 A 
HETATM    5  C4  UNL     1       1.244   0.317  -0.922  1.00  0.00     0.113 A 
HETATM    6  C5  UNL     1       2.611   0.711  -0.904  1.00  0.00     0.116 A 
HETATM    7  C6  UNL     1       3.627  -0.277  -0.896  1.00  0.00     0.026 A 
HETATM    8  C7  UNL     1       3.293  -1.644  -0.902  1.00  0.00     0.001 A 
HETATM    9  C8  UNL     1       1.938  -2.029  -0.916  1.00  0.00    -0.002 A 
HETATM   10  C13 UNL     1      -1.068  -1.984  -2.152  1.00  0.00     0.008 C 
ENDROOT
BRANCH   2  11
HETATM   11  C14 UNL     1      -1.961   0.695   0.080  1.00  0.00     0.009 A 
HETATM   12  C15 UNL     1      -3.318   0.949  -0.193  1.00  0.00     0.024 A 
HETATM   13  C16 UNL     1      -4.205   1.322   0.844  1.00  0.00     0.118 A 
HETATM   14  C17 UNL     1      -3.709   1.444   2.172  1.00  0.00     0.141 A 
HETATM   15  C18 UNL     1      -2.361   1.193   2.455  1.00  0.00     0.121 A 
HETATM   16  O4  UNL     1      -4.330   1.777   3.305  1.00  0.00    -0.298 OA
HETATM   17  C19 UNL     1      -1.490   0.818   1.402  1.00  0.00     0.025 A 
HETATM   18  O3  UNL     1      -2.146   1.371   3.758  1.00  0.00    -0.299 OA
HETATM   19  C20 UNL     1      -3.383   1.760   4.395  1.00  0.00     0.304 A 
BRANCH  13  20
HETATM   20  O5  UNL     1      -5.467   1.531   0.442  1.00  0.00    -0.326 OA
HETATM   21  C21 UNL     1      -6.426   1.910   1.416  1.00  0.00     0.181 C 
ENDBRANCH  13  20
ENDBRANCH   2  11
BRANCH   6  22
HETATM   22  O2  UNL     1       3.076   1.967  -0.894  1.00  0.00    -0.326 OA
HETATM   23  C12 UNL     1       2.131   3.028  -0.908  1.00  0.00     0.181 C 
ENDBRANCH   6  22
BRANCH   8  24
HETATM   24  C9  UNL     1       4.356  -2.670  -0.892  1.00  0.00    -0.004 C 
HETATM   25  C10 UNL     1       5.592  -2.322  -1.289  1.00  0.00    -0.026 C 
HETATM   26  C11 UNL     1       6.672  -3.371  -1.279  1.00  0.00     0.031 C 
ENDBRANCH   8  24
TORSDOF 4
