REMARK  4 active torsions:
REMARK  status: ('A' for Active; 'I' for Inactive)
REMARK    1  A    between atoms: C2_3  and  C14_18 
REMARK    2  A    between atoms: C3_4  and  C13_16 
REMARK    3  A    between atoms: C4_5  and  C5_6 
REMARK    4  A    between atoms: C5_6  and  C6_7 
ROOT
HETATM    1  C1  UNL     1       1.051   0.609   0.402  1.00  0.00     0.143 C 
HETATM    2  O1  UNL     1       0.107   0.770   1.432  1.00  0.00    -0.352 OA
HETATM    3  C2  UNL     1      -1.096   1.260   0.895  1.00  0.00     0.140 C 
HETATM    4  C3  UNL     1      -1.166   0.629  -0.512  1.00  0.00     0.067 C 
HETATM    5  C4  UNL     1       0.215  -0.037  -0.695  1.00  0.00     0.039 C 
ENDROOT
BRANCH   5   6
HETATM    6  C5  UNL     1       0.863   0.127  -2.070  1.00  0.00     0.029 C 
BRANCH   6   7
HETATM    7  C6  UNL     1       2.178  -0.531  -2.131  1.00  0.00    -0.020 A 
HETATM    8  C7  UNL     1       2.271  -1.906  -2.420  1.00  0.00    -0.002 A 
HETATM    9  C8  UNL     1       3.545  -2.516  -2.473  1.00  0.00     0.026 A 
HETATM   10  C9  UNL     1       4.728  -1.768  -2.244  1.00  0.00     0.119 A 
HETATM   11  C10 UNL     1       4.635  -0.402  -1.957  1.00  0.00     0.119 A 
HETATM   12  O3  UNL     1       6.014  -2.125  -2.244  1.00  0.00    -0.300 OA
HETATM   13  C11 UNL     1       3.357   0.211  -1.902  1.00  0.00     0.022 A 
HETATM   14  O2  UNL     1       5.861   0.090  -1.779  1.00  0.00    -0.300 OA
HETATM   15  C12 UNL     1       6.828  -0.969  -1.953  1.00  0.00     0.304 A 
ENDBRANCH   6   7
ENDBRANCH   5   6
BRANCH   4  16
HETATM   16  C13 UNL     1      -1.461   1.717  -1.543  1.00  0.00     0.185 C 
HETATM   17  O4  UNL     1      -2.744   2.238  -1.281  1.00  0.00    -0.221 OA
ENDBRANCH   4  16
BRANCH   3  18
HETATM   18  C14 UNL     1      -2.223   0.912   1.777  1.00  0.00     0.007 A 
HETATM   19  C15 UNL     1      -3.016   1.926   2.356  1.00  0.00     0.000 A 
HETATM   20  C16 UNL     1      -4.088   1.568   3.197  1.00  0.00     0.026 A 
HETATM   21  C17 UNL     1      -4.387   0.209   3.475  1.00  0.00     0.119 A 
HETATM   22  C18 UNL     1      -3.602  -0.797   2.902  1.00  0.00     0.119 A 
HETATM   23  O6  UNL     1      -5.334  -0.354   4.229  1.00  0.00    -0.300 OA
HETATM   24  C19 UNL     1      -2.522  -0.441   2.053  1.00  0.00     0.024 A 
HETATM   25  O5  UNL     1      -4.061  -1.986   3.299  1.00  0.00    -0.300 OA
HETATM   26  C20 UNL     1      -5.192  -1.791   4.174  1.00  0.00     0.304 A 
ENDBRANCH   3  18
TORSDOF 4
