REMARK  1 active torsions:
REMARK  status: ('A' for Active; 'I' for Inactive)
REMARK    1  A    between atoms: C16_16  and  C25_25 
ROOT
HETATM    1  C1  UNL     1      -5.072   0.947   1.201  1.00  0.00     0.182 C 
HETATM    2  C2  UNL     1      -5.484   0.445  -0.209  1.00  0.00     0.182 C 
HETATM    3  C3  UNL     1      -4.356  -0.346  -0.939  1.00  0.00     0.031 C 
HETATM    4  C4  UNL     1      -3.498  -1.158   0.076  1.00  0.00     0.003 C 
HETATM    5  C5  UNL     1      -2.824  -0.281   1.193  1.00  0.00     0.003 C 
HETATM    6  C6  UNL     1      -3.551   1.080   1.350  1.00  0.00     0.036 C 
HETATM    7  C7  UNL     1      -1.324  -0.068   0.828  1.00  0.00     0.005 C 
HETATM    8  C8  UNL     1      -0.477  -1.371   0.799  1.00  0.00     0.004 C 
HETATM    9  C9  UNL     1      -1.322  -2.541   0.227  1.00  0.00     0.000 C 
HETATM   10  C10 UNL     1      -2.484  -2.076  -0.660  1.00  0.00     0.000 C 
HETATM   11  C11 UNL     1       0.816  -1.080  -0.043  1.00  0.00     0.015 C 
HETATM   12  C12 UNL     1       1.424   0.301   0.229  1.00  0.00    -0.049 C 
HETATM   13  C13 UNL     1       0.816   1.207   1.041  1.00  0.00    -0.035 C 
HETATM   14  C14 UNL     1      -0.557   0.988   1.641  1.00  0.00     0.025 C 
HETATM   15  C15 UNL     1       2.736   0.613  -0.498  1.00  0.00     0.022 C 
HETATM   16  C16 UNL     1       3.813  -0.490  -0.318  1.00  0.00     0.022 C 
HETATM   17  C17 UNL     1       3.203  -1.891  -0.574  1.00  0.00     0.005 C 
HETATM   18  C18 UNL     1       1.914  -2.144   0.219  1.00  0.00     0.004 C 
HETATM   19  C19 UNL     1       4.990  -0.271  -1.314  1.00  0.00     0.004 C 
HETATM   20  C20 UNL     1       5.119   1.166  -1.844  1.00  0.00     0.000 C 
HETATM   21  C21 UNL     1       4.775   2.201  -0.770  1.00  0.00     0.000 C 
HETATM   22  C22 UNL     1       3.311   2.049  -0.285  1.00  0.00     0.004 C 
HETATM   23  C23 UNL     1       2.379   3.092  -0.926  1.00  0.00     0.000 C 
HETATM   24  C24 UNL     1       5.129   3.625  -1.225  1.00  0.00     0.000 C 
HETATM   25  C27 UNL     1       0.461  -1.092  -1.539  1.00  0.00     0.004 C 
HETATM   26  C28 UNL     1      -0.080  -1.766   2.238  1.00  0.00     0.000 C 
HETATM   27  C29 UNL     1      -2.926  -1.016   2.543  1.00  0.00     0.000 C 
HETATM   28  C30 UNL     1      -4.934  -1.279  -2.020  1.00  0.00     0.003 C 
HETATM   29  C31 UNL     1      -3.465   0.654  -1.693  1.00  0.00     0.003 C 
HETATM   30  O1  UNL     1      -6.650  -0.350  -0.061  1.00  0.00    -0.221 OA
HETATM   31  O2  UNL     1      -5.674   2.205   1.455  1.00  0.00    -0.221 OA
ENDROOT
BRANCH  16  32
HETATM   32  C25 UNL     1       4.334  -0.441   1.102  1.00  0.00    -0.026 C 
HETATM   33  C26 UNL     1       5.293  -1.309   1.465  1.00  0.00    -0.005 C 
ENDBRANCH  16  32
TORSDOF 1
