REMARK  14 active torsions:
REMARK  status: ('A' for Active; 'I' for Inactive)
REMARK    1  A    between atoms: C1_1  and  O17_59 
REMARK    2  A    between atoms: C3_3  and  O15_50 
REMARK    3  A    between atoms: C5_5  and  C32_45 
REMARK    4  A    between atoms: C6_6  and  O1_7 
REMARK    5  A    between atoms: O1_7  and  C7_8 
REMARK    6  A    between atoms: C9_11  and  O11_41 
REMARK    7  A    between atoms: C10_12  and  O9_37 
REMARK    8  A    between atoms: O9_37  and  C28_38 
REMARK    9  A    between atoms: O11_41  and  C30_42 
REMARK   10  A    between atoms: C32_45  and  O13_46 
REMARK   11  A    between atoms: O13_46  and  C33_47 
REMARK   12  A    between atoms: O15_50  and  C35_51 
REMARK   13  A    between atoms: C35_51  and  C36_52 
REMARK   14  A    between atoms: O17_59  and  C42_60 
ROOT
HETATM    1  C1  UNL     1       1.326   2.018  -1.498  1.00  0.00     0.157 C 
HETATM    2  C2  UNL     1       0.463   2.332  -0.258  1.00  0.00     0.088 C 
HETATM    3  C3  UNL     1       0.984   1.457   0.885  1.00  0.00     0.157 C 
HETATM    4  C4  UNL     1       0.359   0.104   0.479  1.00  0.00     0.153 C 
HETATM    5  C5  UNL     1       1.191  -0.471  -0.727  1.00  0.00     0.111 C 
HETATM    6  C6  UNL     1       1.203   0.533  -1.918  1.00  0.00     0.159 C 
HETATM    7  C9  UNL     1       0.547  -1.813  -1.178  1.00  0.00     0.161 C 
HETATM    8  C10 UNL     1       0.363  -2.844  -0.049  1.00  0.00     0.182 C 
HETATM    9  C11 UNL     1      -0.418  -2.268   1.148  1.00  0.00     0.184 C 
HETATM   10  C12 UNL     1       0.197  -0.932   1.647  1.00  0.00     0.179 C 
HETATM   11  C13 UNL     1       1.541  -1.158   2.352  1.00  0.00     0.038 C 
HETATM   12  O3  UNL     1      -0.658  -0.434   2.664  1.00  0.00    -0.221 OA
HETATM   13  O4  UNL     1      -1.774  -2.010   0.775  1.00  0.00    -0.299 OA
HETATM   14  C14 UNL     1      -2.629  -3.022   0.570  1.00  0.00     0.272 C 
HETATM   15  C15 UNL     1      -4.047  -2.635   0.209  1.00  0.00     0.092 C 
HETATM   16  C16 UNL     1      -4.041  -1.568  -0.926  1.00  0.00     0.050 C 
HETATM   17  C17 UNL     1      -5.205  -0.605  -0.895  1.00  0.00     0.064 A 
HETATM   18  C18 UNL     1      -5.086   0.676  -0.279  1.00  0.00     0.077 A 
HETATM   19  C19 UNL     1      -3.846   1.090   0.467  1.00  0.00     0.297 C 
HETATM   20  O5  UNL     1      -3.346   2.320   0.264  1.00  0.00    -0.296 OA
HETATM   21  C20 UNL     1      -1.973   2.553   0.621  1.00  0.00     0.179 C 
HETATM   22  C21 UNL     1      -1.002   1.856  -0.365  1.00  0.00     0.126 C 
HETATM   23  O6  UNL     1      -0.924   0.480  -0.025  1.00  0.00    -0.356 OA
HETATM   24  C22 UNL     1      -1.543   1.981  -1.789  1.00  0.00     0.033 C 
HETATM   25  O7  UNL     1      -3.338   0.297   1.227  1.00  0.00    -0.259 OA
HETATM   26  C23 UNL     1      -6.162   1.582  -0.373  1.00  0.00     0.008 A 
HETATM   27  C24 UNL     1      -7.344   1.182  -1.016  1.00  0.00     0.021 A 
HETATM   28  C25 UNL     1      -7.430  -0.113  -1.555  1.00  0.00     0.099 A 
HETATM   29  N1  UNL     1      -6.381  -0.980  -1.488  1.00  0.00    -0.248 NA
HETATM   30  C26 UNL     1      -3.889  -2.238  -2.303  1.00  0.00     0.007 C 
HETATM   31  C27 UNL     1      -4.760  -2.199   1.496  1.00  0.00     0.011 C 
HETATM   32  O8  UNL     1      -2.334  -4.191   0.662  1.00  0.00    -0.264 OA
ENDROOT
BRANCH   3  33
HETATM   33  O15 UNL     1       0.498   1.940   2.129  1.00  0.00    -0.298 OA
BRANCH  33  34
HETATM   34  C35 UNL     1       1.451   2.008   3.055  1.00  0.00     0.296 C 
HETATM   35  O16 UNL     1       2.629   2.106   2.801  1.00  0.00    -0.259 OA
BRANCH  34  36
HETATM   36  C36 UNL     1       0.971   1.951   4.467  1.00  0.00     0.063 A 
HETATM   37  C37 UNL     1       1.896   1.910   5.525  1.00  0.00     0.005 A 
HETATM   38  C38 UNL     1       1.443   1.859   6.856  1.00  0.00     0.000 A 
HETATM   39  C39 UNL     1       0.064   1.848   7.129  1.00  0.00     0.000 A 
HETATM   40  C40 UNL     1      -0.861   1.889   6.072  1.00  0.00     0.000 A 
HETATM   41  C41 UNL     1      -0.410   1.941   4.742  1.00  0.00     0.005 A 
ENDBRANCH  34  36
ENDBRANCH  33  34
ENDBRANCH   3  33
BRANCH   1  42
HETATM   42  O17 UNL     1       2.685   2.330  -1.223  1.00  0.00    -0.302 OA
BRANCH  42  43
HETATM   43  C42 UNL     1       2.949   3.623  -1.393  1.00  0.00     0.272 C 
HETATM   44  O18 UNL     1       2.103   4.486  -1.410  1.00  0.00    -0.264 OA
HETATM   45  C43 UNL     1       4.406   3.961  -1.564  1.00  0.00     0.106 C 
ENDBRANCH  42  43
ENDBRANCH   1  42
BRANCH   5  46
HETATM   46  C32 UNL     1       2.639  -0.713  -0.264  1.00  0.00     0.159 C 
BRANCH  46  47
HETATM   47  O13 UNL     1       3.297   0.533  -0.096  1.00  0.00    -0.301 OA
BRANCH  47  48
HETATM   48  C33 UNL     1       4.504   0.400   0.449  1.00  0.00     0.272 C 
HETATM   49  O14 UNL     1       5.008  -0.666   0.713  1.00  0.00    -0.264 OA
HETATM   50  C34 UNL     1       5.227   1.689   0.725  1.00  0.00     0.106 C 
ENDBRANCH  47  48
ENDBRANCH  46  47
ENDBRANCH   5  46
BRANCH   6  51
HETATM   51  O1  UNL     1       2.246   0.213  -2.828  1.00  0.00    -0.301 OA
BRANCH  51  52
HETATM   52  C7  UNL     1       2.101   0.824  -4.000  1.00  0.00     0.272 C 
HETATM   53  O2  UNL     1       1.078   1.356  -4.359  1.00  0.00    -0.264 OA
HETATM   54  C8  UNL     1       3.320   0.814  -4.883  1.00  0.00     0.106 C 
ENDBRANCH  51  52
ENDBRANCH   6  51
BRANCH   7  55
HETATM   55  O11 UNL     1       1.332  -2.398  -2.209  1.00  0.00    -0.301 OA
BRANCH  55  56
HETATM   56  C30 UNL     1       0.838  -2.156  -3.420  1.00  0.00     0.272 C 
HETATM   57  O12 UNL     1      -0.184  -1.539  -3.619  1.00  0.00    -0.264 OA
HETATM   58  C31 UNL     1       1.646  -2.707  -4.563  1.00  0.00     0.106 C 
ENDBRANCH  55  56
ENDBRANCH   7  55
BRANCH   8  59
HETATM   59  O9  UNL     1       1.633  -3.299   0.396  1.00  0.00    -0.299 OA
BRANCH  59  60
HETATM   60  C28 UNL     1       2.144  -4.232  -0.400  1.00  0.00     0.273 C 
HETATM   61  O10 UNL     1       1.531  -4.762  -1.299  1.00  0.00    -0.264 OA
HETATM   62  C29 UNL     1       3.574  -4.607  -0.115  1.00  0.00     0.106 C 
ENDBRANCH  59  60
ENDBRANCH   8  59
TORSDOF 14
