REMARK  4 active torsions:
REMARK  status: ('A' for Active; 'I' for Inactive)
REMARK    1  A    between atoms: C9_11  and  C22_26 
REMARK    2  A    between atoms: C16_20  and  C17_21 
REMARK    3  A    between atoms: C17_21  and  C18_22 
REMARK    4  A    between atoms: C22_26  and  C23_27 
ROOT
HETATM    1  C1  UNL     1       3.348   0.588   0.135  1.00  0.00     0.000 C 
HETATM    2  C2  UNL     1       1.897   0.732   0.313  1.00  0.00     0.057 A 
HETATM    3  C3  UNL     1       1.020   0.338  -0.605  1.00  0.00    -0.013 A 
HETATM    4  C4  UNL     1       1.463  -0.264  -1.920  1.00  0.00     0.029 C 
HETATM    5  C5  UNL     1       2.863  -0.912  -1.795  1.00  0.00     0.030 C 
HETATM    6  C6  UNL     1       3.820  -0.166  -0.879  1.00  0.00    -0.026 C 
HETATM    7  C7  UNL     1      -0.393   0.602  -0.117  1.00  0.00     0.126 A 
HETATM    8  O1  UNL     1      -0.158   1.215   1.174  1.00  0.00    -0.299 OA
HETATM    9  C8  UNL     1       1.156   1.291   1.424  1.00  0.00     0.295 A 
HETATM   10  O2  UNL     1       1.670   1.750   2.418  1.00  0.00    -0.259 OA
HETATM   11  C9  UNL     1      -1.164   1.596  -1.057  1.00  0.00     0.034 C 
HETATM   12  C10 UNL     1      -2.592   1.047  -1.326  1.00  0.00     0.025 C 
HETATM   13  C11 UNL     1      -2.432  -0.305  -1.998  1.00  0.00    -0.025 C 
HETATM   14  C12 UNL     1      -1.736  -1.162  -1.232  1.00  0.00     0.045 A 
HETATM   15  C13 UNL     1      -1.262  -0.676   0.094  1.00  0.00     0.090 A 
HETATM   16  C14 UNL     1      -0.586  -1.961   0.523  1.00  0.00     0.082 A 
HETATM   17  O3  UNL     1      -0.639  -2.982  -0.359  1.00  0.00    -0.278 OA
HETATM   18  C15 UNL     1      -1.326  -2.543  -1.426  1.00  0.00     0.296 A 
HETATM   19  O4  UNL     1      -1.582  -3.184  -2.418  1.00  0.00    -0.259 OA
HETATM   20  C16 UNL     1       0.023  -2.064   1.721  1.00  0.00    -0.005 C 
HETATM   21  C20 UNL     1      -2.525  -0.258   0.879  1.00  0.00     0.013 C 
HETATM   22  C21 UNL     1      -3.291   0.807   0.039  1.00  0.00     0.005 C 
ENDROOT
BRANCH  11  23
HETATM   23  C22 UNL     1      -1.189   3.027  -0.504  1.00  0.00     0.003 C 
BRANCH  23  24
HETATM   24  C23 UNL     1      -1.785   4.031  -1.490  1.00  0.00     0.000 C 
HETATM   25  C24 UNL     1      -1.637   5.479  -1.021  1.00  0.00     0.000 C 
ENDBRANCH  23  24
ENDBRANCH  11  23
BRANCH  20  26
HETATM   26  C17 UNL     1       0.697  -3.344   2.143  1.00  0.00     0.028 C 
BRANCH  26  27
HETATM   27  C18 UNL     1       2.147  -3.123   2.574  1.00  0.00     0.005 C 
HETATM   28  C19 UNL     1       2.836  -4.416   3.012  1.00  0.00     0.000 C 
ENDBRANCH  26  27
ENDBRANCH  20  26
TORSDOF 4
