REMARK  0 active torsions:
REMARK  status: ('A' for Active; 'I' for Inactive)
ROOT
HETATM    1  C1  UNL     1       0.350  -0.545   0.590  1.00  0.00     0.000 A 
HETATM    2  C2  UNL     1       1.408   0.184  -0.232  1.00  0.00     0.003 C 
HETATM    3  C3  UNL     1       0.723   1.432  -0.881  1.00  0.00     0.030 C 
HETATM    4  C4  UNL     1      -0.656   1.821  -0.236  1.00  0.00     0.152 C 
HETATM    5  C5  UNL     1      -1.650   0.621  -0.057  1.00  0.00     0.033 C 
HETATM    6  C6  UNL     1      -0.853  -0.650  -0.336  1.00  0.00     0.003 A 
HETATM    7  C7  UNL     1      -0.408  -1.849   0.471  1.00  0.00     0.000 A 
HETATM    8  C8  UNL     1      -1.303  -2.271   1.629  1.00  0.00     0.000 C 
HETATM    9  C9  UNL     1       0.291  -2.990  -0.258  1.00  0.00     0.000 C 
HETATM   10  O1  UNL     1      -0.424   2.420   1.025  1.00  0.00    -0.224 OA
HETATM   11  C10 UNL     1       1.688   2.620  -0.990  1.00  0.00     0.003 C 
ENDROOT
TORSDOF 0
