REMARK  0 active torsions:
REMARK  status: ('A' for Active; 'I' for Inactive)
ROOT
HETATM    1  C1  UNL     1       0.475  -0.535   0.676  1.00  0.00     0.028 A 
HETATM    2  C2  UNL     1       0.543   0.512  -0.289  1.00  0.00     0.094 A 
HETATM    3  C3  UNL     1      -0.650   1.068  -0.811  1.00  0.00     0.049 A 
HETATM    4  C4  UNL     1      -1.908   0.578  -0.395  1.00  0.00     0.106 A 
HETATM    5  C5  UNL     1      -1.977  -0.475   0.555  1.00  0.00     0.087 A 
HETATM    6  C6  UNL     1      -0.789  -1.033   1.092  1.00  0.00     0.134 A 
HETATM    7  O1  UNL     1      -0.850  -2.027   1.990  1.00  0.00    -0.190 OA
HETATM    8  C7  UNL     1      -3.318  -0.975   0.969  1.00  0.00     0.201 A 
HETATM    9  C8  UNL     1      -4.467  -0.297   0.330  1.00  0.00     0.062 A 
HETATM   10  C9  UNL     1      -4.279   0.697  -0.565  1.00  0.00     0.081 A 
HETATM   11  O2  UNL     1      -3.041   1.113  -0.904  1.00  0.00    -0.311 OA
HETATM   12  C10 UNL     1      -5.490   1.346  -1.180  1.00  0.00     0.058 C 
HETATM   13  O3  UNL     1      -3.566  -1.857   1.758  1.00  0.00    -0.286 OA
HETATM   14  O4  UNL     1       1.725   1.002  -0.725  1.00  0.00    -0.333 OA
HETATM   15  C11 UNL     1       2.963   0.328  -0.455  1.00  0.00     0.127 C 
HETATM   16  C12 UNL     1       2.936  -0.180   1.004  1.00  0.00     0.182 C 
HETATM   17  C13 UNL     1       1.725  -1.103   1.240  1.00  0.00     0.066 C 
HETATM   18  O5  UNL     1       4.127  -0.879   1.314  1.00  0.00    -0.221 OA
HETATM   19  C14 UNL     1       3.104  -0.822  -1.465  1.00  0.00     0.033 C 
HETATM   20  C15 UNL     1       4.090   1.342  -0.678  1.00  0.00     0.033 C 
ENDROOT
TORSDOF 0
