REMARK  1 active torsions:
REMARK  status: ('A' for Active; 'I' for Inactive)
REMARK    1  A    between atoms: C9_10  and  C10_11 
ROOT
HETATM    1  C1  UNL     1      -2.422   1.194  -0.057  1.00  0.00     0.035 C 
HETATM    2  C2  UNL     1      -2.143  -0.308   0.100  1.00  0.00     0.033 C 
HETATM    3  C3  UNL     1      -1.055  -0.609   1.156  1.00  0.00     0.127 C 
HETATM    4  C4  UNL     1       0.209   0.279   0.994  1.00  0.00     0.035 C 
HETATM    5  C5  UNL     1      -0.104   1.776   0.777  1.00  0.00     0.031 C 
HETATM    6  C6  UNL     1      -1.129   1.969  -0.363  1.00  0.00     0.152 C 
HETATM    7  O1  UNL     1      -1.438   3.342  -0.520  1.00  0.00    -0.224 OA
HETATM    8  C7  UNL     1       1.293   2.297   0.432  1.00  0.00     0.003 C 
HETATM    9  C8  UNL     1       1.848   1.262  -0.539  1.00  0.00     0.004 C 
HETATM   10  C9  UNL     1       1.223  -0.076  -0.119  1.00  0.00     0.024 C 
HETATM   11  C14 UNL     1      -0.545   2.430   2.092  1.00  0.00     0.003 C 
HETATM   12  O2  UNL     1      -1.619  -0.367   2.432  1.00  0.00    -0.226 OA
HETATM   13  C15 UNL     1      -0.650  -2.088   1.166  1.00  0.00     0.033 C 
ENDROOT
BRANCH  10  14
HETATM   14  C10 UNL     1       0.678  -0.822  -1.314  1.00  0.00    -0.035 C 
HETATM   15  C11 UNL     1       1.230  -2.004  -1.639  1.00  0.00    -0.048 C 
HETATM   16  C12 UNL     1       2.375  -2.514  -0.805  1.00  0.00     0.026 C 
HETATM   17  C13 UNL     1       0.676  -2.756  -2.818  1.00  0.00     0.026 C 
ENDBRANCH  10  14
TORSDOF 1
