REMARK  1 active torsions:
REMARK  status: ('A' for Active; 'I' for Inactive)
REMARK    1  A    between atoms: C11_11  and  O2_16 
ROOT
HETATM    1  C1  UNL     1      -3.195  -1.242  -0.209  1.00  0.00     0.027 A 
HETATM    2  C2  UNL     1      -3.861  -0.026   0.041  1.00  0.00     0.131 A 
HETATM    3  C3  UNL     1      -3.115   1.156   0.229  1.00  0.00     0.027 A 
HETATM    4  C4  UNL     1      -1.703   1.127   0.168  1.00  0.00     0.002 A 
HETATM    5  C5  UNL     1      -0.994  -0.090  -0.080  1.00  0.00     0.002 A 
HETATM    6  C6  UNL     1      -1.779  -1.281  -0.270  1.00  0.00     0.002 A 
HETATM    7  C7  UNL     1      -1.160  -2.526  -0.523  1.00  0.00     0.000 A 
HETATM    8  C8  UNL     1       0.240  -2.617  -0.594  1.00  0.00     0.000 A 
HETATM    9  C9  UNL     1       1.041  -1.465  -0.412  1.00  0.00     0.004 A 
HETATM   10  C10 UNL     1       0.449  -0.180  -0.150  1.00  0.00     0.022 A 
HETATM   11  C11 UNL     1       1.344   0.933   0.025  1.00  0.00     0.096 A 
HETATM   12  C12 UNL     1       2.744   0.756  -0.061  1.00  0.00     0.052 A 
HETATM   13  C13 UNL     1       3.297  -0.512  -0.318  1.00  0.00     0.133 A 
HETATM   14  C14 UNL     1       2.449  -1.623  -0.494  1.00  0.00     0.028 A 
HETATM   15  O1  UNL     1       4.627  -0.662  -0.398  1.00  0.00    -0.190 OA
HETATM   16  O3  UNL     1      -5.199   0.012   0.100  1.00  0.00    -0.190 OA
ENDROOT
BRANCH  11  17
HETATM   17  O2  UNL     1       0.932   2.183   0.277  1.00  0.00    -0.328 OA
HETATM   18  C15 UNL     1       1.781   3.021   1.047  1.00  0.00     0.181 C 
ENDBRANCH  11  17
TORSDOF 1
