REMARK  10 active torsions:
REMARK  status: ('A' for Active; 'I' for Inactive)
REMARK    1  A    between atoms: C16_17  and  C25_26 
REMARK    2  A    between atoms: C21_22  and  C22_23 
REMARK    3  A    between atoms: C25_26  and  O3_28 
REMARK    4  A    between atoms: O3_28  and  C26_29 
REMARK    5  A    between atoms: C30_36  and  C31_38 
REMARK    6  A    between atoms: C31_38  and  O8_39 
REMARK    7  A    between atoms: O8_39  and  C32_40 
REMARK    8  A    between atoms: C35_45  and  O11_46 
REMARK    9  A    between atoms: O11_46  and  C36_47 
REMARK   10  A    between atoms: C42_57  and  C43_59 
ROOT
HETATM    1  C25 UNL     1       3.111  -2.252   0.447  1.00  0.00     0.273 C 
HETATM    2  O2  UNL     1       2.481  -1.748  -0.453  1.00  0.00    -0.264 OA
ENDROOT
BRANCH   1   3
HETATM    3  C16 UNL     1       2.619  -3.512   1.137  1.00  0.00     0.078 C 
HETATM    4  C15 UNL     1       1.621  -4.359   0.311  1.00  0.00     0.012 C 
HETATM    5  C12 UNL     1       0.356  -3.520  -0.008  1.00  0.00     0.003 C 
HETATM    6  C21 UNL     1       2.514  -4.846  -0.854  1.00  0.00     0.019 C 
HETATM    7  C44 UNL     1       1.242  -5.674   1.021  1.00  0.00     0.001 C 
HETATM    8  C11 UNL     1      -0.353  -3.012   1.289  1.00  0.00     0.000 C 
HETATM    9  C13 UNL     1      -0.621  -4.270  -0.934  1.00  0.00     0.033 C 
HETATM   10  C8  UNL     1      -1.576  -2.092   0.895  1.00  0.00     0.002 C 
HETATM   11  C18 UNL     1       0.691  -2.275   2.176  1.00  0.00     0.001 C 
HETATM   12  C45 UNL     1      -0.812  -4.199   2.141  1.00  0.00     0.000 C 
HETATM   13  C7  UNL     1      -2.592  -2.777  -0.102  1.00  0.00     0.030 C 
HETATM   14  C9  UNL     1      -2.336  -1.539   2.123  1.00  0.00     0.000 C 
HETATM   15  C46 UNL     1      -1.006  -0.840   0.197  1.00  0.00     0.000 C 
HETATM   16  C5  UNL     1      -3.678  -3.725   0.537  1.00  0.00     0.003 C 
HETATM   17  C14 UNL     1      -1.852  -3.424  -1.318  1.00  0.00     0.152 C 
HETATM   18  C4  UNL     1      -4.334  -3.047   1.785  1.00  0.00     0.002 C 
HETATM   19  C6  UNL     1      -4.822  -4.045  -0.461  1.00  0.00     0.003 C 
HETATM   20  C47 UNL     1      -3.061  -5.078   0.902  1.00  0.00     0.000 C 
HETATM   21  C3  UNL     1      -5.441  -3.908   2.475  1.00  0.00     0.028 C 
HETATM   22  C10 UNL     1      -3.293  -2.529   2.787  1.00  0.00     0.000 C 
HETATM   23  C2  UNL     1      -6.525  -4.320   1.445  1.00  0.00     0.152 C 
HETATM   24  C48 UNL     1      -6.094  -3.131   3.635  1.00  0.00     0.003 C 
HETATM   25  C49 UNL     1      -4.838  -5.170   3.098  1.00  0.00     0.003 C 
HETATM   26  C1  UNL     1      -5.922  -4.928   0.166  1.00  0.00     0.033 C 
HETATM   27  O18 UNL     1      -7.309  -3.199   1.076  1.00  0.00    -0.224 OA
HETATM   28  O1  UNL     1      -1.437  -2.412  -2.221  1.00  0.00    -0.224 OA
HETATM   29  C17 UNL     1       1.961  -3.111   2.463  1.00  0.00     0.009 C 
HETATM   30  C20 UNL     1       3.861  -5.127  -0.152  1.00  0.00     0.004 C 
HETATM   31  C19 UNL     1       3.789  -4.492   1.246  1.00  0.00     0.010 C 
BRANCH   6  32
HETATM   32  C22 UNL     1       2.654  -3.859  -1.992  1.00  0.00    -0.044 C 
HETATM   33  C23 UNL     1       1.578  -3.602  -2.752  1.00  0.00    -0.009 C 
HETATM   34  C24 UNL     1       3.943  -3.152  -2.311  1.00  0.00     0.026 C 
ENDBRANCH   6  32
ENDBRANCH   1   3
BRANCH   1  35
HETATM   35  O3  UNL     1       4.262  -1.770   0.906  1.00  0.00    -0.273 OA
BRANCH  35  36
HETATM   36  C26 UNL     1       4.348  -0.355   0.773  1.00  0.00     0.276 C 
HETATM   37  C27 UNL     1       5.445   0.186   1.734  1.00  0.00     0.241 C 
HETATM   38  O4  UNL     1       4.977   1.377   2.344  1.00  0.00    -0.215 OA
HETATM   39  C28 UNL     1       6.770   0.455   0.988  1.00  0.00     0.220 C 
HETATM   40  O5  UNL     1       7.760   0.980   1.855  1.00  0.00    -0.218 OA
HETATM   41  C29 UNL     1       6.543   1.395  -0.227  1.00  0.00     0.215 C 
HETATM   42  O6  UNL     1       7.539   1.129  -1.197  1.00  0.00    -0.218 OA
HETATM   43  C30 UNL     1       5.139   1.227  -0.879  1.00  0.00     0.180 C 
HETATM   44  O7  UNL     1       4.627  -0.074  -0.602  1.00  0.00    -0.326 OA
BRANCH  43  45
HETATM   45  C31 UNL     1       4.123   2.281  -0.416  1.00  0.00     0.177 C 
BRANCH  45  46
HETATM   46  O8  UNL     1       3.203   2.496  -1.463  1.00  0.00    -0.326 OA
BRANCH  46  47
HETATM   47  C32 UNL     1       2.191   3.426  -1.133  1.00  0.00     0.270 C 
HETATM   48  C33 UNL     1       1.117   3.469  -2.264  1.00  0.00     0.241 C 
HETATM   49  O9  UNL     1       0.174   2.443  -2.008  1.00  0.00    -0.215 OA
HETATM   50  C34 UNL     1       0.369   4.826  -2.342  1.00  0.00     0.217 C 
HETATM   51  O10 UNL     1       0.994   5.637  -3.324  1.00  0.00    -0.218 OA
HETATM   52  C35 UNL     1       0.436   5.529  -0.967  1.00  0.00     0.181 C 
HETATM   53  C42 UNL     1       1.891   5.709  -0.438  1.00  0.00     0.181 C 
HETATM   54  O16 UNL     1       2.764   4.715  -0.973  1.00  0.00    -0.326 OA
BRANCH  52  55
HETATM   55  O11 UNL     1      -0.273   6.756  -0.977  1.00  0.00    -0.326 OA
BRANCH  55  56
HETATM   56  C36 UNL     1      -1.656   6.600  -1.229  1.00  0.00     0.270 C 
HETATM   57  C37 UNL     1      -2.520   7.508  -0.313  1.00  0.00     0.241 C 
HETATM   58  O12 UNL     1      -2.186   7.295   1.049  1.00  0.00    -0.215 OA
HETATM   59  C38 UNL     1      -2.365   9.000  -0.691  1.00  0.00     0.220 C 
HETATM   60  O13 UNL     1      -3.236   9.817   0.076  1.00  0.00    -0.218 OA
HETATM   61  C39 UNL     1      -2.617   9.192  -2.205  1.00  0.00     0.212 C 
HETATM   62  O14 UNL     1      -3.988   8.996  -2.520  1.00  0.00    -0.218 OA
HETATM   63  C40 UNL     1      -1.752   8.207  -3.035  1.00  0.00     0.151 C 
HETATM   64  O15 UNL     1      -1.957   6.863  -2.600  1.00  0.00    -0.329 OA
HETATM   65  C41 UNL     1      -2.041   8.254  -4.539  1.00  0.00     0.035 C 
ENDBRANCH  55  56
ENDBRANCH  52  55
BRANCH  53  66
HETATM   66  C43 UNL     1       2.541   7.059  -0.770  1.00  0.00     0.214 C 
HETATM   67  O17 UNL     1       3.754   7.150  -0.057  1.00  0.00    -0.218 OA
ENDBRANCH  53  66
ENDBRANCH  46  47
ENDBRANCH  45  46
ENDBRANCH  43  45
ENDBRANCH  35  36
ENDBRANCH   1  35
TORSDOF 10
