REMARK  0 active torsions:
REMARK  status: ('A' for Active; 'I' for Inactive)
ROOT
HETATM    1  C1  UNL     1       2.746  -0.248   2.768  1.00  0.00    -0.000 C 
HETATM    2  C2  UNL     1       3.121   1.115   2.746  1.00  0.00     0.002 C 
HETATM    3  C3  UNL     1       2.684   1.941   1.691  1.00  0.00     0.017 C 
HETATM    4  C4  UNL     1       1.908   1.340   0.676  1.00  0.00     0.058 C 
HETATM    5  C5  UNL     1       1.684  -0.055   0.514  1.00  0.00    -0.001 C 
HETATM    6  C6  UNL     1       2.026  -0.809   1.682  1.00  0.00    -0.003 C 
HETATM    7  C7  UNL     1       1.170  -0.455  -0.934  1.00  0.00     0.096 C 
HETATM    8  C8  UNL     1       0.469   0.949  -1.187  1.00  0.00     0.099 C 
HETATM    9  N1  UNL     1       1.059   1.963  -0.334  1.00  0.00    -0.301 N 
HETATM   10  C9  UNL     1       0.506   3.256  -0.090  1.00  0.00     0.240 C 
HETATM   11  C10 UNL     1      -0.978   3.313  -0.502  1.00  0.00     0.118 C 
HETATM   12  C11 UNL     1      -1.611   2.055   0.182  1.00  0.00     0.133 C 
HETATM   13  C12 UNL     1      -0.922   0.828  -0.447  1.00  0.00     0.053 C 
HETATM   14  C13 UNL     1      -1.871  -0.232  -1.020  1.00  0.00     0.029 C 
HETATM   15  C14 UNL     1      -1.301  -0.873  -2.207  1.00  0.00     0.068 C 
HETATM   16  C15 UNL     1       0.057  -1.365  -1.703  1.00  0.00     0.320 C 
HETATM   17  O1  UNL     1       0.467  -1.754  -3.031  1.00  0.00    -0.192 OA
HETATM   18  N2  UNL     1      -0.094  -2.557  -0.932  1.00  0.00     0.165 N 
HETATM   19  C16 UNL     1       1.352  -2.844  -0.695  1.00  0.00     0.254 C 
HETATM   20  C17 UNL     1       2.227  -1.598  -1.160  1.00  0.00     0.046 C 
HETATM   21  C18 UNL     1      -1.138  -2.439   0.174  1.00  0.00     0.276 C 
HETATM   22  C19 UNL     1      -2.023  -1.162   0.135  1.00  0.00    -0.009 C 
HETATM   23  C20 UNL     1      -2.849  -0.682   1.100  1.00  0.00     0.020 C 
HETATM   24  C21 UNL     1      -3.484   0.746   1.106  1.00  0.00     0.116 C 
HETATM   25  O2  UNL     1      -3.027   1.836   0.236  1.00  0.00    -0.331 OA
HETATM   26  O3  UNL     1       1.092   4.152   0.471  1.00  0.00    -0.272 OA
ENDROOT
TORSDOF 0
