REMARK  2 active torsions:
REMARK  status: ('A' for Active; 'I' for Inactive)
REMARK    1  A    between atoms: C9_9  and  C10_10 
REMARK    2  A    between atoms: C10_10  and  O2_12 
ROOT
HETATM    1  C1  UNL     1       3.293   1.506  -1.158  1.00  0.00     0.003 C 
HETATM    2  C2  UNL     1       3.563   0.076  -0.625  1.00  0.00     0.010 C 
HETATM    3  C3  UNL     1       2.602  -0.289   0.527  1.00  0.00     0.081 C 
HETATM    4  C4  UNL     1       1.195  -0.242  -0.080  1.00  0.00     0.048 C 
HETATM    5  C5  UNL     1       1.027   1.287  -0.061  1.00  0.00     0.117 C 
HETATM    6  C6  UNL     1       1.791   1.856  -1.272  1.00  0.00     0.032 C 
HETATM    7  C7  UNL     1      -0.459   1.465  -0.027  1.00  0.00    -0.024 C 
HETATM    8  C8  UNL     1      -1.152   0.139   0.160  1.00  0.00     0.030 C 
HETATM    9  C9  UNL     1      -0.025  -0.746   0.726  1.00  0.00     0.093 C 
HETATM   10  C12 UNL     1      -2.408   0.342   1.031  1.00  0.00     0.009 C 
HETATM   11  C13 UNL     1      -3.254   1.197   0.068  1.00  0.00     0.023 C 
HETATM   12  C14 UNL     1      -2.650   2.617   0.012  1.00  0.00     0.029 C 
HETATM   13  C15 UNL     1      -1.137   2.627  -0.121  1.00  0.00    -0.032 C 
HETATM   14  C16 UNL     1      -3.045   0.471  -1.231  1.00  0.00    -0.044 C 
HETATM   15  C17 UNL     1      -1.777  -0.328  -1.172  1.00  0.00     0.026 C 
HETATM   16  C18 UNL     1      -3.875   0.522  -2.287  1.00  0.00    -0.009 C 
HETATM   17  O3  UNL     1       1.604   1.738   1.168  1.00  0.00    -0.303 OA
HETATM   18  C19 UNL     1       2.522   0.842   1.516  1.00  0.00     0.271 C 
HETATM   19  O4  UNL     1       3.215   0.904   2.504  1.00  0.00    -0.264 OA
HETATM   20  C20 UNL     1       2.906  -1.648   1.148  1.00  0.00     0.010 C 
ENDROOT
BRANCH   9  21
HETATM   21  C10 UNL     1      -0.256  -2.232   0.615  1.00  0.00     0.272 C 
HETATM   22  O1  UNL     1       0.102  -2.848  -0.363  1.00  0.00    -0.264 OA
BRANCH  21  23
HETATM   23  O2  UNL     1      -0.867  -2.791   1.656  1.00  0.00    -0.299 OA
HETATM   24  C11 UNL     1      -1.058  -4.187   1.488  1.00  0.00     0.184 C 
ENDBRANCH  21  23
ENDBRANCH   9  21
TORSDOF 2
