REMARK  19 active torsions:
REMARK  status: ('A' for Active; 'I' for Inactive)
REMARK    1  A    between atoms: C1_2  and  C2_3 
REMARK    2  A    between atoms: C1_2  and  C42_68 
REMARK    3  A    between atoms: C2_3  and  O2_4 
REMARK    4  A    between atoms: C2_3  and  C10_16 
REMARK    5  A    between atoms: C2_3  and  C35_57 
REMARK    6  A    between atoms: O2_4  and  C3_5 
REMARK    7  A    between atoms: C3_5  and  C4_6 
REMARK    8  A    between atoms: C10_16  and  O7_17 
REMARK    9  A    between atoms: C10_16  and  C18_29 
REMARK   10  A    between atoms: C10_16  and  C28_46 
REMARK   11  A    between atoms: O7_17  and  C11_18 
REMARK   12  A    between atoms: C11_18  and  C12_19 
REMARK   13  A    between atoms: C18_29  and  C19_31 
REMARK   14  A    between atoms: C18_29  and  C21_35 
REMARK   15  A    between atoms: C19_31  and  C20_33 
REMARK   16  A    between atoms: C21_35  and  C22_36 
REMARK   17  A    between atoms: C28_46  and  C29_47 
REMARK   18  A    between atoms: C35_57  and  C36_58 
REMARK   19  A    between atoms: C42_68  and  C43_69 
ROOT
HETATM    1  C10 UNL     1       0.811   0.787   0.436  1.00  0.00     0.227 C 
ENDROOT
BRANCH   1   2
HETATM    2  C2  UNL     1      -0.666   0.436   0.260  1.00  0.00     0.246 C 
BRANCH   2   3
HETATM    3  C1  UNL     1      -0.887  -1.043   0.074  1.00  0.00     0.246 C 
HETATM    4  O1  UNL     1      -0.869  -1.797   1.018  1.00  0.00    -0.285 OA
BRANCH   3   5
HETATM    5  C42 UNL     1      -1.125  -1.553  -1.281  1.00  0.00     0.233 C 
HETATM    6  O30 UNL     1      -0.652  -0.988  -2.240  1.00  0.00    -0.283 OA
BRANCH   5   7
HETATM    7  C43 UNL     1      -1.961  -2.779  -1.447  1.00  0.00     0.046 A 
HETATM    8  C44 UNL     1      -2.828  -2.898  -2.549  1.00  0.00     0.033 A 
HETATM    9  C45 UNL     1      -3.615  -4.051  -2.707  1.00  0.00     0.158 A 
HETATM   10  O27 UNL     1      -4.424  -4.156  -3.742  1.00  0.00    -0.188 OA
HETATM   11  C46 UNL     1      -3.535  -5.092  -1.762  1.00  0.00     0.181 A 
HETATM   12  O28 UNL     1      -4.274  -6.174  -1.908  1.00  0.00    -0.186 OA
HETATM   13  C47 UNL     1      -2.668  -4.975  -0.658  1.00  0.00     0.158 A 
HETATM   14  O29 UNL     1      -2.592  -5.945   0.230  1.00  0.00    -0.188 OA
HETATM   15  C48 UNL     1      -1.883  -3.818  -0.504  1.00  0.00     0.033 A 
ENDBRANCH   5   7
ENDBRANCH   3   5
ENDBRANCH   2   3
BRANCH   2  16
HETATM   16  O2  UNL     1      -1.190   1.137  -0.859  1.00  0.00    -0.285 OA
BRANCH  16  17
HETATM   17  C3  UNL     1      -2.484   0.897  -1.047  1.00  0.00     0.297 C 
HETATM   18  O6  UNL     1      -3.108   0.053  -0.445  1.00  0.00    -0.259 OA
BRANCH  17  19
HETATM   19  C4  UNL     1      -3.147   1.752  -2.076  1.00  0.00     0.067 A 
HETATM   20  C5  UNL     1      -2.607   3.008  -2.402  1.00  0.00     0.035 A 
HETATM   21  C6  UNL     1      -3.231   3.815  -3.371  1.00  0.00     0.158 A 
HETATM   22  O3  UNL     1      -2.719   4.992  -3.672  1.00  0.00    -0.188 OA
HETATM   23  C7  UNL     1      -4.397   3.363  -4.016  1.00  0.00     0.181 A 
HETATM   24  O4  UNL     1      -4.983   4.117  -4.924  1.00  0.00    -0.186 OA
HETATM   25  C8  UNL     1      -4.938   2.104  -3.691  1.00  0.00     0.158 A 
HETATM   26  O5  UNL     1      -6.029   1.678  -4.293  1.00  0.00    -0.188 OA
HETATM   27  C9  UNL     1      -4.313   1.301  -2.723  1.00  0.00     0.035 A 
ENDBRANCH  17  19
ENDBRANCH  16  17
ENDBRANCH   2  16
BRANCH   2  28
HETATM   28  C35 UNL     1      -1.482   0.760   1.482  1.00  0.00     0.208 C 
HETATM   29  O26 UNL     1      -1.496   0.018   2.436  1.00  0.00    -0.288 OA
BRANCH  28  30
HETATM   30  C36 UNL     1      -2.277   2.025   1.482  1.00  0.00     0.042 A 
HETATM   31  C37 UNL     1      -1.619   3.268   1.482  1.00  0.00     0.033 A 
HETATM   32  C38 UNL     1      -2.365   4.461   1.482  1.00  0.00     0.158 A 
HETATM   33  O23 UNL     1      -1.744   5.623   1.482  1.00  0.00    -0.188 OA
HETATM   34  C39 UNL     1      -3.772   4.410   1.482  1.00  0.00     0.181 A 
HETATM   35  O24 UNL     1      -4.471   5.527   1.482  1.00  0.00    -0.186 OA
HETATM   36  C40 UNL     1      -4.430   3.166   1.482  1.00  0.00     0.158 A 
HETATM   37  O25 UNL     1      -5.748   3.113   1.482  1.00  0.00    -0.188 OA
HETATM   38  C41 UNL     1      -3.682   1.977   1.482  1.00  0.00     0.033 A 
ENDBRANCH  28  30
ENDBRANCH   2  28
ENDBRANCH   1   2
BRANCH   1  39
HETATM   39  O7  UNL     1       1.580  -0.406   0.473  1.00  0.00    -0.289 OA
BRANCH  39  40
HETATM   40  C11 UNL     1       2.602  -0.324   1.320  1.00  0.00     0.296 C 
HETATM   41  O11 UNL     1       3.123   0.715   1.646  1.00  0.00    -0.259 OA
BRANCH  40  42
HETATM   42  C12 UNL     1       3.084  -1.631   1.863  1.00  0.00     0.067 A 
HETATM   43  C13 UNL     1       2.459  -2.828   1.477  1.00  0.00     0.035 A 
HETATM   44  C14 UNL     1       2.910  -4.059   1.986  1.00  0.00     0.158 A 
HETATM   45  O8  UNL     1       2.320  -5.178   1.619  1.00  0.00    -0.188 OA
HETATM   46  C15 UNL     1       3.990  -4.090   2.889  1.00  0.00     0.181 A 
HETATM   47  O9  UNL     1       4.416  -5.242   3.367  1.00  0.00    -0.186 OA
HETATM   48  C16 UNL     1       4.617  -2.891   3.277  1.00  0.00     0.158 A 
HETATM   49  O10 UNL     1       5.631  -2.914   4.121  1.00  0.00    -0.188 OA
HETATM   50  C17 UNL     1       4.162  -1.664   2.764  1.00  0.00     0.035 A 
ENDBRANCH  40  42
ENDBRANCH  39  40
ENDBRANCH   1  39
BRANCH   1  51
HETATM   51  C18 UNL     1       1.338   1.699  -0.674  1.00  0.00     0.244 C 
HETATM   52  O12 UNL     1       0.627   2.914  -0.617  1.00  0.00    -0.212 OA
BRANCH  51  53
HETATM   53  C19 UNL     1       2.828   2.006  -0.525  1.00  0.00     0.223 C 
HETATM   54  O13 UNL     1       3.545   0.805  -0.693  1.00  0.00    -0.217 OA
BRANCH  53  55
HETATM   55  C20 UNL     1       3.328   3.010  -1.565  1.00  0.00     0.218 C 
HETATM   56  O14 UNL     1       4.662   2.690  -1.883  1.00  0.00    -0.218 OA
ENDBRANCH  53  55
ENDBRANCH  51  53
BRANCH  51  57
HETATM   57  C21 UNL     1       1.182   1.088  -2.041  1.00  0.00     0.206 C 
HETATM   58  O18 UNL     1       0.281   1.424  -2.774  1.00  0.00    -0.289 OA
BRANCH  57  59
HETATM   59  C22 UNL     1       2.172   0.055  -2.467  1.00  0.00     0.042 A 
HETATM   60  C23 UNL     1       2.090  -1.254  -1.957  1.00  0.00     0.033 A 
HETATM   61  C24 UNL     1       3.021  -2.227  -2.357  1.00  0.00     0.158 A 
HETATM   62  O15 UNL     1       2.938  -3.451  -1.877  1.00  0.00    -0.188 OA
HETATM   63  C25 UNL     1       4.039  -1.893  -3.270  1.00  0.00     0.181 A 
HETATM   64  O16 UNL     1       4.914  -2.805  -3.645  1.00  0.00    -0.186 OA
HETATM   65  C26 UNL     1       4.123  -0.582  -3.779  1.00  0.00     0.158 A 
HETATM   66  O17 UNL     1       5.076  -0.264  -4.633  1.00  0.00    -0.188 OA
HETATM   67  C27 UNL     1       3.189   0.389  -3.377  1.00  0.00     0.033 A 
ENDBRANCH  57  59
ENDBRANCH  51  57
ENDBRANCH   1  51
BRANCH   1  68
HETATM   68  C28 UNL     1       1.066   1.586   1.686  1.00  0.00     0.204 C 
HETATM   69  O22 UNL     1       1.348   2.760   1.627  1.00  0.00    -0.289 OA
BRANCH  68  70
HETATM   70  C29 UNL     1       0.963   0.887   3.002  1.00  0.00     0.042 A 
HETATM   71  C30 UNL     1       0.723  -0.498   3.047  1.00  0.00     0.033 A 
HETATM   72  C31 UNL     1       0.625  -1.158   4.283  1.00  0.00     0.158 A 
HETATM   73  O19 UNL     1       0.398  -2.455   4.320  1.00  0.00    -0.188 OA
HETATM   74  C32 UNL     1       0.770  -0.430   5.481  1.00  0.00     0.181 A 
HETATM   75  O20 UNL     1       0.678  -1.047   6.643  1.00  0.00    -0.186 OA
HETATM   76  C33 UNL     1       1.010   0.955   5.438  1.00  0.00     0.158 A 
HETATM   77  O21 UNL     1       1.146   1.641   6.555  1.00  0.00    -0.188 OA
HETATM   78  C34 UNL     1       1.107   1.611   4.197  1.00  0.00     0.033 A 
ENDBRANCH  68  70
ENDBRANCH   1  68
TORSDOF 19
