REMARK  4 active torsions:
REMARK  status: ('A' for Active; 'I' for Inactive)
REMARK    1  A    between atoms: C11_12  and  O7_32 
REMARK    2  A    between atoms: C17_18  and  C18_20 
REMARK    3  A    between atoms: C20_22  and  O5_29 
REMARK    4  A    between atoms: C22_24  and  O3_26 
ROOT
HETATM    1  C1  UNL     1      -6.820  -0.715   0.426  1.00  0.00     0.027 A 
HETATM    2  C2  UNL     1      -5.434  -0.947   0.285  1.00  0.00     0.002 A 
HETATM    3  C3  UNL     1      -4.484   0.064   0.621  1.00  0.00    -0.002 A 
HETATM    4  C4  UNL     1      -4.975   1.332   1.064  1.00  0.00    -0.020 A 
HETATM    5  C5  UNL     1      -6.367   1.559   1.193  1.00  0.00     0.023 A 
HETATM    6  C6  UNL     1      -7.289   0.537   0.879  1.00  0.00     0.131 A 
HETATM    7  O1  UNL     1      -8.606   0.756   1.010  1.00  0.00    -0.190 OA
HETATM    8  C7  UNL     1      -4.020   2.414   1.398  1.00  0.00     0.031 C 
HETATM    9  C8  UNL     1      -2.764   2.365   0.510  1.00  0.00     0.031 C 
HETATM   10  C9  UNL     1      -2.156   1.006   0.445  1.00  0.00    -0.022 A 
HETATM   11  C10 UNL     1      -3.010  -0.145   0.516  1.00  0.00     0.018 A 
HETATM   12  C11 UNL     1      -2.410  -1.443   0.490  1.00  0.00     0.096 A 
HETATM   13  C12 UNL     1      -1.014  -1.584   0.357  1.00  0.00     0.048 A 
HETATM   14  C13 UNL     1      -0.178  -0.453   0.273  1.00  0.00     0.092 A 
HETATM   15  C14 UNL     1      -0.742   0.852   0.309  1.00  0.00    -0.001 A 
HETATM   16  C15 UNL     1       0.156   2.033   0.201  1.00  0.00     0.064 C 
HETATM   17  C16 UNL     1       1.547   1.678  -0.361  1.00  0.00     0.188 C 
HETATM   18  C17 UNL     1       2.090   0.408   0.328  1.00  0.00     0.174 C 
HETATM   19  O2  UNL     1       1.152  -0.660   0.156  1.00  0.00    -0.327 OA
HETATM   20  O6  UNL     1       2.416   2.775  -0.143  1.00  0.00    -0.220 OA
ENDROOT
BRANCH  18  21
HETATM   21  C18 UNL     1       3.404  -0.041  -0.201  1.00  0.00     0.012 A 
HETATM   22  C19 UNL     1       3.494  -0.582  -1.496  1.00  0.00     0.025 A 
HETATM   23  C20 UNL     1       4.736  -1.008  -1.998  1.00  0.00     0.121 A 
HETATM   24  C21 UNL     1       5.893  -0.891  -1.203  1.00  0.00     0.175 A 
HETATM   25  C22 UNL     1       5.803  -0.348   0.094  1.00  0.00     0.121 A 
HETATM   26  O4  UNL     1       7.059  -1.289  -1.672  1.00  0.00    -0.186 OA
HETATM   27  C23 UNL     1       4.559   0.076   0.592  1.00  0.00     0.025 A 
BRANCH  23  28
HETATM   28  O5  UNL     1       4.815  -1.516  -3.211  1.00  0.00    -0.326 OA
HETATM   29  C25 UNL     1       3.606  -1.725  -3.926  1.00  0.00     0.181 C 
ENDBRANCH  23  28
BRANCH  25  30
HETATM   30  O3  UNL     1       6.883  -0.236   0.842  1.00  0.00    -0.326 OA
HETATM   31  C24 UNL     1       6.738   0.318   2.141  1.00  0.00     0.181 C 
ENDBRANCH  25  30
ENDBRANCH  18  21
BRANCH  12  32
HETATM   32  O7  UNL     1      -3.123  -2.572   0.615  1.00  0.00    -0.328 OA
HETATM   33  C26 UNL     1      -2.568  -3.772   0.092  1.00  0.00     0.181 C 
ENDBRANCH  12  32
TORSDOF 4
