REMARK  4 active torsions:
REMARK  status: ('A' for Active; 'I' for Inactive)
REMARK    1  A    between atoms: C3_3  and  C31_32 
REMARK    2  A    between atoms: C23_23  and  C26_26 
REMARK    3  A    between atoms: C31_32  and  C32_33 
REMARK    4  A    between atoms: C33_34  and  C34_35 
ROOT
HETATM    1  C1  UNL     1       2.107  -1.201  -1.332  1.00  0.00     0.004 C 
HETATM    2  C2  UNL     1       3.627  -1.137  -1.125  1.00  0.00     0.008 C 
HETATM    3  C3  UNL     1       4.008  -0.254   0.072  1.00  0.00     0.062 C 
HETATM    4  C4  UNL     1       3.307  -0.727   1.367  1.00  0.00     0.007 C 
HETATM    5  C5  UNL     1       1.770  -0.803   1.135  1.00  0.00     0.009 C 
HETATM    6  C6  UNL     1       1.344  -1.688  -0.072  1.00  0.00     0.019 C 
HETATM    7  C7  UNL     1      -0.182  -1.643  -0.227  1.00  0.00    -0.031 C 
HETATM    8  C8  UNL     1      -1.043  -1.424   0.977  1.00  0.00    -0.031 C 
HETATM    9  C9  UNL     1      -0.486  -1.225   2.193  1.00  0.00    -0.031 C 
HETATM   10  C10 UNL     1       1.006  -1.219   2.402  1.00  0.00     0.026 C 
HETATM   11  C11 UNL     1      -2.568  -1.451   0.811  1.00  0.00     0.019 C 
HETATM   12  C12 UNL     1      -2.977  -0.904  -0.596  1.00  0.00     0.007 C 
HETATM   13  C13 UNL     1      -2.238  -1.754  -1.660  1.00  0.00     0.026 C 
HETATM   14  C14 UNL     1      -0.744  -1.813  -1.445  1.00  0.00    -0.031 C 
HETATM   15  C15 UNL     1      -2.508   0.557  -0.732  1.00  0.00     0.001 C 
HETATM   16  C16 UNL     1      -4.525  -0.979  -0.826  1.00  0.00     0.001 C 
HETATM   17  C17 UNL     1      -5.379  -0.365   0.326  1.00  0.00     0.000 C 
HETATM   18  C18 UNL     1      -4.859  -0.795   1.713  1.00  0.00     0.000 C 
HETATM   19  C19 UNL     1      -3.344  -0.660   1.891  1.00  0.00     0.004 C 
HETATM   20  C20 UNL     1      -6.811  -0.918   0.252  1.00  0.00     0.000 C 
HETATM   21  C21 UNL     1      -5.436   1.180   0.236  1.00  0.00     0.000 C 
HETATM   22  C22 UNL     1      -5.537   1.764  -1.191  1.00  0.00     0.003 C 
HETATM   23  C23 UNL     1      -5.916   0.752  -2.285  1.00  0.00     0.031 C 
HETATM   24  C24 UNL     1      -4.947  -0.453  -2.238  1.00  0.00     0.003 C 
HETATM   25  C25 UNL     1      -7.379   0.312  -2.154  1.00  0.00     0.003 C 
HETATM   26  C27 UNL     1      -2.941  -2.938   0.943  1.00  0.00     0.004 C 
HETATM   27  C28 UNL     1       1.682  -3.166   0.176  1.00  0.00     0.004 C 
HETATM   28  C29 UNL     1       3.604   0.287   2.483  1.00  0.00     0.001 C 
HETATM   29  C30 UNL     1       3.863  -2.086   1.815  1.00  0.00     0.001 C 
ENDROOT
BRANCH   3  30
HETATM   30  C31 UNL     1       5.512  -0.182   0.219  1.00  0.00     0.173 C 
HETATM   31  O3  UNL     1       6.184  -1.186   0.250  1.00  0.00    -0.291 OA
BRANCH  30  32
HETATM   32  C32 UNL     1       6.145   1.141   0.324  1.00  0.00     0.037 C 
HETATM   33  C33 UNL     1       7.467   1.252   0.524  1.00  0.00     0.003 C 
BRANCH  33  34
HETATM   34  C34 UNL     1       8.065   2.615   0.623  1.00  0.00     0.000 A 
HETATM   35  C35 UNL     1       9.250   2.814   1.354  1.00  0.00     0.002 A 
HETATM   36  C36 UNL     1       9.813   4.100   1.445  1.00  0.00     0.027 A 
HETATM   37  C37 UNL     1       9.192   5.191   0.813  1.00  0.00     0.131 A 
HETATM   38  C38 UNL     1       8.006   4.990   0.084  1.00  0.00     0.027 A 
HETATM   39  O2  UNL     1       9.719   6.395   0.900  1.00  0.00    -0.190 OA
HETATM   40  C39 UNL     1       7.442   3.705  -0.010  1.00  0.00     0.002 A 
ENDBRANCH  33  34
ENDBRANCH  30  32
ENDBRANCH   3  30
BRANCH  23  41
HETATM   41  C26 UNL     1      -5.801   1.437  -3.654  1.00  0.00     0.182 C 
HETATM   42  O1  UNL     1      -5.781   0.437  -4.648  1.00  0.00    -0.221 OA
ENDBRANCH  23  41
TORSDOF 4
