REMARK  1 active torsions:
REMARK  status: ('A' for Active; 'I' for Inactive)
REMARK    1  A    between atoms: C14_17  and  C18_24 
ROOT
HETATM    1  C1  UNL     1      -3.703  -1.232  -0.916  1.00  0.00     0.204 C 
HETATM    2  C2  UNL     1      -3.631  -2.324   0.129  1.00  0.00     0.000 C 
HETATM    3  C3  UNL     1      -2.444  -2.656   0.664  1.00  0.00    -0.046 C 
HETATM    4  C4  UNL     1      -1.205  -1.893   0.225  1.00  0.00     0.023 C 
HETATM    5  C5  UNL     1      -1.488  -0.369   0.270  1.00  0.00     0.037 C 
HETATM    6  C6  UNL     1      -2.711  -0.051  -0.674  1.00  0.00     0.187 C 
HETATM    7  O1  UNL     1      -3.451   1.055  -0.186  1.00  0.00    -0.220 OA
HETATM    8  C7  UNL     1      -0.213   0.412  -0.221  1.00  0.00     0.043 C 
HETATM    9  C8  UNL     1       1.139  -0.041   0.434  1.00  0.00     0.087 C 
HETATM   10  C9  UNL     1       1.297  -1.582   0.410  1.00  0.00     0.129 C 
HETATM   11  C10 UNL     1       0.066  -2.258   1.016  1.00  0.00     0.035 C 
HETATM   12  O2  UNL     1       1.469  -2.107  -0.916  1.00  0.00    -0.302 OA
HETATM   13  C11 UNL     1       2.168  -1.436  -1.854  1.00  0.00     0.305 C 
HETATM   14  C12 UNL     1       2.402   0.061  -1.744  1.00  0.00     0.268 C 
HETATM   15  C13 UNL     1       2.402   0.531  -0.273  1.00  0.00     0.196 C 
HETATM   16  O3  UNL     1       3.613   0.035   0.322  1.00  0.00    -0.220 OA
HETATM   17  C14 UNL     1       2.207   2.012   0.146  1.00  0.00     0.182 C 
HETATM   18  C15 UNL     1       0.988   2.715  -0.510  1.00  0.00     0.212 C 
HETATM   19  C16 UNL     1      -0.356   1.969  -0.287  1.00  0.00     0.185 C 
HETATM   20  O4  UNL     1      -0.938   2.490   0.895  1.00  0.00    -0.221 OA
HETATM   21  O5  UNL     1       1.209   2.895  -1.897  1.00  0.00    -0.218 OA
HETATM   22  O6  UNL     1       1.910   1.891   1.531  1.00  0.00    -0.351 OA
HETATM   23  C17 UNL     1       1.328   0.629   1.814  1.00  0.00     0.147 C 
HETATM   24  O8  UNL     1       3.590   0.463  -2.410  1.00  0.00    -0.210 OA
HETATM   25  O9  UNL     1       2.603  -2.022  -2.818  1.00  0.00    -0.261 OA
HETATM   26  C19 UNL     1      -1.828  -0.045   1.742  1.00  0.00     0.003 C 
HETATM   27  C20 UNL     1      -2.346  -3.760   1.688  1.00  0.00     0.026 C 
HETATM   28  O10 UNL     1      -3.422  -1.822  -2.170  1.00  0.00    -0.216 OA
ENDROOT
BRANCH  17  29
HETATM   29  C18 UNL     1       3.473   2.863   0.018  1.00  0.00     0.214 C 
HETATM   30  O7  UNL     1       3.180   4.164   0.475  1.00  0.00    -0.218 OA
ENDBRANCH  17  29
TORSDOF 1
