REMARK  8 active torsions:
REMARK  status: ('A' for Active; 'I' for Inactive)
REMARK    1  A    between atoms: C1_1  and  C19_21 
REMARK    2  A    between atoms: C3_3  and  C16_17 
REMARK    3  A    between atoms: C5_5  and  C7_7 
REMARK    4  A    between atoms: C9_9  and  C13_14 
REMARK    5  A    between atoms: C13_14  and  C14_15 
REMARK    6  A    between atoms: C16_17  and  C17_18 
REMARK    7  A    between atoms: C21_23  and  C25_28 
REMARK    8  A    between atoms: C25_28  and  C26_29 
ROOT
HETATM    1  C1  UNL     1      -0.260   1.057  -0.139  1.00  0.00     0.027 A 
HETATM    2  C2  UNL     1      -0.254   1.900   0.992  1.00  0.00     0.127 A 
HETATM    3  C3  UNL     1       0.516   1.551   2.117  1.00  0.00     0.008 A 
HETATM    4  C4  UNL     1       1.277   0.369   2.117  1.00  0.00    -0.002 A 
HETATM    5  C5  UNL     1       1.271  -0.473   0.990  1.00  0.00     0.002 A 
HETATM    6  C6  UNL     1       0.502  -0.127  -0.137  1.00  0.00     0.002 A 
HETATM    7  O2  UNL     1      -0.965   3.014   1.004  1.00  0.00    -0.191 OA
ENDROOT
BRANCH   1   8
HETATM    8  C19 UNL     1      -1.049   1.397  -1.315  1.00  0.00     0.027 A 
HETATM    9  C20 UNL     1      -2.455   1.342  -1.246  1.00  0.00    -0.002 A 
HETATM   10  C21 UNL     1      -3.231   1.668  -2.373  1.00  0.00    -0.018 A 
HETATM   11  C22 UNL     1      -2.604   2.049  -3.570  1.00  0.00    -0.002 A 
HETATM   12  C23 UNL     1      -1.203   2.106  -3.641  1.00  0.00     0.027 A 
HETATM   13  C24 UNL     1      -0.420   1.781  -2.520  1.00  0.00     0.131 A 
HETATM   14  O3  UNL     1       0.896   1.842  -2.610  1.00  0.00    -0.190 OA
BRANCH  10  15
HETATM   15  C25 UNL     1      -4.715   1.607  -2.295  1.00  0.00     0.052 C 
BRANCH  15  16
HETATM   16  C26 UNL     1      -5.281   2.697  -1.428  1.00  0.00    -0.021 C 
HETATM   17  C27 UNL     1      -5.082   3.975  -1.791  1.00  0.00    -0.005 C 
ENDBRANCH  15  16
ENDBRANCH  10  15
ENDBRANCH   1   8
BRANCH   3  18
HETATM   18  C16 UNL     1       0.533   2.432   3.318  1.00  0.00     0.054 C 
BRANCH  18  19
HETATM   19  C17 UNL     1       1.785   3.264   3.394  1.00  0.00    -0.021 C 
HETATM   20  C18 UNL     1       1.988   4.201   2.455  1.00  0.00    -0.005 C 
ENDBRANCH  18  19
ENDBRANCH   3  18
BRANCH   5  21
HETATM   21  C7  UNL     1       2.061  -1.699   0.990  1.00  0.00     0.025 A 
HETATM   22  C8  UNL     1       1.402  -2.945   0.990  1.00  0.00    -0.002 A 
HETATM   23  C9  UNL     1       2.148  -4.137   0.990  1.00  0.00    -0.018 A 
HETATM   24  C10 UNL     1       3.553  -4.084   0.990  1.00  0.00    -0.002 A 
HETATM   25  C11 UNL     1       4.211  -2.844   0.990  1.00  0.00     0.027 A 
HETATM   26  C12 UNL     1       3.471  -1.647   0.990  1.00  0.00     0.131 A 
HETATM   27  O1  UNL     1       4.109  -0.492   0.990  1.00  0.00    -0.190 OA
BRANCH  23  28
HETATM   28  C13 UNL     1       1.453  -5.449   0.990  1.00  0.00     0.052 C 
BRANCH  28  29
HETATM   29  C14 UNL     1       1.086  -5.897  -0.401  1.00  0.00    -0.021 C 
HETATM   30  C15 UNL     1       0.816  -7.197  -0.606  1.00  0.00    -0.005 C 
ENDBRANCH  28  29
ENDBRANCH  23  28
ENDBRANCH   5  21
TORSDOF 8
