REMARK  2 active torsions:
REMARK  status: ('A' for Active; 'I' for Inactive)
REMARK    1  A    between atoms: C19_19  and  C22_22 
REMARK    2  A    between atoms: C22_22  and  C24_24 
ROOT
HETATM    1  C1  UNL     1       4.914   0.221  -2.647  1.00  0.00     0.000 C 
HETATM    2  C2  UNL     1       5.854  -0.332  -1.576  1.00  0.00     0.000 C 
HETATM    3  C3  UNL     1       5.414   0.072  -0.150  1.00  0.00     0.000 C 
HETATM    4  C4  UNL     1       3.867   0.285  -0.064  1.00  0.00     0.000 C 
HETATM    5  C5  UNL     1       3.055  -0.623  -1.025  1.00  0.00     0.000 C 
HETATM    6  C6  UNL     1       3.496  -0.351  -2.494  1.00  0.00     0.000 C 
HETATM    7  C7  UNL     1       1.529  -0.318  -0.897  1.00  0.00     0.000 C 
HETATM    8  C8  UNL     1       0.969  -0.334   0.561  1.00  0.00     0.000 C 
HETATM    9  C9  UNL     1       1.852   0.563   1.463  1.00  0.00     0.000 C 
HETATM   10  C10 UNL     1       3.340   0.215   1.381  1.00  0.00     0.000 C 
HETATM   11  C11 UNL     1      -0.518   0.172   0.555  1.00  0.00     0.000 C 
HETATM   12  C12 UNL     1      -1.373  -0.725  -0.395  1.00  0.00     0.000 C 
HETATM   13  C13 UNL     1      -0.805  -0.771  -1.822  1.00  0.00     0.000 C 
HETATM   14  C14 UNL     1       0.668  -1.195  -1.832  1.00  0.00     0.000 C 
HETATM   15  C15 UNL     1      -2.857  -0.299  -0.395  1.00  0.00     0.000 C 
HETATM   16  C16 UNL     1      -3.385  -0.432   1.039  1.00  0.00     0.000 C 
HETATM   17  C17 UNL     1      -2.643   0.504   1.996  1.00  0.00     0.000 C 
HETATM   18  C18 UNL     1      -1.145   0.145   1.975  1.00  0.00     0.000 C 
HETATM   19  C19 UNL     1      -4.906  -0.291   0.910  1.00  0.00     0.003 C 
HETATM   20  C20 UNL     1      -5.188  -0.891  -0.479  1.00  0.00     0.000 C 
HETATM   21  C21 UNL     1      -3.826  -1.273  -1.066  1.00  0.00     0.000 C 
HETATM   22  C25 UNL     1      -3.098   1.084  -1.012  1.00  0.00     0.000 C 
HETATM   23  C26 UNL     1      -0.543   1.633   0.066  1.00  0.00     0.000 C 
HETATM   24  C27 UNL     1       1.027  -1.766   1.121  1.00  0.00     0.000 C 
HETATM   25  C28 UNL     1       3.338  -2.096  -0.686  1.00  0.00     0.000 C 
HETATM   26  C29 UNL     1       5.895  -1.014   0.824  1.00  0.00     0.000 C 
HETATM   27  C30 UNL     1       6.108   1.385   0.240  1.00  0.00     0.000 C 
ENDROOT
BRANCH  19  28
HETATM   28  C22 UNL     1      -5.385   1.156   0.986  1.00  0.00     0.033 C 
HETATM   29  C23 UNL     1      -5.617   1.539   2.449  1.00  0.00     0.003 C 
BRANCH  28  30
HETATM   30  C24 UNL     1      -6.637   1.326   0.127  1.00  0.00     0.182 C 
HETATM   31  O1  UNL     1      -7.328   2.471   0.574  1.00  0.00    -0.221 OA
ENDBRANCH  28  30
ENDBRANCH  19  28
TORSDOF 2
