REMARK  3 active torsions:
REMARK  status: ('A' for Active; 'I' for Inactive)
REMARK    1  A    between atoms: C2_2  and  C21_24 
REMARK    2  A    between atoms: C4_4  and  C7_7 
REMARK    3  A    between atoms: C21_24  and  C22_25 
ROOT
HETATM    1  C7  UNL     1      -0.227  -0.443   0.354  1.00  0.00     0.059 C 
HETATM    2  C8  UNL     1       0.273   0.891   0.947  1.00  0.00     0.035 C 
HETATM    3  C9  UNL     1       1.752   1.004   0.912  1.00  0.00     0.001 A 
HETATM    4  C10 UNL     1       2.559  -0.162   0.754  1.00  0.00     0.092 A 
HETATM    5  C11 UNL     1       3.971  -0.029   0.717  1.00  0.00     0.044 A 
HETATM    6  C12 UNL     1       4.842  -1.215   0.527  1.00  0.00     0.002 C 
HETATM    7  C13 UNL     1       6.178  -1.082   0.637  1.00  0.00     0.001 C 
HETATM    8  C14 UNL     1       6.795   0.244   1.043  1.00  0.00     0.117 C 
HETATM    9  O1  UNL     1       5.926   1.369   0.814  1.00  0.00    -0.332 OA
HETATM   10  C15 UNL     1       4.580   1.244   0.850  1.00  0.00     0.096 A 
HETATM   11  C16 UNL     1       3.775   2.395   1.002  1.00  0.00     0.024 A 
HETATM   12  C17 UNL     1       2.367   2.275   1.037  1.00  0.00    -0.000 A 
HETATM   13  C18 UNL     1       7.108   0.197   2.541  1.00  0.00     0.035 C 
HETATM   14  C19 UNL     1       8.082   0.490   0.252  1.00  0.00     0.035 C 
HETATM   15  O2  UNL     1       2.002  -1.389   0.631  1.00  0.00    -0.331 OA
HETATM   16  C20 UNL     1       0.615  -1.600   0.920  1.00  0.00     0.153 C 
ENDROOT
BRANCH   1  17
HETATM   17  C4  UNL     1      -1.682  -0.648   0.605  1.00  0.00     0.005 A 
HETATM   18  C3  UNL     1      -2.588  -0.703  -0.471  1.00  0.00     0.125 A 
HETATM   19  C2  UNL     1      -3.961  -0.896  -0.217  1.00  0.00     0.033 A 
HETATM   20  O3  UNL     1      -2.154  -0.572  -1.709  1.00  0.00    -0.191 OA
HETATM   21  C1  UNL     1      -4.424  -1.037   1.105  1.00  0.00     0.129 A 
HETATM   22  C6  UNL     1      -3.512  -0.982   2.174  1.00  0.00     0.027 A 
HETATM   23  O4  UNL     1      -5.707  -1.219   1.350  1.00  0.00    -0.190 OA
HETATM   24  C5  UNL     1      -2.145  -0.789   1.926  1.00  0.00    -0.000 A 
BRANCH  19  25
HETATM   25  C21 UNL     1      -4.924  -0.955  -1.352  1.00  0.00     0.056 C 
BRANCH  25  26
HETATM   26  C22 UNL     1      -5.475   0.404  -1.695  1.00  0.00    -0.030 C 
HETATM   27  C23 UNL     1      -6.141   0.549  -2.854  1.00  0.00    -0.048 C 
HETATM   28  C24 UNL     1      -6.352  -0.664  -3.719  1.00  0.00     0.026 C 
HETATM   29  C25 UNL     1      -6.639   1.920  -3.227  1.00  0.00     0.026 C 
ENDBRANCH  25  26
ENDBRANCH  19  25
ENDBRANCH   1  17
TORSDOF 3
