REMARK  1 active torsions:
REMARK  status: ('A' for Active; 'I' for Inactive)
REMARK    1  A    between atoms: C12_14  and  C16_18 
ROOT
HETATM    1  C1  UNL     1       3.252   1.740  -0.605  1.00  0.00     0.000 C 
HETATM    2  C2  UNL     1       3.801   0.602   0.270  1.00  0.00     0.000 C 
HETATM    3  C3  UNL     1       2.781  -0.531   0.539  1.00  0.00     0.003 C 
HETATM    4  C4  UNL     1       1.856  -0.734  -0.697  1.00  0.00     0.037 C 
HETATM    5  C5  UNL     1       1.025   0.555  -1.074  1.00  0.00     0.017 C 
HETATM    6  C6  UNL     1       1.727   1.834  -0.535  1.00  0.00     0.004 C 
HETATM    7  C7  UNL     1      -0.439   0.479  -0.631  1.00  0.00    -0.048 C 
HETATM    8  C8  UNL     1      -1.109  -0.701  -0.666  1.00  0.00     0.010 C 
HETATM    9  C9  UNL     1      -0.375  -1.891  -1.275  1.00  0.00     0.203 C 
HETATM   10  C10 UNL     1       0.994  -2.029  -0.580  1.00  0.00     0.186 C 
HETATM   11  O1  UNL     1       1.717  -3.125  -1.125  1.00  0.00    -0.220 OA
HETATM   12  O2  UNL     1      -1.098  -3.107  -1.217  1.00  0.00    -0.216 OA
HETATM   13  C11 UNL     1      -2.547  -0.832  -0.145  1.00  0.00     0.176 C 
HETATM   14  C12 UNL     1      -3.152   0.434   0.529  1.00  0.00     0.051 C 
HETATM   15  C13 UNL     1      -2.660   1.672  -0.227  1.00  0.00     0.011 C 
HETATM   16  C14 UNL     1      -1.129   1.758  -0.186  1.00  0.00     0.022 C 
HETATM   17  C15 UNL     1      -4.686   0.377   0.484  1.00  0.00     0.007 C 
HETATM   18  O3  UNL     1      -2.678  -1.924   0.752  1.00  0.00    -0.218 OA
HETATM   19  C18 UNL     1       0.969   0.674  -2.607  1.00  0.00     0.004 C 
HETATM   20  C19 UNL     1       1.934  -0.199   1.775  1.00  0.00     0.000 C 
HETATM   21  C20 UNL     1       3.570  -1.811   0.855  1.00  0.00     0.000 C 
ENDROOT
BRANCH  14  22
HETATM   22  C16 UNL     1      -2.764   0.580   1.986  1.00  0.00    -0.024 C 
HETATM   23  C17 UNL     1      -3.336   1.559   2.707  1.00  0.00    -0.005 C 
ENDBRANCH  14  22
TORSDOF 1
