REMARK  7 active torsions:
REMARK  status: ('A' for Active; 'I' for Inactive)
REMARK    1  A    between atoms: C1_1  and  C17_19 
REMARK    2  A    between atoms: C4_4  and  O1_7 
REMARK    3  A    between atoms: O1_7  and  C7_8 
REMARK    4  A    between atoms: C7_8  and  C8_9 
REMARK    5  A    between atoms: C7_8  and  C14_15 
REMARK    6  A    between atoms: C14_15  and  C15_16 
REMARK    7  A    between atoms: C15_16  and  N1_17 
ROOT
HETATM    1  O1  UNL     1       0.875   0.455   0.029  1.00  0.00    -0.329 OA
ENDROOT
BRANCH   1   2
HETATM    2  C4  UNL     1       0.567   0.133   1.267  1.00  0.00     0.094 A 
HETATM    3  C3  UNL     1       1.543  -0.414   2.121  1.00  0.00     0.024 A 
HETATM    4  C2  UNL     1       1.213  -0.758   3.443  1.00  0.00     0.006 A 
HETATM    5  C1  UNL     1      -0.096  -0.559   3.916  1.00  0.00     0.072 A 
HETATM    6  C6  UNL     1      -1.074  -0.014   3.066  1.00  0.00     0.006 A 
HETATM    7  C5  UNL     1      -0.742   0.330   1.744  1.00  0.00     0.024 A 
BRANCH   5   8
HETATM    8  C17 UNL     1      -0.445  -0.924   5.314  1.00  0.00     0.419 C 
HETATM    9  F1  UNL     1      -1.766  -0.641   5.545  1.00  0.00    -0.166 F 
HETATM   10  F2  UNL     1       0.334  -0.203   6.183  1.00  0.00    -0.166 F 
HETATM   11  F3  UNL     1      -0.225  -2.264   5.506  1.00  0.00    -0.166 F 
ENDBRANCH   5   8
ENDBRANCH   1   2
BRANCH   1  12
HETATM   12  C7  UNL     1      -0.166   0.473  -0.936  1.00  0.00     0.146 C 
BRANCH  12  13
HETATM   13  C8  UNL     1      -0.863  -0.842  -0.936  1.00  0.00     0.005 A 
HETATM   14  C9  UNL     1      -2.268  -0.894  -0.936  1.00  0.00    -0.002 A 
HETATM   15  C10 UNL     1      -2.926  -2.137  -0.936  1.00  0.00    -0.000 A 
HETATM   16  C11 UNL     1      -2.180  -3.326  -0.936  1.00  0.00    -0.000 A 
HETATM   17  C12 UNL     1      -0.775  -3.275  -0.936  1.00  0.00    -0.000 A 
HETATM   18  C13 UNL     1      -0.115  -2.033  -0.936  1.00  0.00    -0.002 A 
ENDBRANCH  12  13
BRANCH  12  19
HETATM   19  C14 UNL     1       0.418   0.799  -2.311  1.00  0.00     0.073 C 
BRANCH  19  20
HETATM   20  C15 UNL     1       1.084   2.174  -2.356  1.00  0.00     0.293 C 
BRANCH  20  21
HETATM   21  N1  UNL     1       1.604   2.445  -3.686  1.00  0.00     0.341 N 
HETATM   22  C16 UNL     1       2.211   3.764  -3.737  1.00  0.00     0.328 C 
ENDBRANCH  20  21
ENDBRANCH  19  20
ENDBRANCH  12  19
ENDBRANCH   1  12
TORSDOF 7
