REMARK  3 active torsions:
REMARK  status: ('A' for Active; 'I' for Inactive)
REMARK    1  A    between atoms: C6_6  and  C7_7 
REMARK    2  A    between atoms: C9_9  and  C10_10 
REMARK    3  A    between atoms: C10_10  and  C11_11 
ROOT
HETATM    1  C7  UNL     1       0.594   1.785  -1.043  1.00  0.00    -0.048 C 
HETATM    2  C8  UNL     1       0.689   3.107  -1.756  1.00  0.00     0.026 C 
HETATM    3  C9  UNL     1       1.564   1.449  -0.180  1.00  0.00    -0.030 C 
ENDROOT
BRANCH   1   4
HETATM    4  C6  UNL     1      -0.611   0.936  -1.371  1.00  0.00     0.023 C 
HETATM    5  C1  UNL     1      -1.908   1.572  -0.852  1.00  0.00     0.009 C 
HETATM    6  C2  UNL     1      -3.127   0.738  -1.273  1.00  0.00     0.022 C 
HETATM    7  C3  UNL     1      -2.945  -0.752  -1.068  1.00  0.00    -0.048 C 
HETATM    8  C4  UNL     1      -1.732  -1.311  -0.873  1.00  0.00    -0.034 C 
HETATM    9  C15 UNL     1      -4.180  -1.617  -1.088  1.00  0.00     0.026 C 
HETATM   10  C5  UNL     1      -0.461  -0.490  -0.809  1.00  0.00     0.029 C 
ENDBRANCH   1   4
BRANCH   3  11
HETATM   11  C10 UNL     1       1.469   0.127   0.533  1.00  0.00     0.051 C 
BRANCH  11  12
HETATM   12  C11 UNL     1       2.754  -0.176   1.256  1.00  0.00    -0.030 C 
HETATM   13  C12 UNL     1       2.762  -1.172   2.158  1.00  0.00    -0.047 C 
HETATM   14  C13 UNL     1       1.508  -1.986   2.340  1.00  0.00     0.026 C 
HETATM   15  C14 UNL     1       4.023  -1.422   2.941  1.00  0.00     0.026 C 
ENDBRANCH  11  12
ENDBRANCH   3  11
TORSDOF 3
