REMARK  1 active torsions:
REMARK  status: ('A' for Active; 'I' for Inactive)
REMARK    1  A    between atoms: C12_14  and  C15_18 
ROOT
HETATM    1  C1  UNL     1      -4.303  -0.656  -0.490  1.00  0.00     0.055 A 
HETATM    2  C2  UNL     1      -4.235   0.746  -0.615  1.00  0.00     0.133 A 
HETATM    3  C3  UNL     1      -2.986   1.399  -0.525  1.00  0.00     0.031 A 
HETATM    4  C4  UNL     1      -1.793   0.658  -0.313  1.00  0.00     0.046 A 
HETATM    5  C5  UNL     1      -1.860  -0.760  -0.184  1.00  0.00     0.068 A 
HETATM    6  C6  UNL     1      -3.127  -1.408  -0.275  1.00  0.00     0.136 A 
HETATM    7  O1  UNL     1      -3.235  -2.740  -0.162  1.00  0.00    -0.190 OA
HETATM    8  C7  UNL     1      -0.625  -1.584   0.045  1.00  0.00     0.200 A 
HETATM    9  C8  UNL     1       0.678  -0.842   0.115  1.00  0.00     0.067 A 
HETATM   10  C9  UNL     1       0.732   0.578  -0.014  1.00  0.00     0.044 A 
HETATM   11  C10 UNL     1      -0.498   1.400  -0.229  1.00  0.00     0.196 A 
HETATM   12  O2  UNL     1      -0.447   2.608  -0.330  1.00  0.00    -0.287 OA
HETATM   13  C11 UNL     1       1.988   1.240   0.059  1.00  0.00     0.002 A 
HETATM   14  C12 UNL     1       3.180   0.508   0.258  1.00  0.00     0.013 A 
HETATM   15  C13 UNL     1       3.127  -0.894   0.387  1.00  0.00     0.026 A 
HETATM   16  C14 UNL     1       1.887  -1.568   0.318  1.00  0.00     0.134 A 
HETATM   17  O3  UNL     1       1.881  -2.902   0.447  1.00  0.00    -0.190 OA
HETATM   18  O5  UNL     1      -0.678  -2.789   0.164  1.00  0.00    -0.286 OA
HETATM   19  O6  UNL     1      -5.354   1.457  -0.820  1.00  0.00    -0.190 OA
ENDROOT
BRANCH  14  20
HETATM   20  C15 UNL     1       4.473   1.209   0.328  1.00  0.00     0.209 C 
HETATM   21  O4  UNL     1       4.732   1.580   1.664  1.00  0.00    -0.215 OA
ENDBRANCH  14  20
TORSDOF 1
