REMARK  3 active torsions:
REMARK  status: ('A' for Active; 'I' for Inactive)
REMARK    1  A    between atoms: C4_4  and  O2_8 
REMARK    2  A    between atoms: C8_11  and  C11_15 
REMARK    3  A    between atoms: C15_19  and  O5_21 
ROOT
HETATM    1  C1  UNL     1      -1.094  -1.959   0.939  1.00  0.00     0.087 A 
HETATM    2  C2  UNL     1      -1.246  -0.644   0.420  1.00  0.00     0.107 A 
HETATM    3  C3  UNL     1      -2.543  -0.117   0.215  1.00  0.00     0.049 A 
HETATM    4  C4  UNL     1      -3.682  -0.896   0.527  1.00  0.00     0.098 A 
HETATM    5  C5  UNL     1      -3.530  -2.203   1.045  1.00  0.00     0.052 A 
HETATM    6  C6  UNL     1      -2.237  -2.740   1.252  1.00  0.00     0.138 A 
HETATM    7  O1  UNL     1      -2.110  -3.982   1.744  1.00  0.00    -0.190 OA
HETATM    8  O3  UNL     1      -0.160   0.102   0.123  1.00  0.00    -0.307 OA
HETATM    9  C8  UNL     1       1.107  -0.328   0.289  1.00  0.00     0.103 A 
HETATM   10  C9  UNL     1       1.375  -1.562   0.773  1.00  0.00     0.067 A 
HETATM   11  C10 UNL     1       0.283  -2.488   1.141  1.00  0.00     0.202 A 
HETATM   12  O4  UNL     1       0.599  -3.574   1.566  1.00  0.00    -0.286 OA
ENDROOT
BRANCH   9  13
HETATM   13  C11 UNL     1       2.250   0.568  -0.066  1.00  0.00     0.025 A 
HETATM   14  C12 UNL     1       3.498   0.398   0.557  1.00  0.00     0.004 A 
HETATM   15  C13 UNL     1       4.570   1.244   0.221  1.00  0.00     0.029 A 
HETATM   16  C14 UNL     1       4.398   2.260  -0.736  1.00  0.00     0.153 A 
HETATM   17  C15 UNL     1       3.148   2.430  -1.359  1.00  0.00     0.119 A 
HETATM   18  O6  UNL     1       5.408   3.047  -1.047  1.00  0.00    -0.188 OA
HETATM   19  C16 UNL     1       2.076   1.584  -1.024  1.00  0.00     0.028 A 
BRANCH  17  20
HETATM   20  O5  UNL     1       2.978   3.381  -2.258  1.00  0.00    -0.326 OA
HETATM   21  C17 UNL     1       1.697   3.510  -2.858  1.00  0.00     0.181 C 
ENDBRANCH  17  20
ENDBRANCH   9  13
BRANCH   4  22
HETATM   22  O2  UNL     1      -4.910  -0.393   0.332  1.00  0.00    -0.328 OA
HETATM   23  C7  UNL     1      -6.024  -1.172   0.744  1.00  0.00     0.181 C 
ENDBRANCH   4  22
TORSDOF 3
