REMARK  9 active torsions:
REMARK  status: ('A' for Active; 'I' for Inactive)
REMARK    1  A    between atoms: C1_1  and  O6_22 
REMARK    2  A    between atoms: C2_2  and  O5_20 
REMARK    3  A    between atoms: C7_8  and  C10_12 
REMARK    4  A    between atoms: O6_22  and  C17_23 
REMARK    5  A    between atoms: C18_25  and  C22_32 
REMARK    6  A    between atoms: C22_32  and  O11_33 
REMARK    7  A    between atoms: O11_33  and  C23_34 
REMARK    8  A    between atoms: C23_34  and  C24_35 
REMARK    9  A    between atoms: C25_36  and  C26_37 
ROOT
HETATM    1  C17 UNL     1      -4.119   0.457  -0.908  1.00  0.00     0.274 C 
HETATM    2  O7  UNL     1      -3.457  -0.578  -0.191  1.00  0.00    -0.326 OA
HETATM    3  C18 UNL     1      -4.088  -0.963   1.025  1.00  0.00     0.181 C 
HETATM    4  C19 UNL     1      -5.504  -1.502   0.721  1.00  0.00     0.215 C 
HETATM    5  C20 UNL     1      -6.338  -0.478  -0.080  1.00  0.00     0.220 C 
HETATM    6  C21 UNL     1      -5.535  -0.008  -1.313  1.00  0.00     0.241 C 
HETATM    7  O8  UNL     1      -6.203   1.070  -1.943  1.00  0.00    -0.215 OA
HETATM    8  O9  UNL     1      -7.557  -1.070  -0.498  1.00  0.00    -0.218 OA
HETATM    9  O10 UNL     1      -6.151  -1.795   1.945  1.00  0.00    -0.218 OA
ENDROOT
BRANCH   1  10
HETATM   10  O6  UNL     1      -3.359   0.770  -2.070  1.00  0.00    -0.301 OA
BRANCH  10  11
HETATM   11  C1  UNL     1      -2.154   1.332  -1.902  1.00  0.00     0.123 A 
HETATM   12  C2  UNL     1      -2.047   2.623  -1.334  1.00  0.00     0.142 A 
HETATM   13  C3  UNL     1      -0.775   3.223  -1.170  1.00  0.00     0.160 A 
HETATM   14  C4  UNL     1       0.393   2.525  -1.578  1.00  0.00     0.085 A 
HETATM   15  O4  UNL     1      -0.691   4.451  -0.639  1.00  0.00    -0.188 OA
HETATM   16  C5  UNL     1       0.285   1.211  -2.113  1.00  0.00     0.101 A 
HETATM   17  C9  UNL     1       1.736   3.160  -1.461  1.00  0.00     0.180 C 
HETATM   18  C6  UNL     1      -0.990   0.629  -2.291  1.00  0.00     0.051 A 
HETATM   19  O1  UNL     1       1.383   0.504  -2.459  1.00  0.00    -0.328 OA
HETATM   20  C7  UNL     1       2.668   0.861  -1.939  1.00  0.00     0.151 C 
HETATM   21  C8  UNL     1       2.893   2.383  -2.053  1.00  0.00     0.104 C 
HETATM   22  O2  UNL     1       1.994   4.227  -0.949  1.00  0.00    -0.291 OA
BRANCH  12  23
HETATM   23  O5  UNL     1      -3.152   3.281  -0.955  1.00  0.00    -0.324 OA
HETATM   24  C16 UNL     1      -3.108   4.016   0.260  1.00  0.00     0.182 C 
ENDBRANCH  12  23
BRANCH  20  25
HETATM   25  C10 UNL     1       3.717   0.080  -2.650  1.00  0.00     0.006 A 
HETATM   26  C11 UNL     1       3.744   0.055  -4.055  1.00  0.00     0.000 A 
HETATM   27  C12 UNL     1       4.736  -0.684  -4.725  1.00  0.00     0.027 A 
HETATM   28  C13 UNL     1       5.701  -1.400  -3.994  1.00  0.00     0.131 A 
HETATM   29  C14 UNL     1       5.670  -1.373  -2.588  1.00  0.00     0.027 A 
HETATM   30  O3  UNL     1       6.629  -2.092  -4.623  1.00  0.00    -0.190 OA
HETATM   31  C15 UNL     1       4.680  -0.635  -1.916  1.00  0.00     0.000 A 
ENDBRANCH  20  25
ENDBRANCH  10  11
ENDBRANCH   1  10
BRANCH   3  32
HETATM   32  C22 UNL     1      -3.182  -2.008   1.686  1.00  0.00     0.184 C 
BRANCH  32  33
HETATM   33  O11 UNL     1      -1.904  -1.439   1.932  1.00  0.00    -0.296 OA
BRANCH  33  34
HETATM   34  C23 UNL     1      -1.072  -2.299   2.512  1.00  0.00     0.296 C 
HETATM   35  O13 UNL     1      -1.361  -3.441   2.779  1.00  0.00    -0.259 OA
BRANCH  34  36
HETATM   36  C24 UNL     1       0.266  -1.777   2.824  1.00  0.00     0.068 C 
HETATM   37  C25 UNL     1       1.178  -2.555   3.430  1.00  0.00     0.005 C 
BRANCH  37  38
HETATM   38  C26 UNL     1       2.523  -1.982   3.727  1.00  0.00     0.000 A 
HETATM   39  C27 UNL     1       3.061  -0.979   2.898  1.00  0.00     0.002 A 
HETATM   40  C28 UNL     1       4.328  -0.439   3.180  1.00  0.00     0.027 A 
HETATM   41  C29 UNL     1       5.063  -0.898   4.287  1.00  0.00     0.131 A 
HETATM   42  C30 UNL     1       4.523  -1.900   5.113  1.00  0.00     0.027 A 
HETATM   43  O12 UNL     1       6.250  -0.393   4.551  1.00  0.00    -0.190 OA
HETATM   44  C31 UNL     1       3.256  -2.441   4.834  1.00  0.00     0.002 A 
ENDBRANCH  37  38
ENDBRANCH  34  36
ENDBRANCH  33  34
ENDBRANCH  32  33
ENDBRANCH   3  32
TORSDOF 9
