REMARK  5 active torsions:
REMARK  status: ('A' for Active; 'I' for Inactive)
REMARK    1  A    between atoms: C9_10  and  C18_26 
REMARK    2  A    between atoms: C10_11  and  O2_12 
REMARK    3  A    between atoms: O2_12  and  O3_13 
REMARK    4  A    between atoms: O3_13  and  C11_14 
REMARK    5  A    between atoms: C15_18  and  C17_21 
ROOT
HETATM    1  C1  UNL     1       3.998   2.764   0.494  1.00  0.00     0.035 C 
HETATM    2  C2  UNL     1       3.787   1.357  -0.076  1.00  0.00     0.033 C 
HETATM    3  C3  UNL     1       2.453   0.707   0.353  1.00  0.00     0.129 C 
HETATM    4  C4  UNL     1       1.234   1.666   0.127  1.00  0.00     0.061 C 
HETATM    5  C5  UNL     1       1.467   3.098   0.717  1.00  0.00     0.033 C 
HETATM    6  C6  UNL     1       2.801   3.670   0.170  1.00  0.00     0.152 C 
HETATM    7  O1  UNL     1       3.061   4.957   0.701  1.00  0.00    -0.224 OA
HETATM    8  C7  UNL     1       0.289   4.016   0.307  1.00  0.00     0.003 C 
HETATM    9  C8  UNL     1      -1.074   3.465   0.746  1.00  0.00     0.005 C 
HETATM   10  C9  UNL     1      -1.318   2.055   0.197  1.00  0.00     0.059 C 
HETATM   11  C10 UNL     1      -0.152   1.117   0.590  1.00  0.00     0.157 C 
HETATM   12  C21 UNL     1       1.516   3.045   2.256  1.00  0.00     0.003 C 
HETATM   13  O10 UNL     1       2.547   0.369   1.725  1.00  0.00    -0.226 OA
HETATM   14  C22 UNL     1       2.316  -0.627  -0.391  1.00  0.00     0.033 C 
ENDROOT
BRANCH  11  15
HETATM   15  O2  UNL     1      -0.422  -0.162   0.049  1.00  0.00    -0.221 OA
BRANCH  15  16
HETATM   16  O3  UNL     1      -1.539  -0.725   0.766  1.00  0.00    -0.190 OA
BRANCH  16  17
HETATM   17  C11 UNL     1      -1.795  -2.012   0.238  1.00  0.00     0.303 C 
HETATM   18  C12 UNL     1      -3.113  -2.631   0.801  1.00  0.00     0.244 C 
HETATM   19  C13 UNL     1      -3.193  -4.162   0.543  1.00  0.00     0.220 C 
HETATM   20  O8  UNL     1      -3.240  -2.410   2.199  1.00  0.00    -0.215 OA
HETATM   21  C14 UNL     1      -2.184  -4.568  -0.555  1.00  0.00     0.212 C 
HETATM   22  O7  UNL     1      -4.516  -4.506   0.164  1.00  0.00    -0.218 OA
HETATM   23  C15 UNL     1      -0.727  -4.133  -0.199  1.00  0.00     0.157 C 
HETATM   24  O6  UNL     1      -2.231  -5.967  -0.797  1.00  0.00    -0.218 OA
HETATM   25  O4  UNL     1      -0.713  -2.891   0.508  1.00  0.00    -0.327 OA
HETATM   26  C16 UNL     1       0.107  -3.922  -1.467  1.00  0.00     0.035 C 
BRANCH  23  27
HETATM   27  C17 UNL     1      -0.012  -5.110   0.742  1.00  0.00     0.212 C 
HETATM   28  O5  UNL     1       1.281  -4.611   0.996  1.00  0.00    -0.218 OA
ENDBRANCH  23  27
ENDBRANCH  16  17
ENDBRANCH  15  16
ENDBRANCH  11  15
BRANCH  10  29
HETATM   29  C18 UNL     1      -1.555   2.105  -1.320  1.00  0.00     0.129 C 
HETATM   30  C19 UNL     1      -2.033   3.477  -1.797  1.00  0.00     0.033 C 
HETATM   31  C20 UNL     1      -0.359   1.586  -2.121  1.00  0.00     0.033 C 
HETATM   32  O9  UNL     1      -2.670   1.299  -1.619  1.00  0.00    -0.226 OA
ENDBRANCH  10  29
TORSDOF 5
