REMARK  6 active torsions:
REMARK  status: ('A' for Active; 'I' for Inactive)
REMARK    1  A    between atoms: C3_3  and  C19_22 
REMARK    2  A    between atoms: C7_7  and  C12_12 
REMARK    3  A    between atoms: C12_12  and  C13_13 
REMARK    4  A    between atoms: C13_13  and  C14_14 
REMARK    5  A    between atoms: C14_14  and  C17_18 
REMARK    6  A    between atoms: C15_15  and  C16_16 
ROOT
HETATM    1  C1  UNL     1      -2.738  -1.025  -0.230  1.00  0.00     0.033 C 
HETATM    2  C2  UNL     1      -2.404  -2.500  -0.574  1.00  0.00     0.154 C 
HETATM    3  C3  UNL     1      -1.238  -3.074   0.268  1.00  0.00     0.059 C 
HETATM    4  C4  UNL     1       0.045  -2.172   0.213  1.00  0.00     0.005 C 
HETATM    5  C5  UNL     1      -0.197  -0.686  -0.180  1.00  0.00     0.004 C 
HETATM    6  C6  UNL     1      -1.559  -0.232   0.373  1.00  0.00     0.003 C 
HETATM    7  C7  UNL     1       0.971   0.141   0.416  1.00  0.00     0.019 C 
HETATM    8  C8  UNL     1       2.320  -0.504   0.135  1.00  0.00    -0.044 C 
HETATM    9  C9  UNL     1       2.387  -1.719  -0.777  1.00  0.00     0.022 C 
HETATM   10  C10 UNL     1       1.242  -2.740  -0.582  1.00  0.00     0.004 C 
HETATM   11  C11 UNL     1       3.440  -0.012   0.695  1.00  0.00    -0.009 C 
HETATM   12  C18 UNL     1      -0.207  -0.488  -1.709  1.00  0.00     0.000 C 
HETATM   13  C20 UNL     1      -1.734  -3.152   1.721  1.00  0.00     0.005 C 
HETATM   14  O5  UNL     1      -2.113  -2.619  -1.957  1.00  0.00    -0.223 OA
ENDROOT
BRANCH   7  15
HETATM   15  C12 UNL     1       0.951   1.606  -0.047  1.00  0.00     0.009 C 
BRANCH  15  16
HETATM   16  C13 UNL     1       1.088   2.592   1.113  1.00  0.00     0.033 C 
BRANCH  16  17
HETATM   17  C14 UNL     1       0.945   4.024   0.668  1.00  0.00     0.040 C 
HETATM   18  C15 UNL     1      -0.277   4.473   0.340  1.00  0.00     0.011 C 
BRANCH  18  19
HETATM   19  C16 UNL     1      -0.420   5.904  -0.105  1.00  0.00     0.208 C 
HETATM   20  O1  UNL     1      -1.723   6.115  -0.602  1.00  0.00    -0.215 OA
ENDBRANCH  18  19
BRANCH  17  21
HETATM   21  C17 UNL     1       2.113   4.908   0.596  1.00  0.00     0.206 C 
HETATM   22  O2  UNL     1       2.535   5.447   1.592  1.00  0.00    -0.644 OA
HETATM   23  O3  UNL     1       2.649   5.061  -0.613  1.00  0.00    -0.644 OA
ENDBRANCH  17  21
ENDBRANCH  16  17
ENDBRANCH  15  16
ENDBRANCH   7  15
BRANCH   3  24
HETATM   24  C19 UNL     1      -0.934  -4.523  -0.148  1.00  0.00     0.185 C 
HETATM   25  O4  UNL     1      -2.123  -5.272  -0.043  1.00  0.00    -0.221 OA
ENDBRANCH   3  24
TORSDOF 6
