REMARK  5 active torsions:
REMARK  status: ('A' for Active; 'I' for Inactive)
REMARK    1  A    between atoms: O1_1  and  C1_2 
REMARK    2  A    between atoms: O1_1  and  C7_13 
REMARK    3  A    between atoms: C1_2  and  C2_3 
REMARK    4  A    between atoms: C5_8  and  C6_10 
REMARK    5  A    between atoms: C11_20  and  C12_22 
ROOT
HETATM    1  O1  UNL     1      -0.584  -0.951  -0.467  1.00  0.00    -0.324 OA
ENDROOT
BRANCH   1   2
HETATM    2  C1  UNL     1      -1.564  -0.119   0.109  1.00  0.00     0.207 C 
BRANCH   2   3
HETATM    3  C2  UNL     1      -1.324  -0.066   1.611  1.00  0.00     0.278 C 
HETATM    4  C3  UNL     1      -2.236   0.918   2.363  1.00  0.00     0.241 C 
HETATM    5  O2  UNL     1      -3.531   0.402   2.627  1.00  0.00    -0.215 OA
HETATM    6  C4  UNL     1      -1.424   1.127   3.650  1.00  0.00     0.217 C 
HETATM    7  O3  UNL     1      -1.711   2.383   4.236  1.00  0.00    -0.218 OA
HETATM    8  C5  UNL     1       0.029   1.066   3.143  1.00  0.00     0.184 C 
HETATM    9  O4  UNL     1      -0.045   0.473   1.859  1.00  0.00    -0.326 OA
HETATM   10  O6  UNL     1      -1.402  -1.389   2.123  1.00  0.00    -0.190 OA
BRANCH   8  11
HETATM   11  C6  UNL     1       0.910   0.197   4.031  1.00  0.00     0.214 C 
HETATM   12  O5  UNL     1       2.238   0.301   3.570  1.00  0.00    -0.218 OA
ENDBRANCH   8  11
ENDBRANCH   2   3
ENDBRANCH   1   2
BRANCH   1  13
HETATM   13  C7  UNL     1      -0.732  -1.103  -1.869  1.00  0.00     0.270 C 
HETATM   14  C8  UNL     1       0.217  -2.189  -2.440  1.00  0.00     0.241 C 
HETATM   15  O7  UNL     1       0.039  -3.416  -1.748  1.00  0.00    -0.215 OA
HETATM   16  C9  UNL     1       1.696  -1.740  -2.395  1.00  0.00     0.220 C 
HETATM   17  O8  UNL     1       2.504  -2.676  -3.090  1.00  0.00    -0.218 OA
HETATM   18  C10 UNL     1       1.822  -0.348  -3.055  1.00  0.00     0.215 C 
HETATM   19  O9  UNL     1       3.133   0.156  -2.858  1.00  0.00    -0.218 OA
HETATM   20  C11 UNL     1       0.809   0.660  -2.465  1.00  0.00     0.184 C 
HETATM   21  O10 UNL     1      -0.512   0.129  -2.551  1.00  0.00    -0.326 OA
BRANCH  20  22
HETATM   22  C12 UNL     1       0.795   1.994  -3.221  1.00  0.00     0.214 C 
HETATM   23  O11 UNL     1      -0.017   2.899  -2.506  1.00  0.00    -0.218 OA
ENDBRANCH  20  22
ENDBRANCH   1  13
TORSDOF 5
