REMARK  0 active torsions:
REMARK  status: ('A' for Active; 'I' for Inactive)
ROOT
HETATM    1  C1  UNL     1      -2.666  -0.572  -0.232  1.00  0.00     0.012 C 
HETATM    2  C2  UNL     1      -2.082   0.502  -1.189  1.00  0.00     0.058 C 
HETATM    3  C3  UNL     1      -1.217   1.596  -0.580  1.00  0.00     0.154 C 
HETATM    4  C4  UNL     1      -0.377   1.371   0.666  1.00  0.00     0.088 C 
HETATM    5  C5  UNL     1       1.102   1.070   0.440  1.00  0.00    -0.014 A 
HETATM    6  C6  UNL     1       1.920   0.160   1.356  1.00  0.00     0.129 A 
HETATM    7  C7  UNL     1       1.602  -1.351   1.330  1.00  0.00     0.050 C 
HETATM    8  C8  UNL     1       0.133  -1.668   1.236  1.00  0.00    -0.046 C 
HETATM    9  C9  UNL     1      -0.439  -1.754   0.022  1.00  0.00    -0.035 C 
HETATM   10  C10 UNL     1      -1.920  -1.922  -0.191  1.00  0.00     0.026 C 
HETATM   11  C11 UNL     1      -0.650  -1.857   2.514  1.00  0.00     0.026 C 
HETATM   12  N1  UNL     1       3.295   0.381   0.877  1.00  0.00    -0.232 NA
HETATM   13  C12 UNL     1       3.274   1.184  -0.268  1.00  0.00     0.271 A 
HETATM   14  C13 UNL     1       1.897   1.578  -0.518  1.00  0.00     0.030 A 
HETATM   15  C14 UNL     1       1.481   2.453  -1.672  1.00  0.00     0.035 C 
HETATM   16  O1  UNL     1       4.254   1.486  -0.906  1.00  0.00    -0.266 OA
HETATM   17  O2  UNL     1      -1.227   2.692  -1.092  1.00  0.00    -0.296 OA
HETATM   18  C15 UNL     1      -1.396  -0.094  -2.424  1.00  0.00     0.008 C 
ENDROOT
TORSDOF 0
