REMARK  19 active torsions:
REMARK  status: ('A' for Active; 'I' for Inactive)
REMARK    1  A    between atoms: C2_2  and  O10_44 
REMARK    2  A    between atoms: C17_17  and  C20_21 
REMARK    3  A    between atoms: C17_17  and  O9_39 
REMARK    4  A    between atoms: C20_21  and  C21_22 
REMARK    5  A    between atoms: C21_22  and  C22_23 
REMARK    6  A    between atoms: C22_23  and  C23_24 
REMARK    7  A    between atoms: C23_24  and  O2_25 
REMARK    8  A    between atoms: O2_25  and  O3_26 
REMARK    9  A    between atoms: O3_26  and  C24_27 
REMARK   10  A    between atoms: C28_34  and  C29_36 
REMARK   11  A    between atoms: O10_44  and  O11_45 
REMARK   12  A    between atoms: O11_45  and  C35_46 
REMARK   13  A    between atoms: C35_46  and  C36_47 
REMARK   14  A    between atoms: C37_48  and  C49_67 
REMARK   15  A    between atoms: C39_50  and  O13_55 
REMARK   16  A    between atoms: C40_51  and  C42_53 
REMARK   17  A    between atoms: O13_55  and  C43_56 
REMARK   18  A    between atoms: C49_67  and  O19_68 
REMARK   19  A    between atoms: O19_68  and  C50_69 
ROOT
HETATM    1  C1  UNL     1       1.221  -2.072   3.279  1.00  0.00     0.034 C 
HETATM    2  C2  UNL     1       1.881  -1.563   1.982  1.00  0.00     0.156 C 
HETATM    3  C3  UNL     1       1.885  -2.625   0.869  1.00  0.00     0.055 C 
HETATM    4  C4  UNL     1       0.477  -3.154   0.701  1.00  0.00    -0.046 C 
HETATM    5  C5  UNL     1      -0.148  -3.787   1.943  1.00  0.00     0.015 C 
HETATM    6  C6  UNL     1      -0.178  -2.672   3.018  1.00  0.00     0.006 C 
HETATM    7  C7  UNL     1      -1.551  -4.381   1.647  1.00  0.00     0.004 C 
HETATM    8  C8  UNL     1      -2.357  -3.467   0.695  1.00  0.00     0.005 C 
HETATM    9  C9  UNL     1      -1.623  -3.424  -0.654  1.00  0.00     0.025 C 
HETATM   10  C10 UNL     1      -0.176  -3.018  -0.475  1.00  0.00    -0.035 C 
HETATM   11  C11 UNL     1      -3.791  -4.024   0.629  1.00  0.00     0.003 C 
HETATM   12  C12 UNL     1      -4.494  -3.858   1.998  1.00  0.00     0.003 C 
HETATM   13  C13 UNL     1      -3.529  -3.904   3.205  1.00  0.00     0.000 C 
HETATM   14  C14 UNL     1      -2.354  -4.838   2.891  1.00  0.00     0.000 C 
HETATM   15  C15 UNL     1      -5.322  -2.555   1.902  1.00  0.00     0.032 C 
HETATM   16  C16 UNL     1      -4.703  -1.207   2.342  1.00  0.00     0.054 C 
HETATM   17  C17 UNL     1      -5.246  -0.248   1.277  1.00  0.00     0.187 C 
HETATM   18  O1  UNL     1      -5.143  -1.041   0.123  1.00  0.00    -0.337 OA
HETATM   19  C18 UNL     1      -5.576  -2.354   0.402  1.00  0.00     0.118 C 
HETATM   20  C19 UNL     1      -4.758  -3.383  -0.371  1.00  0.00     0.030 C 
HETATM   21  C32 UNL     1      -5.086  -0.822   3.770  1.00  0.00     0.005 C 
HETATM   22  C33 UNL     1      -5.504  -5.008   2.078  1.00  0.00     0.000 C 
HETATM   23  C34 UNL     1       0.758  -4.932   2.424  1.00  0.00     0.004 C 
ENDROOT
BRANCH   2  24
HETATM   24  O10 UNL     1       3.211  -1.170   2.258  1.00  0.00    -0.223 OA
BRANCH  24  25
HETATM   25  O11 UNL     1       3.695  -0.414   1.129  1.00  0.00    -0.221 OA
BRANCH  25  26
HETATM   26  C35 UNL     1       5.086  -0.623   1.031  1.00  0.00     0.182 C 
BRANCH  26  27
HETATM   27  C36 UNL     1       5.578   0.035  -0.264  1.00  0.00     0.038 C 
HETATM   28  C37 UNL     1       7.024  -0.393  -0.607  1.00  0.00     0.065 C 
HETATM   29  C38 UNL     1       7.524   0.279  -1.906  1.00  0.00     0.182 C 
HETATM   30  C39 UNL     1       7.346   1.820  -1.848  1.00  0.00     0.151 C 
HETATM   31  O18 UNL     1       6.824  -0.277  -3.006  1.00  0.00    -0.221 OA
HETATM   32  C40 UNL     1       5.908   2.264  -1.488  1.00  0.00     0.063 C 
HETATM   33  C41 UNL     1       5.443   1.568  -0.195  1.00  0.00     0.008 C 
BRANCH  28  34
HETATM   34  C49 UNL     1       7.985  -0.094   0.553  1.00  0.00     0.148 C 
BRANCH  34  35
HETATM   35  O19 UNL     1       7.945  -1.180   1.449  1.00  0.00    -0.329 OA
BRANCH  35  36
HETATM   36  C50 UNL     1       8.764  -0.992   2.588  1.00  0.00     0.270 C 
HETATM   37  C51 UNL     1       8.488  -2.061   3.682  1.00  0.00     0.241 C 
HETATM   38  C52 UNL     1       8.988  -3.455   3.246  1.00  0.00     0.220 C 
HETATM   39  O23 UNL     1       7.106  -2.096   4.002  1.00  0.00    -0.215 OA
HETATM   40  C53 UNL     1      10.463  -3.373   2.787  1.00  0.00     0.212 C 
HETATM   41  O22 UNL     1       8.832  -4.406   4.289  1.00  0.00    -0.218 OA
HETATM   42  C54 UNL     1      10.649  -2.246   1.738  1.00  0.00     0.151 C 
HETATM   43  O21 UNL     1      11.324  -3.135   3.893  1.00  0.00    -0.218 OA
HETATM   44  O20 UNL     1      10.145  -1.004   2.232  1.00  0.00    -0.329 OA
HETATM   45  C55 UNL     1      12.110  -2.022   1.330  1.00  0.00     0.035 C 
ENDBRANCH  35  36
ENDBRANCH  34  35
ENDBRANCH  28  34
BRANCH  30  46
HETATM   46  O13 UNL     1       7.764   2.428  -3.059  1.00  0.00    -0.329 OA
BRANCH  46  47
HETATM   47  C43 UNL     1       8.123   3.787  -2.902  1.00  0.00     0.270 C 
HETATM   48  C44 UNL     1       8.276   4.467  -4.289  1.00  0.00     0.241 C 
HETATM   49  C45 UNL     1       8.826   5.910  -4.166  1.00  0.00     0.220 C 
HETATM   50  O17 UNL     1       7.043   4.465  -4.988  1.00  0.00    -0.215 OA
HETATM   51  C46 UNL     1      10.084   5.922  -3.273  1.00  0.00     0.212 C 
HETATM   52  O16 UNL     1       7.863   6.766  -3.568  1.00  0.00    -0.218 OA
HETATM   53  C47 UNL     1       9.850   5.156  -1.943  1.00  0.00     0.151 C 
HETATM   54  O15 UNL     1      11.156   5.332  -3.992  1.00  0.00    -0.218 OA
HETATM   55  O14 UNL     1       9.358   3.846  -2.199  1.00  0.00    -0.329 OA
HETATM   56  C48 UNL     1      11.112   5.020  -1.086  1.00  0.00     0.035 C 
ENDBRANCH  46  47
ENDBRANCH  30  46
BRANCH  32  57
HETATM   57  C42 UNL     1       4.900   2.027  -2.623  1.00  0.00     0.185 C 
HETATM   58  O12 UNL     1       3.729   2.754  -2.328  1.00  0.00    -0.221 OA
ENDBRANCH  32  57
ENDBRANCH  26  27
ENDBRANCH  25  26
ENDBRANCH  24  25
ENDBRANCH   2  24
BRANCH  17  59
HETATM   59  C20 UNL     1      -6.703   0.172   1.471  1.00  0.00     0.056 C 
BRANCH  59  60
HETATM   60  C21 UNL     1      -7.404   0.219   0.113  1.00  0.00     0.008 C 
BRANCH  60  61
HETATM   61  C22 UNL     1      -8.639   1.121   0.117  1.00  0.00     0.033 C 
HETATM   62  C30 UNL     1      -9.688   0.680   1.137  1.00  0.00     0.003 C 
BRANCH  61  63
HETATM   63  C23 UNL     1      -9.223   1.328  -1.279  1.00  0.00     0.182 C 
BRANCH  63  64
HETATM   64  O2  UNL     1     -10.074   2.451  -1.240  1.00  0.00    -0.218 OA
BRANCH  64  65
HETATM   65  O3  UNL     1     -10.619   2.645  -2.563  1.00  0.00    -0.190 OA
BRANCH  65  66
HETATM   66  C24 UNL     1     -11.471   3.771  -2.521  1.00  0.00     0.303 C 
HETATM   67  C25 UNL     1     -11.916   4.213  -3.943  1.00  0.00     0.244 C 
HETATM   68  O4  UNL     1     -10.781   4.414  -4.773  1.00  0.00    -0.215 OA
HETATM   69  C26 UNL     1     -12.887   3.189  -4.576  1.00  0.00     0.220 C 
HETATM   70  O5  UNL     1     -13.371   3.648  -5.828  1.00  0.00    -0.218 OA
HETATM   71  C27 UNL     1     -14.053   2.895  -3.604  1.00  0.00     0.215 C 
HETATM   72  O6  UNL     1     -14.914   4.020  -3.490  1.00  0.00    -0.218 OA
HETATM   73  C28 UNL     1     -13.516   2.516  -2.199  1.00  0.00     0.184 C 
HETATM   74  O7  UNL     1     -12.619   3.518  -1.713  1.00  0.00    -0.324 OA
BRANCH  73  75
HETATM   75  C29 UNL     1     -14.615   2.332  -1.150  1.00  0.00     0.214 C 
HETATM   76  O8  UNL     1     -14.043   1.730  -0.012  1.00  0.00    -0.218 OA
ENDBRANCH  73  75
ENDBRANCH  65  66
ENDBRANCH  64  65
ENDBRANCH  63  64
ENDBRANCH  61  63
ENDBRANCH  60  61
ENDBRANCH  59  60
ENDBRANCH  17  59
BRANCH  17  77
HETATM   77  O9  UNL     1      -4.451   0.914   1.178  1.00  0.00    -0.332 OA
HETATM   78  C31 UNL     1      -4.818   1.746   0.100  1.00  0.00     0.177 C 
ENDBRANCH  17  77
TORSDOF 19
