REMARK  11 active torsions:
REMARK  status: ('A' for Active; 'I' for Inactive)
REMARK    1  A    between atoms: C4_4  and  C23_28 
REMARK    2  A    between atoms: C10_10  and  C19_22 
REMARK    3  A    between atoms: C12_13  and  C13_16 
REMARK    4  A    between atoms: C23_28  and  O6_29 
REMARK    5  A    between atoms: O6_29  and  C24_30 
REMARK    6  A    between atoms: C24_30  and  C25_31 
REMARK    7  A    between atoms: C25_31  and  C26_32 
REMARK    8  A    between atoms: C27_33  and  C28_34 
REMARK    9  A    between atoms: C28_34  and  C29_36 
REMARK   10  A    between atoms: C29_36  and  C30_37 
REMARK   11  A    between atoms: C30_37  and  C31_38 
ROOT
HETATM    1  C1  UNL     1      -2.314  -2.395  -0.234  1.00  0.00     0.059 C 
HETATM    2  C2  UNL     1      -3.354  -1.947  -1.303  1.00  0.00     0.187 C 
HETATM    3  C3  UNL     1      -3.504  -0.395  -1.279  1.00  0.00     0.215 C 
HETATM    4  C4  UNL     1      -2.301   0.512  -1.715  1.00  0.00     0.212 C 
HETATM    5  C5  UNL     1      -0.936   0.182  -1.043  1.00  0.00     0.190 C 
HETATM    6  C6  UNL     1      -0.312  -1.215  -1.377  1.00  0.00     0.088 C 
HETATM    7  C7  UNL     1      -0.791  -2.469  -0.557  1.00  0.00     0.105 C 
HETATM    8  C8  UNL     1      -0.408  -3.776  -1.336  1.00  0.00     0.028 C 
HETATM    9  C9  UNL     1       0.883  -3.590  -2.170  1.00  0.00     0.036 C 
HETATM   10  C10 UNL     1       1.858  -2.604  -1.506  1.00  0.00     0.138 C 
HETATM   11  C11 UNL     1       1.236  -1.193  -1.303  1.00  0.00     0.153 C 
HETATM   12  O1  UNL     1       1.549  -0.990   0.055  1.00  0.00    -0.309 OA
HETATM   13  C12 UNL     1       1.307  -2.209   0.703  1.00  0.00     0.318 C 
HETATM   14  O2  UNL     1      -0.103  -2.483   0.721  1.00  0.00    -0.314 OA
HETATM   15  O3  UNL     1       2.057  -3.031  -0.166  1.00  0.00    -0.308 OA
HETATM   16  C22 UNL     1      -0.303  -5.028  -0.447  1.00  0.00     0.003 C 
HETATM   17  O4  UNL     1      -1.025   0.398   0.354  1.00  0.00    -0.221 OA
HETATM   18  O5  UNL     1      -2.107   0.424  -3.119  1.00  0.00    -0.218 OA
HETATM   19  O8  UNL     1      -4.656  -0.020  -2.025  1.00  0.00    -0.218 OA
HETATM   20  C33 UNL     1      -4.674  -2.674  -0.852  1.00  0.00     0.182 C 
HETATM   21  C34 UNL     1      -4.369  -3.289   0.520  1.00  0.00     0.033 C 
HETATM   22  C35 UNL     1      -2.910  -3.682   0.342  1.00  0.00     0.008 C 
HETATM   23  C36 UNL     1      -5.236  -4.469   0.963  1.00  0.00     0.003 C 
HETATM   24  O9  UNL     1      -5.104  -3.692  -1.750  1.00  0.00    -0.221 OA
HETATM   25  O10 UNL     1      -2.945  -2.350  -2.604  1.00  0.00    -0.221 OA
ENDROOT
BRANCH   4  26
HETATM   26  C23 UNL     1      -2.641   1.994  -1.484  1.00  0.00     0.178 C 
BRANCH  26  27
HETATM   27  O6  UNL     1      -1.547   2.769  -1.920  1.00  0.00    -0.351 OA
BRANCH  27  28
HETATM   28  C24 UNL     1      -1.744   4.154  -1.742  1.00  0.00     0.147 C 
BRANCH  28  29
HETATM   29  C25 UNL     1      -0.500   4.883  -2.250  1.00  0.00     0.058 C 
BRANCH  29  30
HETATM   30  C26 UNL     1       0.711   4.615  -1.397  1.00  0.00    -0.021 C 
HETATM   31  C27 UNL     1       1.203   5.617  -0.650  1.00  0.00     0.033 C 
BRANCH  31  32
HETATM   32  C28 UNL     1       2.381   5.410   0.199  1.00  0.00     0.173 C 
HETATM   33  O7  UNL     1       2.920   4.328   0.244  1.00  0.00    -0.291 OA
BRANCH  32  34
HETATM   34  C29 UNL     1       2.899   6.566   1.010  1.00  0.00     0.069 C 
BRANCH  34  35
HETATM   35  C30 UNL     1       2.869   6.287   2.514  1.00  0.00     0.008 C 
BRANCH  35  36
HETATM   36  C31 UNL     1       3.420   7.447   3.342  1.00  0.00     0.001 C 
HETATM   37  C32 UNL     1       3.399   7.164   4.844  1.00  0.00     0.000 C 
ENDBRANCH  35  36
ENDBRANCH  34  35
ENDBRANCH  32  34
ENDBRANCH  31  32
ENDBRANCH  29  30
ENDBRANCH  28  29
ENDBRANCH  27  28
ENDBRANCH  26  27
ENDBRANCH   4  26
BRANCH  10  38
HETATM   38  C19 UNL     1       3.195  -2.567  -2.203  1.00  0.00    -0.017 C 
HETATM   39  C20 UNL     1       4.387  -1.836  -1.643  1.00  0.00     0.029 C 
HETATM   40  C21 UNL     1       3.330  -3.207  -3.377  1.00  0.00    -0.007 C 
ENDBRANCH  10  38
BRANCH  13  41
HETATM   41  C13 UNL     1       1.865  -2.217   2.078  1.00  0.00     0.058 A 
HETATM   42  C14 UNL     1       1.699  -1.098   2.912  1.00  0.00     0.003 A 
HETATM   43  C15 UNL     1       2.229  -1.106   4.215  1.00  0.00    -0.000 A 
HETATM   44  C16 UNL     1       2.926  -2.233   4.684  1.00  0.00    -0.000 A 
HETATM   45  C17 UNL     1       3.094  -3.352   3.850  1.00  0.00    -0.000 A 
HETATM   46  C18 UNL     1       2.565  -3.344   2.547  1.00  0.00     0.003 A 
ENDBRANCH  13  41
TORSDOF 11
