REMARK  1 active torsions:
REMARK  status: ('A' for Active; 'I' for Inactive)
REMARK    1  A    between atoms: C3_3  and  O5_20 
ROOT
HETATM    1  C1  UNL     1       1.852  -3.682  -0.017  1.00  0.00     0.135 A 
HETATM    2  C2  UNL     1       2.577  -2.466  -0.017  1.00  0.00     0.052 A 
HETATM    3  C3  UNL     1       1.893  -1.227  -0.016  1.00  0.00     0.100 A 
HETATM    4  C4  UNL     1       0.475  -1.213  -0.014  1.00  0.00     0.068 A 
HETATM    5  C5  UNL     1      -0.266  -2.440  -0.016  1.00  0.00     0.109 A 
HETATM    6  C6  UNL     1       0.437  -3.668  -0.017  1.00  0.00     0.052 A 
HETATM    7  O1  UNL     1      -1.629  -2.455  -0.017  1.00  0.00    -0.273 OA
HETATM    8  C7  UNL     1      -2.405  -1.342  -0.014  1.00  0.00     0.302 A 
HETATM    9  C8  UNL     1      -1.700  -0.040  -0.009  1.00  0.00     0.088 A 
HETATM   10  C9  UNL     1      -0.314   0.052  -0.010  1.00  0.00     0.109 A 
HETATM   11  O2  UNL     1       0.216   1.359  -0.005  1.00  0.00    -0.307 OA
HETATM   12  C10 UNL     1      -0.975   2.090   0.000  1.00  0.00     0.102 A 
HETATM   13  C11 UNL     1      -2.084   1.262  -0.002  1.00  0.00     0.030 A 
HETATM   14  C12 UNL     1      -3.393   1.800   0.003  1.00  0.00     0.004 A 
HETATM   15  C13 UNL     1      -3.534   3.215   0.011  1.00  0.00     0.028 A 
HETATM   16  C14 UNL     1      -2.386   4.058   0.014  1.00  0.00     0.133 A 
HETATM   17  C15 UNL     1      -1.081   3.496   0.008  1.00  0.00     0.052 A 
HETATM   18  O3  UNL     1      -2.536   5.389   0.023  1.00  0.00    -0.190 OA
HETATM   19  O4  UNL     1      -3.613  -1.380  -0.015  1.00  0.00    -0.259 OA
HETATM   20  O6  UNL     1       2.508  -4.850  -0.017  1.00  0.00    -0.190 OA
ENDROOT
BRANCH   3  21
HETATM   21  O5  UNL     1       2.599  -0.086  -0.016  1.00  0.00    -0.328 OA
HETATM   22  C16 UNL     1       4.015  -0.178   0.047  1.00  0.00     0.181 C 
ENDBRANCH   3  21
TORSDOF 1
