REMARK  0 active torsions:
REMARK  status: ('A' for Active; 'I' for Inactive)
ROOT
HETATM    1  C1  UNL     1       2.664  -1.445   0.576  1.00  0.00     0.003 C 
HETATM    2  C2  UNL     1       2.824  -0.238  -0.365  1.00  0.00     0.033 C 
HETATM    3  C3  UNL     1       1.768   0.856  -0.104  1.00  0.00     0.149 C 
HETATM    4  C4  UNL     1       0.295   0.285  -0.207  1.00  0.00     0.118 C 
HETATM    5  C5  UNL     1       0.223  -1.291  -0.211  1.00  0.00     0.025 C 
HETATM    6  C6  UNL     1       1.195  -1.797   0.875  1.00  0.00     0.002 C 
HETATM    7  C7  UNL     1      -1.223  -1.777   0.055  1.00  0.00     0.002 C 
HETATM    8  C8  UNL     1      -2.250  -1.033  -0.816  1.00  0.00     0.003 C 
HETATM    9  C9  UNL     1      -1.982   0.484  -0.834  1.00  0.00     0.027 C 
HETATM   10  C10 UNL     1      -0.582   0.756  -1.395  1.00  0.00     0.032 C 
HETATM   11  C11 UNL     1      -1.793   1.109   0.555  1.00  0.00     0.093 C 
HETATM   12  O1  UNL     1      -0.461   0.775   0.904  1.00  0.00    -0.361 OA
HETATM   13  C12 UNL     1      -2.742   0.584   1.627  1.00  0.00     0.030 C 
HETATM   14  C13 UNL     1      -1.873   2.633   0.471  1.00  0.00     0.030 C 
HETATM   15  C14 UNL     1       0.650  -1.871  -1.572  1.00  0.00     0.002 C 
HETATM   16  C15 UNL     1       2.104   1.533   1.238  1.00  0.00     0.035 C 
HETATM   17  O2  UNL     1       1.980   1.865  -1.072  1.00  0.00    -0.224 OA
ENDROOT
TORSDOF 0
