REMARK  6 active torsions:
REMARK  status: ('A' for Active; 'I' for Inactive)
REMARK    1  A    between atoms: C3_3  and  O3_20 
REMARK    2  A    between atoms: C5_5  and  C7_7 
REMARK    3  A    between atoms: C8_8  and  C9_9 
REMARK    4  A    between atoms: C10_10  and  C11_11 
REMARK    5  A    between atoms: C11_11  and  O1_12 
REMARK    6  A    between atoms: O1_12  and  C12_13 
ROOT
HETATM    1  C7  UNL     1      -0.132   2.640   0.124  1.00  0.00    -0.059 C 
HETATM    2  C8  UNL     1       0.596   1.698   0.125  1.00  0.00    -0.059 C 
ENDROOT
BRANCH   2   3
HETATM    3  C9  UNL     1       1.464   0.553   0.123  1.00  0.00     0.047 C 
HETATM    4  C10 UNL     1       1.023  -0.662  -0.252  1.00  0.00     0.015 C 
BRANCH   4   5
HETATM    5  C11 UNL     1       1.947  -1.852  -0.252  1.00  0.00     0.176 C 
BRANCH   5   6
HETATM    6  O1  UNL     1       1.180  -3.047  -0.252  1.00  0.00    -0.326 OA
BRANCH   6   7
HETATM    7  C12 UNL     1       1.825  -4.196  -0.252  1.00  0.00     0.095 A 
HETATM    8  C13 UNL     1       1.111  -5.407  -0.252  1.00  0.00     0.026 A 
HETATM    9  C14 UNL     1       1.799  -6.633  -0.252  1.00  0.00     0.029 A 
HETATM   10  C15 UNL     1       3.205  -6.655  -0.252  1.00  0.00     0.131 A 
HETATM   11  C16 UNL     1       3.919  -5.444  -0.252  1.00  0.00     0.029 A 
HETATM   12  O2  UNL     1       3.850  -7.804  -0.252  1.00  0.00    -0.190 OA
HETATM   13  C17 UNL     1       3.231  -4.218  -0.252  1.00  0.00     0.026 A 
ENDBRANCH   6   7
ENDBRANCH   5   6
ENDBRANCH   4   5
ENDBRANCH   2   3
BRANCH   1  14
HETATM   14  C5  UNL     1      -1.017   3.772   0.122  1.00  0.00     0.044 A 
HETATM   15  C4  UNL     1      -2.396   3.581   0.320  1.00  0.00     0.035 A 
HETATM   16  C3  UNL     1      -3.261   4.690   0.322  1.00  0.00     0.120 A 
HETATM   17  C2  UNL     1      -2.743   5.986   0.125  1.00  0.00     0.153 A 
HETATM   18  C1  UNL     1      -1.361   6.166  -0.073  1.00  0.00     0.030 A 
HETATM   19  O4  UNL     1      -3.547   7.030   0.127  1.00  0.00    -0.188 OA
HETATM   20  C6  UNL     1      -0.495   5.061  -0.075  1.00  0.00     0.011 A 
BRANCH  16  21
HETATM   21  O3  UNL     1      -4.555   4.511   0.507  1.00  0.00    -0.326 OA
HETATM   22  C18 UNL     1      -5.041   3.178   0.568  1.00  0.00     0.181 C 
ENDBRANCH  16  21
ENDBRANCH   1  14
TORSDOF 6
