REMARK  2 active torsions:
REMARK  status: ('A' for Active; 'I' for Inactive)
REMARK    1  A    between atoms: C1_1  and  O2_9 
REMARK    2  A    between atoms: O2_9  and  C8_10 
ROOT
HETATM    1  C8  UNL     1       0.522   1.031   0.098  1.00  0.00     0.274 C 
HETATM    2  C9  UNL     1       1.399   2.133  -0.535  1.00  0.00     0.241 C 
HETATM    3  O3  UNL     1       2.516   2.361   0.303  1.00  0.00    -0.215 OA
HETATM    4  C10 UNL     1       0.604   3.445  -0.725  1.00  0.00     0.220 C 
HETATM    5  O4  UNL     1       1.369   4.365  -1.486  1.00  0.00    -0.218 OA
HETATM    6  C11 UNL     1      -0.726   3.144  -1.451  1.00  0.00     0.215 C 
HETATM    7  O5  UNL     1      -1.555   4.293  -1.453  1.00  0.00    -0.218 OA
HETATM    8  C12 UNL     1      -1.492   1.994  -0.766  1.00  0.00     0.181 C 
HETATM    9  O6  UNL     1      -0.656   0.848  -0.676  1.00  0.00    -0.326 OA
ENDROOT
BRANCH   1  10
HETATM   10  O2  UNL     1       1.236  -0.195   0.141  1.00  0.00    -0.304 OA
BRANCH  10  11
HETATM   11  C1  UNL     1       0.590  -1.277   0.526  1.00  0.00     0.099 A 
HETATM   12  C2  UNL     1      -0.486  -1.174   1.426  1.00  0.00     0.052 A 
HETATM   13  C3  UNL     1      -1.182  -2.324   1.840  1.00  0.00     0.133 A 
HETATM   14  O1  UNL     1      -2.189  -2.221   2.682  1.00  0.00    -0.190 OA
HETATM   15  C4  UNL     1      -0.795  -3.584   1.350  1.00  0.00     0.023 A 
HETATM   16  C5  UNL     1       0.279  -3.694   0.449  1.00  0.00    -0.018 A 
HETATM   17  C6  UNL     1       0.686  -5.026  -0.066  1.00  0.00     0.031 C 
HETATM   18  C7  UNL     1       0.971  -2.539   0.039  1.00  0.00     0.020 A 
ENDBRANCH  10  11
ENDBRANCH   1  10
TORSDOF 2
