REMARK  5 active torsions:
REMARK  status: ('A' for Active; 'I' for Inactive)
REMARK    1  A    between atoms: C1_1  and  O4_16 
REMARK    2  A    between atoms: C7_8  and  C10_12 
REMARK    3  A    between atoms: C10_12  and  C11_13 
REMARK    4  A    between atoms: O4_16  and  C13_17 
REMARK    5  A    between atoms: C17_24  and  C18_26 
ROOT
HETATM    1  C1  UNL     1      -0.861  -0.791  -0.617  1.00  0.00     0.101 A 
HETATM    2  C2  UNL     1      -0.707  -2.100  -0.100  1.00  0.00     0.052 A 
HETATM    3  C3  UNL     1       0.584  -2.637   0.107  1.00  0.00     0.138 A 
HETATM    4  C4  UNL     1       1.727  -1.855  -0.207  1.00  0.00     0.087 A 
HETATM    5  C5  UNL     1       1.574  -0.541  -0.725  1.00  0.00     0.107 A 
HETATM    6  C6  UNL     1       0.277  -0.014  -0.930  1.00  0.00     0.049 A 
HETATM    7  O1  UNL     1       2.660   0.207  -1.023  1.00  0.00    -0.311 OA
HETATM    8  C7  UNL     1       3.928  -0.225  -0.856  1.00  0.00     0.081 A 
HETATM    9  C8  UNL     1       4.195  -1.459  -0.371  1.00  0.00     0.062 A 
HETATM   10  C9  UNL     1       3.104  -2.385  -0.004  1.00  0.00     0.201 A 
HETATM   11  O2  UNL     1       3.420  -3.471   0.422  1.00  0.00    -0.286 OA
HETATM   12  O3  UNL     1       0.711  -3.877   0.598  1.00  0.00    -0.190 OA
ENDROOT
BRANCH   1  13
HETATM   13  O4  UNL     1      -2.088  -0.289  -0.813  1.00  0.00    -0.303 OA
BRANCH  13  14
HETATM   14  C13 UNL     1      -3.170  -0.865  -0.090  1.00  0.00     0.274 C 
HETATM   15  C14 UNL     1      -4.483  -0.098  -0.357  1.00  0.00     0.241 C 
HETATM   16  O5  UNL     1      -4.715  -0.057  -1.756  1.00  0.00    -0.215 OA
HETATM   17  C15 UNL     1      -4.428   1.332   0.223  1.00  0.00     0.220 C 
HETATM   18  O6  UNL     1      -5.705   1.941   0.121  1.00  0.00    -0.218 OA
HETATM   19  C16 UNL     1      -3.992   1.268   1.703  1.00  0.00     0.215 C 
HETATM   20  O7  UNL     1      -3.752   2.576   2.189  1.00  0.00    -0.218 OA
HETATM   21  C17 UNL     1      -2.705   0.430   1.883  1.00  0.00     0.184 C 
HETATM   22  O8  UNL     1      -2.887  -0.857   1.305  1.00  0.00    -0.326 OA
BRANCH  21  23
HETATM   23  C18 UNL     1      -2.342   0.207   3.354  1.00  0.00     0.214 C 
HETATM   24  O9  UNL     1      -1.051  -0.355   3.410  1.00  0.00    -0.218 OA
ENDBRANCH  21  23
ENDBRANCH  13  14
ENDBRANCH   1  13
BRANCH   8  25
HETATM   25  C10 UNL     1       5.084   0.672  -1.211  1.00  0.00     0.052 C 
BRANCH  25  26
HETATM   26  C11 UNL     1       4.953   1.266  -2.613  1.00  0.00     0.007 C 
HETATM   27  C12 UNL     1       6.045   2.291  -2.924  1.00  0.00     0.000 C 
ENDBRANCH  25  26
ENDBRANCH   8  25
TORSDOF 5
