REMARK  2 active torsions:
REMARK  status: ('A' for Active; 'I' for Inactive)
REMARK    1  A    between atoms: C8_9  and  C10_12 
REMARK    2  A    between atoms: C14_16  and  O3_18 
ROOT
HETATM    1  C1  UNL     1       5.065   2.078   0.014  1.00  0.00     0.133 A 
HETATM    2  C2  UNL     1       5.203   0.670   0.014  1.00  0.00     0.028 A 
HETATM    3  C3  UNL     1       4.055  -0.156   0.039  1.00  0.00     0.007 A 
HETATM    4  C4  UNL     1       2.766   0.432   0.067  1.00  0.00     0.062 A 
HETATM    5  C5  UNL     1       2.623   1.844   0.070  1.00  0.00     0.105 A 
HETATM    6  C6  UNL     1       3.775   2.664   0.041  1.00  0.00     0.052 A 
HETATM    7  O1  UNL     1       1.397   2.406   0.100  1.00  0.00    -0.305 OA
HETATM    8  C7  UNL     1       0.258   1.684   0.129  1.00  0.00     0.126 A 
HETATM    9  C8  UNL     1       0.256   0.332   0.125  1.00  0.00     0.064 A 
HETATM   10  C9  UNL     1       1.541  -0.414   0.092  1.00  0.00     0.199 A 
HETATM   11  O2  UNL     1       1.502  -1.625   0.088  1.00  0.00    -0.286 OA
HETATM   12  O5  UNL     1       6.152   2.857  -0.013  1.00  0.00    -0.190 OA
ENDROOT
BRANCH   9  13
HETATM   13  C10 UNL     1      -1.047  -0.406   0.156  1.00  0.00     0.009 A 
HETATM   14  C11 UNL     1      -1.166  -1.594   0.901  1.00  0.00     0.028 A 
HETATM   15  C12 UNL     1      -2.389  -2.287   0.932  1.00  0.00     0.133 A 
HETATM   16  C13 UNL     1      -3.490  -1.791   0.215  1.00  0.00     0.052 A 
HETATM   17  O4  UNL     1      -2.500  -3.401   1.629  1.00  0.00    -0.190 OA
HETATM   18  C14 UNL     1      -3.377  -0.604  -0.531  1.00  0.00     0.096 A 
HETATM   19  C15 UNL     1      -2.152   0.088  -0.558  1.00  0.00     0.025 A 
BRANCH  18  20
HETATM   20  O3  UNL     1      -4.412  -0.141  -1.201  1.00  0.00    -0.328 OA
HETATM   21  C16 UNL     1      -5.604  -0.916  -1.207  1.00  0.00     0.181 C 
ENDBRANCH  18  20
ENDBRANCH   9  13
TORSDOF 2
