REMARK  12 active torsions:
REMARK  status: ('A' for Active; 'I' for Inactive)
REMARK    1  A    between atoms: C3_3  and  O4_10 
REMARK    2  A    between atoms: C4_5  and  C6_8 
REMARK    3  A    between atoms: O4_10  and  C7_11 
REMARK    4  A    between atoms: C10_14  and  O6_17 
REMARK    5  A    between atoms: O6_17  and  C12_18 
REMARK    6  A    between atoms: C13_19  and  C47_63 
REMARK    7  A    between atoms: C27_34  and  C37_46 
REMARK    8  A    between atoms: C32_39  and  C35_42 
REMARK    9  A    between atoms: C35_42  and  O9_44 
REMARK   10  A    between atoms: C37_46  and  O11_48 
REMARK   11  A    between atoms: O11_48  and  C38_49 
REMARK   12  A    between atoms: C42_53  and  C43_55 
ROOT
HETATM    1  C12 UNL     1      -4.565   1.715  -0.352  1.00  0.00     0.150 C 
HETATM    2  C13 UNL     1      -3.789   3.072  -0.176  1.00  0.00     0.059 C 
HETATM    3  C14 UNL     1      -2.264   2.871  -0.424  1.00  0.00     0.008 C 
HETATM    4  C15 UNL     1      -1.727   1.529   0.148  1.00  0.00     0.018 C 
HETATM    5  C16 UNL     1      -2.361   0.342  -0.615  1.00  0.00     0.039 C 
HETATM    6  C17 UNL     1      -3.793   0.629  -1.148  1.00  0.00     0.180 C 
HETATM    7  O7  UNL     1      -3.721   1.027  -2.506  1.00  0.00    -0.221 OA
HETATM    8  C18 UNL     1      -0.197   1.504   0.090  1.00  0.00    -0.045 C 
HETATM    9  C19 UNL     1       0.514   2.440  -0.883  1.00  0.00     0.018 C 
HETATM   10  C20 UNL     1       0.147   3.859  -0.373  1.00  0.00     0.004 C 
HETATM   11  C21 UNL     1      -1.357   4.063  -0.021  1.00  0.00     0.001 C 
HETATM   12  C22 UNL     1       2.066   2.156  -1.004  1.00  0.00     0.018 C 
HETATM   13  C23 UNL     1       2.709   1.615   0.264  1.00  0.00    -0.044 C 
HETATM   14  C24 UNL     1       1.957   0.897   1.121  1.00  0.00    -0.009 C 
HETATM   15  C25 UNL     1       0.510   0.729   0.938  1.00  0.00    -0.009 C 
HETATM   16  C26 UNL     1       4.193   1.895   0.525  1.00  0.00     0.028 C 
HETATM   17  C27 UNL     1       5.016   2.164  -0.770  1.00  0.00     0.082 C 
HETATM   18  C28 UNL     1       4.332   3.209  -1.701  1.00  0.00     0.010 C 
HETATM   19  C29 UNL     1       2.832   3.424  -1.443  1.00  0.00     0.004 C 
HETATM   20  C30 UNL     1       6.451   2.645  -0.404  1.00  0.00     0.010 C 
HETATM   21  C31 UNL     1       6.938   2.225   0.996  1.00  0.00     0.010 C 
HETATM   22  C32 UNL     1       6.428   0.836   1.416  1.00  0.00     0.078 C 
HETATM   23  C33 UNL     1       4.873   0.816   1.418  1.00  0.00     0.014 C 
HETATM   24  C34 UNL     1       6.992  -0.234   0.473  1.00  0.00     0.010 C 
HETATM   25  C44 UNL     1       2.295   1.035  -2.035  1.00  0.00     0.004 C 
HETATM   26  C45 UNL     1      -0.070   2.281  -2.301  1.00  0.00     0.004 C 
HETATM   27  C46 UNL     1      -2.115   1.463   1.639  1.00  0.00     0.004 C 
HETATM   28  C48 UNL     1      -4.041   3.727   1.195  1.00  0.00     0.005 C 
ENDROOT
BRANCH   1  29
HETATM   29  O6  UNL     1      -4.918   1.145   0.896  1.00  0.00    -0.329 OA
BRANCH  29  30
HETATM   30  C10 UNL     1      -5.867   0.100   0.783  1.00  0.00     0.270 C 
HETATM   31  C9  UNL     1      -7.039   0.328   1.779  1.00  0.00     0.241 C 
HETATM   32  C8  UNL     1      -6.682  -0.033   3.244  1.00  0.00     0.217 C 
HETATM   33  O18 UNL     1      -8.141  -0.465   1.371  1.00  0.00    -0.215 OA
HETATM   34  C7  UNL     1      -5.881  -1.352   3.342  1.00  0.00     0.180 C 
HETATM   35  O19 UNL     1      -5.893   1.010   3.785  1.00  0.00    -0.218 OA
HETATM   36  C11 UNL     1      -4.760  -1.441   2.281  1.00  0.00     0.177 C 
HETATM   37  O5  UNL     1      -5.266  -1.180   0.973  1.00  0.00    -0.326 OA
BRANCH  34  38
HETATM   38  O4  UNL     1      -6.758  -2.451   3.189  1.00  0.00    -0.326 OA
BRANCH  38  39
HETATM   39  C3  UNL     1      -6.154  -3.693   3.492  1.00  0.00     0.270 C 
HETATM   40  C2  UNL     1      -7.088  -4.547   4.389  1.00  0.00     0.241 C 
HETATM   41  C1  UNL     1      -6.506  -5.963   4.604  1.00  0.00     0.220 C 
HETATM   42  O20 UNL     1      -7.250  -3.908   5.645  1.00  0.00    -0.215 OA
HETATM   43  C5  UNL     1      -6.129  -6.586   3.242  1.00  0.00     0.215 C 
HETATM   44  O21 UNL     1      -7.461  -6.781   5.260  1.00  0.00    -0.218 OA
HETATM   45  C4  UNL     1      -5.238  -5.633   2.414  1.00  0.00     0.184 C 
HETATM   46  O2  UNL     1      -5.428  -7.799   3.445  1.00  0.00    -0.218 OA
HETATM   47  O1  UNL     1      -5.895  -4.377   2.273  1.00  0.00    -0.326 OA
BRANCH  45  48
HETATM   48  C6  UNL     1      -4.967  -6.152   0.998  1.00  0.00     0.214 C 
HETATM   49  O3  UNL     1      -4.008  -5.313   0.396  1.00  0.00    -0.218 OA
ENDBRANCH  45  48
ENDBRANCH  38  39
ENDBRANCH  34  38
ENDBRANCH  29  30
ENDBRANCH   1  29
BRANCH   2  50
HETATM   50  C47 UNL     1      -4.315   4.068  -1.221  1.00  0.00     0.185 C 
HETATM   51  O17 UNL     1      -5.693   4.258  -0.994  1.00  0.00    -0.221 OA
ENDBRANCH   2  50
BRANCH  17  52
HETATM   52  C37 UNL     1       5.139   0.863  -1.539  1.00  0.00     0.273 C 
HETATM   53  O10 UNL     1       4.826  -0.189  -1.035  1.00  0.00    -0.264 OA
BRANCH  52  54
HETATM   54  O11 UNL     1       5.606   0.982  -2.779  1.00  0.00    -0.273 OA
BRANCH  54  55
HETATM   55  C38 UNL     1       5.785  -0.277  -3.412  1.00  0.00     0.276 C 
HETATM   56  C39 UNL     1       6.686  -0.139  -4.658  1.00  0.00     0.241 C 
HETATM   57  C40 UNL     1       6.955  -1.525  -5.295  1.00  0.00     0.220 C 
HETATM   58  O16 UNL     1       7.914   0.459  -4.289  1.00  0.00    -0.215 OA
HETATM   59  C41 UNL     1       5.756  -2.488  -5.084  1.00  0.00     0.215 C 
HETATM   60  O15 UNL     1       7.176  -1.352  -6.684  1.00  0.00    -0.218 OA
HETATM   61  C42 UNL     1       4.430  -1.725  -4.840  1.00  0.00     0.184 C 
HETATM   62  O14 UNL     1       6.014  -3.332  -3.975  1.00  0.00    -0.218 OA
HETATM   63  O12 UNL     1       4.502  -0.809  -3.744  1.00  0.00    -0.326 OA
BRANCH  61  64
HETATM   64  C43 UNL     1       3.996  -0.922  -6.070  1.00  0.00     0.214 C 
HETATM   65  O13 UNL     1       2.592  -0.801  -6.045  1.00  0.00    -0.218 OA
ENDBRANCH  61  64
ENDBRANCH  54  55
ENDBRANCH  52  54
ENDBRANCH  17  52
BRANCH  22  66
HETATM   66  C35 UNL     1       6.949   0.498   2.793  1.00  0.00     0.271 C 
HETATM   67  O8  UNL     1       6.889  -0.629   3.223  1.00  0.00    -0.264 OA
BRANCH  66  68
HETATM   68  O9  UNL     1       7.469   1.522   3.467  1.00  0.00    -0.299 OA
HETATM   69  C36 UNL     1       7.854   1.160   4.783  1.00  0.00     0.184 C 
ENDBRANCH  66  68
ENDBRANCH  22  66
TORSDOF 12
