REMARK  0 active torsions:
REMARK  status: ('A' for Active; 'I' for Inactive)
ROOT
HETATM    1  C1  UNL     1       4.777  -1.004  -2.287  1.00  0.00     0.033 C 
HETATM    2  C2  UNL     1       5.666  -0.115  -1.402  1.00  0.00     0.152 C 
HETATM    3  C3  UNL     1       5.192  -0.072   0.074  1.00  0.00     0.028 C 
HETATM    4  C4  UNL     1       3.695   0.352   0.109  1.00  0.00     0.002 C 
HETATM    5  C5  UNL     1       2.764  -0.531  -0.771  1.00  0.00     0.001 C 
HETATM    6  C6  UNL     1       3.313  -0.553  -2.217  1.00  0.00     0.003 C 
HETATM    7  C7  UNL     1       1.328   0.078  -0.752  1.00  0.00     0.005 C 
HETATM    8  C8  UNL     1       0.725   0.254   0.676  1.00  0.00     0.004 C 
HETATM    9  C9  UNL     1       1.713   1.082   1.529  1.00  0.00     0.000 C 
HETATM   10  C10 UNL     1       3.133   0.496   1.537  1.00  0.00     0.000 C 
HETATM   11  C11 UNL     1      -0.666   0.955   0.537  1.00  0.00     0.017 C 
HETATM   12  C12 UNL     1      -1.607   0.041  -0.242  1.00  0.00    -0.049 C 
HETATM   13  C13 UNL     1      -1.121  -0.609  -1.326  1.00  0.00    -0.035 C 
HETATM   14  C14 UNL     1       0.344  -0.621  -1.719  1.00  0.00     0.025 C 
HETATM   15  C15 UNL     1      -3.055  -0.172   0.238  1.00  0.00     0.020 C 
HETATM   16  C16 UNL     1      -3.709   0.973   1.102  1.00  0.00     0.032 C 
HETATM   17  C17 UNL     1      -2.660   1.945   1.723  1.00  0.00     0.153 C 
HETATM   18  C18 UNL     1      -1.283   1.303   1.906  1.00  0.00     0.037 C 
HETATM   19  O1  UNL     1      -3.092   2.488   2.959  1.00  0.00    -0.223 OA
HETATM   20  C19 UNL     1      -4.664   1.803   0.221  1.00  0.00     0.003 C 
HETATM   21  C20 UNL     1      -5.842   0.996  -0.346  1.00  0.00     0.000 C 
HETATM   22  C21 UNL     1      -5.518  -0.492  -0.557  1.00  0.00     0.000 C 
HETATM   23  C22 UNL     1      -4.023  -0.723  -0.863  1.00  0.00     0.004 C 
HETATM   24  C23 UNL     1      -3.791  -2.225  -1.107  1.00  0.00     0.000 C 
HETATM   25  C24 UNL     1      -6.430  -1.090  -1.635  1.00  0.00     0.000 C 
HETATM   26  C25 UNL     1      -4.537   0.303   2.225  1.00  0.00     0.003 C 
HETATM   27  C26 UNL     1      -0.525   2.260  -0.271  1.00  0.00     0.004 C 
HETATM   28  C27 UNL     1       0.529  -1.109   1.363  1.00  0.00     0.000 C 
HETATM   29  C28 UNL     1       2.727  -1.979  -0.254  1.00  0.00     0.000 C 
HETATM   30  C29 UNL     1       6.033   0.963   0.836  1.00  0.00     0.003 C 
HETATM   31  C30 UNL     1       5.389  -1.434   0.758  1.00  0.00     0.003 C 
HETATM   32  O2  UNL     1       7.004  -0.574  -1.490  1.00  0.00    -0.224 OA
ENDROOT
TORSDOF 0
