REMARK  1 active torsions:
REMARK  status: ('A' for Active; 'I' for Inactive)
REMARK    1  A    between atoms: C14_16  and  C17_21 
ROOT
HETATM    1  C1  UNL     1       5.365   1.810   0.332  1.00  0.00     0.291 A 
HETATM    2  C2  UNL     1       4.006   1.512  -0.084  1.00  0.00     0.035 A 
HETATM    3  C3  UNL     1       3.428   0.803   0.879  1.00  0.00    -0.013 A 
HETATM    4  C4  UNL     1       4.414   0.594   1.996  1.00  0.00     0.174 A 
HETATM    5  O1  UNL     1       5.598   1.283   1.545  1.00  0.00    -0.294 OA
HETATM    6  C5  UNL     1       2.000   0.309   0.832  1.00  0.00     0.032 C 
HETATM    7  C6  UNL     1       1.410   0.344  -0.604  1.00  0.00     0.022 C 
HETATM    8  C7  UNL     1       1.785   1.701  -1.260  1.00  0.00     0.009 C 
HETATM    9  C8  UNL     1       3.312   1.910  -1.363  1.00  0.00     0.032 C 
HETATM   10  C9  UNL     1      -0.094   0.078  -0.486  1.00  0.00    -0.011 C 
HETATM   11  C10 UNL     1      -0.541  -0.848   0.408  1.00  0.00     0.039 C 
HETATM   12  C11 UNL     1       0.398  -1.568   1.310  1.00  0.00     0.171 C 
HETATM   13  C12 UNL     1       1.820  -1.080   1.459  1.00  0.00     0.073 C 
HETATM   14  O2  UNL     1       0.031  -2.541   1.930  1.00  0.00    -0.292 OA
HETATM   15  C13 UNL     1      -2.022  -1.188   0.545  1.00  0.00     0.204 C 
HETATM   16  C14 UNL     1      -3.039  -0.170   0.025  1.00  0.00     0.152 A 
HETATM   17  C15 UNL     1      -2.526   0.891  -0.990  1.00  0.00     0.177 A 
HETATM   18  C16 UNL     1      -1.047   0.873  -1.375  1.00  0.00     0.200 C 
HETATM   19  O3  UNL     1      -0.971   0.359  -2.688  1.00  0.00    -0.216 OA
HETATM   20  O4  UNL     1      -2.680   1.133   0.375  1.00  0.00    -0.351 OA
HETATM   21  O5  UNL     1      -2.264  -2.395  -0.149  1.00  0.00    -0.216 OA
HETATM   22  C20 UNL     1       1.994  -0.785  -1.471  1.00  0.00     0.004 C 
HETATM   23  O6  UNL     1       6.154   2.439  -0.334  1.00  0.00    -0.260 OA
ENDROOT
BRANCH  16  24
HETATM   24  C17 UNL     1      -4.531  -0.336   0.285  1.00  0.00     0.030 C 
HETATM   25  C18 UNL     1      -4.756  -0.717   1.748  1.00  0.00     0.003 C 
HETATM   26  C19 UNL     1      -5.106  -1.367  -0.688  1.00  0.00     0.003 C 
ENDBRANCH  16  24
TORSDOF 1
