REMARK  12 active torsions:
REMARK  status: ('A' for Active; 'I' for Inactive)
REMARK    1  A    between atoms: C4_4  and  C7_8 
REMARK    2  A    between atoms: C8_9  and  C9_10 
REMARK    3  A    between atoms: C9_10  and  O2_11 
REMARK    4  A    between atoms: O2_11  and  C10_12 
REMARK    5  A    between atoms: C11_13  and  C29_43 
REMARK    6  A    between atoms: C12_15  and  O11_31 
REMARK    7  A    between atoms: C14_17  and  O4_18 
REMARK    8  A    between atoms: O4_18  and  C15_19 
REMARK    9  A    between atoms: C19_23  and  C20_25 
REMARK   10  A    between atoms: O11_31  and  C21_32 
REMARK   11  A    between atoms: C21_32  and  C22_33 
REMARK   12  A    between atoms: C22_33  and  C23_34 
ROOT
HETATM    1  C10 UNL     1      -0.949  -0.508   0.740  1.00  0.00     0.184 C 
HETATM    2  C11 UNL     1       0.453  -0.887   1.268  1.00  0.00     0.181 C 
HETATM    3  O3  UNL     1       0.885  -2.096   0.654  1.00  0.00    -0.326 OA
HETATM    4  C12 UNL     1       0.988  -2.047  -0.764  1.00  0.00     0.270 C 
HETATM    5  C13 UNL     1      -0.389  -1.725  -1.410  1.00  0.00     0.238 C 
HETATM    6  C14 UNL     1      -1.000  -0.445  -0.801  1.00  0.00     0.183 C 
HETATM    7  O10 UNL     1      -1.305  -2.789  -1.207  1.00  0.00    -0.215 OA
ENDROOT
BRANCH   1   8
HETATM    8  O2  UNL     1      -1.352   0.736   1.299  1.00  0.00    -0.296 OA
BRANCH   8   9
HETATM    9  C9  UNL     1      -2.662   0.940   1.191  1.00  0.00     0.296 C 
HETATM   10  O16 UNL     1      -3.440   0.115   0.770  1.00  0.00    -0.259 OA
BRANCH   9  11
HETATM   11  C8  UNL     1      -3.139   2.258   1.627  1.00  0.00     0.068 C 
HETATM   12  C7  UNL     1      -2.275   3.190   2.063  1.00  0.00     0.005 C 
BRANCH  12  13
HETATM   13  C4  UNL     1      -2.811   4.516   2.494  1.00  0.00     0.002 A 
HETATM   14  C3  UNL     1      -1.992   5.658   2.434  1.00  0.00     0.002 A 
HETATM   15  C2  UNL     1      -2.498   6.904   2.840  1.00  0.00     0.029 A 
HETATM   16  C1  UNL     1      -3.818   7.016   3.307  1.00  0.00     0.156 A 
HETATM   17  C6  UNL     1      -4.639   5.871   3.367  1.00  0.00     0.156 A 
HETATM   18  O17 UNL     1      -4.285   8.188   3.688  1.00  0.00    -0.188 OA
HETATM   19  C5  UNL     1      -4.131   4.625   2.961  1.00  0.00     0.029 A 
HETATM   20  O1  UNL     1      -5.879   5.967   3.805  1.00  0.00    -0.188 OA
ENDBRANCH  12  13
ENDBRANCH   9  11
ENDBRANCH   8   9
ENDBRANCH   1   8
BRANCH   2  21
HETATM   21  C29 UNL     1       0.465  -1.117   2.779  1.00  0.00     0.214 C 
HETATM   22  O15 UNL     1       1.807  -1.234   3.197  1.00  0.00    -0.218 OA
ENDBRANCH   2  21
BRANCH   6  23
HETATM   23  O4  UNL     1      -0.258   0.672  -1.254  1.00  0.00    -0.326 OA
BRANCH  23  24
HETATM   24  C15 UNL     1      -0.406   0.918  -2.643  1.00  0.00     0.270 C 
HETATM   25  C16 UNL     1      -0.842   2.379  -2.943  1.00  0.00     0.241 C 
HETATM   26  C17 UNL     1       0.281   3.412  -2.697  1.00  0.00     0.220 C 
HETATM   27  O9  UNL     1      -2.029   2.721  -2.244  1.00  0.00    -0.215 OA
HETATM   28  C18 UNL     1       1.555   2.928  -3.432  1.00  0.00     0.215 C 
HETATM   29  O8  UNL     1       0.533   3.563  -1.307  1.00  0.00    -0.218 OA
HETATM   30  C19 UNL     1       1.910   1.461  -3.082  1.00  0.00     0.184 C 
HETATM   31  O7  UNL     1       2.656   3.774  -3.150  1.00  0.00    -0.218 OA
HETATM   32  O5  UNL     1       0.791   0.619  -3.356  1.00  0.00    -0.326 OA
BRANCH  30  33
HETATM   33  C20 UNL     1       3.076   0.920  -3.918  1.00  0.00     0.214 C 
HETATM   34  O6  UNL     1       3.414  -0.357  -3.428  1.00  0.00    -0.218 OA
ENDBRANCH  30  33
ENDBRANCH  23  24
ENDBRANCH   6  23
BRANCH   4  35
HETATM   35  O11 UNL     1       1.510  -3.264  -1.258  1.00  0.00    -0.326 OA
BRANCH  35  36
HETATM   36  C21 UNL     1       2.902  -3.385  -1.084  1.00  0.00     0.182 C 
BRANCH  36  37
HETATM   37  C22 UNL     1       3.164  -3.932   0.320  1.00  0.00     0.204 C 
HETATM   38  O14 UNL     1       4.525  -4.285   0.408  1.00  0.00    -0.216 OA
BRANCH  37  39
HETATM   39  C23 UNL     1       2.322  -5.121   0.607  1.00  0.00     0.012 A 
HETATM   40  C24 UNL     1       2.301  -6.203  -0.291  1.00  0.00     0.028 A 
HETATM   41  C25 UNL     1       1.506  -7.332  -0.023  1.00  0.00     0.156 A 
HETATM   42  C26 UNL     1       0.729  -7.379   1.150  1.00  0.00     0.156 A 
HETATM   43  O13 UNL     1       1.490  -8.340  -0.869  1.00  0.00    -0.188 OA
HETATM   44  C27 UNL     1       0.750  -6.297   2.049  1.00  0.00     0.029 A 
HETATM   45  O12 UNL     1      -0.020  -8.432   1.410  1.00  0.00    -0.188 OA
HETATM   46  C28 UNL     1       1.545  -5.170   1.779  1.00  0.00     0.001 A 
ENDBRANCH  37  39
ENDBRANCH  36  37
ENDBRANCH  35  36
ENDBRANCH   4  35
TORSDOF 12
