REMARK  5 active torsions:
REMARK  status: ('A' for Active; 'I' for Inactive)
REMARK    1  A    between atoms: C12_13  and  O7_26 
REMARK    2  A    between atoms: C14_15  and  C17_20 
REMARK    3  A    between atoms: C17_20  and  O5_22 
REMARK    4  A    between atoms: O7_26  and  C20_27 
REMARK    5  A    between atoms: C20_27  and  C21_28 
ROOT
HETATM    1  C1  UNL     1      -5.084  -1.803  -0.131  1.00  0.00     0.165 A 
HETATM    2  C2  UNL     1      -5.590  -0.783  -1.061  1.00  0.00     0.216 A 
HETATM    3  C3  UNL     1      -4.889   0.506  -1.178  1.00  0.00     0.012 A 
HETATM    4  C4  UNL     1      -3.752   0.742  -0.482  1.00  0.00    -0.039 A 
HETATM    5  C5  UNL     1      -3.141  -0.305   0.439  1.00  0.00     0.045 A 
HETATM    6  C6  UNL     1      -3.957  -1.580   0.570  1.00  0.00     0.008 A 
HETATM    7  C7  UNL     1      -1.623  -0.539   0.158  1.00  0.00     0.046 C 
HETATM    8  C8  UNL     1      -0.984   0.607  -0.684  1.00  0.00     0.062 C 
HETATM    9  C9  UNL     1      -1.502   1.980  -0.260  1.00  0.00     0.131 C 
HETATM   10  C10 UNL     1      -3.010   2.066  -0.586  1.00  0.00     0.052 C 
HETATM   11  O1  UNL     1      -1.268   2.201   1.139  1.00  0.00    -0.302 OA
HETATM   12  C11 UNL     1      -0.051   1.906   1.643  1.00  0.00     0.300 C 
HETATM   13  C12 UNL     1       0.898   0.928   0.961  1.00  0.00     0.213 C 
HETATM   14  C13 UNL     1       0.533   0.664  -0.506  1.00  0.00     0.079 C 
HETATM   15  C14 UNL     1       0.879  -0.615  -1.297  1.00  0.00     0.203 C 
HETATM   16  C15 UNL     1       0.355  -1.949  -0.682  1.00  0.00     0.216 C 
HETATM   17  C16 UNL     1      -1.164  -1.934  -0.344  1.00  0.00     0.186 C 
HETATM   18  O2  UNL     1      -1.906  -2.334  -1.484  1.00  0.00    -0.221 OA
HETATM   19  O3  UNL     1       1.076  -2.246   0.498  1.00  0.00    -0.218 OA
HETATM   20  O6  UNL     1       0.133  -0.395  -2.483  1.00  0.00    -0.347 OA
HETATM   21  C19 UNL     1      -1.004   0.406  -2.211  1.00  0.00     0.145 C 
HETATM   22  O9  UNL     1       0.318   2.406   2.680  1.00  0.00    -0.262 OA
HETATM   23  C25 UNL     1      -5.465   1.564  -2.088  1.00  0.00     0.034 C 
HETATM   24  O10 UNL     1      -6.578  -1.006  -1.723  1.00  0.00    -0.285 OA
HETATM   25  O11 UNL     1      -5.740  -2.951   0.021  1.00  0.00    -0.187 OA
ENDROOT
BRANCH  13  26
HETATM   26  O7  UNL     1       2.227   1.432   1.021  1.00  0.00    -0.291 OA
BRANCH  26  27
HETATM   27  C20 UNL     1       2.781   1.248   2.215  1.00  0.00     0.296 C 
HETATM   28  O8  UNL     1       2.240   0.672   3.129  1.00  0.00    -0.259 OA
BRANCH  27  29
HETATM   29  C21 UNL     1       4.133   1.799   2.379  1.00  0.00     0.060 C 
HETATM   30  C22 UNL     1       5.139   1.023   2.814  1.00  0.00    -0.038 C 
HETATM   31  C23 UNL     1       6.549   1.490   3.064  1.00  0.00     0.026 C 
HETATM   32  C24 UNL     1       4.861  -0.430   3.084  1.00  0.00     0.026 C 
ENDBRANCH  27  29
ENDBRANCH  26  27
ENDBRANCH  13  26
BRANCH  15  33
HETATM   33  C17 UNL     1       2.342  -0.688  -1.672  1.00  0.00     0.299 C 
HETATM   34  O4  UNL     1       3.117   0.168  -1.315  1.00  0.00    -0.262 OA
BRANCH  33  35
HETATM   35  O5  UNL     1       2.688  -1.740  -2.406  1.00  0.00    -0.297 OA
HETATM   36  C18 UNL     1       4.070  -1.746  -2.727  1.00  0.00     0.185 C 
ENDBRANCH  33  35
ENDBRANCH  15  33
TORSDOF 5
