REMARK  6 active torsions:
REMARK  status: ('A' for Active; 'I' for Inactive)
REMARK    1  A    between atoms: C5_5  and  C7_7 
REMARK    2  A    between atoms: C7_7  and  C8_8 
REMARK    3  A    between atoms: C8_8  and  C9_9 
REMARK    4  A    between atoms: C8_8  and  C10_11 
REMARK    5  A    between atoms: C10_11  and  C11_12 
REMARK    6  A    between atoms: C12_13  and  C13_14 
ROOT
HETATM    1  C8  UNL     1      -0.475  -0.086   1.094  1.00  0.00     0.072 C 
ENDROOT
BRANCH   1   2
HETATM    2  C7  UNL     1      -0.660  -0.625   2.514  1.00  0.00     0.177 C 
HETATM    3  O3  UNL     1      -1.420   0.311   3.244  1.00  0.00    -0.218 OA
BRANCH   2   4
HETATM    4  C5  UNL     1      -1.355  -1.937   2.514  1.00  0.00     0.008 A 
HETATM    5  C4  UNL     1      -0.609  -3.129   2.514  1.00  0.00     0.000 A 
HETATM    6  C3  UNL     1      -1.270  -4.371   2.514  1.00  0.00     0.027 A 
HETATM    7  C2  UNL     1      -2.674  -4.426   2.514  1.00  0.00     0.131 A 
HETATM    8  C1  UNL     1      -3.418  -3.232   2.514  1.00  0.00     0.027 A 
HETATM    9  O4  UNL     1      -3.291  -5.590   2.514  1.00  0.00    -0.190 OA
HETATM   10  C6  UNL     1      -2.760  -1.990   2.514  1.00  0.00     0.000 A 
ENDBRANCH   2   4
ENDBRANCH   1   2
BRANCH   1  11
HETATM   11  C9  UNL     1      -1.797   0.070   0.344  1.00  0.00     0.185 C 
HETATM   12  O1  UNL     1      -1.512   0.463  -0.979  1.00  0.00    -0.221 OA
ENDBRANCH   1  11
BRANCH   1  13
HETATM   13  C10 UNL     1       0.381   1.180   1.051  1.00  0.00     0.032 C 
BRANCH  13  14
HETATM   14  C11 UNL     1       1.154   1.309  -0.235  1.00  0.00    -0.026 C 
HETATM   15  C12 UNL     1       1.096   2.471  -0.904  1.00  0.00    -0.005 C 
BRANCH  15  16
HETATM   16  C13 UNL     1       1.859   2.604  -2.180  1.00  0.00    -0.000 A 
HETATM   17  C14 UNL     1       1.393   3.455  -3.198  1.00  0.00     0.002 A 
HETATM   18  C15 UNL     1       2.113   3.578  -4.397  1.00  0.00     0.027 A 
HETATM   19  C16 UNL     1       3.301   2.850  -4.588  1.00  0.00     0.131 A 
HETATM   20  C17 UNL     1       3.766   2.000  -3.569  1.00  0.00     0.027 A 
HETATM   21  O2  UNL     1       3.977   2.967  -5.713  1.00  0.00    -0.190 OA
HETATM   22  C18 UNL     1       3.049   1.875  -2.367  1.00  0.00     0.002 A 
ENDBRANCH  15  16
ENDBRANCH  13  14
ENDBRANCH   1  13
TORSDOF 6
