REMARK  1 active torsions:
REMARK  status: ('A' for Active; 'I' for Inactive)
REMARK    1  A    between atoms: C12_12  and  C15_17 
ROOT
HETATM    1  C1  UNL     1      -3.535  -1.111   1.184  1.00  0.00     0.005 C 
HETATM    2  C2  UNL     1      -4.086  -0.447  -0.072  1.00  0.00     0.004 C 
HETATM    3  C3  UNL     1      -3.328   0.859  -0.379  1.00  0.00     0.019 C 
HETATM    4  C4  UNL     1      -1.840   0.690  -0.314  1.00  0.00    -0.027 A 
HETATM    5  C5  UNL     1      -1.225  -0.441   0.322  1.00  0.00    -0.023 A 
HETATM    6  C6  UNL     1      -2.061  -1.480   0.996  1.00  0.00     0.026 C 
HETATM    7  C7  UNL     1       0.203  -0.570   0.305  1.00  0.00     0.038 A 
HETATM    8  C8  UNL     1       0.996   0.451  -0.293  1.00  0.00     0.003 A 
HETATM    9  C9  UNL     1       0.385   1.578  -0.883  1.00  0.00    -0.000 A 
HETATM   10  C10 UNL     1      -1.018   1.692  -0.895  1.00  0.00    -0.005 A 
HETATM   11  C11 UNL     1       2.482   0.344  -0.303  1.00  0.00    -0.001 A 
HETATM   12  C12 UNL     1       3.121  -0.707   0.244  1.00  0.00     0.020 A 
HETATM   13  C13 UNL     1       2.365  -1.803   0.877  1.00  0.00     0.230 A 
HETATM   14  C14 UNL     1       0.885  -1.771   0.900  1.00  0.00     0.234 A 
HETATM   15  O1  UNL     1       0.359  -2.738   1.406  1.00  0.00    -0.283 OA
HETATM   16  O2  UNL     1       2.961  -2.732   1.375  1.00  0.00    -0.283 OA
HETATM   17  C18 UNL     1      -3.770   1.324  -1.775  1.00  0.00     0.004 C 
HETATM   18  C19 UNL     1      -3.740   1.932   0.641  1.00  0.00     0.004 C 
ENDROOT
BRANCH  12  19
HETATM   19  C15 UNL     1       4.627  -0.758   0.209  1.00  0.00     0.026 C 
HETATM   20  C16 UNL     1       5.268   0.522   0.750  1.00  0.00     0.005 C 
HETATM   21  C17 UNL     1       5.164  -1.148  -1.168  1.00  0.00     0.005 C 
ENDBRANCH  12  19
TORSDOF 1
