REMARK  2 active torsions:
REMARK  status: ('A' for Active; 'I' for Inactive)
REMARK    1  A    between atoms: C5_5  and  C7_7 
REMARK    2  A    between atoms: C7_7  and  C8_8 
ROOT
HETATM    1  C1  UNL     1      -1.774  -1.199   0.387  1.00  0.00     0.156 A 
HETATM    2  C2  UNL     1      -1.026  -2.393   0.387  1.00  0.00     0.156 A 
HETATM    3  C3  UNL     1       0.379  -2.338   0.387  1.00  0.00     0.029 A 
HETATM    4  C4  UNL     1       1.039  -1.096   0.387  1.00  0.00    -0.002 A 
HETATM    5  C5  UNL     1       0.293   0.096   0.387  1.00  0.00    -0.018 A 
HETATM    6  C6  UNL     1      -1.112   0.041   0.387  1.00  0.00     0.025 A 
HETATM    7  O1  UNL     1      -1.639  -3.559   0.387  1.00  0.00    -0.188 OA
HETATM    8  O2  UNL     1      -3.092  -1.240   0.387  1.00  0.00    -0.188 OA
ENDROOT
BRANCH   5   9
HETATM    9  C7  UNL     1       0.988   1.408   0.387  1.00  0.00     0.068 C 
BRANCH   9  10
HETATM   10  C8  UNL     1       0.947   2.067  -0.992  1.00  0.00     0.343 C 
HETATM   11  N1  UNL     1       1.642   3.342  -0.969  1.00  0.00     0.618 N 
ENDBRANCH   9  10
ENDBRANCH   5   9
TORSDOF 2
