REMARK  6 active torsions:
REMARK  status: ('A' for Active; 'I' for Inactive)
REMARK    1  A    between atoms: C1_1  and  O5_29 
REMARK    2  A    between atoms: C2_2  and  O4_26 
REMARK    3  A    between atoms: C6_6  and  O1_7 
REMARK    4  A    between atoms: O1_7  and  C7_8 
REMARK    5  A    between atoms: C16_18  and  C19_22 
REMARK    6  A    between atoms: O4_26  and  C22_27 
ROOT
HETATM    1  C1  UNL     1      -1.715  -1.406  -0.041  1.00  0.00     0.138 A 
HETATM    2  C2  UNL     1      -0.334  -1.631   0.142  1.00  0.00     0.118 A 
HETATM    3  C3  UNL     1       0.600  -0.549   0.043  1.00  0.00     0.022 A 
HETATM    4  C4  UNL     1       0.105   0.768  -0.238  1.00  0.00     0.006 A 
HETATM    5  C5  UNL     1      -1.303   0.990  -0.338  1.00  0.00     0.002 A 
HETATM    6  C6  UNL     1      -2.199  -0.103  -0.272  1.00  0.00     0.114 A 
HETATM    7  C9  UNL     1      -1.844   2.359  -0.504  1.00  0.00     0.061 C 
HETATM    8  C10 UNL     1      -0.910   3.412   0.103  1.00  0.00     0.222 C 
HETATM    9  N1  UNL     1       0.482   3.332  -0.539  1.00  0.00    -0.001 N 
HETATM   10  C11 UNL     1       1.092   1.889  -0.418  1.00  0.00     0.215 C 
HETATM   11  C12 UNL     1       2.232   1.758   0.619  1.00  0.00     0.062 C 
HETATM   12  C13 UNL     1       2.865   0.416   0.555  1.00  0.00    -0.018 A 
HETATM   13  C14 UNL     1       2.068  -0.728   0.240  1.00  0.00    -0.002 A 
HETATM   14  C15 UNL     1       2.717  -1.994   0.127  1.00  0.00     0.000 A 
HETATM   15  C16 UNL     1       4.102  -2.127   0.377  1.00  0.00     0.036 A 
HETATM   16  C17 UNL     1       4.873  -0.992   0.717  1.00  0.00     0.129 A 
HETATM   17  C18 UNL     1       4.256   0.275   0.801  1.00  0.00     0.023 A 
HETATM   18  O2  UNL     1       6.207  -1.107   0.963  1.00  0.00    -0.190 OA
HETATM   19  C20 UNL     1       1.371   4.404   0.109  1.00  0.00     0.250 C 
HETATM   20  C21 UNL     1       0.350   3.711  -2.024  1.00  0.00     0.250 C 
ENDROOT
BRANCH   2  21
HETATM   21  O4  UNL     1       0.041  -2.885   0.439  1.00  0.00    -0.329 OA
BRANCH  21  22
HETATM   22  C22 UNL     1      -0.344  -3.414   1.699  1.00  0.00     0.149 C 
HETATM   23  C23 UNL     1       0.375  -4.742   1.935  1.00  0.00     0.035 C 
ENDBRANCH  21  22
ENDBRANCH   2  21
BRANCH   1  24
HETATM   24  O5  UNL     1      -2.572  -2.436   0.021  1.00  0.00    -0.324 OA
HETATM   25  C24 UNL     1      -3.822  -2.225   0.664  1.00  0.00     0.182 C 
ENDBRANCH   1  24
BRANCH   6  26
HETATM   26  O1  UNL     1      -3.518   0.092  -0.418  1.00  0.00    -0.329 OA
BRANCH  26  27
HETATM   27  C7  UNL     1      -4.024   0.275  -1.733  1.00  0.00     0.149 C 
HETATM   28  C8  UNL     1      -5.522   0.578  -1.666  1.00  0.00     0.035 C 
ENDBRANCH  26  27
ENDBRANCH   6  26
BRANCH  15  29
HETATM   29  C19 UNL     1       4.736  -3.453   0.279  1.00  0.00     0.211 C 
HETATM   30  O3  UNL     1       5.430  -3.557  -0.955  1.00  0.00    -0.215 OA
ENDBRANCH  15  29
TORSDOF 6
