REMARK  4 active torsions:
REMARK  status: ('A' for Active; 'I' for Inactive)
REMARK    1  A    between atoms: C5_5  and  C9_9 
REMARK    2  A    between atoms: C9_9  and  C10_10 
REMARK    3  A    between atoms: C10_10  and  C11_11 
REMARK    4  A    between atoms: C11_11  and  C12_13 
ROOT
HETATM    1  C1  UNL     1      -1.039  -2.592  -0.978  1.00  0.00     0.065 C 
HETATM    2  C2  UNL     1       0.207  -3.262  -0.443  1.00  0.00     0.151 C 
HETATM    3  C3  UNL     1       1.256  -2.357   0.160  1.00  0.00     0.065 C 
HETATM    4  C4  UNL     1       1.227  -0.955  -0.475  1.00  0.00     0.007 C 
HETATM    5  C5  UNL     1      -0.168  -0.275  -0.363  1.00  0.00     0.001 C 
HETATM    6  C6  UNL     1      -1.352  -1.279  -0.232  1.00  0.00     0.007 C 
HETATM    7  C7  UNL     1      -1.631  -1.613   1.240  1.00  0.00     0.000 C 
HETATM    8  C8  UNL     1      -2.623  -0.650  -0.816  1.00  0.00     0.000 C 
HETATM    9  C13 UNL     1       1.689  -1.037  -1.936  1.00  0.00     0.000 C 
HETATM   10  O3  UNL     1       0.355  -4.461  -0.494  1.00  0.00    -0.296 OA
ENDROOT
BRANCH   5  11
HETATM   11  C9  UNL     1      -0.186   0.785   0.750  1.00  0.00     0.008 C 
BRANCH  11  12
HETATM   12  C10 UNL     1       0.615   2.035   0.389  1.00  0.00     0.067 C 
BRANCH  12  13
HETATM   13  C11 UNL     1       0.576   3.076   1.475  1.00  0.00     0.184 C 
HETATM   14  O1  UNL     1      -0.025   2.879   2.506  1.00  0.00    -0.293 OA
BRANCH  13  15
HETATM   15  C12 UNL     1       1.307   4.371   1.240  1.00  0.00     0.246 C 
HETATM   16  O2  UNL     1       0.588   5.156   0.315  1.00  0.00    -0.212 OA
ENDBRANCH  13  15
ENDBRANCH  12  13
ENDBRANCH  11  12
ENDBRANCH   5  11
TORSDOF 4
