REMARK  4 active torsions:
REMARK  status: ('A' for Active; 'I' for Inactive)
REMARK    1  A    between atoms: C7_8  and  C26_33 
REMARK    2  A    between atoms: C8_9  and  O3_12 
REMARK    3  A    between atoms: O3_12  and  C10_13 
REMARK    4  A    between atoms: C17_20  and  C20_24 
ROOT
HETATM    1  C1  UNL     1      -6.207  -3.240  -3.018  1.00  0.00     0.135 A 
HETATM    2  C2  UNL     1      -5.141  -3.070  -3.934  1.00  0.00     0.055 A 
HETATM    3  C3  UNL     1      -4.014  -2.293  -3.578  1.00  0.00     0.138 A 
HETATM    4  C4  UNL     1      -3.959  -1.682  -2.299  1.00  0.00     0.089 A 
HETATM    5  C5  UNL     1      -5.025  -1.852  -1.379  1.00  0.00     0.107 A 
HETATM    6  C6  UNL     1      -6.149  -2.631  -1.742  1.00  0.00     0.052 A 
HETATM    7  O1  UNL     1      -4.971  -1.272  -0.160  1.00  0.00    -0.305 OA
HETATM    8  C7  UNL     1      -3.938  -0.516   0.264  1.00  0.00     0.126 A 
HETATM    9  C8  UNL     1      -2.857  -0.277  -0.523  1.00  0.00     0.161 A 
HETATM   10  C9  UNL     1      -2.793  -0.856  -1.887  1.00  0.00     0.224 A 
HETATM   11  O2  UNL     1      -1.807  -0.607  -2.543  1.00  0.00    -0.284 OA
HETATM   12  O10 UNL     1      -3.014  -2.143  -4.457  1.00  0.00    -0.190 OA
HETATM   13  O11 UNL     1      -7.272  -3.979  -3.359  1.00  0.00    -0.190 OA
ENDROOT
BRANCH   9  14
HETATM   14  O3  UNL     1      -1.842   0.473  -0.092  1.00  0.00    -0.302 OA
BRANCH  14  15
HETATM   15  C10 UNL     1      -0.598  -0.022  -0.150  1.00  0.00     0.102 A 
HETATM   16  C11 UNL     1      -0.395  -1.418  -0.182  1.00  0.00     0.052 A 
HETATM   17  C12 UNL     1       0.918  -1.945  -0.240  1.00  0.00     0.135 A 
HETATM   18  C13 UNL     1       2.037  -1.070  -0.270  1.00  0.00     0.056 A 
HETATM   19  O7  UNL     1       1.080  -3.275  -0.268  1.00  0.00    -0.190 OA
HETATM   20  C14 UNL     1       1.832   0.342  -0.238  1.00  0.00    -0.015 A 
HETATM   21  C19 UNL     1       3.424  -1.635  -0.328  1.00  0.00     0.175 C 
HETATM   22  C15 UNL     1       0.512   0.853  -0.178  1.00  0.00     0.021 A 
HETATM   23  C16 UNL     1       2.977   1.289  -0.275  1.00  0.00     0.031 C 
HETATM   24  C17 UNL     1       4.272   0.682   0.299  1.00  0.00     0.034 C 
HETATM   25  C18 UNL     1       4.584  -0.660  -0.383  1.00  0.00     0.074 C 
HETATM   26  O4  UNL     1       3.717  -2.809  -0.336  1.00  0.00    -0.291 OA
BRANCH  24  27
HETATM   27  C20 UNL     1       5.414   1.631   0.180  1.00  0.00    -0.019 A 
HETATM   28  C21 UNL     1       5.846   2.059  -1.088  1.00  0.00    -0.002 A 
HETATM   29  C22 UNL     1       6.922   2.955  -1.197  1.00  0.00     0.029 A 
HETATM   30  C23 UNL     1       7.572   3.426  -0.041  1.00  0.00     0.156 A 
HETATM   31  C24 UNL     1       7.141   2.998   1.229  1.00  0.00     0.156 A 
HETATM   32  O6  UNL     1       8.582   4.266  -0.152  1.00  0.00    -0.188 OA
HETATM   33  C25 UNL     1       6.063   2.102   1.336  1.00  0.00     0.025 A 
HETATM   34  O5  UNL     1       7.742   3.434   2.316  1.00  0.00    -0.188 OA
ENDBRANCH  24  27
ENDBRANCH  14  15
ENDBRANCH   9  14
BRANCH   8  35
HETATM   35  C26 UNL     1      -3.988   0.074   1.639  1.00  0.00     0.027 A 
HETATM   36  C27 UNL     1      -3.500   1.371   1.867  1.00  0.00     0.004 A 
HETATM   37  C28 UNL     1      -3.551   1.922   3.160  1.00  0.00     0.030 A 
HETATM   38  C29 UNL     1      -4.086   1.178   4.227  1.00  0.00     0.156 A 
HETATM   39  C30 UNL     1      -4.576  -0.121   3.998  1.00  0.00     0.156 A 
HETATM   40  O9  UNL     1      -4.129   1.701   5.436  1.00  0.00    -0.188 OA
HETATM   41  C31 UNL     1      -4.525  -0.670   2.703  1.00  0.00     0.032 A 
HETATM   42  O8  UNL     1      -5.082  -0.824   4.990  1.00  0.00    -0.188 OA
ENDBRANCH   8  35
TORSDOF 4
