REMARK  1 active torsions:
REMARK  status: ('A' for Active; 'I' for Inactive)
REMARK    1  A    between atoms: C21_21  and  C24_24 
ROOT
HETATM    1  C1  UNL     1       5.242  -2.164  -1.053  1.00  0.00     0.151 C 
HETATM    2  C2  UNL     1       6.031  -1.541   0.066  1.00  0.00     0.065 C 
HETATM    3  C3  UNL     1       5.426  -0.191   0.486  1.00  0.00     0.007 C 
HETATM    4  C4  UNL     1       3.914  -0.293   0.832  1.00  0.00     0.001 C 
HETATM    5  C5  UNL     1       3.129  -0.939  -0.348  1.00  0.00     0.007 C 
HETATM    6  C6  UNL     1       3.760  -2.273  -0.820  1.00  0.00     0.065 C 
HETATM    7  C7  UNL     1       1.584  -1.066  -0.082  1.00  0.00     0.000 C 
HETATM    8  C8  UNL     1       1.082   0.076   0.867  1.00  0.00     0.000 C 
HETATM    9  C9  UNL     1       1.912   1.358   0.674  1.00  0.00     0.000 C 
HETATM   10  C10 UNL     1       3.371   1.139   1.106  1.00  0.00     0.000 C 
HETATM   11  C11 UNL     1      -0.473   0.231   0.875  1.00  0.00     0.000 C 
HETATM   12  C12 UNL     1      -1.047   0.438  -0.562  1.00  0.00     0.000 C 
HETATM   13  C13 UNL     1      -0.689  -0.830  -1.371  1.00  0.00     0.000 C 
HETATM   14  C14 UNL     1       0.838  -1.043  -1.447  1.00  0.00     0.000 C 
HETATM   15  C15 UNL     1      -2.572   0.840  -0.555  1.00  0.00     0.001 C 
HETATM   16  C16 UNL     1      -3.334   0.664   0.787  1.00  0.00     0.000 C 
HETATM   17  C17 UNL     1      -2.533   1.311   1.959  1.00  0.00     0.000 C 
HETATM   18  C18 UNL     1      -0.996   1.367   1.770  1.00  0.00     0.000 C 
HETATM   19  C19 UNL     1      -4.715   1.348   0.670  1.00  0.00     0.001 C 
HETATM   20  C20 UNL     1      -5.539   0.809  -0.514  1.00  0.00     0.010 C 
HETATM   21  C21 UNL     1      -4.799   0.922  -1.859  1.00  0.00     0.078 C 
HETATM   22  C22 UNL     1      -3.385   0.305  -1.756  1.00  0.00     0.010 C 
HETATM   23  C23 UNL     1      -5.594   0.203  -2.951  1.00  0.00     0.011 C 
HETATM   24  C25 UNL     1      -3.619  -0.824   1.066  1.00  0.00     0.000 C 
HETATM   25  C26 UNL     1      -0.344   1.613  -1.266  1.00  0.00     0.000 C 
HETATM   26  C27 UNL     1      -0.977  -1.076   1.520  1.00  0.00     0.000 C 
HETATM   27  C28 UNL     1       1.285  -2.420   0.588  1.00  0.00     0.000 C 
HETATM   28  C29 UNL     1       3.746  -1.162   2.092  1.00  0.00     0.000 C 
HETATM   29  C30 UNL     1       6.240   0.428   1.631  1.00  0.00     0.000 C 
HETATM   30  O3  UNL     1       5.766  -2.553  -2.072  1.00  0.00    -0.296 OA
ENDROOT
BRANCH  21  31
HETATM   31  C24 UNL     1      -4.699   2.373  -2.268  1.00  0.00     0.184 C 
HETATM   32  O1  UNL     1      -5.365   3.221  -1.721  1.00  0.00    -0.647 OA
HETATM   33  O2  UNL     1      -3.842   2.627  -3.252  1.00  0.00    -0.647 OA
ENDBRANCH  21  31
TORSDOF 1
