REMARK  0 active torsions:
REMARK  status: ('A' for Active; 'I' for Inactive)
ROOT
HETATM    1  C1  UNL     1      -3.335  -0.501   0.398  1.00  0.00     0.028 A 
HETATM    2  C2  UNL     1      -2.916  -1.848   0.206  1.00  0.00     0.004 A 
HETATM    3  C3  UNL     1      -1.549  -2.153  -0.008  1.00  0.00     0.018 A 
HETATM    4  C4  UNL     1      -0.629  -1.083  -0.024  1.00  0.00     0.069 A 
HETATM    5  C5  UNL     1      -1.052   0.243   0.165  1.00  0.00     0.043 A 
HETATM    6  C6  UNL     1      -2.412   0.583   0.383  1.00  0.00     0.132 A 
HETATM    7  O1  UNL     1      -2.951   1.795   0.577  1.00  0.00    -0.190 OA
HETATM    8  C7  UNL     1       0.031   1.076   0.102  1.00  0.00     0.023 A 
HETATM    9  C8  UNL     1       1.156   0.308  -0.125  1.00  0.00     0.085 A 
HETATM   10  N1  UNL     1       0.759  -1.007  -0.202  1.00  0.00    -0.273 N 
HETATM   11  C9  UNL     1       1.761  -2.003  -0.433  1.00  0.00     0.265 A 
HETATM   12  C10 UNL     1       3.170  -1.509  -0.573  1.00  0.00     0.063 A 
HETATM   13  C11 UNL     1       3.494  -0.187  -0.486  1.00  0.00     0.025 A 
HETATM   14  C12 UNL     1       2.441   0.855  -0.243  1.00  0.00     0.098 A 
HETATM   15  N2  UNL     1       2.611   2.225  -0.131  1.00  0.00    -0.243 NA
HETATM   16  C13 UNL     1       1.488   3.029   0.099  1.00  0.00     0.099 A 
HETATM   17  C14 UNL     1       0.168   2.486   0.223  1.00  0.00     0.022 A 
HETATM   18  O2  UNL     1       1.498  -3.180  -0.514  1.00  0.00    -0.267 OA
ENDROOT
TORSDOF 0
