REMARK  4 active torsions:
REMARK  status: ('A' for Active; 'I' for Inactive)
REMARK    1  A    between atoms: C1_1  and  C22_26 
REMARK    2  A    between atoms: C4_4  and  C5_5 
REMARK    3  A    between atoms: C5_5  and  C6_6 
REMARK    4  A    between atoms: C22_26  and  C23_27 
ROOT
HETATM    1  C1  UNL     1       0.613   1.111  -0.561  1.00  0.00     0.035 C 
HETATM    2  C2  UNL     1       0.514  -0.435  -0.520  1.00  0.00     0.143 A 
HETATM    3  C3  UNL     1      -0.486  -0.303   0.642  1.00  0.00     0.143 A 
HETATM    4  C4  UNL     1      -0.748   1.160   0.195  1.00  0.00     0.035 C 
HETATM    5  O1  UNL     1       0.164  -0.330   1.930  1.00  0.00    -0.297 OA
HETATM    6  C8  UNL     1      -0.504  -1.168   2.738  1.00  0.00     0.295 A 
HETATM    7  C9  UNL     1      -1.617  -1.775   2.025  1.00  0.00     0.057 A 
HETATM    8  C10 UNL     1      -1.621  -1.310   0.781  1.00  0.00    -0.011 A 
HETATM    9  C11 UNL     1      -2.621  -1.789  -0.246  1.00  0.00     0.029 C 
HETATM   10  C12 UNL     1      -3.916  -2.295   0.432  1.00  0.00     0.030 C 
HETATM   11  C13 UNL     1      -3.690  -3.025   1.748  1.00  0.00    -0.026 C 
HETATM   12  C14 UNL     1      -2.611  -2.746   2.508  1.00  0.00     0.000 C 
HETATM   13  O2  UNL     1      -0.236  -1.402   3.894  1.00  0.00    -0.259 OA
HETATM   14  C15 UNL     1       1.754  -1.305  -0.356  1.00  0.00    -0.011 A 
HETATM   15  C16 UNL     1       1.840  -2.113  -1.406  1.00  0.00     0.057 A 
HETATM   16  C17 UNL     1       0.678  -1.889  -2.252  1.00  0.00     0.295 A 
HETATM   17  O3  UNL     1      -0.106  -0.933  -1.723  1.00  0.00    -0.297 OA
HETATM   18  O4  UNL     1       0.467  -2.492  -3.279  1.00  0.00    -0.259 OA
HETATM   19  C18 UNL     1       2.957  -3.051  -1.590  1.00  0.00     0.000 C 
HETATM   20  C19 UNL     1       4.037  -2.965  -0.787  1.00  0.00    -0.026 C 
HETATM   21  C20 UNL     1       4.135  -1.873   0.267  1.00  0.00     0.030 C 
HETATM   22  C21 UNL     1       2.768  -1.342   0.766  1.00  0.00     0.029 C 
ENDROOT
BRANCH   1  23
HETATM   23  C22 UNL     1       1.773   1.735   0.213  1.00  0.00     0.003 C 
BRANCH  23  24
HETATM   24  C23 UNL     1       1.713   3.256   0.082  1.00  0.00     0.000 C 
HETATM   25  C24 UNL     1       2.844   3.957   0.836  1.00  0.00     0.000 C 
ENDBRANCH  23  24
ENDBRANCH   1  23
BRANCH   4  26
HETATM   26  C5  UNL     1      -1.951   1.383  -0.717  1.00  0.00     0.003 C 
BRANCH  26  27
HETATM   27  C6  UNL     1      -2.045   2.865  -1.080  1.00  0.00     0.000 C 
HETATM   28  C7  UNL     1      -3.229   3.174  -2.000  1.00  0.00     0.000 C 
ENDBRANCH  26  27
ENDBRANCH   4  26
TORSDOF 4
