REMARK  8 active torsions:
REMARK  status: ('A' for Active; 'I' for Inactive)
REMARK    1  A    between atoms: C4_4  and  O7_18 
REMARK    2  A    between atoms: C5_6  and  C6_7 
REMARK    3  A    between atoms: C6_7  and  O2_8 
REMARK    4  A    between atoms: O2_8  and  C7_9 
REMARK    5  A    between atoms: C8_11  and  C11_16 
REMARK    6  A    between atoms: O7_18  and  C12_19 
REMARK    7  A    between atoms: C12_19  and  C13_20 
REMARK    8  A    between atoms: C14_21  and  C15_22 
ROOT
HETATM    1  C1  UNL     1      -0.420   3.900  -0.254  1.00  0.00     0.215 C 
HETATM    2  C2  UNL     1       1.004   4.383   0.106  1.00  0.00     0.220 C 
HETATM    3  C3  UNL     1       2.041   3.311  -0.301  1.00  0.00     0.241 C 
HETATM    4  C4  UNL     1       1.641   1.916   0.242  1.00  0.00     0.270 C 
HETATM    5  O1  UNL     1       0.320   1.596  -0.172  1.00  0.00    -0.326 OA
HETATM    6  C5  UNL     1      -0.688   2.481   0.297  1.00  0.00     0.180 C 
HETATM    7  O8  UNL     1       3.313   3.668   0.215  1.00  0.00    -0.215 OA
HETATM    8  O9  UNL     1       1.283   5.600  -0.568  1.00  0.00    -0.218 OA
HETATM    9  O10 UNL     1      -1.379   4.787   0.293  1.00  0.00    -0.218 OA
ENDROOT
BRANCH   6  10
HETATM   10  C6  UNL     1      -2.029   1.904  -0.168  1.00  0.00     0.177 C 
BRANCH  10  11
HETATM   11  O2  UNL     1      -2.250   0.691   0.518  1.00  0.00    -0.326 OA
BRANCH  11  12
HETATM   12  C7  UNL     1      -3.451   0.051   0.143  1.00  0.00     0.270 C 
HETATM   13  O3  UNL     1      -4.580   0.756   0.596  1.00  0.00    -0.326 OA
HETATM   14  C8  UNL     1      -5.715  -0.080   0.563  1.00  0.00     0.184 C 
HETATM   15  C9  UNL     1      -5.149  -1.494   0.791  1.00  0.00     0.217 C 
HETATM   16  C10 UNL     1      -3.615  -1.299   0.842  1.00  0.00     0.241 C 
HETATM   17  O5  UNL     1      -5.613  -2.025   2.018  1.00  0.00    -0.218 OA
HETATM   18  O4  UNL     1      -2.943  -2.324   0.135  1.00  0.00    -0.215 OA
BRANCH  14  19
HETATM   19  C11 UNL     1      -6.354   0.043  -0.818  1.00  0.00     0.214 C 
HETATM   20  O6  UNL     1      -6.906   1.334  -0.935  1.00  0.00    -0.218 OA
ENDBRANCH  14  19
ENDBRANCH  11  12
ENDBRANCH  10  11
ENDBRANCH   6  10
BRANCH   4  21
HETATM   21  O7  UNL     1       2.516   0.922  -0.254  1.00  0.00    -0.324 OA
BRANCH  21  22
HETATM   22  C12 UNL     1       2.322  -0.340   0.348  1.00  0.00     0.171 C 
BRANCH  22  23
HETATM   23  C13 UNL     1       3.363  -1.301  -0.156  1.00  0.00     0.006 C 
HETATM   24  C14 UNL     1       3.604  -2.416   0.553  1.00  0.00    -0.002 C 
BRANCH  24  25
HETATM   25  C15 UNL     1       4.637  -3.373   0.057  1.00  0.00    -0.000 A 
HETATM   26  C16 UNL     1       4.516  -4.746   0.334  1.00  0.00    -0.000 A 
HETATM   27  C17 UNL     1       5.490  -5.647  -0.135  1.00  0.00    -0.000 A 
HETATM   28  C18 UNL     1       6.584  -5.176  -0.879  1.00  0.00    -0.000 A 
HETATM   29  C19 UNL     1       6.707  -3.803  -1.156  1.00  0.00    -0.000 A 
HETATM   30  C20 UNL     1       5.734  -2.902  -0.689  1.00  0.00    -0.000 A 
ENDBRANCH  24  25
ENDBRANCH  22  23
ENDBRANCH  21  22
ENDBRANCH   4  21
TORSDOF 8
