REMARK  1 active torsions:
REMARK  status: ('A' for Active; 'I' for Inactive)
REMARK    1  A    between atoms: C2_2  and  C13_13 
ROOT
HETATM    1  C1  UNL     1       1.916  -1.070   0.332  1.00  0.00     0.007 C 
HETATM    2  C2  UNL     1       1.498   0.404   0.490  1.00  0.00     0.029 C 
HETATM    3  C3  UNL     1       0.004   0.611   0.150  1.00  0.00     0.006 C 
HETATM    4  C4  UNL     1      -0.895  -0.311   1.016  1.00  0.00     0.018 C 
HETATM    5  C5  UNL     1      -0.440  -1.750   0.830  1.00  0.00    -0.049 C 
HETATM    6  C6  UNL     1       1.016  -2.018   1.142  1.00  0.00     0.022 C 
HETATM    7  C7  UNL     1      -1.256  -2.732   0.396  1.00  0.00    -0.035 C 
HETATM    8  C8  UNL     1      -2.707  -2.484   0.051  1.00  0.00     0.025 C 
HETATM    9  C9  UNL     1      -2.996  -1.012  -0.264  1.00  0.00     0.005 C 
HETATM   10  C10 UNL     1      -2.422  -0.105   0.832  1.00  0.00     0.004 C 
HETATM   11  C11 UNL     1      -2.817   1.361   0.623  1.00  0.00     0.000 C 
HETATM   12  C12 UNL     1      -0.254   0.430  -1.352  1.00  0.00     0.000 C 
ENDROOT
BRANCH   2  13
HETATM   13  C13 UNL     1       2.406   1.330  -0.326  1.00  0.00     0.127 C 
HETATM   14  C14 UNL     1       2.814   0.721  -1.668  1.00  0.00     0.033 C 
HETATM   15  C15 UNL     1       1.836   2.740  -0.467  1.00  0.00     0.033 C 
HETATM   16  O1  UNL     1       3.551   1.397   0.494  1.00  0.00    -0.226 OA
ENDBRANCH   2  13
TORSDOF 1
