REMARK  1 active torsions:
REMARK  status: ('A' for Active; 'I' for Inactive)
REMARK    1  A    between atoms: C2_2  and  C8_8 
ROOT
HETATM    1  C1  UNL     1       0.867  -0.803  -0.191  1.00  0.00     0.108 C 
HETATM    2  C2  UNL     1       0.680   0.705  -0.170  1.00  0.00     0.066 C 
HETATM    3  C3  UNL     1      -0.783   1.145  -0.002  1.00  0.00     0.011 C 
HETATM    4  C4  UNL     1      -1.695   0.334  -0.922  1.00  0.00     0.005 C 
HETATM    5  C5  UNL     1      -1.605  -1.162  -0.582  1.00  0.00     0.024 C 
HETATM    6  C6  UNL     1      -0.178  -1.635  -0.391  1.00  0.00    -0.003 C 
HETATM    7  C7  UNL     1      -2.320  -2.014  -1.635  1.00  0.00     0.005 C 
HETATM    8  O1  UNL     1       2.078  -1.330  -0.016  1.00  0.00    -0.195 OA
ENDROOT
BRANCH   2   9
HETATM    9  C8  UNL     1       1.553   1.320   0.895  1.00  0.00    -0.038 C 
HETATM   10  C9  UNL     1       2.443   2.258   0.531  1.00  0.00    -0.009 C 
HETATM   11  C10 UNL     1       1.469   0.936   2.348  1.00  0.00     0.027 C 
ENDBRANCH   2   9
TORSDOF 1
