REMARK  5 active torsions:
REMARK  status: ('A' for Active; 'I' for Inactive)
REMARK    1  A    between atoms: C1_1  and  C20_25 
REMARK    2  A    between atoms: C6_9  and  C15_20 
REMARK    3  A    between atoms: C8_12  and  C10_15 
REMARK    4  A    between atoms: C10_15  and  C11_16 
REMARK    5  A    between atoms: C15_20  and  C16_21 
ROOT
HETATM    1  C1  UNL     1       2.961   0.082  -0.990  1.00  0.00     0.128 A 
HETATM    2  C2  UNL     1       3.240  -1.148  -0.494  1.00  0.00     0.192 A 
HETATM    3  O1  UNL     1       4.502  -1.563  -0.350  1.00  0.00    -0.185 OA
HETATM    4  C3  UNL     1       2.139  -2.059  -0.104  1.00  0.00     0.227 A 
HETATM    5  O2  UNL     1       2.451  -3.145   0.330  1.00  0.00    -0.284 OA
HETATM    6  C4  UNL     1       0.760  -1.529  -0.291  1.00  0.00     0.089 A 
HETATM    7  C5  UNL     1      -0.379  -2.305   0.049  1.00  0.00     0.134 A 
HETATM    8  O3  UNL     1      -0.236  -3.541   0.551  1.00  0.00    -0.190 OA
HETATM    9  C6  UNL     1      -1.676  -1.768  -0.145  1.00  0.00     0.033 A 
HETATM   10  C7  UNL     1      -1.834  -0.463  -0.676  1.00  0.00     0.128 A 
HETATM   11  O4  UNL     1      -3.063   0.041  -0.858  1.00  0.00    -0.191 OA
HETATM   12  C8  UNL     1      -0.695   0.309  -1.014  1.00  0.00     0.030 A 
HETATM   13  C9  UNL     1       0.604  -0.223  -0.822  1.00  0.00     0.103 A 
HETATM   14  O5  UNL     1       1.691   0.512  -1.141  1.00  0.00    -0.305 OA
ENDROOT
BRANCH   1  15
HETATM   15  C20 UNL     1       4.082   0.992  -1.379  1.00  0.00     0.025 A 
HETATM   16  C21 UNL     1       3.994   2.371  -1.117  1.00  0.00     0.004 A 
HETATM   17  C22 UNL     1       5.049   3.225  -1.485  1.00  0.00     0.028 A 
HETATM   18  C23 UNL     1       6.193   2.707  -2.113  1.00  0.00     0.131 A 
HETATM   19  O6  UNL     1       7.182   3.508  -2.457  1.00  0.00    -0.190 OA
HETATM   20  C24 UNL     1       6.279   1.328  -2.373  1.00  0.00     0.028 A 
HETATM   21  C25 UNL     1       5.227   0.471  -2.008  1.00  0.00     0.004 A 
ENDBRANCH   1  15
BRANCH  12  22
HETATM   22  C10 UNL     1      -0.859   1.666  -1.565  1.00  0.00     0.056 C 
BRANCH  22  23
HETATM   23  C11 UNL     1      -1.691   2.545  -0.668  1.00  0.00    -0.030 C 
HETATM   24  C12 UNL     1      -1.211   2.856   0.547  1.00  0.00    -0.048 C 
HETATM   25  C13 UNL     1       0.111   2.398   1.101  1.00  0.00     0.026 C 
HETATM   26  C14 UNL     1      -2.045   3.727   1.447  1.00  0.00     0.026 C 
ENDBRANCH  22  23
ENDBRANCH  12  22
BRANCH   9  27
HETATM   27  C15 UNL     1      -2.863  -2.568   0.205  1.00  0.00     0.056 C 
BRANCH  27  28
HETATM   28  C16 UNL     1      -3.299  -2.340   1.629  1.00  0.00    -0.030 C 
HETATM   29  C17 UNL     1      -4.510  -2.785   2.006  1.00  0.00    -0.048 C 
HETATM   30  C18 UNL     1      -4.965  -2.518   3.416  1.00  0.00     0.026 C 
HETATM   31  C19 UNL     1      -5.348  -3.529   1.002  1.00  0.00     0.026 C 
ENDBRANCH  27  28
ENDBRANCH   9  27
TORSDOF 5
