REMARK  1 active torsions:
REMARK  status: ('A' for Active; 'I' for Inactive)
REMARK    1  A    between atoms: C12_14  and  C13_15 
ROOT
HETATM    1  C1  UNL     1      -0.857   1.361  -0.014  1.00  0.00     0.104 C 
HETATM    2  O1  UNL     1      -0.127   1.906  -1.123  1.00  0.00    -0.303 OA
HETATM    3  C2  UNL     1       1.176   1.629  -1.258  1.00  0.00     0.294 C 
HETATM    4  C3  UNL     1       1.703   0.344  -0.742  1.00  0.00     0.073 C 
HETATM    5  C4  UNL     1       0.586  -0.682  -0.568  1.00  0.00     0.182 C 
HETATM    6  C5  UNL     1      -0.484  -0.103   0.373  1.00  0.00     0.060 C 
HETATM    7  C6  UNL     1      -1.807  -0.924   0.492  1.00  0.00     0.005 C 
HETATM    8  C7  UNL     1      -2.879  -0.055  -0.145  1.00  0.00     0.003 A 
HETATM    9  C8  UNL     1      -2.324   1.311  -0.408  1.00  0.00     0.026 A 
HETATM   10  C9  UNL     1      -2.748   0.438  -1.570  1.00  0.00     0.002 A 
HETATM   11  C10 UNL     1      -1.869  -2.270  -0.229  1.00  0.00     0.000 C 
HETATM   12  C11 UNL     1      -2.180  -1.078   1.965  1.00  0.00     0.000 C 
HETATM   13  O2  UNL     1       0.996  -1.945  -0.074  1.00  0.00    -0.218 OA
HETATM   14  C12 UNL     1       3.025   0.143  -0.475  1.00  0.00     0.046 C 
HETATM   15  C14 UNL     1       4.026   1.258  -0.652  1.00  0.00     0.037 C 
HETATM   16  O5  UNL     1       1.916   2.406  -1.820  1.00  0.00    -0.259 OA
HETATM   17  C15 UNL     1      -0.713   2.301   1.184  1.00  0.00     0.030 C 
ENDROOT
BRANCH  14  18
HETATM   18  C13 UNL     1       3.608  -1.125   0.000  1.00  0.00     0.207 C 
HETATM   19  O3  UNL     1       4.053  -1.926  -0.789  1.00  0.00    -0.644 OA
HETATM   20  O4  UNL     1       3.602  -1.305   1.316  1.00  0.00    -0.644 OA
ENDBRANCH  14  18
TORSDOF 1
