REMARK  4 active torsions:
REMARK  status: ('A' for Active; 'I' for Inactive)
REMARK    1  A    between atoms: C1_2  and  C2_3 
REMARK    2  A    between atoms: C3_4  and  C4_5 
REMARK    3  A    between atoms: C4_5  and  C5_6 
REMARK    4  A    between atoms: C5_6  and  C6_7 
ROOT
HETATM    1  C4  UNL     1      -1.184  -0.420   0.414  1.00  0.00     0.027 C 
ENDROOT
BRANCH   1   2
HETATM    2  C3  UNL     1      -1.688  -1.144  -0.804  1.00  0.00    -0.040 C 
HETATM    3  C2  UNL     1      -2.690  -0.596  -1.509  1.00  0.00     0.037 C 
HETATM    4  C10 UNL     1      -1.119  -2.459  -1.269  1.00  0.00     0.026 C 
BRANCH   3   5
HETATM    5  C1  UNL     1      -3.217  -1.262  -2.705  1.00  0.00     0.234 C 
HETATM    6  O1  UNL     1      -4.028  -0.705  -3.410  1.00  0.00    -0.283 OA
ENDBRANCH   3   5
ENDBRANCH   1   2
BRANCH   1   7
HETATM    7  C5  UNL     1       0.209   0.176   0.205  1.00  0.00     0.030 C 
BRANCH   7   8
HETATM    8  C6  UNL     1       0.703   0.920   1.416  1.00  0.00    -0.034 C 
HETATM    9  C7  UNL     1       1.953   1.412   1.401  1.00  0.00    -0.048 C 
HETATM   10  C8  UNL     1       2.465   2.113   2.629  1.00  0.00     0.026 C 
HETATM   11  C9  UNL     1       2.777   1.238   0.153  1.00  0.00     0.026 C 
ENDBRANCH   7   8
ENDBRANCH   1   7
TORSDOF 4
