REMARK  3 active torsions:
REMARK  status: ('A' for Active; 'I' for Inactive)
REMARK    1  A    between atoms: C2_2  and  C7_8 
REMARK    2  A    between atoms: C7_8  and  C8_9 
REMARK    3  A    between atoms: C11_12  and  O3_16 
ROOT
HETATM    1  C8  UNL     1      -0.947  -0.812  -0.305  1.00  0.00     0.090 A 
HETATM    2  C9  UNL     1      -0.219  -0.834   0.900  1.00  0.00     0.138 A 
HETATM    3  C10 UNL     1       0.520  -1.978   1.250  1.00  0.00     0.052 A 
HETATM    4  C11 UNL     1       0.535  -3.100   0.404  1.00  0.00     0.098 A 
HETATM    5  C12 UNL     1      -0.193  -3.074  -0.797  1.00  0.00     0.052 A 
HETATM    6  C13 UNL     1      -0.936  -1.935  -1.156  1.00  0.00     0.138 A 
HETATM    7  O2  UNL     1      -1.611  -1.930  -2.287  1.00  0.00    -0.190 OA
HETATM    8  O4  UNL     1      -0.221   0.211   1.707  1.00  0.00    -0.190 OA
ENDROOT
BRANCH   1   9
HETATM    9  C7  UNL     1      -1.734   0.402  -0.682  1.00  0.00     0.200 C 
HETATM   10  O5  UNL     1      -2.902   0.318  -0.977  1.00  0.00    -0.286 OA
BRANCH   9  11
HETATM   11  C2  UNL     1      -1.035   1.723  -0.682  1.00  0.00     0.039 A 
HETATM   12  C1  UNL     1       0.371   1.776  -0.682  1.00  0.00     0.005 A 
HETATM   13  C6  UNL     1       1.027   3.018  -0.682  1.00  0.00     0.028 A 
HETATM   14  C5  UNL     1       0.283   4.211  -0.682  1.00  0.00     0.131 A 
HETATM   15  C4  UNL     1      -1.121   4.156  -0.682  1.00  0.00     0.028 A 
HETATM   16  O1  UNL     1       0.900   5.375  -0.682  1.00  0.00    -0.190 OA
HETATM   17  C3  UNL     1      -1.781   2.914  -0.682  1.00  0.00     0.005 A 
ENDBRANCH   9  11
ENDBRANCH   1   9
BRANCH   4  18
HETATM   18  O3  UNL     1       1.229  -4.170   0.736  1.00  0.00    -0.328 OA
HETATM   19  C14 UNL     1       1.947  -4.146   1.959  1.00  0.00     0.181 C 
ENDBRANCH   4  18
TORSDOF 3
