REMARK  6 active torsions:
REMARK  status: ('A' for Active; 'I' for Inactive)
REMARK    1  A    between atoms: C1_1  and  C2_2 
REMARK    2  A    between atoms: C3_3  and  C4_4 
REMARK    3  A    between atoms: C6_6  and  O1_7 
REMARK    4  A    between atoms: C8_9  and  O3_14 
REMARK    5  A    between atoms: C9_10  and  O2_11 
REMARK    6  A    between atoms: O3_14  and  S1_15 
ROOT
HETATM    1  C4  UNL     1       1.051  -0.687  -0.016  1.00  0.00     0.004 A 
HETATM    2  C5  UNL     1      -0.353  -0.736  -0.016  1.00  0.00     0.026 A 
HETATM    3  C6  UNL     1      -1.102   0.453  -0.016  1.00  0.00     0.120 A 
HETATM    4  C8  UNL     1      -0.443   1.698  -0.016  1.00  0.00     0.160 A 
HETATM    5  C9  UNL     1       0.963   1.748  -0.016  1.00  0.00     0.120 A 
HETATM    6  C11 UNL     1       1.707   0.557  -0.016  1.00  0.00     0.026 A 
ENDROOT
BRANCH   1   7
HETATM    7  C3  UNL     1       1.844  -1.953  -0.016  1.00  0.00     0.006 C 
HETATM    8  C2  UNL     1       1.190  -3.125  -0.016  1.00  0.00     0.070 C 
BRANCH   8   9
HETATM    9  C1  UNL     1       1.926  -4.394  -0.016  1.00  0.00     0.211 C 
HETATM   10  O7  UNL     1       3.135  -4.400  -0.016  1.00  0.00    -0.644 OA
HETATM   11  O8  UNL     1       1.180  -5.494  -0.016  1.00  0.00    -0.644 OA
ENDBRANCH   8   9
ENDBRANCH   1   7
BRANCH   3  12
HETATM   12  O1  UNL     1      -2.420   0.401  -0.016  1.00  0.00    -0.326 OA
HETATM   13  C7  UNL     1      -3.035  -0.879  -0.016  1.00  0.00     0.181 C 
ENDBRANCH   3  12
BRANCH   5  14
HETATM   14  O2  UNL     1       1.584   2.910  -0.016  1.00  0.00    -0.326 OA
HETATM   15  C10 UNL     1       2.998   2.912   0.113  1.00  0.00     0.181 C 
ENDBRANCH   5  14
BRANCH   4  16
HETATM   16  O3  UNL     1      -1.144   2.815  -0.016  1.00  0.00    -0.208 OA
BRANCH  16  17
HETATM   17  S1  UNL     1      -2.684   2.772  -0.016  1.00  0.00     0.257 S 
HETATM   18  O4  UNL     1      -3.240   2.199  -1.229  1.00  0.00    -0.572 OA
HETATM   19  O5  UNL     1      -3.240   2.199   1.197  1.00  0.00    -0.572 OA
HETATM   20  O6  UNL     1      -3.018   4.307  -0.016  1.00  0.00    -0.572 OA
ENDBRANCH  16  17
ENDBRANCH   4  16
TORSDOF 6
