REMARK  12 active torsions:
REMARK  status: ('A' for Active; 'I' for Inactive)
REMARK    1  A    between atoms: C9_11  and  C12_14 
REMARK    2  A    between atoms: C12_14  and  C13_15 
REMARK    3  A    between atoms: C13_15  and  C14_16 
REMARK    4  A    between atoms: C14_16  and  C15_17 
REMARK    5  A    between atoms: C15_17  and  C16_18 
REMARK    6  A    between atoms: C16_18  and  C17_19 
REMARK    7  A    between atoms: C17_19  and  C18_20 
REMARK    8  A    between atoms: C18_20  and  C19_21 
REMARK    9  A    between atoms: C19_21  and  C20_22 
REMARK   10  A    between atoms: C20_22  and  C21_23 
REMARK   11  A    between atoms: C21_23  and  C22_24 
REMARK   12  A    between atoms: C22_24  and  C23_25 
ROOT
HETATM    1  C12 UNL     1      -1.283   3.635   2.106  1.00  0.00     0.028 C 
ENDROOT
BRANCH   1   2
HETATM    2  C9  UNL     1      -1.084   3.301   3.590  1.00  0.00     0.099 C 
HETATM    3  O2  UNL     1       0.189   2.656   3.740  1.00  0.00    -0.336 OA
HETATM    4  C2  UNL     1       1.340   3.367   3.799  1.00  0.00     0.086 A 
HETATM    5  C1  UNL     1       1.332   4.781   3.969  1.00  0.00     0.002 A 
HETATM    6  C3  UNL     1       2.576   2.678   3.697  1.00  0.00    -0.002 A 
HETATM    7  C6  UNL     1       2.557   5.490   4.024  1.00  0.00     0.025 A 
HETATM    8  C11 UNL     1       0.047   5.510   4.088  1.00  0.00     0.031 C 
HETATM    9  C5  UNL     1       3.785   4.803   3.918  1.00  0.00     0.127 A 
HETATM   10  C4  UNL     1       3.799   3.395   3.754  1.00  0.00     0.002 A 
HETATM   11  O1  UNL     1       4.936   5.490   3.973  1.00  0.00    -0.191 OA
HETATM   12  C7  UNL     1       5.086   2.686   3.645  1.00  0.00     0.033 C 
HETATM   13  C10 UNL     1      -1.115   4.574   4.455  1.00  0.00     0.033 C 
HETATM   14  C8  UNL     1       2.582   1.213   3.531  1.00  0.00     0.033 C 
HETATM   15  C28 UNL     1      -2.160   2.311   4.037  1.00  0.00     0.030 C 
ENDBRANCH   1   2
BRANCH   1  16
HETATM   16  C13 UNL     1      -1.227   2.397   1.209  1.00  0.00     0.002 C 
BRANCH  16  17
HETATM   17  C14 UNL     1      -1.283   2.740  -0.279  1.00  0.00     0.000 C 
BRANCH  17  18
HETATM   18  C15 UNL     1      -0.965   1.543  -1.174  1.00  0.00     0.000 C 
HETATM   19  C27 UNL     1      -0.717   1.941  -2.629  1.00  0.00     0.000 C 
BRANCH  18  20
HETATM   20  C16 UNL     1      -1.990   0.416  -1.037  1.00  0.00     0.000 C 
BRANCH  20  21
HETATM   21  C17 UNL     1      -1.647  -0.801  -1.898  1.00  0.00     0.000 C 
BRANCH  21  22
HETATM   22  C18 UNL     1      -2.531  -2.010  -1.590  1.00  0.00     0.000 C 
BRANCH  22  23
HETATM   23  C19 UNL     1      -2.361  -3.139  -2.607  1.00  0.00     0.000 C 
HETATM   24  C26 UNL     1      -3.451  -4.207  -2.490  1.00  0.00     0.000 C 
BRANCH  23  25
HETATM   25  C20 UNL     1      -0.953  -3.731  -2.604  1.00  0.00     0.000 C 
BRANCH  25  26
HETATM   26  C21 UNL     1      -0.772  -4.830  -3.648  1.00  0.00     0.000 C 
BRANCH  26  27
HETATM   27  C22 UNL     1       0.687  -5.262  -3.805  1.00  0.00     0.000 C 
BRANCH  27  28
HETATM   28  C23 UNL     1       0.894  -6.240  -4.963  1.00  0.00     0.000 C 
HETATM   29  C24 UNL     1       2.371  -6.484  -5.272  1.00  0.00     0.000 C 
HETATM   30  C25 UNL     1       0.103  -7.537  -4.787  1.00  0.00     0.000 C 
ENDBRANCH  27  28
ENDBRANCH  26  27
ENDBRANCH  25  26
ENDBRANCH  23  25
ENDBRANCH  22  23
ENDBRANCH  21  22
ENDBRANCH  20  21
ENDBRANCH  18  20
ENDBRANCH  17  18
ENDBRANCH  16  17
ENDBRANCH   1  16
TORSDOF 12
