REMARK  6 active torsions:
REMARK  status: ('A' for Active; 'I' for Inactive)
REMARK    1  A    between atoms: C2_3  and  C15_17 
REMARK    2  A    between atoms: C6_7  and  C7_8 
REMARK    3  A    between atoms: C7_8  and  C8_9 
REMARK    4  A    between atoms: C8_9  and  C9_10 
REMARK    5  A    between atoms: C15_17  and  C16_18 
REMARK    6  A    between atoms: C16_18  and  C17_19 
ROOT
HETATM    1  C1  UNL     1       0.287  -1.496  -0.363  1.00  0.00     0.285 C 
HETATM    2  N1  UNL     1      -0.285  -0.236  -0.834  1.00  0.00     0.135 N 
HETATM    3  C2  UNL     1      -1.656  -0.045  -0.322  1.00  0.00     0.222 C 
HETATM    4  C3  UNL     1      -2.272   1.256  -0.869  1.00  0.00     0.033 C 
HETATM    5  C4  UNL     1      -1.383   2.467  -0.580  1.00  0.00     0.004 C 
HETATM    6  C5  UNL     1       0.033   2.215  -1.102  1.00  0.00     0.033 C 
HETATM    7  C6  UNL     1       0.615   0.900  -0.551  1.00  0.00     0.222 C 
ENDROOT
BRANCH   3   8
HETATM    8  C15 UNL     1      -2.541  -1.244  -0.688  1.00  0.00     0.071 C 
BRANCH   8   9
HETATM    9  C16 UNL     1      -2.809  -2.166   0.502  1.00  0.00     0.176 C 
HETATM   10  O2  UNL     1      -3.375  -3.361   0.015  1.00  0.00    -0.218 OA
BRANCH   9  11
HETATM   11  C17 UNL     1      -3.735  -1.539   1.482  1.00  0.00     0.008 A 
HETATM   12  C18 UNL     1      -3.295  -1.260   2.787  1.00  0.00    -0.002 A 
HETATM   13  C19 UNL     1      -4.172  -0.668   3.713  1.00  0.00    -0.000 A 
HETATM   14  C20 UNL     1      -5.489  -0.356   3.334  1.00  0.00    -0.000 A 
HETATM   15  C21 UNL     1      -5.928  -0.635   2.029  1.00  0.00    -0.000 A 
HETATM   16  C22 UNL     1      -5.053  -1.227   1.103  1.00  0.00    -0.002 A 
ENDBRANCH   9  11
ENDBRANCH   8   9
ENDBRANCH   3   8
BRANCH   7  17
HETATM   17  C7  UNL     1       2.006   0.648  -1.149  1.00  0.00     0.071 C 
BRANCH  17  18
HETATM   18  C8  UNL     1       3.100   0.564  -0.084  1.00  0.00     0.176 C 
HETATM   19  O1  UNL     1       2.967  -0.668   0.588  1.00  0.00    -0.218 OA
BRANCH  18  20
HETATM   20  C9  UNL     1       4.457   0.656  -0.684  1.00  0.00     0.008 A 
HETATM   21  C10 UNL     1       5.342   1.668  -0.272  1.00  0.00    -0.002 A 
HETATM   22  C11 UNL     1       6.625   1.756  -0.840  1.00  0.00    -0.000 A 
HETATM   23  C12 UNL     1       7.023   0.830  -1.820  1.00  0.00    -0.000 A 
HETATM   24  C13 UNL     1       6.141  -0.182  -2.233  1.00  0.00    -0.000 A 
HETATM   25  C14 UNL     1       4.857  -0.270  -1.666  1.00  0.00    -0.002 A 
ENDBRANCH  18  20
ENDBRANCH  17  18
ENDBRANCH   7  17
TORSDOF 6
