REMARK  19 active torsions:
REMARK  status: ('A' for Active; 'I' for Inactive)
REMARK    1  A    between atoms: C3_3  and  C42_55 
REMARK    2  A    between atoms: C23_23  and  O2_28 
REMARK    3  A    between atoms: C24_24  and  C26_26 
REMARK    4  A    between atoms: O2_28  and  C27_29 
REMARK    5  A    between atoms: C28_31  and  C38_49 
REMARK    6  A    between atoms: C31_34  and  O4_35 
REMARK    7  A    between atoms: O4_35  and  C32_36 
REMARK    8  A    between atoms: C33_38  and  C37_45 
REMARK    9  A    between atoms: C42_55  and  O15_57 
REMARK   10  A    between atoms: O15_57  and  C43_58 
REMARK   11  A    between atoms: C45_61  and  O31_94 
REMARK   12  A    between atoms: C46_62  and  O26_84 
REMARK   13  A    between atoms: C47_63  and  O17_64 
REMARK   14  A    between atoms: O17_64  and  C48_65 
REMARK   15  A    between atoms: C51_68  and  O19_72 
REMARK   16  A    between atoms: O19_72  and  C54_73 
REMARK   17  A    between atoms: O26_84  and  C59_85 
REMARK   18  A    between atoms: C60_87  and  C63_92 
REMARK   19  A    between atoms: O31_94  and  C64_95 
ROOT
HETATM    1  C1  UNL     1      -3.585  -0.977   4.011  1.00  0.00     0.004 C 
HETATM    2  C2  UNL     1      -3.385  -1.022   2.479  1.00  0.00     0.027 C 
HETATM    3  C3  UNL     1      -4.453  -1.904   1.778  1.00  0.00     0.082 C 
HETATM    4  C4  UNL     1      -5.874  -1.491   2.233  1.00  0.00     0.010 C 
HETATM    5  C5  UNL     1      -6.040  -1.432   3.760  1.00  0.00     0.001 C 
HETATM    6  C6  UNL     1      -4.996  -0.519   4.425  1.00  0.00     0.000 C 
HETATM    7  C7  UNL     1      -5.139  -0.605   5.949  1.00  0.00     0.000 C 
HETATM    8  C8  UNL     1      -5.222   0.938   4.006  1.00  0.00     0.000 C 
HETATM    9  C9  UNL     1      -4.197  -3.415   2.040  1.00  0.00     0.010 C 
HETATM   10  C10 UNL     1      -2.734  -3.794   2.357  1.00  0.00     0.004 C 
HETATM   11  C11 UNL     1      -1.671  -2.870   1.716  1.00  0.00     0.015 C 
HETATM   12  C12 UNL     1      -1.956  -1.435   2.150  1.00  0.00    -0.049 C 
HETATM   13  C13 UNL     1      -0.971  -0.518   2.263  1.00  0.00    -0.035 C 
HETATM   14  C14 UNL     1       0.490  -0.838   2.052  1.00  0.00     0.025 C 
HETATM   15  C15 UNL     1       0.781  -2.257   1.512  1.00  0.00     0.005 C 
HETATM   16  C16 UNL     1      -0.215  -3.293   2.111  1.00  0.00     0.004 C 
HETATM   17  C17 UNL     1       0.116  -4.704   1.569  1.00  0.00     0.000 C 
HETATM   18  C18 UNL     1       1.583  -5.090   1.765  1.00  0.00     0.001 C 
HETATM   19  C19 UNL     1       2.541  -4.075   1.108  1.00  0.00     0.009 C 
HETATM   20  C20 UNL     1       2.294  -2.634   1.629  1.00  0.00     0.001 C 
HETATM   21  C21 UNL     1       3.125  -1.621   0.784  1.00  0.00     0.003 C 
HETATM   22  C22 UNL     1       4.393  -2.206   0.139  1.00  0.00     0.030 C 
HETATM   23  C23 UNL     1       4.997  -3.306   1.016  1.00  0.00     0.125 C 
HETATM   24  C24 UNL     1       4.039  -4.528   1.162  1.00  0.00     0.083 C 
HETATM   25  C25 UNL     1       4.255  -5.570   0.049  1.00  0.00     0.010 C 
HETATM   26  C39 UNL     1       2.750  -2.558   3.097  1.00  0.00     0.000 C 
HETATM   27  C40 UNL     1      -0.076  -3.316   3.645  1.00  0.00     0.000 C 
HETATM   28  C41 UNL     1      -1.826  -2.933   0.187  1.00  0.00     0.004 C 
ENDROOT
BRANCH   3  29
HETATM   29  C42 UNL     1      -4.407  -1.641   0.287  1.00  0.00     0.273 C 
HETATM   30  O14 UNL     1      -4.679  -2.511  -0.507  1.00  0.00    -0.264 OA
BRANCH  29  31
HETATM   31  O15 UNL     1      -4.052  -0.407  -0.060  1.00  0.00    -0.273 OA
BRANCH  31  32
HETATM   32  C43 UNL     1      -4.171  -0.182  -1.458  1.00  0.00     0.273 C 
HETATM   33  O16 UNL     1      -3.159  -0.919  -2.132  1.00  0.00    -0.329 OA
HETATM   34  C44 UNL     1      -3.186  -0.816  -3.550  1.00  0.00     0.148 C 
HETATM   35  C45 UNL     1      -2.978   0.654  -3.966  1.00  0.00     0.184 C 
HETATM   36  C65 UNL     1      -2.091  -1.736  -4.092  1.00  0.00     0.035 C 
HETATM   37  C46 UNL     1      -4.007   1.576  -3.289  1.00  0.00     0.180 C 
HETATM   38  C47 UNL     1      -4.015   1.323  -1.766  1.00  0.00     0.204 C 
BRANCH  35  39
HETATM   39  O31 UNL     1      -3.101   0.760  -5.379  1.00  0.00    -0.274 OA
BRANCH  39  40
HETATM   40  C64 UNL     1      -1.943   0.567  -6.004  1.00  0.00     0.334 C 
HETATM   41  O32 UNL     1      -0.878   0.483  -5.438  1.00  0.00    -0.624 OA
HETATM   42  O33 UNL     1      -2.090   0.477  -7.322  1.00  0.00    -0.624 OA
ENDBRANCH  39  40
ENDBRANCH  35  39
BRANCH  37  43
HETATM   43  O26 UNL     1      -3.677   2.925  -3.565  1.00  0.00    -0.326 OA
BRANCH  43  44
HETATM   44  C59 UNL     1      -4.808   3.767  -3.658  1.00  0.00     0.270 C 
HETATM   45  O27 UNL     1      -4.532   5.057  -3.170  1.00  0.00    -0.326 OA
HETATM   46  C60 UNL     1      -5.457   5.989  -3.687  1.00  0.00     0.184 C 
HETATM   47  C61 UNL     1      -6.074   5.288  -4.913  1.00  0.00     0.217 C 
HETATM   48  C62 UNL     1      -5.188   4.046  -5.112  1.00  0.00     0.241 C 
HETATM   49  O29 UNL     1      -6.031   6.125  -6.053  1.00  0.00    -0.218 OA
HETATM   50  O28 UNL     1      -5.922   2.973  -5.671  1.00  0.00    -0.215 OA
BRANCH  46  51
HETATM   51  C63 UNL     1      -6.504   6.273  -2.614  1.00  0.00     0.214 C 
HETATM   52  O30 UNL     1      -5.880   6.979  -1.565  1.00  0.00    -0.218 OA
ENDBRANCH  46  51
ENDBRANCH  43  44
ENDBRANCH  37  43
BRANCH  38  53
HETATM   53  O17 UNL     1      -5.090   2.024  -1.166  1.00  0.00    -0.324 OA
BRANCH  53  54
HETATM   54  C48 UNL     1      -4.743   2.626   0.065  1.00  0.00     0.270 C 
HETATM   55  C49 UNL     1      -6.006   3.189   0.767  1.00  0.00     0.241 C 
HETATM   56  C50 UNL     1      -5.626   3.989   2.034  1.00  0.00     0.217 C 
HETATM   57  O25 UNL     1      -6.861   2.116   1.128  1.00  0.00    -0.215 OA
HETATM   58  C51 UNL     1      -4.525   5.018   1.697  1.00  0.00     0.178 C 
HETATM   59  O24 UNL     1      -6.770   4.657   2.542  1.00  0.00    -0.218 OA
HETATM   60  C52 UNL     1      -3.340   4.352   0.961  1.00  0.00     0.148 C 
HETATM   61  O18 UNL     1      -3.823   3.678  -0.193  1.00  0.00    -0.329 OA
HETATM   62  C53 UNL     1      -2.295   5.362   0.477  1.00  0.00     0.035 C 
BRANCH  58  63
HETATM   63  O19 UNL     1      -4.042   5.612   2.890  1.00  0.00    -0.326 OA
BRANCH  63  64
HETATM   64  C54 UNL     1      -3.813   7.002   2.767  1.00  0.00     0.270 C 
HETATM   65  O20 UNL     1      -5.065   7.672   2.831  1.00  0.00    -0.326 OA
HETATM   66  C55 UNL     1      -4.994   9.083   2.675  1.00  0.00     0.181 C 
HETATM   67  C56 UNL     1      -4.152   9.689   3.814  1.00  0.00     0.215 C 
HETATM   68  C57 UNL     1      -2.751   9.042   3.878  1.00  0.00     0.220 C 
HETATM   69  O23 UNL     1      -4.040  11.083   3.592  1.00  0.00    -0.218 OA
HETATM   70  C58 UNL     1      -2.888   7.503   3.907  1.00  0.00     0.241 C 
HETATM   71  O22 UNL     1      -2.069   9.488   5.040  1.00  0.00    -0.218 OA
HETATM   72  O21 UNL     1      -1.604   6.914   3.766  1.00  0.00    -0.215 OA
ENDBRANCH  63  64
ENDBRANCH  58  63
ENDBRANCH  53  54
ENDBRANCH  38  53
ENDBRANCH  31  32
ENDBRANCH  29  31
ENDBRANCH   3  29
BRANCH  24  73
HETATM   73  C26 UNL     1       4.379  -5.224   2.462  1.00  0.00     0.209 C 
HETATM   74  O1  UNL     1       3.788  -4.959   3.482  1.00  0.00    -0.288 OA
ENDBRANCH  24  73
BRANCH  23  75
HETATM   75  O2  UNL     1       6.258  -3.685   0.494  1.00  0.00    -0.331 OA
BRANCH  75  76
HETATM   76  C27 UNL     1       7.295  -2.786   0.835  1.00  0.00     0.267 C 
HETATM   77  O3  UNL     1       7.597  -2.951   2.214  1.00  0.00    -0.318 OA
HETATM   78  C28 UNL     1       8.590  -2.071   2.723  1.00  0.00     0.237 C 
HETATM   79  C29 UNL     1       9.924  -2.320   1.979  1.00  0.00     0.223 C 
HETATM   80  C30 UNL     1       9.746  -2.195   0.449  1.00  0.00     0.217 C 
HETATM   81  O11 UNL     1      10.883  -1.375   2.424  1.00  0.00    -0.217 OA
HETATM   82  C31 UNL     1       8.559  -3.067  -0.018  1.00  0.00     0.207 C 
HETATM   83  O10 UNL     1      10.933  -2.606  -0.210  1.00  0.00    -0.218 OA
BRANCH  78  84
HETATM   84  C38 UNL     1       8.689  -2.303   4.211  1.00  0.00     0.217 C 
HETATM   85  O12 UNL     1       9.408  -3.164   4.660  1.00  0.00    -0.646 OA
HETATM   86  O13 UNL     1       7.938  -1.500   4.959  1.00  0.00    -0.646 OA
ENDBRANCH  78  84
BRANCH  82  87
HETATM   87  O4  UNL     1       8.277  -2.787  -1.381  1.00  0.00    -0.324 OA
BRANCH  87  88
HETATM   88  C32 UNL     1       7.700  -3.880  -2.067  1.00  0.00     0.270 C 
HETATM   89  O5  UNL     1       6.497  -3.440  -2.681  1.00  0.00    -0.326 OA
HETATM   90  C33 UNL     1       5.771  -4.447  -3.373  1.00  0.00     0.184 C 
HETATM   91  C34 UNL     1       6.638  -5.002  -4.525  1.00  0.00     0.215 C 
HETATM   92  C35 UNL     1       8.002  -5.510  -4.007  1.00  0.00     0.220 C 
HETATM   93  O8  UNL     1       5.936  -6.063  -5.150  1.00  0.00    -0.218 OA
HETATM   94  C36 UNL     1       8.676  -4.420  -3.143  1.00  0.00     0.241 C 
HETATM   95  O7  UNL     1       8.839  -5.843  -5.103  1.00  0.00    -0.218 OA
HETATM   96  O6  UNL     1       9.821  -4.967  -2.508  1.00  0.00    -0.215 OA
BRANCH  90  97
HETATM   97  C37 UNL     1       4.472  -3.798  -3.862  1.00  0.00     0.214 C 
HETATM   98  O9  UNL     1       3.515  -4.815  -4.051  1.00  0.00    -0.218 OA
ENDBRANCH  90  97
ENDBRANCH  87  88
ENDBRANCH  82  87
ENDBRANCH  75  76
ENDBRANCH  23  75
TORSDOF 19
