REMARK  1 active torsions:
REMARK  status: ('A' for Active; 'I' for Inactive)
REMARK    1  A    between atoms: C14_16  and  O3_17 
ROOT
HETATM    1  C1  UNL     1       3.842   0.234   0.465  1.00  0.00     0.023 A 
HETATM    2  C2  UNL     1       3.775  -1.168   0.594  1.00  0.00    -0.020 A 
HETATM    3  C3  UNL     1       2.527  -1.820   0.521  1.00  0.00    -0.001 A 
HETATM    4  C4  UNL     1       1.330  -1.080   0.318  1.00  0.00     0.044 A 
HETATM    5  C5  UNL     1       1.394   0.338   0.189  1.00  0.00     0.067 A 
HETATM    6  C6  UNL     1       2.662   0.986   0.266  1.00  0.00     0.134 A 
HETATM    7  O1  UNL     1       2.770   2.318   0.148  1.00  0.00    -0.190 OA
HETATM    8  C7  UNL     1       0.158   1.162  -0.024  1.00  0.00     0.200 A 
HETATM    9  C8  UNL     1      -1.141   0.416  -0.109  1.00  0.00     0.065 A 
HETATM   10  C9  UNL     1      -1.195  -1.002   0.021  1.00  0.00     0.046 A 
HETATM   11  C10 UNL     1       0.035  -1.822   0.248  1.00  0.00     0.196 A 
HETATM   12  O2  UNL     1      -0.018  -3.027   0.365  1.00  0.00    -0.287 OA
HETATM   13  C11 UNL     1      -2.447  -1.668  -0.067  1.00  0.00     0.031 A 
HETATM   14  C12 UNL     1      -3.639  -0.939  -0.281  1.00  0.00     0.133 A 
HETATM   15  C13 UNL     1      -3.588   0.465  -0.408  1.00  0.00     0.052 A 
HETATM   16  C14 UNL     1      -2.352   1.141  -0.322  1.00  0.00     0.099 A 
HETATM   17  O4  UNL     1      -4.813  -1.580  -0.363  1.00  0.00    -0.190 OA
HETATM   18  O5  UNL     1       0.207   2.369  -0.125  1.00  0.00    -0.286 OA
HETATM   19  C16 UNL     1       5.006  -1.949   0.803  1.00  0.00     0.031 C 
ENDROOT
BRANCH  16  20
HETATM   20  O3  UNL     1      -2.348   2.477  -0.449  1.00  0.00    -0.328 OA
HETATM   21  C15 UNL     1      -3.529   3.104  -0.924  1.00  0.00     0.181 C 
ENDBRANCH  16  20
TORSDOF 1
