REMARK  3 active torsions:
REMARK  status: ('A' for Active; 'I' for Inactive)
REMARK    1  A    between atoms: C1_1  and  O6_21 
REMARK    2  A    between atoms: C6_6  and  O1_7 
REMARK    3  A    between atoms: C12_14  and  O4_18 
ROOT
HETATM    1  C1  UNL     1       3.312  -0.006   0.703  1.00  0.00     0.117 A 
HETATM    2  C2  UNL     1       3.303   1.281   0.121  1.00  0.00     0.028 A 
HETATM    3  C3  UNL     1       2.090   1.840  -0.342  1.00  0.00     0.027 A 
HETATM    4  C4  UNL     1       0.883   1.111  -0.225  1.00  0.00     0.105 A 
HETATM    5  C5  UNL     1       0.885  -0.186   0.363  1.00  0.00     0.086 A 
HETATM    6  C6  UNL     1       2.109  -0.742   0.826  1.00  0.00     0.121 A 
HETATM    7  C8  UNL     1      -0.403  -0.953   0.490  1.00  0.00     0.203 A 
HETATM    8  C9  UNL     1      -1.612  -0.234  -0.041  1.00  0.00     0.087 A 
HETATM    9  C10 UNL     1      -1.469   1.064  -0.611  1.00  0.00     0.107 A 
HETATM   10  O2  UNL     1      -0.264   1.664  -0.676  1.00  0.00    -0.307 OA
HETATM   11  C11 UNL     1      -2.602   1.742  -1.117  1.00  0.00     0.049 A 
HETATM   12  C12 UNL     1      -3.879   1.137  -1.059  1.00  0.00     0.098 A 
HETATM   13  C13 UNL     1      -4.024  -0.148  -0.492  1.00  0.00     0.052 A 
HETATM   14  C14 UNL     1      -2.897  -0.838   0.016  1.00  0.00     0.138 A 
HETATM   15  O3  UNL     1      -3.067  -2.057   0.549  1.00  0.00    -0.190 OA
HETATM   16  O5  UNL     1      -0.461  -2.059   0.980  1.00  0.00    -0.286 OA
ENDROOT
BRANCH   1  17
HETATM   17  O6  UNL     1       4.467  -0.529   1.141  1.00  0.00    -0.326 OA
HETATM   18  C16 UNL     1       5.648   0.246   0.992  1.00  0.00     0.181 C 
ENDBRANCH   1  17
BRANCH   6  19
HETATM   19  O1  UNL     1       2.144  -1.963   1.383  1.00  0.00    -0.326 OA
HETATM   20  C7  UNL     1       3.207  -2.830   1.018  1.00  0.00     0.181 C 
ENDBRANCH   6  19
BRANCH  12  21
HETATM   21  O4  UNL     1      -4.949   1.783  -1.541  1.00  0.00    -0.328 OA
HETATM   22  C15 UNL     1      -6.203   1.119  -1.496  1.00  0.00     0.181 C 
ENDBRANCH  12  21
TORSDOF 3
