REMARK  3 active torsions:
REMARK  status: ('A' for Active; 'I' for Inactive)
REMARK    1  A    between atoms: C2_2  and  C3_3 
REMARK    2  A    between atoms: C3_3  and  C4_4 
REMARK    3  A    between atoms: C4_4  and  C5_5 
ROOT
HETATM    1  C5  UNL     1       0.398   0.504  -0.432  1.00  0.00     0.125 C 
HETATM    2  C6  UNL     1      -1.031   1.049  -0.592  1.00  0.00     0.042 C 
HETATM    3  C7  UNL     1      -2.055   0.275   0.256  1.00  0.00     0.008 C 
HETATM    4  C8  UNL     1      -3.375   1.057   0.285  1.00  0.00     0.026 C 
HETATM    5  C9  UNL     1      -3.192   2.479   0.760  1.00  0.00    -0.030 C 
HETATM    6  C10 UNL     1      -2.020   3.123   0.606  1.00  0.00    -0.021 C 
HETATM    7  C11 UNL     1      -0.815   2.469  -0.041  1.00  0.00     0.110 C 
HETATM    8  C12 UNL     1       0.308   2.248   0.934  1.00  0.00     0.276 C 
HETATM    9  O1  UNL     1       0.598   3.053   1.787  1.00  0.00    -0.264 OA
HETATM   10  O2  UNL     1       0.926   1.086   0.758  1.00  0.00    -0.304 OA
ENDROOT
BRANCH   1  11
HETATM   11  C4  UNL     1       0.514  -1.016  -0.365  1.00  0.00     0.030 C 
BRANCH  11  12
HETATM   12  C3  UNL     1       1.988  -1.416  -0.355  1.00  0.00     0.003 C 
BRANCH  12  13
HETATM   13  C2  UNL     1       2.187  -2.930  -0.297  1.00  0.00     0.000 C 
HETATM   14  C1  UNL     1       3.664  -3.332  -0.287  1.00  0.00     0.000 C 
ENDBRANCH  12  13
ENDBRANCH  11  12
ENDBRANCH   1  11
TORSDOF 3
