REMARK  1 active torsions:
REMARK  status: ('A' for Active; 'I' for Inactive)
REMARK    1  A    between atoms: C2_2  and  C14_21 
ROOT
HETATM    1  C1  UNL     1       1.555   1.070  -0.889  1.00  0.00     0.036 C 
HETATM    2  C2  UNL     1       1.352  -0.324  -0.295  1.00  0.00     0.035 C 
HETATM    3  C3  UNL     1      -0.172  -0.272  -0.090  1.00  0.00     0.043 C 
HETATM    4  C4  UNL     1      -0.465   1.103   0.557  1.00  0.00     0.089 C 
HETATM    5  C5  UNL     1       0.693   1.977   0.000  1.00  0.00     0.157 C 
HETATM    6  O1  UNL     1       0.244   3.090  -0.746  1.00  0.00    -0.223 OA
HETATM    7  C6  UNL     1      -1.988   1.422   0.399  1.00  0.00     0.193 C 
HETATM    8  C7  UNL     1      -2.506   0.445   1.481  1.00  0.00     0.149 C 
HETATM    9  C8  UNL     1      -2.365  -1.000   0.938  1.00  0.00     0.182 C 
HETATM   10  C9  UNL     1      -0.920  -1.443   0.572  1.00  0.00     0.182 C 
HETATM   11  O2  UNL     1      -0.248  -1.914   1.725  1.00  0.00    -0.221 OA
HETATM   12  O3  UNL     1      -3.197  -1.195  -0.209  1.00  0.00    -0.297 OA
HETATM   13  C10 UNL     1      -3.225  -0.260  -1.170  1.00  0.00     0.305 C 
HETATM   14  C11 UNL     1      -2.766   1.168  -0.922  1.00  0.00     0.267 C 
HETATM   15  O4  UNL     1      -2.025   1.648  -2.027  1.00  0.00    -0.210 OA
HETATM   16  O5  UNL     1      -3.647  -0.537  -2.269  1.00  0.00    -0.261 OA
HETATM   17  O6  UNL     1      -1.611   0.609   2.563  1.00  0.00    -0.354 OA
HETATM   18  C12 UNL     1      -0.363   1.080   2.104  1.00  0.00     0.147 C 
HETATM   19  C13 UNL     1      -3.922   0.727   1.984  1.00  0.00     0.035 C 
HETATM   20  O7  UNL     1      -2.238   2.771   0.789  1.00  0.00    -0.220 OA
HETATM   21  C19 UNL     1       2.215  -0.498   0.951  1.00  0.00     0.003 C 
ENDROOT
BRANCH   2  22
HETATM   22  C14 UNL     1       1.760  -1.414  -1.281  1.00  0.00     0.143 A 
HETATM   23  C15 UNL     1       3.242  -1.447  -1.555  1.00  0.00    -0.011 A 
HETATM   24  C16 UNL     1       3.740  -2.627  -1.185  1.00  0.00     0.062 A 
HETATM   25  C18 UNL     1       4.022  -0.307  -2.156  1.00  0.00     0.029 C 
HETATM   26  C17 UNL     1       2.633  -3.410  -0.664  1.00  0.00     0.296 A 
HETATM   27  O8  UNL     1       1.492  -2.707  -0.713  1.00  0.00    -0.297 OA
HETATM   28  O9  UNL     1       2.754  -4.537  -0.246  1.00  0.00    -0.259 OA
ENDBRANCH   2  22
TORSDOF 1
