REMARK  13 active torsions:
REMARK  status: ('A' for Active; 'I' for Inactive)
REMARK    1  A    between atoms: C3_3  and  C7_7 
REMARK    2  A    between atoms: C7_7  and  C8_8 
REMARK    3  A    between atoms: C8_8  and  N1_9 
REMARK    4  A    between atoms: C8_8  and  C26_36 
REMARK    5  A    between atoms: N1_9  and  C9_10 
REMARK    6  A    between atoms: C9_10  and  C10_11 
REMARK    7  A    between atoms: C10_11  and  C11_12 
REMARK    8  A    between atoms: C12_13  and  C24_34 
REMARK    9  A    between atoms: C13_14  and  O4_22 
REMARK   10  A    between atoms: C15_17  and  C16_18 
REMARK   11  A    between atoms: C16_18  and  O3_20 
REMARK   12  A    between atoms: O4_22  and  C18_23 
REMARK   13  A    between atoms: C22_30  and  C23_32 
ROOT
HETATM    1  C11 UNL     1       0.455   0.152   0.330  1.00  0.00     0.041 C 
HETATM    2  C12 UNL     1      -0.101   1.484  -0.209  1.00  0.00     0.083 C 
HETATM    3  C13 UNL     1      -1.437   1.791   0.496  1.00  0.00     0.246 C 
HETATM    4  O1  UNL     1      -2.375   0.731   0.285  1.00  0.00    -0.303 OA
HETATM    5  C14 UNL     1      -1.935  -0.533   0.418  1.00  0.00     0.120 C 
HETATM    6  C15 UNL     1      -0.635  -0.896   0.461  1.00  0.00     0.065 C 
ENDROOT
BRANCH   1   7
HETATM    7  C10 UNL     1       1.621  -0.350  -0.533  1.00  0.00     0.043 C 
BRANCH   7   8
HETATM    8  C9  UNL     1       2.717  -1.027   0.289  1.00  0.00     0.291 C 
BRANCH   8   9
HETATM    9  N1  UNL     1       3.766  -1.535  -0.580  1.00  0.00     0.348 N 
BRANCH   9  10
HETATM   10  C8  UNL     1       4.756  -2.266   0.191  1.00  0.00     0.346 C 
BRANCH  10  11
HETATM   11  C7  UNL     1       5.676  -3.063  -0.734  1.00  0.00     0.074 C 
BRANCH  11  12
HETATM   12  C3  UNL     1       4.928  -4.109  -1.479  1.00  0.00    -0.020 A 
HETATM   13  C2  UNL     1       4.569  -3.898  -2.822  1.00  0.00    -0.004 A 
HETATM   14  C1  UNL     1       3.862  -4.889  -3.525  1.00  0.00    -0.000 A 
HETATM   15  C6  UNL     1       3.514  -6.092  -2.887  1.00  0.00    -0.000 A 
HETATM   16  C5  UNL     1       3.871  -6.303  -1.543  1.00  0.00    -0.000 A 
HETATM   17  C4  UNL     1       4.578  -5.313  -0.840  1.00  0.00    -0.004 A 
ENDBRANCH  11  12
ENDBRANCH  10  11
BRANCH  10  18
HETATM   18  C26 UNL     1       5.518  -1.322   1.084  1.00  0.00     0.221 C 
HETATM   19  O10 UNL     1       6.344  -0.566   0.629  1.00  0.00    -0.646 OA
HETATM   20  O11 UNL     1       5.211  -1.393   2.375  1.00  0.00    -0.646 OA
ENDBRANCH  10  18
ENDBRANCH   9  10
ENDBRANCH   8   9
ENDBRANCH   7   8
ENDBRANCH   1   7
BRANCH   2  21
HETATM   21  C24 UNL     1       0.910   2.596  -0.047  1.00  0.00    -0.021 C 
HETATM   22  C25 UNL     1       1.322   3.254  -1.143  1.00  0.00    -0.005 C 
ENDBRANCH   2  21
BRANCH   6  23
HETATM   23  C16 UNL     1      -0.254  -2.309   0.633  1.00  0.00     0.294 C 
HETATM   24  O2  UNL     1       0.106  -2.719   1.713  1.00  0.00    -0.259 OA
BRANCH  23  25
HETATM   25  O3  UNL     1      -0.336  -3.066  -0.457  1.00  0.00    -0.296 OA
HETATM   26  C17 UNL     1       0.080  -4.402  -0.221  1.00  0.00     0.185 C 
ENDBRANCH  23  25
ENDBRANCH   6  23
BRANCH   3  27
HETATM   27  O4  UNL     1      -1.998   2.990  -0.002  1.00  0.00    -0.303 OA
BRANCH  27  28
HETATM   28  C18 UNL     1      -3.096   3.451   0.762  1.00  0.00     0.272 C 
HETATM   29  C19 UNL     1      -3.412   4.930   0.420  1.00  0.00     0.241 C 
HETATM   30  O5  UNL     1      -2.326   5.748   0.822  1.00  0.00    -0.215 OA
HETATM   31  C20 UNL     1      -4.701   5.399   1.133  1.00  0.00     0.220 C 
HETATM   32  O6  UNL     1      -5.078   6.680   0.654  1.00  0.00    -0.218 OA
HETATM   33  C21 UNL     1      -5.842   4.389   0.879  1.00  0.00     0.215 C 
HETATM   34  O7  UNL     1      -6.957   4.711   1.691  1.00  0.00    -0.218 OA
HETATM   35  C22 UNL     1      -5.398   2.943   1.201  1.00  0.00     0.184 C 
HETATM   36  O8  UNL     1      -4.223   2.635   0.465  1.00  0.00    -0.326 OA
BRANCH  35  37
HETATM   37  C23 UNL     1      -6.449   1.897   0.814  1.00  0.00     0.214 C 
HETATM   38  O9  UNL     1      -6.021   0.643   1.297  1.00  0.00    -0.218 OA
ENDBRANCH  35  37
ENDBRANCH  27  28
ENDBRANCH   3  27
TORSDOF 13
