REMARK  5 active torsions:
REMARK  status: ('A' for Active; 'I' for Inactive)
REMARK    1  A    between atoms: C3_3  and  O6_24 
REMARK    2  A    between atoms: C8_9  and  C10_12 
REMARK    3  A    between atoms: C12_14  and  O5_22 
REMARK    4  A    between atoms: C13_15  and  O4_20 
REMARK    5  A    between atoms: C14_16  and  O3_18 
ROOT
HETATM    1  C1  UNL     1      -5.093   0.014   1.154  1.00  0.00     0.123 A 
HETATM    2  C2  UNL     1      -4.815   0.396  -0.162  1.00  0.00     0.141 A 
HETATM    3  C3  UNL     1      -3.474   0.486  -0.630  1.00  0.00     0.123 A 
HETATM    4  C4  UNL     1      -2.411   0.176   0.266  1.00  0.00     0.086 A 
HETATM    5  C5  UNL     1      -2.686  -0.212   1.599  1.00  0.00     0.107 A 
HETATM    6  C6  UNL     1      -4.024  -0.288   2.030  1.00  0.00     0.051 A 
HETATM    7  O1  UNL     1      -1.684  -0.508   2.455  1.00  0.00    -0.305 OA
HETATM    8  C7  UNL     1      -0.383  -0.462   2.110  1.00  0.00     0.126 A 
HETATM    9  C8  UNL     1       0.021  -0.108   0.869  1.00  0.00     0.064 A 
HETATM   10  C9  UNL     1      -0.982   0.248  -0.168  1.00  0.00     0.201 A 
HETATM   11  O2  UNL     1      -0.570   0.563  -1.262  1.00  0.00    -0.286 OA
HETATM   12  O7  UNL     1      -5.967   0.627  -0.793  1.00  0.00    -0.298 OA
HETATM   13  C20 UNL     1      -7.068   0.393   0.113  1.00  0.00     0.304 A 
HETATM   14  O8  UNL     1      -6.413   0.007   1.341  1.00  0.00    -0.299 OA
ENDROOT
BRANCH   9  15
HETATM   15  C10 UNL     1       1.480  -0.079   0.551  1.00  0.00     0.009 A 
HETATM   16  C11 UNL     1       1.936  -0.508  -0.708  1.00  0.00     0.026 A 
HETATM   17  C12 UNL     1       3.309  -0.481  -1.009  1.00  0.00     0.118 A 
HETATM   18  C13 UNL     1       4.229  -0.024  -0.048  1.00  0.00     0.138 A 
HETATM   19  C14 UNL     1       3.775   0.405   1.213  1.00  0.00     0.118 A 
HETATM   20  C15 UNL     1       2.401   0.377   1.510  1.00  0.00     0.026 A 
BRANCH  17  21
HETATM   21  O5  UNL     1       3.730  -0.884  -2.192  1.00  0.00    -0.326 OA
HETATM   22  C18 UNL     1       2.780  -1.459  -3.077  1.00  0.00     0.181 C 
ENDBRANCH  17  21
BRANCH  18  23
HETATM   23  O4  UNL     1       5.517   0.002  -0.328  1.00  0.00    -0.324 OA
HETATM   24  C17 UNL     1       6.070  -1.104  -1.027  1.00  0.00     0.182 C 
ENDBRANCH  18  23
BRANCH  19  25
HETATM   25  O3  UNL     1       4.634   0.834   2.117  1.00  0.00    -0.326 OA
HETATM   26  C16 UNL     1       4.124   1.256   3.373  1.00  0.00     0.181 C 
ENDBRANCH  19  25
ENDBRANCH   9  15
BRANCH   3  27
HETATM   27  O6  UNL     1      -3.106   0.844  -1.869  1.00  0.00    -0.326 OA
HETATM   28  C19 UNL     1      -4.128   1.163  -2.801  1.00  0.00     0.181 C 
ENDBRANCH   3  27
TORSDOF 5
