REMARK  1 active torsions:
REMARK  status: ('A' for Active; 'I' for Inactive)
REMARK    1  A    between atoms: C12_12  and  O2_16 
ROOT
HETATM    1  C1  UNL     1      -2.996  -1.156   0.678  1.00  0.00     0.023 A 
HETATM    2  C2  UNL     1      -2.684  -2.477   0.281  1.00  0.00     0.127 A 
HETATM    3  C3  UNL     1      -1.371  -2.793  -0.139  1.00  0.00     0.004 A 
HETATM    4  C4  UNL     1      -0.373  -1.791  -0.170  1.00  0.00    -0.002 A 
HETATM    5  C5  UNL     1      -0.672  -0.461   0.238  1.00  0.00    -0.001 A 
HETATM    6  C6  UNL     1      -1.998  -0.150   0.662  1.00  0.00    -0.020 A 
HETATM    7  C7  UNL     1      -2.324   1.227   1.098  1.00  0.00     0.031 C 
HETATM    8  C8  UNL     1      -1.510   2.272   0.322  1.00  0.00     0.034 C 
HETATM    9  C9  UNL     1      -0.031   1.930   0.258  1.00  0.00     0.020 A 
HETATM   10  C10 UNL     1       0.375   0.631   0.223  1.00  0.00     0.040 A 
HETATM   11  C11 UNL     1       1.844   0.346   0.174  1.00  0.00     0.217 A 
HETATM   12  C12 UNL     1       2.812   1.457   0.060  1.00  0.00     0.136 A 
HETATM   13  C13 UNL     1       2.383   2.731   0.092  1.00  0.00     0.069 A 
HETATM   14  C14 UNL     1       0.951   3.039   0.223  1.00  0.00     0.194 A 
HETATM   15  O1  UNL     1       0.594   4.193   0.295  1.00  0.00    -0.287 OA
HETATM   16  O3  UNL     1       2.289  -0.775   0.238  1.00  0.00    -0.284 OA
HETATM   17  C16 UNL     1      -1.037  -4.168  -0.551  1.00  0.00     0.033 C 
HETATM   18  O4  UNL     1      -3.635  -3.420   0.307  1.00  0.00    -0.191 OA
ENDROOT
BRANCH  12  19
HETATM   19  O2  UNL     1       4.113   1.201  -0.066  1.00  0.00    -0.325 OA
HETATM   20  C15 UNL     1       4.643   1.691  -1.289  1.00  0.00     0.181 C 
ENDBRANCH  12  19
TORSDOF 1
