REMARK  5 active torsions:
REMARK  status: ('A' for Active; 'I' for Inactive)
REMARK    1  A    between atoms: C1_1  and  C23_29 
REMARK    2  A    between atoms: C5_5  and  C8_8 
REMARK    3  A    between atoms: C8_8  and  O1_9 
REMARK    4  A    between atoms: O1_9  and  C9_10 
REMARK    5  A    between atoms: C9_10  and  C10_11 
ROOT
HETATM    1  C8  UNL     1       0.562  -1.090   1.389  1.00  0.00     0.292 C 
HETATM    2  O6  UNL     1       1.318  -1.838   1.965  1.00  0.00    -0.260 OA
ENDROOT
BRANCH   1   3
HETATM    3  C5  UNL     1      -0.070   0.029   2.108  1.00  0.00     0.041 C 
HETATM    4  C4  UNL     1       0.801   1.012   2.895  1.00  0.00     0.028 C 
HETATM    5  C3  UNL     1       0.625   2.525   2.635  1.00  0.00     0.008 C 
HETATM    6  C19 UNL     1       2.320   0.805   2.740  1.00  0.00     0.004 C 
HETATM    7  C2  UNL     1      -0.635   2.971   1.891  1.00  0.00     0.022 C 
HETATM    8  C21 UNL     1       1.916   3.006   1.971  1.00  0.00     0.001 C 
HETATM    9  C1  UNL     1      -1.885   2.519   2.606  1.00  0.00    -0.044 C 
HETATM   10  C7  UNL     1      -2.227   1.219   2.656  1.00  0.00    -0.009 C 
HETATM   11  C6  UNL     1      -1.418   0.135   2.067  1.00  0.00     0.000 C 
HETATM   12  C20 UNL     1       2.937   2.197   2.762  1.00  0.00     0.000 C 
HETATM   13  C22 UNL     1       1.996   2.680   0.479  1.00  0.00     0.000 C 
BRANCH   9  14
HETATM   14  C23 UNL     1      -2.756   3.562   3.258  1.00  0.00     0.018 C 
HETATM   15  C24 UNL     1      -3.735   2.959   4.266  1.00  0.00     0.004 C 
HETATM   16  C25 UNL     1      -3.445   4.471   2.238  1.00  0.00     0.004 C 
ENDBRANCH   9  14
ENDBRANCH   1   3
BRANCH   1  17
HETATM   17  O1  UNL     1       0.248  -1.203   0.102  1.00  0.00    -0.296 OA
BRANCH  17  18
HETATM   18  C9  UNL     1       0.896  -2.303  -0.519  1.00  0.00     0.185 C 
BRANCH  18  19
HETATM   19  C10 UNL     1       0.490  -2.371  -1.988  1.00  0.00     0.191 C 
HETATM   20  C11 UNL     1      -1.012  -2.641  -2.184  1.00  0.00     0.183 C 
HETATM   21  C12 UNL     1      -1.117  -3.018  -3.658  1.00  0.00     0.040 C 
HETATM   22  O4  UNL     1      -1.824  -1.520  -1.883  1.00  0.00    -0.221 OA
HETATM   23  C13 UNL     1       0.127  -3.885  -3.904  1.00  0.00     0.035 C 
HETATM   24  C14 UNL     1       1.066  -3.600  -2.715  1.00  0.00     0.123 C 
HETATM   25  C17 UNL     1       0.764  -3.617  -5.248  1.00  0.00    -0.014 C 
HETATM   26  C15 UNL     1       2.547  -3.535  -3.055  1.00  0.00     0.275 C 
HETATM   27  O2  UNL     1       2.978  -3.278  -4.303  1.00  0.00    -0.297 OA
HETATM   28  O3  UNL     1       3.336  -3.738  -2.162  1.00  0.00    -0.264 OA
HETATM   29  C16 UNL     1       2.029  -2.797  -5.258  1.00  0.00     0.174 C 
HETATM   30  C18 UNL     1       0.226  -4.096  -6.387  1.00  0.00    -0.007 C 
HETATM   31  O5  UNL     1       0.900  -1.164  -2.613  1.00  0.00    -0.220 OA
ENDBRANCH  18  19
ENDBRANCH  17  18
ENDBRANCH   1  17
TORSDOF 5
