REMARK  1 active torsions:
REMARK  status: ('A' for Active; 'I' for Inactive)
REMARK    1  A    between atoms: C10_10  and  C11_11 
ROOT
HETATM    1  C1  UNL     1      -2.568  -1.449   0.603  1.00  0.00     0.174 C 
HETATM    2  C2  UNL     1      -2.646   0.076   0.773  1.00  0.00     0.038 C 
HETATM    3  C3  UNL     1      -1.443   0.758   0.111  1.00  0.00     0.007 C 
HETATM    4  C4  UNL     1      -0.109   0.268   0.742  1.00  0.00     0.026 C 
HETATM    5  C5  UNL     1      -0.060  -1.258   0.894  1.00  0.00     0.013 C 
HETATM    6  C6  UNL     1      -1.185  -2.012   0.836  1.00  0.00     0.005 C 
HETATM    7  C7  UNL     1       1.256  -1.902   1.125  1.00  0.00     0.198 C 
HETATM    8  C8  UNL     1       2.483  -1.020   1.242  1.00  0.00     0.203 A 
HETATM    9  C9  UNL     1       2.430   0.385   0.555  1.00  0.00     0.153 A 
HETATM   10  C10 UNL     1       1.096   0.803  -0.094  1.00  0.00     0.062 C 
HETATM   11  O2  UNL     1       2.990  -0.758  -0.023  1.00  0.00    -0.346 OA
HETATM   12  O3  UNL     1       1.359  -3.104   1.215  1.00  0.00    -0.289 OA
HETATM   13  C14 UNL     1      -0.008   0.830   2.170  1.00  0.00     0.005 C 
HETATM   14  C15 UNL     1      -1.592   2.283   0.156  1.00  0.00     0.000 C 
HETATM   15  O4  UNL     1      -2.978  -1.791  -0.705  1.00  0.00    -0.219 OA
ENDROOT
BRANCH  10  16
HETATM   16  C11 UNL     1       1.020   0.424  -1.584  1.00  0.00     0.130 C 
HETATM   17  O1  UNL     1       0.086   1.365  -2.065  1.00  0.00    -0.226 OA
HETATM   18  C12 UNL     1       2.342   0.643  -2.318  1.00  0.00     0.033 C 
HETATM   19  C13 UNL     1       0.445  -0.977  -1.807  1.00  0.00     0.033 C 
ENDBRANCH  10  16
TORSDOF 1
