REMARK  7 active torsions:
REMARK  status: ('A' for Active; 'I' for Inactive)
REMARK    1  A    between atoms: C3_3  and  O4_24 
REMARK    2  A    between atoms: C4_4  and  C12_13 
REMARK    3  A    between atoms: C6_6  and  C7_7 
REMARK    4  A    between atoms: C7_7  and  C8_8 
REMARK    5  A    between atoms: C12_13  and  C13_14 
REMARK    6  A    between atoms: C14_15  and  C15_16 
REMARK    7  A    between atoms: O4_24  and  C21_25 
ROOT
HETATM    1  C1  UNL     1       0.258  -2.162  -1.496  1.00  0.00     0.131 A 
HETATM    2  C2  UNL     1       0.322  -0.781  -1.750  1.00  0.00     0.051 A 
HETATM    3  C3  UNL     1      -0.061   0.145  -0.766  1.00  0.00     0.101 A 
HETATM    4  C4  UNL     1      -0.510  -0.316   0.488  1.00  0.00     0.086 A 
HETATM    5  C5  UNL     1      -0.578  -1.699   0.750  1.00  0.00     0.134 A 
HETATM    6  C6  UNL     1      -0.191  -2.619  -0.244  1.00  0.00     0.033 A 
HETATM    7  O1  UNL     1      -1.000  -2.133   1.922  1.00  0.00    -0.190 OA
HETATM    8  O5  UNL     1       0.621  -3.018  -2.432  1.00  0.00    -0.190 OA
ENDROOT
BRANCH   4   9
HETATM    9  C12 UNL     1      -0.918   0.664   1.541  1.00  0.00     0.200 C 
HETATM   10  O3  UNL     1      -1.766   0.385   2.357  1.00  0.00    -0.286 OA
BRANCH   9  11
HETATM   11  C13 UNL     1      -0.270   1.981   1.566  1.00  0.00     0.042 C 
HETATM   12  C14 UNL     1      -0.873   3.029   2.150  1.00  0.00     0.003 C 
BRANCH  12  13
HETATM   13  C15 UNL     1      -0.174   4.350   2.150  1.00  0.00     0.000 A 
HETATM   14  C16 UNL     1      -0.920   5.541   2.150  1.00  0.00     0.002 A 
HETATM   15  C17 UNL     1      -0.260   6.783   2.150  1.00  0.00     0.027 A 
HETATM   16  C18 UNL     1       1.145   6.838   2.150  1.00  0.00     0.131 A 
HETATM   17  C19 UNL     1       1.889   5.645   2.150  1.00  0.00     0.027 A 
HETATM   18  O2  UNL     1       1.762   8.002   2.150  1.00  0.00    -0.190 OA
HETATM   19  C20 UNL     1       1.232   4.402   2.150  1.00  0.00     0.002 A 
ENDBRANCH  12  13
ENDBRANCH   9  11
ENDBRANCH   4   9
BRANCH   3  20
HETATM   20  O4  UNL     1       0.008   1.436  -1.024  1.00  0.00    -0.331 OA
BRANCH  20  21
HETATM   21  C21 UNL     1       0.525   1.838  -2.281  1.00  0.00     0.149 C 
HETATM   22  C22 UNL     1       0.563   3.365  -2.354  1.00  0.00     0.035 C 
ENDBRANCH  20  21
ENDBRANCH   3  20
BRANCH   6  23
HETATM   23  C7  UNL     1      -0.262  -4.080   0.029  1.00  0.00     0.056 C 
BRANCH  23  24
HETATM   24  C8  UNL     1      -0.865  -4.846  -1.119  1.00  0.00    -0.030 C 
HETATM   25  C9  UNL     1      -0.746  -6.182  -1.131  1.00  0.00    -0.048 C 
HETATM   26  C10 UNL     1      -1.258  -7.090  -2.217  1.00  0.00     0.026 C 
HETATM   27  C11 UNL     1      -0.049  -6.852   0.023  1.00  0.00     0.026 C 
ENDBRANCH  23  24
ENDBRANCH   6  23
TORSDOF 7
