REMARK  10 active torsions:
REMARK  status: ('A' for Active; 'I' for Inactive)
REMARK    1  A    between atoms: C5_7  and  C8_10 
REMARK    2  A    between atoms: C9_11  and  C10_12 
REMARK    3  A    between atoms: C10_12  and  C11_13 
REMARK    4  A    between atoms: C11_13  and  C12_14 
REMARK    5  A    between atoms: C12_14  and  C13_15 
REMARK    6  A    between atoms: C13_15  and  C14_16 
REMARK    7  A    between atoms: C14_16  and  C15_17 
REMARK    8  A    between atoms: C15_17  and  C16_18 
REMARK       I    between atoms: C16_18  and  N1_19 
REMARK    9  A    between atoms: N1_19  and  C17_20 
REMARK   10  A    between atoms: C17_20  and  C18_21 
ROOT
HETATM    1  C10 UNL     1       2.549   0.729   1.603  1.00  0.00     0.026 C 
ENDROOT
BRANCH   1   2
HETATM    2  C9  UNL     1       3.893   0.053   1.543  1.00  0.00    -0.026 C 
HETATM    3  C8  UNL     1       4.953   0.770   1.138  1.00  0.00    -0.004 C 
BRANCH   3   4
HETATM    4  C5  UNL     1       6.273   0.109   1.078  1.00  0.00     0.002 A 
HETATM    5  C4  UNL     1       7.451   0.855   1.308  1.00  0.00     0.026 A 
HETATM    6  C3  UNL     1       8.729   0.240   1.252  1.00  0.00     0.119 A 
HETATM    7  C2  UNL     1       8.822  -1.125   0.967  1.00  0.00     0.119 A 
HETATM    8  O2  UNL     1       9.955   0.732   1.429  1.00  0.00    -0.300 OA
HETATM    9  O1  UNL     1      10.108  -1.482   0.965  1.00  0.00    -0.300 OA
HETATM   10  C7  UNL     1       7.637  -1.873   0.736  1.00  0.00     0.026 A 
HETATM   11  C1  UNL     1      10.922  -0.326   1.256  1.00  0.00     0.304 A 
HETATM   12  C6  UNL     1       6.363  -1.266   0.789  1.00  0.00     0.002 A 
ENDBRANCH   3   4
ENDBRANCH   1   2
BRANCH   1  13
HETATM   13  C11 UNL     1       1.475  -0.037   0.832  1.00  0.00     0.005 C 
BRANCH  13  14
HETATM   14  C12 UNL     1       0.103   0.635   0.904  1.00  0.00     0.000 C 
BRANCH  14  15
HETATM   15  C13 UNL     1      -0.971  -0.129   0.129  1.00  0.00     0.001 C 
BRANCH  15  16
HETATM   16  C14 UNL     1      -2.342   0.543   0.203  1.00  0.00     0.010 C 
BRANCH  16  17
HETATM   17  C15 UNL     1      -3.416  -0.219  -0.576  1.00  0.00     0.090 C 
BRANCH  17  18
HETATM   18  C16 UNL     1      -4.766   0.439  -0.489  1.00  0.00     0.251 C 
HETATM   19  N1  UNL     1      -5.826  -0.150  -1.115  1.00  0.00    -0.238 NA
HETATM   20  O3  UNL     1      -4.916   1.471   0.125  1.00  0.00    -0.271 OA
BRANCH  19  21
HETATM   21  C17 UNL     1      -7.152   0.480  -1.039  1.00  0.00     0.129 C 
BRANCH  21  22
HETATM   22  C18 UNL     1      -8.174  -0.291  -1.875  1.00  0.00     0.025 C 
HETATM   23  C19 UNL     1      -9.615   0.094  -1.547  1.00  0.00     0.002 C 
HETATM   24  C20 UNL     1      -7.875  -0.232  -3.373  1.00  0.00     0.002 C 
ENDBRANCH  21  22
ENDBRANCH  19  21
ENDBRANCH  17  18
ENDBRANCH  16  17
ENDBRANCH  15  16
ENDBRANCH  14  15
ENDBRANCH  13  14
ENDBRANCH   1  13
TORSDOF 10
