REMARK  6 active torsions:
REMARK  status: ('A' for Active; 'I' for Inactive)
REMARK    1  A    between atoms: C1_1  and  C2_2 
REMARK    2  A    between atoms: C1_1  and  C4_5 
REMARK    3  A    between atoms: C4_5  and  C5_6 
REMARK    4  A    between atoms: C6_7  and  C8_9 
REMARK    5  A    between atoms: C8_9  and  C9_10 
REMARK    6  A    between atoms: C9_10  and  C10_11 
ROOT
HETATM    1  C5  UNL     1      -1.102  -0.158   0.190  1.00  0.00    -0.034 C 
HETATM    2  C6  UNL     1      -0.432  -0.344  -0.959  1.00  0.00    -0.048 C 
HETATM    3  C7  UNL     1      -0.398   0.781  -1.961  1.00  0.00     0.026 C 
ENDROOT
BRANCH   2   4
HETATM    4  C8  UNL     1       0.254  -1.664  -1.187  1.00  0.00     0.026 C 
BRANCH   4   5
HETATM    5  C9  UNL     1       1.775  -1.535  -1.213  1.00  0.00     0.030 C 
BRANCH   5   6
HETATM    6  C10 UNL     1       2.320  -0.887   0.031  1.00  0.00    -0.034 C 
HETATM    7  C11 UNL     1       3.484  -0.223  -0.047  1.00  0.00    -0.048 C 
HETATM    8  C12 UNL     1       3.996   0.480   1.182  1.00  0.00     0.026 C 
HETATM    9  C13 UNL     1       4.217  -0.213  -1.361  1.00  0.00     0.026 C 
ENDBRANCH   5   6
ENDBRANCH   4   5
ENDBRANCH   2   4
BRANCH   1  10
HETATM   10  C4  UNL     1      -1.787   1.162   0.418  1.00  0.00     0.033 C 
BRANCH  10  11
HETATM   11  C1  UNL     1      -2.842   1.090   1.522  1.00  0.00     0.069 C 
BRANCH  11  12
HETATM   12  C2  UNL     1      -4.039   0.269   1.119  1.00  0.00     0.151 C 
HETATM   13  O1  UNL     1      -4.076  -0.293   0.051  1.00  0.00    -0.296 OA
HETATM   14  C3  UNL     1      -5.188   0.170   2.088  1.00  0.00     0.072 C 
ENDBRANCH  11  12
ENDBRANCH  10  11
ENDBRANCH   1  10
TORSDOF 6
