REMARK  4 active torsions:
REMARK  status: ('A' for Active; 'I' for Inactive)
REMARK    1  A    between atoms: C5_5  and  C7_7 
REMARK       I    between atoms: C7_7  and  N1_8 
REMARK    2  A    between atoms: N1_8  and  C8_9 
REMARK    3  A    between atoms: C8_9  and  C9_10 
REMARK    4  A    between atoms: C9_10  and  C10_11 
ROOT
HETATM    1  C7  UNL     1      -0.619  -1.068   1.256  1.00  0.00     0.275 C 
HETATM    2  N1  UNL     1      -0.299  -0.465   0.074  1.00  0.00    -0.234 NA
HETATM    3  O2  UNL     1      -0.342  -0.539   2.306  1.00  0.00    -0.266 OA
ENDROOT
BRANCH   1   4
HETATM    4  C5  UNL     1      -1.318  -2.387   1.222  1.00  0.00     0.060 A 
HETATM    5  C4  UNL     1      -1.205  -3.272   2.310  1.00  0.00     0.034 A 
HETATM    6  C3  UNL     1      -1.861  -4.516   2.283  1.00  0.00     0.156 A 
HETATM    7  C2  UNL     1      -2.635  -4.875   1.164  1.00  0.00     0.156 A 
HETATM    8  O3  UNL     1      -1.750  -5.340   3.306  1.00  0.00    -0.188 OA
HETATM    9  C1  UNL     1      -2.748  -3.990   0.078  1.00  0.00     0.030 A 
HETATM   10  O4  UNL     1      -3.254  -6.039   1.131  1.00  0.00    -0.188 OA
HETATM   11  C6  UNL     1      -2.092  -2.748   0.105  1.00  0.00     0.007 A 
ENDBRANCH   1   4
BRANCH   2  12
HETATM   12  C8  UNL     1       0.391   0.834   0.088  1.00  0.00     0.134 C 
BRANCH  12  13
HETATM   13  C9  UNL     1       0.656   1.330  -1.332  1.00  0.00     0.053 C 
BRANCH  13  14
HETATM   14  C10 UNL     1       1.352   2.643  -1.332  1.00  0.00    -0.020 A 
HETATM   15  C11 UNL     1       0.605   3.834  -1.332  1.00  0.00    -0.002 A 
HETATM   16  C12 UNL     1       1.266   5.076  -1.332  1.00  0.00     0.027 A 
HETATM   17  C13 UNL     1       2.670   5.131  -1.332  1.00  0.00     0.131 A 
HETATM   18  C14 UNL     1       3.414   3.938  -1.332  1.00  0.00     0.027 A 
HETATM   19  O1  UNL     1       3.287   6.295  -1.332  1.00  0.00    -0.190 OA
HETATM   20  C15 UNL     1       2.756   2.695  -1.332  1.00  0.00    -0.002 A 
ENDBRANCH  13  14
ENDBRANCH  12  13
ENDBRANCH   2  12
TORSDOF 4
