REMARK  3 active torsions:
REMARK  status: ('A' for Active; 'I' for Inactive)
REMARK    1  A    between atoms: C6_7  and  C19_24 
REMARK    2  A    between atoms: C11_13  and  C13_16 
REMARK    3  A    between atoms: C19_24  and  C20_25 
ROOT
HETATM    1  C1  UNL     1      -4.607  -0.260   0.059  1.00  0.00     0.117 C 
HETATM    2  C2  UNL     1      -4.645   0.641   1.281  1.00  0.00     0.001 C 
HETATM    3  C3  UNL     1      -3.506   1.006   1.900  1.00  0.00     0.002 C 
HETATM    4  C4  UNL     1      -2.197   0.600   1.330  1.00  0.00     0.047 A 
HETATM    5  C5  UNL     1      -2.178  -0.023   0.055  1.00  0.00     0.094 A 
HETATM    6  O1  UNL     1      -3.332  -0.250  -0.611  1.00  0.00    -0.332 OA
HETATM    7  C6  UNL     1      -0.941  -0.393  -0.529  1.00  0.00     0.028 A 
HETATM    8  C7  UNL     1       0.270  -0.154   0.166  1.00  0.00     0.103 A 
HETATM    9  C8  UNL     1       0.244   0.461   1.447  1.00  0.00     0.087 A 
HETATM   10  C9  UNL     1      -0.990   0.842   2.033  1.00  0.00     0.138 A 
HETATM   11  O2  UNL     1      -1.021   1.426   3.240  1.00  0.00    -0.190 OA
HETATM   12  C10 UNL     1       1.535   0.695   2.154  1.00  0.00     0.201 A 
HETATM   13  C11 UNL     1       2.752   0.254   1.424  1.00  0.00     0.064 A 
HETATM   14  C12 UNL     1       2.639  -0.320   0.203  1.00  0.00     0.126 A 
HETATM   15  O3  UNL     1       1.447  -0.514  -0.393  1.00  0.00    -0.305 OA
HETATM   16  O5  UNL     1       1.684   1.199   3.246  1.00  0.00    -0.286 OA
HETATM   17  C24 UNL     1      -5.664   0.184  -0.953  1.00  0.00     0.035 C 
HETATM   18  C25 UNL     1      -4.887  -1.697   0.508  1.00  0.00     0.035 C 
ENDROOT
BRANCH  13  19
HETATM   19  C13 UNL     1       4.106   0.440   2.025  1.00  0.00     0.005 A 
HETATM   20  C14 UNL     1       4.395   1.600   2.764  1.00  0.00     0.002 A 
HETATM   21  C15 UNL     1       5.670   1.774   3.330  1.00  0.00     0.027 A 
HETATM   22  C16 UNL     1       6.660   0.789   3.160  1.00  0.00     0.131 A 
HETATM   23  C17 UNL     1       6.367  -0.371   2.422  1.00  0.00     0.027 A 
HETATM   24  O4  UNL     1       7.854   0.953   3.692  1.00  0.00    -0.190 OA
HETATM   25  C18 UNL     1       5.094  -0.547   1.854  1.00  0.00     0.002 A 
ENDBRANCH  13  19
BRANCH   7  26
HETATM   26  C19 UNL     1      -0.918  -1.027  -1.857  1.00  0.00     0.056 C 
BRANCH  26  27
HETATM   27  C20 UNL     1      -0.813  -0.016  -2.967  1.00  0.00    -0.030 C 
HETATM   28  C21 UNL     1      -0.557  -0.451  -4.211  1.00  0.00    -0.048 C 
HETATM   29  C22 UNL     1      -0.420   0.565  -5.314  1.00  0.00     0.026 C 
HETATM   30  C23 UNL     1      -0.418  -1.932  -4.437  1.00  0.00     0.026 C 
ENDBRANCH  26  27
ENDBRANCH   7  26
TORSDOF 3
