REMARK  0 active torsions:
REMARK  status: ('A' for Active; 'I' for Inactive)
ROOT
HETATM    1  C1  UNL     1       1.590  -0.631  -0.951  1.00  0.00     0.002 C 
HETATM    2  C2  UNL     1       2.752   0.107  -0.291  1.00  0.00     0.000 C 
HETATM    3  C3  UNL     1       2.410   0.137   1.198  1.00  0.00     0.000 C 
HETATM    4  C4  UNL     1       1.037  -0.525   1.311  1.00  0.00     0.002 C 
HETATM    5  C5  UNL     1       0.354  -0.389  -0.064  1.00  0.00     0.026 C 
HETATM    6  C6  UNL     1      -0.377   0.969  -0.312  1.00  0.00     0.127 C 
HETATM    7  C7  UNL     1      -1.619   1.084   0.598  1.00  0.00     0.030 C 
HETATM    8  C8  UNL     1      -2.576  -0.104   0.424  1.00  0.00     0.003 C 
HETATM    9  C9  UNL     1      -1.855  -1.438   0.637  1.00  0.00     0.000 C 
HETATM   10  C10 UNL     1      -0.623  -1.568  -0.269  1.00  0.00     0.002 C 
HETATM   11  O1  UNL     1       0.455   2.078  -0.037  1.00  0.00    -0.226 OA
HETATM   12  C11 UNL     1      -0.767   1.094  -1.791  1.00  0.00     0.033 C 
ENDROOT
TORSDOF 0
