REMARK  2 active torsions:
REMARK  status: ('A' for Active; 'I' for Inactive)
REMARK    1  A    between atoms: C7_7  and  C9_10 
REMARK    2  A    between atoms: C9_10  and  C10_11 
ROOT
HETATM    1  C10 UNL     1       2.410   0.475   0.098  1.00  0.00     0.112 C 
HETATM    2  N2  UNL     1       1.580   0.355  -1.080  1.00  0.00    -0.239 NA
HETATM    3  C11 UNL     1       0.297  -0.098  -0.777  1.00  0.00     0.256 C 
HETATM    4  C12 UNL     1       0.143  -0.305   0.723  1.00  0.00     0.116 C 
HETATM    5  C13 UNL     1       1.506   0.205   1.320  1.00  0.00     0.039 C 
HETATM    6  C14 UNL     1       2.189  -0.725   2.344  1.00  0.00     0.030 C 
HETATM    7  C15 UNL     1       2.404  -2.082   1.654  1.00  0.00     0.118 A 
HETATM    8  C16 UNL     1       1.135  -2.627   0.926  1.00  0.00     0.145 A 
HETATM    9  C17 UNL     1      -0.149  -1.795   1.070  1.00  0.00     0.065 C 
HETATM   10  C18 UNL     1      -1.305  -2.379   0.281  1.00  0.00    -0.028 C 
HETATM   11  C19 UNL     1      -2.524  -2.537   0.834  1.00  0.00    -0.030 C 
HETATM   12  C20 UNL     1      -3.707  -3.037   0.035  1.00  0.00     0.030 C 
HETATM   13  C21 UNL     1      -5.047  -2.522   0.596  1.00  0.00     0.026 C 
HETATM   14  C22 UNL     1      -5.069  -1.012   0.734  1.00  0.00    -0.027 C 
HETATM   15  C23 UNL     1      -5.182  -0.147  -0.297  1.00  0.00     0.016 C 
HETATM   16  C24 UNL     1      -5.149   1.320  -0.088  1.00  0.00     0.231 C 
HETATM   17  C25 UNL     1      -4.389   1.930   1.027  1.00  0.00     0.251 C 
HETATM   18  C26 UNL     1      -3.024   1.506   1.357  1.00  0.00     0.123 A 
HETATM   19  C27 UNL     1      -2.332   1.867   2.518  1.00  0.00     0.024 A 
HETATM   20  C28 UNL     1      -1.086   1.254   2.463  1.00  0.00     0.017 A 
HETATM   21  C29 UNL     1      -1.031   0.547   1.256  1.00  0.00     0.067 A 
HETATM   22  N3  UNL     1      -2.221   0.705   0.598  1.00  0.00    -0.246 NA
HETATM   23  O1  UNL     1      -4.910   2.807   1.678  1.00  0.00    -0.281 OA
HETATM   24  O2  UNL     1      -5.760   2.041  -0.842  1.00  0.00    -0.283 OA
HETATM   25  C30 UNL     1      -5.348  -0.654  -1.707  1.00  0.00     0.034 C 
HETATM   26  C31 UNL     1      -6.244  -3.055  -0.199  1.00  0.00     0.005 C 
HETATM   27  O3  UNL     1       1.578  -3.076   2.170  1.00  0.00    -0.356 OA
HETATM   28  C32 UNL     1       3.779  -2.684   1.391  1.00  0.00     0.032 C 
HETATM   29  C33 UNL     1       3.516  -0.123   2.822  1.00  0.00     0.003 C 
HETATM   30  O4  UNL     1      -0.543  -0.285  -1.629  1.00  0.00    -0.270 OA
ENDROOT
BRANCH   1  31
HETATM   31  C9  UNL     1       3.076   1.844   0.180  1.00  0.00     0.052 C 
BRANCH  31  32
HETATM   32  C7  UNL     1       4.084   2.033  -0.938  1.00  0.00     0.000 A 
HETATM   33  C5  UNL     1       3.912   2.695  -2.104  1.00  0.00     0.015 A 
HETATM   34  C4  UNL     1       5.037   2.670  -2.889  1.00  0.00     0.081 A 
HETATM   35  C6  UNL     1       2.736   3.361  -2.529  1.00  0.00     0.001 A 
HETATM   36  C3  UNL     1       5.076   3.303  -4.152  1.00  0.00     0.019 A 
HETATM   37  N1  UNL     1       5.994   1.949  -2.191  1.00  0.00    -0.244 NA
HETATM   38  C2  UNL     1       3.912   3.978  -4.604  1.00  0.00     0.002 A 
HETATM   39  C1  UNL     1       2.744   4.006  -3.793  1.00  0.00     0.000 A 
HETATM   40  C8  UNL     1       5.404   1.547  -0.969  1.00  0.00     0.095 A 
ENDBRANCH  31  32
ENDBRANCH   1  31
TORSDOF 2
