REMARK  13 active torsions:
REMARK  status: ('A' for Active; 'I' for Inactive)
REMARK    1  A    between atoms: C2_2  and  O9_43 
REMARK    2  A    between atoms: C18_19  and  C21_22 
REMARK    3  A    between atoms: C18_19  and  O8_39 
REMARK    4  A    between atoms: C21_22  and  C22_23 
REMARK    5  A    between atoms: C22_23  and  C23_24 
REMARK    6  A    between atoms: C23_24  and  C24_25 
REMARK    7  A    between atoms: C24_25  and  O2_26 
REMARK    8  A    between atoms: O2_26  and  C25_27 
REMARK    9  A    between atoms: C29_31  and  C30_33 
REMARK   10  A    between atoms: O9_43  and  C35_44 
REMARK   11  A    between atoms: C38_47  and  O12_52 
REMARK   12  A    between atoms: C39_48  and  C40_50 
REMARK   13  A    between atoms: O12_52  and  C41_53 
ROOT
HETATM    1  C1  UNL     1       4.979   2.715   2.162  1.00  0.00     0.030 C 
HETATM    2  C2  UNL     1       5.154   1.291   1.627  1.00  0.00     0.118 C 
HETATM    3  C3  UNL     1       4.158   0.307   2.277  1.00  0.00     0.030 C 
HETATM    4  C4  UNL     1       2.900   0.975   2.893  1.00  0.00     0.002 C 
HETATM    5  C5  UNL     1       2.410   2.219   2.107  1.00  0.00     0.000 C 
HETATM    6  C6  UNL     1       3.557   3.266   1.945  1.00  0.00     0.003 C 
HETATM    7  C7  UNL     1       1.209   2.897   2.856  1.00  0.00     0.000 C 
HETATM    8  C8  UNL     1       0.285   1.904   3.629  1.00  0.00     0.000 C 
HETATM    9  C9  UNL     1       0.359   0.496   3.016  1.00  0.00     0.000 C 
HETATM   10  C10 UNL     1       1.781  -0.074   3.107  1.00  0.00     0.000 C 
HETATM   11  C11 UNL     1      -1.129   2.512   3.826  1.00  0.00     0.003 C 
HETATM   12  C12 UNL     1      -1.814   2.996   2.514  1.00  0.00     0.003 C 
HETATM   13  C13 UNL     1      -0.836   3.209   1.352  1.00  0.00     0.000 C 
HETATM   14  C14 UNL     1       0.428   3.861   1.928  1.00  0.00     0.000 C 
HETATM   15  C15 UNL     1      -2.762   1.815   2.281  1.00  0.00     0.032 C 
HETATM   16  C16 UNL     1      -3.361   1.682   3.662  1.00  0.00     0.118 C 
HETATM   17  C17 UNL     1      -2.135   1.584   4.559  1.00  0.00     0.030 C 
HETATM   18  O1  UNL     1      -4.156   0.537   3.510  1.00  0.00    -0.337 OA
HETATM   19  C18 UNL     1      -4.774   0.576   2.232  1.00  0.00     0.187 C 
HETATM   20  C19 UNL     1      -4.039   1.703   1.439  1.00  0.00     0.054 C 
HETATM   21  C20 UNL     1      -4.774   3.043   1.350  1.00  0.00     0.005 C 
HETATM   22  C33 UNL     1      -2.561   4.305   2.811  1.00  0.00     0.000 C 
HETATM   23  C34 UNL     1       1.982   1.742   0.707  1.00  0.00     0.000 C 
ENDROOT
BRANCH   2  24
HETATM   24  O9  UNL     1       4.981   1.303   0.223  1.00  0.00    -0.332 OA
BRANCH  24  25
HETATM   25  C35 UNL     1       5.582   0.197  -0.424  1.00  0.00     0.270 C 
HETATM   26  C36 UNL     1       7.143   0.316  -0.516  1.00  0.00     0.241 C 
HETATM   27  C37 UNL     1       7.658  -0.455  -1.750  1.00  0.00     0.217 C 
HETATM   28  O18 UNL     1       7.570   1.672  -0.600  1.00  0.00    -0.215 OA
HETATM   29  C38 UNL     1       6.992   0.080  -3.047  1.00  0.00     0.181 C 
HETATM   30  O17 UNL     1       9.072  -0.393  -1.850  1.00  0.00    -0.218 OA
HETATM   31  C39 UNL     1       5.553   0.633  -2.797  1.00  0.00     0.181 C 
HETATM   32  O10 UNL     1       4.965  -0.043  -1.691  1.00  0.00    -0.326 OA
BRANCH  29  33
HETATM   33  O12 UNL     1       6.977  -0.967  -4.002  1.00  0.00    -0.326 OA
BRANCH  33  34
HETATM   34  C41 UNL     1       7.293  -0.531  -5.311  1.00  0.00     0.270 C 
HETATM   35  C42 UNL     1       6.686  -1.447  -6.428  1.00  0.00     0.241 C 
HETATM   36  C43 UNL     1       7.537  -1.430  -7.711  1.00  0.00     0.220 C 
HETATM   37  O16 UNL     1       6.563  -2.801  -6.016  1.00  0.00    -0.215 OA
HETATM   38  C44 UNL     1       9.022  -1.787  -7.385  1.00  0.00     0.212 C 
HETATM   39  O15 UNL     1       7.410  -0.135  -8.283  1.00  0.00    -0.218 OA
HETATM   40  C45 UNL     1       9.473  -1.394  -5.947  1.00  0.00     0.151 C 
HETATM   41  O14 UNL     1       9.922  -1.246  -8.342  1.00  0.00    -0.218 OA
HETATM   42  O13 UNL     1       8.697  -0.301  -5.465  1.00  0.00    -0.329 OA
HETATM   43  C46 UNL     1       9.401  -2.557  -4.947  1.00  0.00     0.035 C 
ENDBRANCH  33  34
ENDBRANCH  29  33
BRANCH  31  44
HETATM   44  C40 UNL     1       4.592   0.496  -3.984  1.00  0.00     0.214 C 
HETATM   45  O11 UNL     1       3.369   1.106  -3.637  1.00  0.00    -0.218 OA
ENDBRANCH  31  44
ENDBRANCH  24  25
ENDBRANCH   2  24
BRANCH  19  46
HETATM   46  C21 UNL     1      -4.598  -0.797   1.592  1.00  0.00     0.056 C 
BRANCH  46  47
HETATM   47  C22 UNL     1      -5.305  -1.850   2.445  1.00  0.00     0.007 C 
BRANCH  47  48
HETATM   48  C23 UNL     1      -5.137  -3.266   1.891  1.00  0.00     0.030 C 
HETATM   49  C31 UNL     1      -3.672  -3.658   1.705  1.00  0.00     0.003 C 
BRANCH  48  50
HETATM   50  C24 UNL     1      -5.977  -3.512   0.637  1.00  0.00     0.145 C 
BRANCH  50  51
HETATM   51  O2  UNL     1      -7.338  -3.498   1.008  1.00  0.00    -0.329 OA
BRANCH  51  52
HETATM   52  C25 UNL     1      -8.201  -3.924  -0.029  1.00  0.00     0.270 C 
HETATM   53  C26 UNL     1      -9.559  -4.426   0.555  1.00  0.00     0.241 C 
HETATM   54  C27 UNL     1     -10.692  -3.371   0.449  1.00  0.00     0.220 C 
HETATM   55  O7  UNL     1      -9.959  -5.588  -0.148  1.00  0.00    -0.215 OA
HETATM   56  C28 UNL     1     -10.127  -1.937   0.541  1.00  0.00     0.215 C 
HETATM   57  O6  UNL     1     -11.688  -3.602   1.432  1.00  0.00    -0.218 OA
HETATM   58  C29 UNL     1      -9.033  -1.695  -0.543  1.00  0.00     0.184 C 
HETATM   59  O5  UNL     1      -9.606  -1.703   1.844  1.00  0.00    -0.218 OA
HETATM   60  O3  UNL     1      -8.420  -2.904  -1.002  1.00  0.00    -0.326 OA
BRANCH  58  61
HETATM   61  C30 UNL     1      -7.930  -0.697  -0.158  1.00  0.00     0.214 C 
HETATM   62  O4  UNL     1      -7.145  -0.443  -1.303  1.00  0.00    -0.218 OA
ENDBRANCH  58  61
ENDBRANCH  51  52
ENDBRANCH  50  51
ENDBRANCH  48  50
ENDBRANCH  47  48
ENDBRANCH  46  47
ENDBRANCH  19  46
BRANCH  19  63
HETATM   63  O8  UNL     1      -6.160   0.826   2.346  1.00  0.00    -0.332 OA
HETATM   64  C32 UNL     1      -6.502   1.539   3.512  1.00  0.00     0.177 C 
ENDBRANCH  19  63
TORSDOF 13
