REMARK  1 active torsions:
REMARK  status: ('A' for Active; 'I' for Inactive)
REMARK    1  A    between atoms: C9_10  and  C11_13 
ROOT
HETATM    1  C1  UNL     1      -3.301   0.892  -0.482  1.00  0.00     0.035 C 
HETATM    2  C2  UNL     1      -3.078  -0.500   0.131  1.00  0.00     0.033 C 
HETATM    3  C3  UNL     1      -1.809  -1.176  -0.418  1.00  0.00     0.129 C 
HETATM    4  C4  UNL     1      -0.520  -0.361  -0.045  1.00  0.00     0.061 C 
HETATM    5  C5  UNL     1      -0.775   1.193  -0.002  1.00  0.00     0.033 C 
HETATM    6  C6  UNL     1      -1.979   1.564  -0.912  1.00  0.00     0.152 C 
HETATM    7  O1  UNL     1      -2.184   2.967  -0.959  1.00  0.00    -0.224 OA
HETATM    8  C7  UNL     1       0.484   1.982  -0.451  1.00  0.00     0.003 C 
HETATM    9  C8  UNL     1       1.775   1.390   0.119  1.00  0.00     0.005 C 
HETATM   10  C9  UNL     1       2.027  -0.045  -0.379  1.00  0.00     0.059 C 
HETATM   11  C10 UNL     1       0.727  -0.705  -0.910  1.00  0.00     0.157 C 
HETATM   12  O2  UNL     1       0.924  -2.106  -1.021  1.00  0.00    -0.223 OA
HETATM   13  C14 UNL     1      -1.098   1.605   1.449  1.00  0.00     0.003 C 
HETATM   14  O4  UNL     1      -1.738  -2.459   0.178  1.00  0.00    -0.226 OA
HETATM   15  C15 UNL     1      -1.951  -1.424  -1.928  1.00  0.00     0.033 C 
ENDROOT
BRANCH  10  16
HETATM   16  C11 UNL     1       2.736  -0.858   0.719  1.00  0.00     0.129 C 
HETATM   17  C12 UNL     1       3.973  -0.149   1.272  1.00  0.00     0.033 C 
HETATM   18  O3  UNL     1       3.311  -1.998   0.121  1.00  0.00    -0.226 OA
HETATM   19  C13 UNL     1       1.779  -1.324   1.817  1.00  0.00     0.033 C 
ENDBRANCH  10  16
TORSDOF 1
