REMARK  5 active torsions:
REMARK  status: ('A' for Active; 'I' for Inactive)
REMARK    1  A    between atoms: C3_3  and  C34_39 
REMARK    2  A    between atoms: C22_22  and  O1_26 
REMARK    3  A    between atoms: O1_26  and  C26_27 
REMARK    4  A    between atoms: C34_39  and  O7_41 
REMARK    5  A    between atoms: O7_41  and  C35_42 
ROOT
HETATM    1  C1  UNL     1      -3.928  -0.945  -2.059  1.00  0.00    -0.041 C 
HETATM    2  C2  UNL     1      -3.104   0.233  -1.559  1.00  0.00     0.045 C 
HETATM    3  C3  UNL     1      -3.768   0.932  -0.340  1.00  0.00     0.085 C 
HETATM    4  C4  UNL     1      -4.033  -0.080   0.809  1.00  0.00     0.010 C 
HETATM    5  C5  UNL     1      -4.414  -1.504   0.350  1.00  0.00     0.005 C 
HETATM    6  C6  UNL     1      -4.910  -1.602  -1.103  1.00  0.00     0.019 C 
HETATM    7  C7  UNL     1      -5.209  -3.061  -1.469  1.00  0.00     0.004 C 
HETATM    8  C8  UNL     1      -2.875   2.096   0.166  1.00  0.00     0.010 C 
HETATM    9  C9  UNL     1      -1.389   1.713   0.357  1.00  0.00     0.004 C 
HETATM   10  C10 UNL     1      -0.756   1.080  -0.912  1.00  0.00     0.015 C 
HETATM   11  C11 UNL     1      -1.660  -0.113  -1.195  1.00  0.00    -0.045 C 
HETATM   12  C12 UNL     1      -1.229  -1.389  -1.080  1.00  0.00    -0.034 C 
HETATM   13  C13 UNL     1       0.166  -1.742  -0.641  1.00  0.00     0.025 C 
HETATM   14  C14 UNL     1       0.953  -0.607   0.068  1.00  0.00     0.005 C 
HETATM   15  C15 UNL     1       0.768   0.727  -0.723  1.00  0.00     0.004 C 
HETATM   16  C16 UNL     1       1.516   0.572  -2.066  1.00  0.00     0.000 C 
HETATM   17  C17 UNL     1       3.004   0.254  -1.863  1.00  0.00     0.000 C 
HETATM   18  C18 UNL     1       3.244  -1.041  -1.051  1.00  0.00     0.002 C 
HETATM   19  C19 UNL     1       2.449  -1.039   0.297  1.00  0.00     0.001 C 
HETATM   20  C20 UNL     1       3.137  -0.172   1.397  1.00  0.00     0.003 C 
HETATM   21  C21 UNL     1       4.619   0.129   1.133  1.00  0.00     0.030 C 
HETATM   22  C22 UNL     1       5.307  -1.092   0.518  1.00  0.00     0.118 C 
HETATM   23  C23 UNL     1       4.762  -1.432  -0.902  1.00  0.00     0.025 C 
HETATM   24  C24 UNL     1       5.604  -0.764  -2.008  1.00  0.00     0.002 C 
HETATM   25  C25 UNL     1       4.916  -2.945  -1.115  1.00  0.00     0.002 C 
HETATM   26  C31 UNL     1       2.473  -2.486   0.834  1.00  0.00     0.000 C 
HETATM   27  C32 UNL     1       1.424   1.928  -0.019  1.00  0.00     0.000 C 
HETATM   28  C33 UNL     1      -0.887   2.102  -2.057  1.00  0.00     0.004 C 
HETATM   29  C40 UNL     1      -3.789  -1.377  -3.328  1.00  0.00    -0.009 C 
ENDROOT
BRANCH   3  30
HETATM   30  C34 UNL     1      -5.090   1.531  -0.770  1.00  0.00     0.274 C 
HETATM   31  O6  UNL     1      -5.457   1.465  -1.920  1.00  0.00    -0.264 OA
BRANCH  30  32
HETATM   32  O7  UNL     1      -5.787   2.117   0.199  1.00  0.00    -0.273 OA
BRANCH  32  33
HETATM   33  C35 UNL     1      -7.026   2.637  -0.266  1.00  0.00     0.278 C 
HETATM   34  O8  UNL     1      -7.897   1.553  -0.555  1.00  0.00    -0.300 OA
HETATM   35  C36 UNL     1      -9.166   1.926  -1.074  1.00  0.00     0.304 C 
HETATM   36  C37 UNL     1      -9.922   2.799  -0.039  1.00  0.00     0.244 C 
HETATM   37  O12 UNL     1      -9.897   0.750  -1.357  1.00  0.00    -0.187 OA
HETATM   38  C38 UNL     1      -9.069   4.012   0.398  1.00  0.00     0.223 C 
HETATM   39  O11 UNL     1     -11.137   3.262  -0.609  1.00  0.00    -0.215 OA
HETATM   40  C39 UNL     1      -7.658   3.539   0.816  1.00  0.00     0.241 C 
HETATM   41  O10 UNL     1      -9.694   4.674   1.484  1.00  0.00    -0.218 OA
HETATM   42  O9  UNL     1      -6.815   4.660   1.018  1.00  0.00    -0.215 OA
ENDBRANCH  32  33
ENDBRANCH  30  32
ENDBRANCH   3  30
BRANCH  22  43
HETATM   43  O1  UNL     1       6.709  -0.893   0.516  1.00  0.00    -0.332 OA
BRANCH  43  44
HETATM   44  C26 UNL     1       7.309  -1.137   1.772  1.00  0.00     0.270 C 
HETATM   45  O2  UNL     1       7.322  -2.539   2.000  1.00  0.00    -0.326 OA
HETATM   46  C27 UNL     1       7.859  -2.934   3.254  1.00  0.00     0.181 C 
HETATM   47  C28 UNL     1       9.334  -2.494   3.350  1.00  0.00     0.215 C 
HETATM   48  C29 UNL     1       9.481  -0.976   3.109  1.00  0.00     0.220 C 
HETATM   49  O5  UNL     1       9.818  -2.836   4.635  1.00  0.00    -0.218 OA
HETATM   50  C30 UNL     1       8.758  -0.584   1.799  1.00  0.00     0.241 C 
HETATM   51  O4  UNL     1      10.854  -0.633   3.024  1.00  0.00    -0.218 OA
HETATM   52  O3  UNL     1       8.725   0.830   1.686  1.00  0.00    -0.215 OA
ENDBRANCH  43  44
ENDBRANCH  22  43
TORSDOF 5
