REMARK  8 active torsions:
REMARK  status: ('A' for Active; 'I' for Inactive)
REMARK    1  A    between atoms: C5_5  and  C9_9 
REMARK    2  A    between atoms: C9_9  and  C10_10 
REMARK    3  A    between atoms: C10_10  and  C11_11 
REMARK    4  A    between atoms: C11_11  and  O1_13 
REMARK    5  A    between atoms: O1_13  and  C13_14 
REMARK    6  A    between atoms: C17_21  and  C18_23 
REMARK    7  A    between atoms: C18_23  and  O6_24 
REMARK    8  A    between atoms: O6_24  and  C19_25 
ROOT
HETATM    1  C13 UNL     1       1.043  -0.797  -1.859  1.00  0.00     0.270 C 
HETATM    2  C14 UNL     1       0.543  -1.615  -3.076  1.00  0.00     0.241 C 
HETATM    3  O2  UNL     1      -0.096  -0.766  -4.016  1.00  0.00    -0.215 OA
HETATM    4  C15 UNL     1      -0.394  -2.768  -2.649  1.00  0.00     0.220 C 
HETATM    5  O3  UNL     1      -0.680  -3.598  -3.764  1.00  0.00    -0.218 OA
HETATM    6  C16 UNL     1       0.293  -3.598  -1.541  1.00  0.00     0.215 C 
HETATM    7  O4  UNL     1      -0.619  -4.539  -1.010  1.00  0.00    -0.218 OA
HETATM    8  C17 UNL     1       0.809  -2.703  -0.389  1.00  0.00     0.180 C 
HETATM    9  O5  UNL     1       1.649  -1.674  -0.910  1.00  0.00    -0.326 OA
ENDROOT
BRANCH   1  10
HETATM   10  O1  UNL     1       0.004  -0.035  -1.266  1.00  0.00    -0.332 OA
BRANCH  10  11
HETATM   11  C11 UNL     1       0.449   1.190  -0.727  1.00  0.00     0.118 C 
HETATM   12  C12 UNL     1       1.356   0.885   0.467  1.00  0.00     0.032 C 
BRANCH  11  13
HETATM   13  C10 UNL     1      -0.777   2.018  -0.342  1.00  0.00     0.030 C 
BRANCH  13  14
HETATM   14  C9  UNL     1      -1.582   2.479  -1.555  1.00  0.00     0.003 C 
BRANCH  14  15
HETATM   15  C5  UNL     1      -2.791   3.346  -1.170  1.00  0.00     0.000 C 
HETATM   16  C4  UNL     1      -2.492   4.846  -1.395  1.00  0.00     0.003 C 
HETATM   17  C3  UNL     1      -3.701   5.723  -1.027  1.00  0.00     0.033 C 
HETATM   18  C25 UNL     1      -1.250   5.295  -0.617  1.00  0.00     0.000 C 
HETATM   19  C2  UNL     1      -4.969   5.270  -1.766  1.00  0.00     0.152 C 
HETATM   20  C1  UNL     1      -5.264   3.783  -1.506  1.00  0.00     0.033 C 
HETATM   21  O11 UNL     1      -6.066   6.047  -1.330  1.00  0.00    -0.224 OA
HETATM   22  C6  UNL     1      -4.078   2.879  -1.899  1.00  0.00     0.003 C 
HETATM   23  C7  UNL     1      -3.879   2.926  -3.420  1.00  0.00     0.000 C 
HETATM   24  C8  UNL     1      -4.404   1.434  -1.504  1.00  0.00     0.000 C 
ENDBRANCH  14  15
ENDBRANCH  13  14
ENDBRANCH  11  13
ENDBRANCH  10  11
ENDBRANCH   1  10
BRANCH   8  25
HETATM   25  C18 UNL     1       1.649  -3.477   0.633  1.00  0.00     0.177 C 
BRANCH  25  26
HETATM   26  O6  UNL     1       1.899  -2.629   1.730  1.00  0.00    -0.326 OA
BRANCH  26  27
HETATM   27  C19 UNL     1       2.617  -3.264   2.771  1.00  0.00     0.270 C 
HETATM   28  C20 UNL     1       2.691  -2.361   4.031  1.00  0.00     0.241 C 
HETATM   29  O7  UNL     1       3.281  -1.107   3.709  1.00  0.00    -0.215 OA
HETATM   30  C21 UNL     1       3.510  -3.076   5.131  1.00  0.00     0.220 C 
HETATM   31  O8  UNL     1       3.674  -2.242   6.268  1.00  0.00    -0.218 OA
HETATM   32  C22 UNL     1       4.875  -3.535   4.572  1.00  0.00     0.212 C 
HETATM   33  O9  UNL     1       5.537  -4.348   5.525  1.00  0.00    -0.218 OA
HETATM   34  C23 UNL     1       4.699  -4.352   3.268  1.00  0.00     0.151 C 
HETATM   35  O10 UNL     1       3.926  -3.609   2.330  1.00  0.00    -0.329 OA
HETATM   36  C24 UNL     1       6.031  -4.680   2.586  1.00  0.00     0.035 C 
ENDBRANCH  26  27
ENDBRANCH  25  26
ENDBRANCH   8  25
TORSDOF 8
