REMARK  14 active torsions:
REMARK  status: ('A' for Active; 'I' for Inactive)
REMARK    1  A    between atoms: C1_1  and  O2_4 
REMARK    2  A    between atoms: O2_4  and  C3_5 
REMARK    3  A    between atoms: C6_8  and  C11_13 
REMARK    4  A    between atoms: C11_13  and  C12_14 
REMARK    5  A    between atoms: C12_14  and  C13_15 
REMARK    6  A    between atoms: C14_16  and  C15_17 
REMARK    7  A    between atoms: C16_18  and  C17_19 
REMARK    8  A    between atoms: C18_20  and  C19_21 
REMARK    9  A    between atoms: C20_22  and  C21_23 
REMARK   10  A    between atoms: C22_24  and  C23_25 
REMARK   11  A    between atoms: C24_26  and  C25_27 
REMARK   12  A    between atoms: C26_28  and  C27_29 
REMARK   13  A    between atoms: C27_29  and  C28_30 
REMARK   14  A    between atoms: C28_30  and  C29_31 
ROOT
HETATM    1  C17 UNL     1      -1.906   0.764   0.795  1.00  0.00    -0.022 C 
HETATM    2  C18 UNL     1      -0.783   1.336   0.330  1.00  0.00    -0.004 C 
HETATM    3  C40 UNL     1      -2.149  -0.691   0.490  1.00  0.00     0.031 C 
ENDROOT
BRANCH   2   4
HETATM    4  C19 UNL     1       0.182   0.561  -0.455  1.00  0.00    -0.000 C 
HETATM    5  C20 UNL     1       1.305   1.133  -0.920  1.00  0.00    -0.000 C 
BRANCH   5   6
HETATM    6  C21 UNL     1       2.271   0.355  -1.705  1.00  0.00    -0.004 C 
HETATM    7  C22 UNL     1       3.328   0.955  -2.277  1.00  0.00    -0.022 C 
HETATM    8  C39 UNL     1       3.498   2.439  -2.096  1.00  0.00     0.031 C 
BRANCH   7   9
HETATM    9  C23 UNL     1       4.326   0.228  -3.074  1.00  0.00    -0.004 C 
HETATM   10  C24 UNL     1       3.988  -0.887  -3.740  1.00  0.00    -0.001 C 
BRANCH  10  11
HETATM   11  C25 UNL     1       4.986  -1.613  -4.537  1.00  0.00    -0.001 C 
HETATM   12  C26 UNL     1       4.783  -2.895  -4.883  1.00  0.00     0.013 C 
HETATM   13  C38 UNL     1       3.514  -3.566  -4.440  1.00  0.00     0.034 C 
BRANCH  12  14
HETATM   14  C27 UNL     1       5.746  -3.668  -5.678  1.00  0.00     0.172 C 
HETATM   15  O5  UNL     1       5.359  -4.428  -6.535  1.00  0.00    -0.292 OA
BRANCH  14  16
HETATM   16  C28 UNL     1       7.215  -3.496  -5.399  1.00  0.00     0.098 C 
BRANCH  16  17
HETATM   17  C29 UNL     1       7.943  -4.830  -5.262  1.00  0.00     0.122 A 
HETATM   18  C30 UNL     1       8.727  -5.408  -6.459  1.00  0.00     0.028 C 
HETATM   19  C31 UNL     1       9.332  -6.801  -6.174  1.00  0.00     0.035 C 
HETATM   20  C36 UNL     1       9.840  -4.383  -6.703  1.00  0.00     0.003 C 
HETATM   21  C37 UNL     1       7.795  -5.457  -7.676  1.00  0.00     0.003 C 
HETATM   22  C32 UNL     1       9.973  -6.885  -4.777  1.00  0.00     0.155 C 
HETATM   23  C33 UNL     1       8.928  -6.758  -3.654  1.00  0.00     0.062 C 
HETATM   24  O4  UNL     1      10.633  -8.129  -4.645  1.00  0.00    -0.223 OA
HETATM   25  C34 UNL     1       8.076  -5.496  -3.840  1.00  0.00     0.118 A 
HETATM   26  O3  UNL     1       7.045  -5.760  -4.744  1.00  0.00    -0.359 OA
HETATM   27  C35 UNL     1       7.461  -4.824  -2.619  1.00  0.00     0.032 C 
ENDBRANCH  16  17
ENDBRANCH  14  16
ENDBRANCH  12  14
ENDBRANCH  10  11
ENDBRANCH   7   9
ENDBRANCH   5   6
ENDBRANCH   2   4
BRANCH   1  28
HETATM   28  C16 UNL     1      -2.873   1.541   1.580  1.00  0.00    -0.004 C 
HETATM   29  C15 UNL     1      -2.510   2.117   2.736  1.00  0.00    -0.001 C 
BRANCH  29  30
HETATM   30  C14 UNL     1      -3.477   2.893   3.522  1.00  0.00    -0.004 C 
HETATM   31  C13 UNL     1      -3.111   3.469   4.680  1.00  0.00    -0.015 C 
HETATM   32  C41 UNL     1      -1.693   3.299   5.152  1.00  0.00     0.032 C 
BRANCH  31  33
HETATM   33  C12 UNL     1      -4.078   4.246   5.465  1.00  0.00     0.032 C 
BRANCH  33  34
HETATM   34  C11 UNL     1      -5.397   4.174   5.211  1.00  0.00    -0.126 C 
BRANCH  34  35
HETATM   35  C6  UNL     1      -6.719   4.104   4.957  1.00  0.00     0.085 C 
HETATM   36  C5  UNL     1      -7.559   5.367   4.766  1.00  0.00     0.140 C 
HETATM   37  C4  UNL     1      -8.871   5.297   5.576  1.00  0.00     0.062 C 
HETATM   38  C42 UNL     1      -6.809   6.660   5.117  1.00  0.00     0.034 C 
HETATM   39  O6  UNL     1      -7.891   5.490   3.397  1.00  0.00    -0.225 OA
HETATM   40  C3  UNL     1      -9.631   3.977   5.383  1.00  0.00     0.127 C 
HETATM   41  C8  UNL     1      -8.731   2.775   5.690  1.00  0.00     0.031 C 
HETATM   42  C7  UNL     1      -7.440   2.758   4.846  1.00  0.00     0.015 C 
HETATM   43  C9  UNL     1      -7.781   2.498   3.375  1.00  0.00     0.001 C 
HETATM   44  C10 UNL     1      -6.570   1.586   5.330  1.00  0.00     0.001 C 
BRANCH  40  45
HETATM   45  O2  UNL     1     -10.754   3.953   6.252  1.00  0.00    -0.304 OA
BRANCH  45  46
HETATM   46  C1  UNL     1     -11.735   4.748   5.834  1.00  0.00     0.272 C 
HETATM   47  C2  UNL     1     -12.936   4.814   6.738  1.00  0.00     0.106 C 
HETATM   48  O1  UNL     1     -11.694   5.385   4.807  1.00  0.00    -0.264 OA
ENDBRANCH  45  46
ENDBRANCH  40  45
ENDBRANCH  34  35
ENDBRANCH  33  34
ENDBRANCH  31  33
ENDBRANCH  29  30
ENDBRANCH   1  28
TORSDOF 14
