REMARK  8 active torsions:
REMARK  status: ('A' for Active; 'I' for Inactive)
REMARK    1  A    between atoms: C3_3  and  C4_4 
REMARK    2  A    between atoms: C4_4  and  C5_5 
REMARK    3  A    between atoms: C5_5  and  C6_6 
REMARK    4  A    between atoms: C6_6  and  C7_7 
REMARK    5  A    between atoms: C7_7  and  C8_8 
REMARK    6  A    between atoms: C8_8  and  C9_9 
REMARK    7  A    between atoms: C9_9  and  C10_10 
REMARK    8  A    between atoms: C10_10  and  C11_11 
ROOT
HETATM    1  C1  UNL     1       6.589  -3.480   0.000  1.00  0.00    -0.014 C 
HETATM    2  C2  UNL     1       5.399  -3.480   0.000  1.00  0.00    -0.077 C 
HETATM    3  C3  UNL     1       3.939  -3.480   0.000  1.00  0.00     0.077 C 
ENDROOT
BRANCH   3   4
HETATM    4  C4  UNL     1       3.404  -2.048   0.000  1.00  0.00     0.014 C 
BRANCH   4   5
HETATM    5  C5  UNL     1       1.876  -1.989   0.000  1.00  0.00     0.001 C 
BRANCH   5   6
HETATM    6  C6  UNL     1       1.340  -0.557   0.000  1.00  0.00     0.000 C 
BRANCH   6   7
HETATM    7  C7  UNL     1      -0.188  -0.498   0.000  1.00  0.00     0.000 C 
BRANCH   7   8
HETATM    8  C8  UNL     1      -0.723   0.934   0.000  1.00  0.00     0.000 C 
BRANCH   8   9
HETATM    9  C9  UNL     1      -2.251   0.993   0.000  1.00  0.00     0.000 C 
BRANCH   9  10
HETATM   10  C10 UNL     1      -2.786   2.425   0.000  1.00  0.00     0.000 C 
BRANCH  10  11
HETATM   11  C11 UNL     1      -4.314   2.483   0.000  1.00  0.00     0.000 C 
HETATM   12  C12 UNL     1      -4.850   3.916   0.000  1.00  0.00     0.000 C 
ENDBRANCH  10  11
ENDBRANCH   9  10
ENDBRANCH   8   9
ENDBRANCH   7   8
ENDBRANCH   6   7
ENDBRANCH   5   6
ENDBRANCH   4   5
ENDBRANCH   3   4
TORSDOF 8
