REMARK  6 active torsions:
REMARK  status: ('A' for Active; 'I' for Inactive)
REMARK    1  A    between atoms: C3_3  and  C7_9 
REMARK    2  A    between atoms: C8_10  and  C9_11 
REMARK    3  A    between atoms: C9_11  and  O4_13 
REMARK    4  A    between atoms: O4_13  and  C10_14 
REMARK    5  A    between atoms: C10_14  and  C11_15 
REMARK    6  A    between atoms: C11_15  and  C12_17 
ROOT
HETATM    1  C7  UNL     1      -1.410   0.119  -1.002  1.00  0.00     0.005 C 
HETATM    2  C8  UNL     1      -0.209   0.213  -0.410  1.00  0.00     0.068 C 
ENDROOT
BRANCH   1   3
HETATM    3  C3  UNL     1      -2.107  -1.201  -1.002  1.00  0.00     0.002 A 
HETATM    4  C2  UNL     1      -1.363  -2.393  -1.002  1.00  0.00     0.002 A 
HETATM    5  C1  UNL     1      -2.022  -3.633  -1.002  1.00  0.00     0.029 A 
HETATM    6  C6  UNL     1      -3.428  -3.688  -1.002  1.00  0.00     0.156 A 
HETATM    7  C5  UNL     1      -4.176  -2.496  -1.002  1.00  0.00     0.156 A 
HETATM    8  O1  UNL     1      -4.039  -4.856  -1.002  1.00  0.00    -0.188 OA
HETATM    9  C4  UNL     1      -3.514  -1.254  -1.002  1.00  0.00     0.029 A 
HETATM   10  O2  UNL     1      -5.492  -2.537  -1.002  1.00  0.00    -0.188 OA
ENDBRANCH   1   3
BRANCH   2  11
HETATM   11  C9  UNL     1       0.516   1.490  -0.385  1.00  0.00     0.296 C 
HETATM   12  O3  UNL     1       0.039   2.475  -0.899  1.00  0.00    -0.259 OA
BRANCH  11  13
HETATM   13  O4  UNL     1       1.697   1.473   0.228  1.00  0.00    -0.296 OA
BRANCH  13  14
HETATM   14  C10 UNL     1       2.334   2.740   0.211  1.00  0.00     0.188 C 
BRANCH  14  15
HETATM   15  C11 UNL     1       3.680   2.646   0.929  1.00  0.00     0.215 C 
HETATM   16  O5  UNL     1       4.318   3.898   0.838  1.00  0.00    -0.218 OA
BRANCH  15  17
HETATM   17  C12 UNL     1       3.533   2.289   2.410  1.00  0.00     0.218 C 
HETATM   18  O6  UNL     1       4.822   2.070   2.939  1.00  0.00    -0.218 OA
ENDBRANCH  15  17
ENDBRANCH  14  15
ENDBRANCH  13  14
ENDBRANCH  11  13
ENDBRANCH   2  11
TORSDOF 6
