REMARK  10 active torsions:
REMARK  status: ('A' for Active; 'I' for Inactive)
REMARK    1  A    between atoms: C6_6  and  C7_7 
REMARK    2  A    between atoms: C7_7  and  C8_8 
REMARK    3  A    between atoms: C8_8  and  C9_9 
REMARK    4  A    between atoms: C9_9  and  C10_10 
REMARK    5  A    between atoms: C10_10  and  C11_11 
REMARK    6  A    between atoms: C11_11  and  C12_12 
REMARK    7  A    between atoms: C12_12  and  C13_13 
REMARK    8  A    between atoms: C13_13  and  C14_14 
REMARK    9  A    between atoms: C14_14  and  C15_15 
REMARK   10  A    between atoms: C15_15  and  C16_16 
ROOT
HETATM    1  C10 UNL     1       1.035   0.900   1.230  1.00  0.00     0.001 C 
ENDROOT
BRANCH   1   2
HETATM    2  C9  UNL     1       1.303  -0.447   1.904  1.00  0.00     0.008 C 
BRANCH   2   3
HETATM    3  C8  UNL     1       2.555  -0.430   2.783  1.00  0.00     0.069 C 
BRANCH   3   4
HETATM    4  C7  UNL     1       3.824  -0.471   1.974  1.00  0.00     0.177 C 
HETATM    5  O3  UNL     1       4.190   0.494   1.344  1.00  0.00    -0.291 OA
BRANCH   4   6
HETATM    6  C6  UNL     1       4.617  -1.738   1.974  1.00  0.00     0.085 A 
HETATM    7  C1  UNL     1       6.027  -1.686   1.974  1.00  0.00     0.136 A 
HETATM    8  C2  UNL     1       6.768  -2.879   1.974  1.00  0.00     0.028 A 
HETATM    9  O5  UNL     1       6.658  -0.527   1.974  1.00  0.00    -0.190 OA
HETATM   10  C3  UNL     1       6.111  -4.121   1.974  1.00  0.00     0.004 A 
HETATM   11  C4  UNL     1       4.709  -4.172   1.974  1.00  0.00     0.028 A 
HETATM   12  C5  UNL     1       3.957  -2.983   1.974  1.00  0.00     0.136 A 
HETATM   13  O4  UNL     1       2.641  -3.045   1.974  1.00  0.00    -0.190 OA
ENDBRANCH   4   6
ENDBRANCH   3   4
ENDBRANCH   2   3
ENDBRANCH   1   2
BRANCH   1  14
HETATM   14  C11 UNL     1      -0.209   0.879   0.342  1.00  0.00     0.000 C 
BRANCH  14  15
HETATM   15  C12 UNL     1      -1.508   0.814   1.146  1.00  0.00     0.000 C 
BRANCH  15  16
HETATM   16  C13 UNL     1      -2.752   0.947   0.269  1.00  0.00     0.000 C 
BRANCH  16  17
HETATM   17  C14 UNL     1      -2.986  -0.279  -0.611  1.00  0.00     0.005 C 
BRANCH  17  18
HETATM   18  C15 UNL     1      -4.297  -0.203  -1.397  1.00  0.00     0.026 C 
BRANCH  18  19
HETATM   19  C16 UNL     1      -4.283   0.916  -2.375  1.00  0.00    -0.020 A 
HETATM   20  C17 UNL     1      -4.984   2.103  -2.098  1.00  0.00     0.025 A 
HETATM   21  C18 UNL     1      -4.975   3.164  -3.020  1.00  0.00     0.156 A 
HETATM   22  C19 UNL     1      -4.258   3.037  -4.225  1.00  0.00     0.156 A 
HETATM   23  O2  UNL     1      -5.635   4.273  -2.752  1.00  0.00    -0.188 OA
HETATM   24  C20 UNL     1      -3.557   1.852  -4.502  1.00  0.00     0.029 A 
HETATM   25  O1  UNL     1      -4.244   4.027  -5.096  1.00  0.00    -0.188 OA
HETATM   26  C21 UNL     1      -3.568   0.791  -3.578  1.00  0.00    -0.002 A 
ENDBRANCH  18  19
ENDBRANCH  17  18
ENDBRANCH  16  17
ENDBRANCH  15  16
ENDBRANCH  14  15
ENDBRANCH   1  14
TORSDOF 10
