REMARK  2 active torsions:
REMARK  status: ('A' for Active; 'I' for Inactive)
REMARK    1  A    between atoms: C7_7  and  O3_14 
REMARK    2  A    between atoms: C8_8  and  O2_12 
ROOT
HETATM    1  C1  UNL     1      -3.627   0.029   0.012  1.00  0.00     0.002 A 
HETATM    2  C2  UNL     1      -3.533   1.438  -0.002  1.00  0.00     0.029 A 
HETATM    3  C3  UNL     1      -2.268   2.070  -0.014  1.00  0.00     0.149 A 
HETATM    4  C4  UNL     1      -1.078   1.291  -0.014  1.00  0.00     0.111 A 
HETATM    5  C5  UNL     1      -1.182  -0.139  -0.002  1.00  0.00     0.044 A 
HETATM    6  C6  UNL     1      -2.457  -0.762   0.014  1.00  0.00     0.004 A 
HETATM    7  C7  UNL     1       0.008  -0.924  -0.002  1.00  0.00     0.121 A 
HETATM    8  C8  UNL     1       1.268  -0.271  -0.016  1.00  0.00     0.160 A 
HETATM    9  C9  UNL     1       1.318   1.145  -0.027  1.00  0.00     0.237 A 
HETATM   10  N1  UNL     1       0.164   1.900  -0.027  1.00  0.00    -0.216 NA
HETATM   11  O1  UNL     1       2.504   1.768  -0.041  1.00  0.00    -0.167 OA
HETATM   12  O4  UNL     1      -2.211   3.410  -0.027  1.00  0.00    -0.189 OA
ENDROOT
BRANCH   7  13
HETATM   13  O3  UNL     1      -0.039  -2.264   0.010  1.00  0.00    -0.326 OA
HETATM   14  C11 UNL     1       0.893  -2.957   0.828  1.00  0.00     0.181 C 
ENDBRANCH   7  13
BRANCH   8  15
HETATM   15  O2  UNL     1       2.400  -0.986  -0.018  1.00  0.00    -0.323 OA
HETATM   16  C10 UNL     1       3.478  -0.527  -0.820  1.00  0.00     0.182 C 
ENDBRANCH   8  15
TORSDOF 2
