REMARK  5 active torsions:
REMARK  status: ('A' for Active; 'I' for Inactive)
REMARK    1  A    between atoms: C2_3  and  O2_13 
REMARK    2  A    between atoms: C7_8  and  O1_10 
REMARK    3  A    between atoms: O1_10  and  C9_11 
REMARK    4  A    between atoms: O2_13  and  C11_14 
REMARK    5  A    between atoms: C11_14  and  O4_16 
ROOT
HETATM    1  N1  UNL     1       0.596   0.949  -0.193  1.00  0.00    -0.240 NA
HETATM    2  C1  UNL     1       1.398  -0.213  -0.117  1.00  0.00     0.124 A 
HETATM    3  C2  UNL     1       0.563  -1.350  -0.053  1.00  0.00     0.126 A 
HETATM    4  C3  UNL     1      -0.689  -0.836  -0.090  1.00  0.00     0.044 A 
HETATM    5  C4  UNL     1      -1.889  -1.588  -0.049  1.00  0.00     0.004 A 
HETATM    6  C5  UNL     1      -3.121  -0.891  -0.098  1.00  0.00     0.002 A 
HETATM    7  C6  UNL     1      -3.135   0.527  -0.184  1.00  0.00     0.026 A 
HETATM    8  C7  UNL     1      -1.928   1.275  -0.225  1.00  0.00     0.112 A 
HETATM    9  C8  UNL     1      -0.721   0.533  -0.174  1.00  0.00     0.106 A 
ENDROOT
BRANCH   3  10
HETATM   10  O2  UNL     1       0.936  -2.635   0.029  1.00  0.00    -0.252 OA
BRANCH  10  11
HETATM   11  C11 UNL     1       2.145  -2.930   0.494  1.00  0.00     0.413 C 
HETATM   12  O3  UNL     1       2.838  -2.150   1.107  1.00  0.00    -0.229 OA
BRANCH  11  13
HETATM   13  O4  UNL     1       2.506  -4.178   0.211  1.00  0.00    -0.276 OA
HETATM   14  C12 UNL     1       3.799  -4.492   0.709  1.00  0.00     0.187 C 
ENDBRANCH  11  13
ENDBRANCH  10  11
ENDBRANCH   3  10
BRANCH   8  15
HETATM   15  O1  UNL     1      -2.078   2.605  -0.309  1.00  0.00    -0.329 OA
BRANCH  15  16
HETATM   16  C9  UNL     1      -0.908   3.408  -0.360  1.00  0.00     0.149 C 
HETATM   17  C10 UNL     1      -1.303   4.879  -0.473  1.00  0.00     0.035 C 
ENDBRANCH  15  16
ENDBRANCH   8  15
TORSDOF 5
