REMARK  1 active torsions:
REMARK  status: ('A' for Active; 'I' for Inactive)
REMARK    1  A    between atoms: C9_9  and  C10_10 
ROOT
HETATM    1  C1  UNL     1      -1.969   1.826   1.133  1.00  0.00    -0.004 C 
HETATM    2  C2  UNL     1      -3.244   1.457   1.379  1.00  0.00    -0.028 C 
HETATM    3  C3  UNL     1      -3.820   0.219   0.709  1.00  0.00     0.035 C 
HETATM    4  C4  UNL     1      -2.877  -0.404  -0.346  1.00  0.00     0.085 C 
HETATM    5  C5  UNL     1      -1.483  -0.498   0.305  1.00  0.00     0.049 C 
HETATM    6  C6  UNL     1      -1.145   0.992   0.168  1.00  0.00     0.120 C 
HETATM    7  C7  UNL     1       0.371   1.045   0.371  1.00  0.00     0.030 C 
HETATM    8  C8  UNL     1       0.891  -0.346  -0.098  1.00  0.00     0.019 C 
HETATM    9  C9  UNL     1      -0.352  -1.170  -0.484  1.00  0.00     0.091 C 
HETATM   10  C11 UNL     1       1.914  -0.195  -1.248  1.00  0.00     0.035 C 
HETATM   11  C12 UNL     1       3.018   0.586  -0.518  1.00  0.00     0.142 C 
HETATM   12  C13 UNL     1       2.596   2.064  -0.346  1.00  0.00     0.035 C 
HETATM   13  C14 UNL     1       1.060   2.234  -0.318  1.00  0.00     0.006 C 
HETATM   14  O3  UNL     1       4.236   0.494  -1.234  1.00  0.00    -0.222 OA
HETATM   15  C15 UNL     1       3.076  -0.147   0.797  1.00  0.00    -0.017 C 
HETATM   16  C16 UNL     1       1.810  -0.926   1.000  1.00  0.00     0.025 C 
HETATM   17  C17 UNL     1       4.098  -0.113   1.674  1.00  0.00    -0.007 C 
HETATM   18  O4  UNL     1      -1.533   1.344  -1.162  1.00  0.00    -0.302 OA
HETATM   19  C18 UNL     1      -2.596   0.592  -1.439  1.00  0.00     0.271 C 
HETATM   20  O5  UNL     1      -3.264   0.674  -2.445  1.00  0.00    -0.264 OA
HETATM   21  C19 UNL     1      -3.363  -1.758  -0.853  1.00  0.00     0.010 C 
ENDROOT
BRANCH   9  22
HETATM   22  C10 UNL     1      -0.258  -2.656  -0.236  1.00  0.00     0.185 C 
HETATM   23  O1  UNL     1      -0.942  -3.191   0.606  1.00  0.00    -0.647 OA
HETATM   24  O2  UNL     1       0.615  -3.303  -1.002  1.00  0.00    -0.647 OA
ENDBRANCH   9  22
TORSDOF 1
