REMARK  2 active torsions:
REMARK  status: ('A' for Active; 'I' for Inactive)
REMARK    1  A    between atoms: C4_4  and  C8_9 
REMARK    2  A    between atoms: C6_6  and  O1_7 
ROOT
HETATM    1  C1  UNL     1       1.545   1.272   0.100  1.00  0.00     0.153 A 
HETATM    2  C2  UNL     1       2.289   0.078   0.100  1.00  0.00     0.029 A 
HETATM    3  C3  UNL     1       1.633  -1.164   0.100  1.00  0.00     0.001 A 
HETATM    4  C4  UNL     1       0.229  -1.217   0.100  1.00  0.00     0.013 A 
HETATM    5  C5  UNL     1      -0.516  -0.023   0.100  1.00  0.00     0.025 A 
HETATM    6  C6  UNL     1       0.139   1.221   0.100  1.00  0.00     0.119 A 
HETATM    7  O3  UNL     1       2.168   2.434   0.100  1.00  0.00    -0.188 OA
ENDROOT
BRANCH   4   8
HETATM    8  C8  UNL     1      -0.469  -2.529   0.100  1.00  0.00     0.209 C 
HETATM    9  O2  UNL     1      -0.723  -2.926  -1.229  1.00  0.00    -0.215 OA
ENDBRANCH   4   8
BRANCH   6  10
HETATM   10  O1  UNL     1      -0.566   2.334   0.100  1.00  0.00    -0.326 OA
HETATM   11  C7  UNL     1      -1.978   2.231  -0.016  1.00  0.00     0.181 C 
ENDBRANCH   6  10
TORSDOF 2
