REMARK  1 active torsions:
REMARK  status: ('A' for Active; 'I' for Inactive)
REMARK    1  A    between atoms: C9_9  and  C10_10 
ROOT
HETATM    1  C1  UNL     1       3.139   1.236  -1.190  1.00  0.00     0.001 C 
HETATM    2  C2  UNL     1       3.674   0.023  -0.299  1.00  0.00     0.009 C 
HETATM    3  C3  UNL     1       2.654   0.045   0.828  1.00  0.00     0.079 C 
HETATM    4  C4  UNL     1       1.383  -0.348  -0.047  1.00  0.00     0.021 C 
HETATM    5  C5  UNL     1       0.680   0.967   0.082  1.00  0.00     0.029 C 
HETATM    6  C6  UNL     1       1.711   1.865  -0.752  1.00  0.00     0.003 C 
HETATM    7  C7  UNL     1      -0.605   0.584  -0.672  1.00  0.00     0.003 C 
HETATM    8  C8  UNL     1      -0.982  -0.852  -0.213  1.00  0.00     0.016 C 
HETATM    9  C9  UNL     1       0.361  -1.496   0.201  1.00  0.00     0.088 C 
HETATM   10  C11 UNL     1      -1.990  -0.893   0.959  1.00  0.00     0.035 C 
HETATM   11  C12 UNL     1      -3.211  -0.236   0.314  1.00  0.00     0.142 C 
HETATM   12  C13 UNL     1      -2.939   1.277   0.271  1.00  0.00     0.034 C 
HETATM   13  C14 UNL     1      -1.754   1.613  -0.656  1.00  0.00     0.003 C 
HETATM   14  C15 UNL     1      -3.221  -0.906  -1.031  1.00  0.00    -0.017 C 
HETATM   15  C16 UNL     1      -1.867  -1.502  -1.303  1.00  0.00     0.025 C 
HETATM   16  C17 UNL     1      -4.269  -0.969  -1.875  1.00  0.00    -0.007 C 
HETATM   17  O3  UNL     1      -4.369  -0.510   1.080  1.00  0.00    -0.222 OA
HETATM   18  C18 UNL     1       0.479   1.176   1.650  1.00  0.00     0.152 C 
HETATM   19  O4  UNL     1       1.006   0.088   2.500  1.00  0.00    -0.302 OA
HETATM   20  C19 UNL     1       2.190  -0.494   2.129  1.00  0.00     0.271 C 
HETATM   21  O5  UNL     1       2.787  -1.342   2.750  1.00  0.00    -0.264 OA
HETATM   22  C20 UNL     1       3.162   1.354   1.515  1.00  0.00     0.010 C 
ENDROOT
BRANCH   9  23
HETATM   23  C10 UNL     1       0.711  -2.758  -0.557  1.00  0.00     0.185 C 
HETATM   24  O1  UNL     1       0.783  -2.760  -1.764  1.00  0.00    -0.647 OA
HETATM   25  O2  UNL     1       0.924  -3.830   0.201  1.00  0.00    -0.647 OA
ENDBRANCH   9  23
TORSDOF 1
