REMARK  0 active torsions:
REMARK  status: ('A' for Active; 'I' for Inactive)
ROOT
HETATM    1  C1  UNL     1       3.752   1.469   0.484  1.00  0.00     0.022 A 
HETATM    2  C2  UNL     1       4.524   0.770  -0.477  1.00  0.00     0.119 A 
HETATM    3  C3  UNL     1       3.900  -0.166  -1.305  1.00  0.00     0.119 A 
HETATM    4  C4  UNL     1       2.512  -0.408  -1.166  1.00  0.00     0.027 A 
HETATM    5  C5  UNL     1       1.723   0.283  -0.207  1.00  0.00     0.014 A 
HETATM    6  C6  UNL     1       2.363   1.244   0.623  1.00  0.00    -0.017 A 
HETATM    7  C7  UNL     1       1.576   2.014   1.621  1.00  0.00     0.051 C 
HETATM    8  C8  UNL     1       0.389   1.211   2.188  1.00  0.00     0.111 C 
HETATM    9  N1  UNL     1      -0.389   0.508   1.135  1.00  0.00    -0.326 N 
HETATM   10  C9  UNL     1       0.268   0.033  -0.043  1.00  0.00     0.060 A 
HETATM   11  C10 UNL     1      -0.492  -0.666  -1.027  1.00  0.00     0.017 A 
HETATM   12  C11 UNL     1      -1.879  -0.885  -0.836  1.00  0.00     0.005 A 
HETATM   13  C12 UNL     1      -2.529  -0.398   0.332  1.00  0.00     0.042 A 
HETATM   14  C13 UNL     1      -1.779   0.299   1.311  1.00  0.00     0.078 A 
HETATM   15  C14 UNL     1      -3.922  -0.605   0.537  1.00  0.00     0.120 A 
HETATM   16  C15 UNL     1      -4.660  -1.301  -0.426  1.00  0.00     0.119 A 
HETATM   17  C16 UNL     1      -4.012  -1.787  -1.590  1.00  0.00     0.026 A 
HETATM   18  C17 UNL     1      -2.631  -1.586  -1.805  1.00  0.00     0.002 A 
HETATM   19  O1  UNL     1      -5.932  -1.377  -0.029  1.00  0.00    -0.300 OA
HETATM   20  C18 UNL     1      -6.072  -0.711   1.244  1.00  0.00     0.304 A 
HETATM   21  O2  UNL     1      -4.736  -0.248   1.531  1.00  0.00    -0.299 OA
HETATM   22  O3  UNL     1       4.809  -0.691  -2.127  1.00  0.00    -0.300 OA
HETATM   23  C19 UNL     1       6.098  -0.100  -1.855  1.00  0.00     0.304 A 
HETATM   24  O4  UNL     1       5.822   0.824  -0.779  1.00  0.00    -0.300 OA
ENDROOT
TORSDOF 0
