REMARK  5 active torsions:
REMARK  status: ('A' for Active; 'I' for Inactive)
REMARK    1  A    between atoms: C1_1  and  C2_2 
REMARK    2  A    between atoms: C3_3  and  C4_4 
REMARK    3  A    between atoms: C4_4  and  C5_5 
REMARK    4  A    between atoms: C5_5  and  C6_6 
REMARK    5  A    between atoms: C7_7  and  C8_8 
ROOT
HETATM    1  C4  UNL     1       0.621  -0.236   1.084  1.00  0.00     0.030 C 
ENDROOT
BRANCH   1   2
HETATM    2  C3  UNL     1       2.127  -0.236   1.084  1.00  0.00    -0.028 C 
HETATM    3  C2  UNL     1       2.767   0.943   1.084  1.00  0.00     0.005 C 
BRANCH   3   4
HETATM    4  C1  UNL     1       4.271   0.943   1.084  1.00  0.00     0.208 C 
HETATM    5  O1  UNL     1       4.742   2.182   0.602  1.00  0.00    -0.215 OA
ENDBRANCH   3   4
ENDBRANCH   1   2
BRANCH   1   6
HETATM    6  C5  UNL     1       0.037  -1.080  -0.049  1.00  0.00     0.030 C 
BRANCH   6   7
HETATM    7  C6  UNL     1      -1.467  -1.092  -0.041  1.00  0.00    -0.030 C 
HETATM    8  C7  UNL     1      -2.117  -0.748  -1.164  1.00  0.00    -0.031 C 
BRANCH   8   9
HETATM    9  C8  UNL     1      -3.623  -0.760  -1.154  1.00  0.00     0.026 C 
HETATM   10  C9  UNL     1      -4.219   0.568  -1.621  1.00  0.00     0.005 C 
ENDBRANCH   8   9
ENDBRANCH   6   7
ENDBRANCH   1   6
TORSDOF 5
