REMARK  7 active torsions:
REMARK  status: ('A' for Active; 'I' for Inactive)
REMARK    1  A    between atoms: C6_6  and  C7_7 
REMARK    2  A    between atoms: C7_7  and  C8_8 
REMARK    3  A    between atoms: C8_8  and  C9_9 
REMARK    4  A    between atoms: C8_8  and  C14_15 
REMARK    5  A    between atoms: C9_9  and  C10_10 
REMARK    6  A    between atoms: C10_10  and  C11_11 
REMARK    7  A    between atoms: C17_19  and  C20_23 
ROOT
HETATM    1  C1  UNL     1      -2.204  -2.397  -0.593  1.00  0.00     0.131 A 
HETATM    2  C2  UNL     1      -3.617  -2.390  -0.572  1.00  0.00     0.055 A 
HETATM    3  C3  UNL     1      -4.324  -1.167  -0.556  1.00  0.00     0.138 A 
HETATM    4  C4  UNL     1      -3.611   0.061  -0.560  1.00  0.00     0.082 A 
HETATM    5  C5  UNL     1      -2.188   0.058  -0.622  1.00  0.00     0.097 A 
HETATM    6  C6  UNL     1      -1.488  -1.174  -0.619  1.00  0.00     0.026 A 
HETATM    7  O2  UNL     1      -1.490   1.212  -0.683  1.00  0.00    -0.329 OA
HETATM    8  C17 UNL     1      -2.129   2.428  -1.087  1.00  0.00     0.153 C 
HETATM    9  C18 UNL     1      -3.475   2.598  -0.357  1.00  0.00     0.104 C 
HETATM   10  C19 UNL     1      -4.338   1.361  -0.489  1.00  0.00     0.180 C 
HETATM   11  O3  UNL     1      -5.537   1.525  -0.520  1.00  0.00    -0.291 OA
HETATM   12  O6  UNL     1      -5.665  -1.185  -0.528  1.00  0.00    -0.190 OA
HETATM   13  O7  UNL     1      -1.548  -3.566  -0.593  1.00  0.00    -0.190 OA
ENDROOT
BRANCH   6  14
HETATM   14  C7  UNL     1      -0.015  -1.185  -0.647  1.00  0.00     0.035 C 
BRANCH  14  15
HETATM   15  C8  UNL     1       0.572  -1.507   0.728  1.00  0.00     0.023 C 
BRANCH  15  16
HETATM   16  C9  UNL     1       2.081  -1.747   0.683  1.00  0.00     0.007 C 
BRANCH  16  17
HETATM   17  C10 UNL     1       2.449  -3.063  -0.002  1.00  0.00     0.031 C 
BRANCH  17  18
HETATM   18  C11 UNL     1       3.920  -3.436   0.186  1.00  0.00     0.127 C 
HETATM   19  C12 UNL     1       4.349  -4.611  -0.693  1.00  0.00     0.033 C 
HETATM   20  C13 UNL     1       4.854  -2.232   0.060  1.00  0.00     0.033 C 
HETATM   21  O1  UNL     1       3.931  -3.863   1.530  1.00  0.00    -0.226 OA
ENDBRANCH  17  18
ENDBRANCH  16  17
ENDBRANCH  15  16
BRANCH  15  22
HETATM   22  C14 UNL     1       0.182  -0.494   1.771  1.00  0.00    -0.044 C 
HETATM   23  C15 UNL     1      -1.171  -0.475   2.429  1.00  0.00     0.026 C 
HETATM   24  C16 UNL     1       1.083   0.435   2.129  1.00  0.00    -0.009 C 
ENDBRANCH  15  22
ENDBRANCH  14  15
ENDBRANCH   6  14
BRANCH   8  25
HETATM   25  C20 UNL     1      -1.205   3.568  -0.841  1.00  0.00     0.031 A 
HETATM   26  C21 UNL     1       0.078   3.582  -1.421  1.00  0.00     0.131 A 
HETATM   27  C22 UNL     1       0.940   4.666  -1.179  1.00  0.00     0.054 A 
HETATM   28  O5  UNL     1       0.476   2.587  -2.190  1.00  0.00    -0.190 OA
HETATM   29  C23 UNL     1       0.529   5.734  -0.361  1.00  0.00     0.133 A 
HETATM   30  C24 UNL     1      -0.753   5.715   0.216  1.00  0.00     0.027 A 
HETATM   31  O4  UNL     1       1.341   6.747  -0.138  1.00  0.00    -0.190 OA
HETATM   32  C25 UNL     1      -1.618   4.634  -0.023  1.00  0.00     0.002 A 
ENDBRANCH   8  25
TORSDOF 7
