REMARK  1 active torsions:
REMARK  status: ('A' for Active; 'I' for Inactive)
REMARK    1  A    between atoms: C12_12  and  C15_17 
ROOT
HETATM    1  C1  UNL     1      -3.912   1.541   0.487  1.00  0.00     0.009 C 
HETATM    2  C2  UNL     1      -4.612   0.189   0.583  1.00  0.00     0.027 C 
HETATM    3  C3  UNL     1      -3.864  -0.860  -0.214  1.00  0.00    -0.022 C 
HETATM    4  C4  UNL     1      -2.363  -0.760  -0.321  1.00  0.00    -0.008 A 
HETATM    5  C5  UNL     1      -1.674   0.344   0.279  1.00  0.00    -0.019 A 
HETATM    6  C6  UNL     1      -2.446   1.445   0.929  1.00  0.00     0.027 C 
HETATM    7  C7  UNL     1      -0.241   0.379   0.252  1.00  0.00     0.038 A 
HETATM    8  C8  UNL     1       0.474  -0.632  -0.452  1.00  0.00     0.003 A 
HETATM    9  C9  UNL     1      -0.217  -1.687  -1.084  1.00  0.00     0.000 A 
HETATM   10  C10 UNL     1      -1.621  -1.757  -1.010  1.00  0.00    -0.001 A 
HETATM   11  C11 UNL     1       1.961  -0.591  -0.530  1.00  0.00    -0.001 A 
HETATM   12  C12 UNL     1       2.674   0.384   0.065  1.00  0.00     0.020 A 
HETATM   13  C13 UNL     1       2.004   1.452   0.829  1.00  0.00     0.230 A 
HETATM   14  C14 UNL     1       0.528   1.461   0.961  1.00  0.00     0.234 A 
HETATM   15  O1  UNL     1       0.082   2.353   1.646  1.00  0.00    -0.283 OA
HETATM   16  O2  UNL     1       2.666   2.321   1.351  1.00  0.00    -0.283 OA
HETATM   17  C18 UNL     1      -4.597  -1.839  -0.792  1.00  0.00    -0.005 C 
ENDROOT
BRANCH  12  18
HETATM   18  C15 UNL     1       4.177   0.378  -0.054  1.00  0.00     0.026 C 
HETATM   19  C16 UNL     1       4.650  -0.003  -1.458  1.00  0.00     0.005 C 
HETATM   20  C17 UNL     1       4.846  -0.456   1.040  1.00  0.00     0.005 C 
ENDBRANCH  12  18
TORSDOF 1
