REMARK  3 active torsions:
REMARK  status: ('A' for Active; 'I' for Inactive)
REMARK    1  A    between atoms: C6_7  and  C10_12 
REMARK    2  A    between atoms: C10_12  and  C11_13 
REMARK    3  A    between atoms: C12_14  and  C14_16 
ROOT
HETATM    1  O1  UNL     1       2.834   2.727  -0.598  1.00  0.00    -0.311 OA
HETATM    2  C1  UNL     1       4.102   2.291  -0.428  1.00  0.00     0.081 A 
HETATM    3  C2  UNL     1       4.365   1.059   0.057  1.00  0.00     0.062 A 
HETATM    4  C3  UNL     1       3.272   0.135   0.424  1.00  0.00     0.201 A 
HETATM    5  C4  UNL     1       1.897   0.666   0.219  1.00  0.00     0.087 A 
HETATM    6  C5  UNL     1       0.752  -0.115   0.533  1.00  0.00     0.134 A 
HETATM    7  C6  UNL     1      -0.543   0.424   0.324  1.00  0.00     0.033 A 
HETATM    8  C7  UNL     1      -0.691   1.734  -0.193  1.00  0.00     0.131 A 
HETATM    9  C8  UNL     1       0.451   2.510  -0.504  1.00  0.00     0.052 A 
HETATM   10  C9  UNL     1       1.746   1.981  -0.299  1.00  0.00     0.107 A 
HETATM   11  O2  UNL     1      -1.912   2.250  -0.395  1.00  0.00    -0.190 OA
HETATM   12  O4  UNL     1       0.889  -1.355   1.023  1.00  0.00    -0.190 OA
HETATM   13  O5  UNL     1       3.588  -0.953   0.850  1.00  0.00    -0.286 OA
HETATM   14  C15 UNL     1       5.262   3.184  -0.781  1.00  0.00     0.058 C 
ENDROOT
BRANCH   7  15
HETATM   15  C10 UNL     1      -1.734  -0.379   0.646  1.00  0.00     0.056 C 
BRANCH  15  16
HETATM   16  C11 UNL     1      -2.162  -1.246  -0.506  1.00  0.00    -0.027 C 
HETATM   17  C12 UNL     1      -3.131  -2.154  -0.301  1.00  0.00    -0.015 C 
HETATM   18  C13 UNL     1      -3.560  -3.021  -1.453  1.00  0.00     0.029 C 
BRANCH  17  19
HETATM   19  C14 UNL     1      -3.740  -2.256   1.072  1.00  0.00     0.204 C 
HETATM   20  O3  UNL     1      -2.935  -3.084   1.883  1.00  0.00    -0.216 OA
ENDBRANCH  17  19
ENDBRANCH  15  16
ENDBRANCH   7  15
TORSDOF 3
