REMARK  10 active torsions:
REMARK  status: ('A' for Active; 'I' for Inactive)
REMARK    1  A    between atoms: C1_2  and  O14_34 
REMARK    2  A    between atoms: C3_4  and  O8_21 
REMARK    3  A    between atoms: C5_6  and  C6_7 
REMARK    4  A    between atoms: C6_7  and  O2_8 
REMARK    5  A    between atoms: O2_8  and  C7_9 
REMARK    6  A    between atoms: C7_9  and  C8_10 
REMARK    7  A    between atoms: O8_21  and  C14_22 
REMARK    8  A    between atoms: C14_22  and  C15_23 
REMARK    9  A    between atoms: O14_34  and  C21_35 
REMARK   10  A    between atoms: C21_35  and  C22_37 
ROOT
HETATM    1  O1  UNL     1      -0.049  -0.340  -0.023  1.00  0.00    -0.326 OA
HETATM    2  C1  UNL     1      -1.233  -0.033   0.701  1.00  0.00     0.277 C 
HETATM    3  C2  UNL     1      -1.682   1.408   0.381  1.00  0.00     0.239 C 
HETATM    4  C3  UNL     1      -0.553   2.416   0.645  1.00  0.00     0.193 C 
HETATM    5  C4  UNL     1       0.726   1.953  -0.074  1.00  0.00     0.212 C 
HETATM    6  C5  UNL     1       1.070   0.486   0.271  1.00  0.00     0.181 C 
HETATM    7  O7  UNL     1       1.803   2.791   0.307  1.00  0.00    -0.218 OA
HETATM    8  O13 UNL     1      -2.801   1.738   1.182  1.00  0.00    -0.215 OA
ENDROOT
BRANCH   6   9
HETATM    9  C6  UNL     1       2.250  -0.057  -0.541  1.00  0.00     0.184 C 
BRANCH   9  10
HETATM   10  O2  UNL     1       2.529  -1.389  -0.137  1.00  0.00    -0.296 OA
BRANCH  10  11
HETATM   11  C7  UNL     1       3.549  -1.918  -0.807  1.00  0.00     0.298 C 
HETATM   12  O6  UNL     1       4.168  -1.332  -1.662  1.00  0.00    -0.259 OA
BRANCH  11  13
HETATM   13  C8  UNL     1       3.896  -3.322  -0.430  1.00  0.00     0.091 A 
HETATM   14  C9  UNL     1       5.240  -3.746  -0.422  1.00  0.00     0.163 A 
HETATM   15  C10 UNL     1       5.555  -5.072  -0.064  1.00  0.00     0.181 A 
HETATM   16  O5  UNL     1       6.207  -2.908  -0.744  1.00  0.00    -0.188 OA
HETATM   17  C11 UNL     1       4.529  -5.973   0.281  1.00  0.00     0.158 A 
HETATM   18  O4  UNL     1       6.811  -5.473  -0.055  1.00  0.00    -0.186 OA
HETATM   19  C12 UNL     1       3.191  -5.545   0.271  1.00  0.00     0.030 A 
HETATM   20  O3  UNL     1       4.818  -7.213   0.615  1.00  0.00    -0.188 OA
HETATM   21  C13 UNL     1       2.873  -4.223  -0.084  1.00  0.00     0.010 A 
ENDBRANCH  11  13
ENDBRANCH  10  11
ENDBRANCH   9  10
ENDBRANCH   6   9
BRANCH   2  22
HETATM   22  O14 UNL     1      -2.250  -0.953   0.334  1.00  0.00    -0.270 OA
BRANCH  22  23
HETATM   23  C21 UNL     1      -2.029  -2.174   0.814  1.00  0.00     0.298 C 
HETATM   24  O15 UNL     1      -1.090  -2.459   1.520  1.00  0.00    -0.259 OA
BRANCH  23  25
HETATM   25  C22 UNL     1      -3.035  -3.205   0.422  1.00  0.00     0.068 A 
HETATM   26  C23 UNL     1      -2.899  -4.529   0.875  1.00  0.00     0.035 A 
HETATM   27  C24 UNL     1      -3.846  -5.502   0.506  1.00  0.00     0.158 A 
HETATM   28  C25 UNL     1      -4.932  -5.148  -0.316  1.00  0.00     0.181 A 
HETATM   29  O18 UNL     1      -3.713  -6.742   0.934  1.00  0.00    -0.188 OA
HETATM   30  C26 UNL     1      -5.071  -3.822  -0.770  1.00  0.00     0.158 A 
HETATM   31  O17 UNL     1      -5.821  -6.059  -0.662  1.00  0.00    -0.186 OA
HETATM   32  C27 UNL     1      -4.121  -2.854  -0.398  1.00  0.00     0.035 A 
HETATM   33  O16 UNL     1      -6.086  -3.488  -1.539  1.00  0.00    -0.188 OA
ENDBRANCH  23  25
ENDBRANCH  22  23
ENDBRANCH   2  22
BRANCH   4  34
HETATM   34  O8  UNL     1      -0.934   3.703   0.176  1.00  0.00    -0.295 OA
BRANCH  34  35
HETATM   35  C14 UNL     1      -0.332   4.684   0.844  1.00  0.00     0.298 C 
HETATM   36  O12 UNL     1       0.348   4.510   1.828  1.00  0.00    -0.259 OA
BRANCH  35  37
HETATM   37  C15 UNL     1      -0.551   6.057   0.293  1.00  0.00     0.091 A 
HETATM   38  C16 UNL     1       0.474   7.020   0.350  1.00  0.00     0.163 A 
HETATM   39  C17 UNL     1       0.256   8.309  -0.172  1.00  0.00     0.181 A 
HETATM   40  O11 UNL     1       1.641   6.721   0.891  1.00  0.00    -0.188 OA
HETATM   41  C18 UNL     1      -0.986   8.635  -0.748  1.00  0.00     0.158 A 
HETATM   42  O10 UNL     1       1.215   9.213  -0.121  1.00  0.00    -0.186 OA
HETATM   43  C19 UNL     1      -2.006   7.670  -0.803  1.00  0.00     0.030 A 
HETATM   44  O9  UNL     1      -1.195   9.840  -1.238  1.00  0.00    -0.188 OA
HETATM   45  C20 UNL     1      -1.791   6.385  -0.283  1.00  0.00     0.010 A 
ENDBRANCH  35  37
ENDBRANCH  34  35
ENDBRANCH   4  34
TORSDOF 10
