REMARK  7 active torsions:
REMARK  status: ('A' for Active; 'I' for Inactive)
REMARK    1  A    between atoms: C6_6  and  C7_7 
REMARK    2  A    between atoms: C7_7  and  C8_8 
REMARK    3  A    between atoms: C12_13  and  C26_37 
REMARK    4  A    between atoms: C13_14  and  O3_17 
REMARK    5  A    between atoms: O3_17  and  C15_18 
REMARK    6  A    between atoms: C16_19  and  O4_20 
REMARK    7  A    between atoms: O4_20  and  C17_21 
ROOT
HETATM    1  C1  UNL     1      -5.942  -0.191  -0.144  1.00  0.00     0.131 A 
HETATM    2  C2  UNL     1      -5.780  -1.494   0.385  1.00  0.00     0.055 A 
HETATM    3  C3  UNL     1      -4.485  -2.029   0.576  1.00  0.00     0.138 A 
HETATM    4  C4  UNL     1      -3.348  -1.252   0.236  1.00  0.00     0.089 A 
HETATM    5  C5  UNL     1      -3.506   0.055  -0.293  1.00  0.00     0.103 A 
HETATM    6  C6  UNL     1      -4.807   0.584  -0.484  1.00  0.00     0.030 A 
HETATM    7  O1  UNL     1      -2.420   0.791  -0.613  1.00  0.00    -0.305 OA
HETATM    8  C12 UNL     1      -1.151   0.363  -0.463  1.00  0.00     0.125 A 
HETATM    9  C13 UNL     1      -0.867  -0.867   0.031  1.00  0.00     0.158 A 
HETATM   10  C14 UNL     1      -1.969  -1.779   0.424  1.00  0.00     0.224 A 
HETATM   11  O2  UNL     1      -1.654  -2.865   0.858  1.00  0.00    -0.284 OA
HETATM   12  O12 UNL     1      -4.350  -3.266   1.080  1.00  0.00    -0.190 OA
HETATM   13  O13 UNL     1      -7.178   0.301  -0.320  1.00  0.00    -0.190 OA
ENDROOT
BRANCH   9  14
HETATM   14  O3  UNL     1       0.394  -1.279   0.176  1.00  0.00    -0.298 OA
BRANCH  14  15
HETATM   15  C15 UNL     1       1.029  -0.693   1.305  1.00  0.00     0.271 C 
HETATM   16  C16 UNL     1       2.355  -1.424   1.604  1.00  0.00     0.207 C 
HETATM   17  C22 UNL     1       2.998  -0.902   2.906  1.00  0.00     0.217 C 
HETATM   18  O9  UNL     1       4.105  -1.717   3.258  1.00  0.00    -0.218 OA
HETATM   19  C23 UNL     1       1.955  -0.914   4.047  1.00  0.00     0.212 C 
HETATM   20  O10 UNL     1       2.480  -0.254   5.186  1.00  0.00    -0.218 OA
HETATM   21  C24 UNL     1       0.648  -0.207   3.621  1.00  0.00     0.151 C 
HETATM   22  O11 UNL     1       0.158  -0.797   2.424  1.00  0.00    -0.329 OA
HETATM   23  C25 UNL     1      -0.467  -0.332   4.664  1.00  0.00     0.035 C 
BRANCH  16  24
HETATM   24  O4  UNL     1       3.236  -1.221   0.516  1.00  0.00    -0.324 OA
BRANCH  24  25
HETATM   25  C17 UNL     1       3.074  -2.174  -0.518  1.00  0.00     0.270 C 
HETATM   26  C18 UNL     1       4.164  -3.273  -0.418  1.00  0.00     0.241 C 
HETATM   27  O5  UNL     1       3.982  -4.010   0.781  1.00  0.00    -0.215 OA
HETATM   28  C19 UNL     1       4.096  -4.236  -1.625  1.00  0.00     0.220 C 
HETATM   29  O6  UNL     1       5.217  -5.105  -1.615  1.00  0.00    -0.218 OA
HETATM   30  C20 UNL     1       4.076  -3.426  -2.939  1.00  0.00     0.215 C 
HETATM   31  O7  UNL     1       3.818  -4.277  -4.041  1.00  0.00    -0.218 OA
HETATM   32  C21 UNL     1       2.986  -2.336  -2.906  1.00  0.00     0.181 C 
HETATM   33  O8  UNL     1       3.176  -1.506  -1.768  1.00  0.00    -0.326 OA
ENDBRANCH  24  25
ENDBRANCH  16  24
ENDBRANCH  14  15
ENDBRANCH   9  14
BRANCH   8  34
HETATM   34  C26 UNL     1      -0.031   1.274  -0.853  1.00  0.00     0.025 A 
HETATM   35  C27 UNL     1       1.025   0.791  -1.646  1.00  0.00     0.002 A 
HETATM   36  C28 UNL     1       2.078   1.649  -2.014  1.00  0.00    -0.004 A 
HETATM   37  C29 UNL     1       2.076   2.990  -1.588  1.00  0.00    -0.022 A 
HETATM   38  C30 UNL     1       1.019   3.471  -0.795  1.00  0.00    -0.004 A 
HETATM   39  C32 UNL     1       3.187   3.895  -1.977  1.00  0.00     0.031 C 
HETATM   40  C31 UNL     1      -0.033   2.615  -0.428  1.00  0.00     0.002 A 
ENDBRANCH   8  34
BRANCH   6  41
HETATM   41  C7  UNL     1      -4.977   1.940  -1.035  1.00  0.00     0.056 C 
BRANCH  41  42
HETATM   42  C8  UNL     1      -4.086   2.945  -0.353  1.00  0.00    -0.030 C 
HETATM   43  C9  UNL     1      -3.967   4.168  -0.896  1.00  0.00    -0.048 C 
HETATM   44  C10 UNL     1      -3.090   5.270  -0.369  1.00  0.00     0.026 C 
HETATM   45  C11 UNL     1      -4.764   4.485  -2.135  1.00  0.00     0.026 C 
ENDBRANCH  41  42
ENDBRANCH   6  41
TORSDOF 7
