REMARK  0 active torsions:
REMARK  status: ('A' for Active; 'I' for Inactive)
ROOT
HETATM    1  C1  UNL     1       2.381  -0.283  -0.053  1.00  0.00     0.055 A 
HETATM    2  C2  UNL     1       1.238  -1.117  -0.027  1.00  0.00     0.138 A 
HETATM    3  C3  UNL     1      -0.055  -0.531   0.000  1.00  0.00     0.089 A 
HETATM    4  C4  UNL     1      -0.201   0.881   0.004  1.00  0.00     0.107 A 
HETATM    5  C5  UNL     1       0.949   1.707  -0.025  1.00  0.00     0.052 A 
HETATM    6  C6  UNL     1       2.238   1.125  -0.053  1.00  0.00     0.135 A 
HETATM    7  O1  UNL     1       3.324   1.908  -0.080  1.00  0.00    -0.190 OA
HETATM    8  O2  UNL     1      -1.430   1.439   0.033  1.00  0.00    -0.303 OA
HETATM    9  C7  UNL     1      -2.566   0.713   0.061  1.00  0.00     0.153 A 
HETATM   10  C8  UNL     1      -2.566  -0.639   0.059  1.00  0.00     0.194 A 
HETATM   11  C9  UNL     1      -1.283  -1.375   0.025  1.00  0.00     0.227 A 
HETATM   12  O3  UNL     1      -1.340  -2.584   0.024  1.00  0.00    -0.284 OA
HETATM   13  O4  UNL     1      -3.721  -1.301   0.088  1.00  0.00    -0.185 OA
HETATM   14  O5  UNL     1       1.395  -2.449  -0.027  1.00  0.00    -0.190 OA
ENDROOT
TORSDOF 0
