REMARK  0 active torsions:
REMARK  status: ('A' for Active; 'I' for Inactive)
ROOT
HETATM    1  C1  UNL     1       5.541  -0.348  -1.098  1.00  0.00     0.152 C 
HETATM    2  C2  UNL     1       5.221  -1.680  -0.385  1.00  0.00     0.033 C 
HETATM    3  C3  UNL     1       3.715  -1.875  -0.211  1.00  0.00     0.003 C 
HETATM    4  C4  UNL     1       3.064  -0.787   0.688  1.00  0.00     0.001 C 
HETATM    5  C5  UNL     1       3.910   0.527   0.658  1.00  0.00     0.002 C 
HETATM    6  C6  UNL     1       4.568   0.824  -0.723  1.00  0.00     0.028 C 
HETATM    7  C7  UNL     1       3.508   0.945  -1.826  1.00  0.00     0.003 C 
HETATM    8  C8  UNL     1       5.295   2.182  -0.691  1.00  0.00     0.003 C 
HETATM    9  C9  UNL     1       3.150   1.701   1.307  1.00  0.00     0.000 C 
HETATM   10  C10 UNL     1       1.756   1.914   0.721  1.00  0.00     0.000 C 
HETATM   11  C11 UNL     1       0.863   0.654   0.844  1.00  0.00     0.004 C 
HETATM   12  C12 UNL     1       0.637   0.367   2.338  1.00  0.00     0.000 C 
HETATM   13  C13 UNL     1      -0.514   0.879   0.121  1.00  0.00     0.015 C 
HETATM   14  C14 UNL     1      -0.293   1.408  -1.305  1.00  0.00     0.004 C 
HETATM   15  C15 UNL     1      -1.354   1.932   0.900  1.00  0.00     0.004 C 
HETATM   16  C16 UNL     1      -2.809   2.053   0.436  1.00  0.00     0.003 C 
HETATM   17  C17 UNL     1      -3.541   0.695   0.475  1.00  0.00     0.032 C 
HETATM   18  C18 UNL     1      -3.527   0.135   1.910  1.00  0.00     0.003 C 
HETATM   19  C19 UNL     1      -5.004   0.869  -0.014  1.00  0.00     0.152 C 
HETATM   20  C20 UNL     1      -5.740  -0.479  -0.158  1.00  0.00     0.033 C 
HETATM   21  C21 UNL     1      -5.006  -1.432  -1.113  1.00  0.00     0.003 C 
HETATM   22  C22 UNL     1      -5.711  -2.791  -1.127  1.00  0.00     0.000 C 
HETATM   23  C23 UNL     1      -5.025  -0.871  -2.541  1.00  0.00     0.000 C 
HETATM   24  C24 UNL     1      -3.553  -1.613  -0.635  1.00  0.00     0.004 C 
HETATM   25  C25 UNL     1      -2.783  -0.277  -0.465  1.00  0.00     0.020 C 
HETATM   26  C26 UNL     1      -1.309  -0.414  -0.076  1.00  0.00    -0.049 C 
HETATM   27  C27 UNL     1      -0.730  -1.633   0.059  1.00  0.00    -0.035 C 
HETATM   28  C28 UNL     1       0.729  -1.828   0.389  1.00  0.00     0.025 C 
HETATM   29  C29 UNL     1       1.590  -0.561   0.213  1.00  0.00     0.005 C 
HETATM   30  O1  UNL     1      -5.740   1.686   0.879  1.00  0.00    -0.224 OA
HETATM   31  C30 UNL     1       3.082  -1.299   2.141  1.00  0.00     0.000 C 
HETATM   32  O2  UNL     1       6.893  -0.035  -0.801  1.00  0.00    -0.224 OA
ENDROOT
TORSDOF 0
