REMARK  1 active torsions:
REMARK  status: ('A' for Active; 'I' for Inactive)
REMARK    1  A    between atoms: C21_21  and  C24_24 
ROOT
HETATM    1  C1  UNL     1       4.613  -1.682   0.754  1.00  0.00     0.198 C 
HETATM    2  C2  UNL     1       4.531  -2.291  -0.588  1.00  0.00     0.158 C 
HETATM    3  C3  UNL     1       3.920  -1.654  -1.613  1.00  0.00    -0.016 C 
HETATM    4  C4  UNL     1       3.291  -0.273  -1.447  1.00  0.00     0.018 C 
HETATM    5  C5  UNL     1       2.799  -0.080   0.014  1.00  0.00     0.011 C 
HETATM    6  C6  UNL     1       3.965  -0.340   0.998  1.00  0.00     0.072 C 
HETATM    7  C7  UNL     1       2.039   1.268   0.281  1.00  0.00     0.001 C 
HETATM    8  C8  UNL     1       1.012   1.682  -0.846  1.00  0.00     0.000 C 
HETATM    9  C9  UNL     1       1.436   1.270  -2.279  1.00  0.00     0.000 C 
HETATM   10  C10 UNL     1       2.107  -0.096  -2.420  1.00  0.00     0.004 C 
HETATM   11  C11 UNL     1      -0.504   1.504  -0.447  1.00  0.00     0.000 C 
HETATM   12  C12 UNL     1      -0.729   0.180   0.346  1.00  0.00     0.000 C 
HETATM   13  C13 UNL     1       0.035   0.301   1.695  1.00  0.00     0.000 C 
HETATM   14  C14 UNL     1       1.303   1.193   1.652  1.00  0.00     0.000 C 
HETATM   15  C15 UNL     1      -2.246  -0.223   0.476  1.00  0.00     0.001 C 
HETATM   16  C16 UNL     1      -3.277   0.904   0.230  1.00  0.00     0.000 C 
HETATM   17  C17 UNL     1      -2.981   1.611  -1.129  1.00  0.00     0.000 C 
HETATM   18  C18 UNL     1      -1.508   1.537  -1.613  1.00  0.00     0.000 C 
HETATM   19  C19 UNL     1      -4.695   0.285   0.189  1.00  0.00     0.001 C 
HETATM   20  C20 UNL     1      -5.024  -0.539   1.447  1.00  0.00     0.010 C 
HETATM   21  C21 UNL     1      -3.994  -1.656   1.717  1.00  0.00     0.078 C 
HETATM   22  C22 UNL     1      -2.570  -1.059   1.734  1.00  0.00     0.010 C 
HETATM   23  C23 UNL     1      -4.291  -2.322   3.062  1.00  0.00     0.011 C 
HETATM   24  C25 UNL     1      -3.264   1.910   1.394  1.00  0.00     0.000 C 
HETATM   25  C26 UNL     1      -0.131  -1.000  -0.428  1.00  0.00     0.000 C 
HETATM   26  C27 UNL     1      -0.846   2.738   0.414  1.00  0.00     0.000 C 
HETATM   27  C28 UNL     1       3.090   2.387   0.389  1.00  0.00     0.000 C 
HETATM   28  C29 UNL     1       4.391   0.744  -1.795  1.00  0.00     0.004 C 
HETATM   29  C30 UNL     1       3.859  -2.324  -2.965  1.00  0.00     0.029 C 
HETATM   30  O3  UNL     1       5.074  -3.492  -0.781  1.00  0.00    -0.188 OA
HETATM   31  O4  UNL     1       5.188  -2.260   1.648  1.00  0.00    -0.289 OA
ENDROOT
BRANCH  21  32
HETATM   32  C24 UNL     1      -4.100  -2.729   0.658  1.00  0.00     0.184 C 
HETATM   33  O1  UNL     1      -5.067  -2.799  -0.063  1.00  0.00    -0.647 OA
HETATM   34  O2  UNL     1      -3.067  -3.565   0.596  1.00  0.00    -0.647 OA
ENDBRANCH  21  32
TORSDOF 1
