REMARK  1 active torsions:
REMARK  status: ('A' for Active; 'I' for Inactive)
REMARK    1  A    between atoms: C6_6  and  C7_7 
ROOT
HETATM    1  C1  UNL     1      -1.338   0.209   0.000  1.00  0.00     0.005 A 
HETATM    2  C2  UNL     1      -0.678   1.449   0.000  1.00  0.00     0.028 A 
HETATM    3  C3  UNL     1       0.727   1.506   0.000  1.00  0.00     0.131 A 
HETATM    4  C4  UNL     1       1.471   0.311   0.000  1.00  0.00     0.028 A 
HETATM    5  C5  UNL     1       0.813  -0.932   0.000  1.00  0.00     0.005 A 
HETATM    6  C6  UNL     1      -0.592  -0.984   0.000  1.00  0.00     0.042 A 
HETATM    7  O2  UNL     1       1.344   2.670   0.000  1.00  0.00    -0.190 OA
ENDROOT
BRANCH   6   8
HETATM    8  C7  UNL     1      -1.291  -2.303   0.000  1.00  0.00     0.234 C 
HETATM    9  O1  UNL     1      -0.666  -3.338   0.000  1.00  0.00    -0.283 OA
ENDBRANCH   6   8
TORSDOF 1
