REMARK  1 active torsions:
REMARK  status: ('A' for Active; 'I' for Inactive)
REMARK    1  A    between atoms: C7_7  and  C9_11 
ROOT
HETATM    1  C1  UNL     1      -2.123  -1.182  -0.264  1.00  0.00     0.038 C 
HETATM    2  C2  UNL     1      -2.662   0.117  -0.916  1.00  0.00     0.170 C 
HETATM    3  C3  UNL     1      -1.682   1.279  -0.940  1.00  0.00    -0.013 C 
HETATM    4  C4  UNL     1      -0.404   1.102  -0.543  1.00  0.00     0.037 C 
HETATM    5  C5  UNL     1       0.111  -0.174   0.045  1.00  0.00     0.053 C 
HETATM    6  C6  UNL     1      -0.619  -1.394  -0.528  1.00  0.00     0.010 C 
HETATM    7  C7  UNL     1       1.590  -0.016  -0.362  1.00  0.00     0.152 C 
HETATM    8  O1  UNL     1       1.861   1.395  -0.393  1.00  0.00    -0.296 OA
HETATM    9  C8  UNL     1       0.715   2.037  -0.625  1.00  0.00     0.291 C 
HETATM   10  O2  UNL     1       0.603   3.217  -0.865  1.00  0.00    -0.260 OA
HETATM   11  C13 UNL     1      -0.004  -0.103   1.572  1.00  0.00     0.007 C 
HETATM   12  C14 UNL     1      -2.164   2.615  -1.449  1.00  0.00     0.029 C 
HETATM   13  O4  UNL     1      -3.858   0.490  -0.262  1.00  0.00    -0.219 OA
ENDROOT
BRANCH   7  14
HETATM   14  C9  UNL     1       2.576  -0.730   0.543  1.00  0.00     0.032 A 
HETATM   15  C10 UNL     1       3.477  -0.146   1.439  1.00  0.00     0.121 A 
HETATM   16  O3  UNL     1       4.223  -1.078   2.101  1.00  0.00    -0.303 OA
HETATM   17  C11 UNL     1       3.779  -2.271   1.609  1.00  0.00     0.122 A 
HETATM   18  C12 UNL     1       2.771  -2.105   0.654  1.00  0.00     0.027 A 
ENDBRANCH   7  14
TORSDOF 1
