REMARK  6 active torsions:
REMARK  status: ('A' for Active; 'I' for Inactive)
REMARK    1  A    between atoms: C2_2  and  O7_26 
REMARK    2  A    between atoms: C3_3  and  O6_24 
REMARK    3  A    between atoms: C6_6  and  O1_7 
REMARK    4  A    between atoms: C8_10  and  C11_14 
REMARK    5  A    between atoms: C12_15  and  O5_22 
REMARK    6  A    between atoms: C15_18  and  O4_20 
ROOT
HETATM    1  C1  UNL     1      -3.473  -0.461   0.361  1.00  0.00     0.052 A 
HETATM    2  C2  UNL     1      -3.320  -1.770   0.879  1.00  0.00     0.118 A 
HETATM    3  C3  UNL     1      -2.027  -2.307   1.086  1.00  0.00     0.121 A 
HETATM    4  C4  UNL     1      -0.887  -1.524   0.771  1.00  0.00     0.088 A 
HETATM    5  C5  UNL     1      -1.037  -0.209   0.254  1.00  0.00     0.127 A 
HETATM    6  C6  UNL     1      -2.334   0.318   0.049  1.00  0.00     0.119 A 
HETATM    7  O2  UNL     1       0.049   0.537  -0.045  1.00  0.00    -0.305 OA
HETATM    8  C8  UNL     1       1.316   0.107   0.121  1.00  0.00     0.105 A 
HETATM    9  C9  UNL     1       1.584  -1.127   0.607  1.00  0.00     0.067 A 
HETATM   10  C10 UNL     1       0.492  -2.053   0.975  1.00  0.00     0.202 A 
HETATM   11  O3  UNL     1       0.809  -3.141   1.400  1.00  0.00    -0.286 OA
ENDROOT
BRANCH   8  12
HETATM   12  C11 UNL     1       2.459   1.004  -0.232  1.00  0.00     0.047 A 
HETATM   13  C12 UNL     1       2.283   2.047  -1.166  1.00  0.00     0.096 A 
HETATM   14  C13 UNL     1       3.367   2.881  -1.488  1.00  0.00     0.026 A 
HETATM   15  C14 UNL     1       4.621   2.678  -0.885  1.00  0.00     0.026 A 
HETATM   16  C15 UNL     1       4.797   1.641   0.045  1.00  0.00     0.094 A 
HETATM   17  C16 UNL     1       3.715   0.805   0.369  1.00  0.00     0.028 A 
BRANCH  13  18
HETATM   18  O5  UNL     1       1.113   2.246  -1.738  1.00  0.00    -0.328 OA
HETATM   19  C18 UNL     1       1.000   3.312  -2.670  1.00  0.00     0.181 C 
ENDBRANCH  13  18
BRANCH  16  20
HETATM   20  O4  UNL     1       5.973   1.451   0.609  1.00  0.00    -0.328 OA
HETATM   21  C17 UNL     1       6.289   0.144   1.066  1.00  0.00     0.181 C 
ENDBRANCH  16  20
ENDBRANCH   8  12
BRANCH   6  22
HETATM   22  O1  UNL     1      -2.486   1.557  -0.441  1.00  0.00    -0.326 OA
HETATM   23  C7  UNL     1      -3.809   2.041  -0.629  1.00  0.00     0.181 C 
ENDBRANCH   6  22
BRANCH   3  24
HETATM   24  O6  UNL     1      -1.897  -3.547   1.576  1.00  0.00    -0.326 OA
HETATM   25  C19 UNL     1      -2.504  -4.613   0.863  1.00  0.00     0.181 C 
ENDBRANCH   3  24
BRANCH   2  26
HETATM   26  O7  UNL     1      -4.406  -2.498   1.172  1.00  0.00    -0.326 OA
HETATM   27  C20 UNL     1      -5.682  -1.918   0.941  1.00  0.00     0.181 C 
ENDBRANCH   2  26
TORSDOF 6
