REMARK  2 active torsions:
REMARK  status: ('A' for Active; 'I' for Inactive)
REMARK    1  A    between atoms: C3_4  and  C5_6 
REMARK    2  A    between atoms: C5_6  and  O2_8 
ROOT
HETATM    1  C1  UNL     1      -2.020  -0.010   0.424  1.00  0.00     0.234 C 
HETATM    2  C2  UNL     1      -1.455  -1.299   0.955  1.00  0.00     0.282 C 
HETATM    3  N1  UNL     1      -0.080  -1.131   1.131  1.00  0.00    -0.228 NA
HETATM    4  C3  UNL     1       0.334   0.213   0.740  1.00  0.00     0.195 C 
HETATM    5  C4  UNL     1      -0.949   1.055   0.711  1.00  0.00     0.077 C 
HETATM    6  O3  UNL     1      -2.053  -2.322   1.201  1.00  0.00    -0.268 OA
HETATM    7  O4  UNL     1      -3.236   0.328   1.059  1.00  0.00    -0.213 OA
ENDROOT
BRANCH   4   8
HETATM    8  C5  UNL     1       1.035   0.179  -0.594  1.00  0.00     0.295 C 
HETATM    9  O1  UNL     1       0.410   0.078  -1.623  1.00  0.00    -0.262 OA
BRANCH   8  10
HETATM   10  O2  UNL     1       2.361   0.271  -0.539  1.00  0.00    -0.298 OA
HETATM   11  C6  UNL     1       2.959   0.228  -1.826  1.00  0.00     0.185 C 
ENDBRANCH   8  10
ENDBRANCH   4   8
TORSDOF 2
