REMARK  7 active torsions:
REMARK  status: ('A' for Active; 'I' for Inactive)
REMARK    1  A    between atoms: C4_4  and  O4_13 
REMARK    2  A    between atoms: O4_13  and  C10_14 
REMARK    3  A    between atoms: C10_14  and  C11_15 
REMARK    4  A    between atoms: C11_15  and  C12_16 
REMARK    5  A    between atoms: C12_16  and  C13_17 
REMARK    6  A    between atoms: C14_18  and  C15_19 
REMARK    7  A    between atoms: C16_20  and  C17_21 
ROOT
HETATM    1  C1  UNL     1      -2.721   1.975   1.764  1.00  0.00     0.180 C 
HETATM    2  C2  UNL     1      -1.430   2.820   1.949  1.00  0.00     0.217 C 
HETATM    3  C3  UNL     1      -0.287   2.014   2.617  1.00  0.00     0.241 C 
HETATM    4  C4  UNL     1      -0.203   0.518   2.162  1.00  0.00     0.270 C 
HETATM    5  O1  UNL     1      -1.461  -0.055   1.791  1.00  0.00    -0.326 OA
HETATM    6  C5  UNL     1      -2.602   0.561   2.369  1.00  0.00     0.177 C 
HETATM    7  C6  UNL     1      -3.885  -0.230   2.074  1.00  0.00     0.177 C 
HETATM    8  O2  UNL     1      -4.961   0.494   2.658  1.00  0.00    -0.332 OA
HETATM    9  C7  UNL     1      -5.072   1.861   2.250  1.00  0.00     0.188 C 
HETATM   10  O3  UNL     1      -3.848   2.590   2.385  1.00  0.00    -0.332 OA
HETATM   11  C8  UNL     1      -5.557   1.924   0.795  1.00  0.00     0.061 C 
HETATM   12  C9  UNL     1      -6.086   2.520   3.188  1.00  0.00     0.061 C 
HETATM   13  O5  UNL     1      -0.484   2.051   4.020  1.00  0.00    -0.215 OA
HETATM   14  O6  UNL     1      -0.975   3.248   0.680  1.00  0.00    -0.218 OA
ENDROOT
BRANCH   4  15
HETATM   15  O4  UNL     1       0.666   0.412   1.055  1.00  0.00    -0.329 OA
BRANCH  15  16
HETATM   16  C10 UNL     1       1.002  -0.918   0.736  1.00  0.00     0.146 C 
BRANCH  16  17
HETATM   17  C11 UNL     1       1.998  -0.896  -0.424  1.00  0.00     0.046 C 
BRANCH  17  18
HETATM   18  C12 UNL     1       2.434  -2.297  -0.853  1.00  0.00     0.080 C 
BRANCH  18  19
HETATM   19  C13 UNL     1       3.381  -2.221  -1.961  1.00  0.00    -0.078 C 
HETATM   20  C14 UNL     1       4.154  -2.158  -2.865  1.00  0.00    -0.014 C 
BRANCH  20  21
HETATM   21  C15 UNL     1       5.049  -2.084  -3.912  1.00  0.00    -0.009 C 
HETATM   22  C16 UNL     1       5.822  -2.022  -4.814  1.00  0.00    -0.051 C 
BRANCH  22  23
HETATM   23  C17 UNL     1       6.754  -1.945  -5.906  1.00  0.00     0.045 C 
HETATM   24  C18 UNL     1       7.270  -3.063  -6.445  1.00  0.00    -0.017 C 
HETATM   25  C19 UNL     1       6.850  -4.393  -5.881  1.00  0.00     0.031 C 
ENDBRANCH  22  23
ENDBRANCH  20  21
ENDBRANCH  18  19
ENDBRANCH  17  18
ENDBRANCH  16  17
ENDBRANCH  15  16
ENDBRANCH   4  15
TORSDOF 7
