REMARK  5 active torsions:
REMARK  status: ('A' for Active; 'I' for Inactive)
REMARK    1  A    between atoms: C15_16  and  C18_19 
REMARK    2  A    between atoms: C18_19  and  C19_20 
REMARK    3  A    between atoms: C19_20  and  C20_21 
REMARK    4  A    between atoms: C20_21  and  C21_22 
REMARK    5  A    between atoms: C21_22  and  C22_23 
ROOT
HETATM    1  C1  UNL     1      -6.852  -0.686  -0.481  1.00  0.00     0.033 C 
HETATM    2  C2  UNL     1      -7.330  -0.998   0.945  1.00  0.00     0.155 C 
HETATM    3  C3  UNL     1      -6.410  -0.357   2.006  1.00  0.00     0.066 C 
HETATM    4  C4  UNL     1      -4.922  -0.744   1.809  1.00  0.00     0.161 C 
HETATM    5  C5  UNL     1      -4.428  -0.428   0.359  1.00  0.00     0.032 C 
HETATM    6  C6  UNL     1      -5.377  -1.078  -0.682  1.00  0.00     0.005 C 
HETATM    7  C7  UNL     1      -2.967  -0.941   0.164  1.00  0.00     0.020 C 
HETATM    8  C8  UNL     1      -2.053  -0.701   1.363  1.00  0.00    -0.046 C 
HETATM    9  C9  UNL     1      -2.514  -0.324   2.578  1.00  0.00     0.000 C 
HETATM   10  C10 UNL     1      -3.981  -0.113   2.873  1.00  0.00     0.201 C 
HETATM   11  O1  UNL     1      -4.203   1.277   3.002  1.00  0.00    -0.216 OA
HETATM   12  C11 UNL     1      -0.574  -0.945   1.121  1.00  0.00     0.018 C 
HETATM   13  C12 UNL     1      -0.059  -0.248  -0.141  1.00  0.00     0.003 C 
HETATM   14  C13 UNL     1      -0.842  -0.814  -1.330  1.00  0.00     0.001 C 
HETATM   15  C14 UNL     1      -2.332  -0.455  -1.170  1.00  0.00     0.004 C 
HETATM   16  C15 UNL     1       1.416  -0.666  -0.078  1.00  0.00     0.000 C 
HETATM   17  C16 UNL     1       1.777  -0.502   1.404  1.00  0.00     0.000 C 
HETATM   18  C17 UNL     1       0.447  -0.492   2.166  1.00  0.00     0.004 C 
HETATM   19  C27 UNL     1      -0.184   1.279  -0.045  1.00  0.00     0.000 C 
HETATM   20  C28 UNL     1      -4.471   1.094   0.129  1.00  0.00     0.003 C 
HETATM   21  O2  UNL     1      -4.852  -2.150   2.016  1.00  0.00    -0.223 OA
HETATM   22  O3  UNL     1      -8.647  -0.512   1.113  1.00  0.00    -0.223 OA
ENDROOT
BRANCH  16  23
HETATM   23  C18 UNL     1       2.330   0.137  -1.002  1.00  0.00     0.000 C 
HETATM   24  C26 UNL     1       1.914  -0.090  -2.455  1.00  0.00     0.000 C 
BRANCH  23  25
HETATM   25  C19 UNL     1       3.787  -0.254  -0.738  1.00  0.00     0.000 C 
BRANCH  25  26
HETATM   26  C20 UNL     1       4.781   0.742  -1.336  1.00  0.00     0.000 C 
BRANCH  26  27
HETATM   27  C21 UNL     1       6.236   0.342  -1.094  1.00  0.00     0.000 C 
HETATM   28  C25 UNL     1       6.658   0.512   0.365  1.00  0.00     0.000 C 
BRANCH  27  29
HETATM   29  C22 UNL     1       7.203   1.012  -2.070  1.00  0.00     0.000 C 
HETATM   30  C23 UNL     1       7.299   2.523  -1.861  1.00  0.00     0.000 C 
HETATM   31  C24 UNL     1       8.572   0.334  -2.102  1.00  0.00     0.000 C 
ENDBRANCH  27  29
ENDBRANCH  26  27
ENDBRANCH  25  26
ENDBRANCH  23  25
ENDBRANCH  16  23
TORSDOF 5
