REMARK  8 active torsions:
REMARK  status: ('A' for Active; 'I' for Inactive)
REMARK    1  A    between atoms: C15_16  and  C24_31 
REMARK    2  A    between atoms: C16_17  and  O2_19 
REMARK    3  A    between atoms: O2_19  and  C18_20 
REMARK    4  A    between atoms: C22_24  and  C23_26 
REMARK    5  A    between atoms: C24_31  and  C25_32 
REMARK    6  A    between atoms: C25_32  and  C26_33 
REMARK    7  A    between atoms: C26_33  and  C27_34 
REMARK    8  A    between atoms: C27_34  and  C28_35 
ROOT
HETATM    1  C1  UNL     1       7.906  -0.680  -0.785  1.00  0.00     0.034 C 
HETATM    2  C2  UNL     1       8.281   0.615  -0.053  1.00  0.00     0.156 C 
HETATM    3  C3  UNL     1       7.279   0.932   1.068  1.00  0.00     0.055 C 
HETATM    4  C4  UNL     1       5.848   0.932   0.563  1.00  0.00    -0.046 C 
HETATM    5  C5  UNL     1       5.402  -0.248  -0.301  1.00  0.00     0.015 C 
HETATM    6  C6  UNL     1       6.486  -0.578  -1.359  1.00  0.00     0.006 C 
HETATM    7  C7  UNL     1       4.047   0.023  -1.018  1.00  0.00     0.011 C 
HETATM    8  C8  UNL     1       3.037   0.676  -0.043  1.00  0.00     0.005 C 
HETATM    9  C9  UNL     1       3.586   2.025   0.443  1.00  0.00     0.025 C 
HETATM   10  C10 UNL     1       5.023   1.949   0.897  1.00  0.00    -0.035 C 
HETATM   11  C11 UNL     1       1.701   0.904  -0.768  1.00  0.00     0.009 C 
HETATM   12  C12 UNL     1       1.107  -0.414  -1.275  1.00  0.00     0.054 C 
HETATM   13  C13 UNL     1       2.070  -1.039  -2.254  1.00  0.00     0.150 C 
HETATM   14  C14 UNL     1       3.477  -1.230  -1.734  1.00  0.00     0.065 C 
HETATM   15  O1  UNL     1       1.746  -1.357  -3.375  1.00  0.00    -0.296 OA
HETATM   16  C15 UNL     1      -0.213   0.121  -1.852  1.00  0.00     0.034 C 
HETATM   17  C16 UNL     1      -0.689   1.135  -0.787  1.00  0.00     0.118 C 
HETATM   18  C17 UNL     1       0.553   1.496   0.045  1.00  0.00     0.030 C 
HETATM   19  C32 UNL     1       0.822  -1.402  -0.137  1.00  0.00     0.007 C 
HETATM   20  C33 UNL     1       5.260  -1.434   0.666  1.00  0.00     0.004 C 
HETATM   21  O9  UNL     1       9.574   0.481   0.502  1.00  0.00    -0.223 OA
ENDROOT
BRANCH  17  22
HETATM   22  O2  UNL     1      -1.684   0.584   0.059  1.00  0.00    -0.332 OA
BRANCH  22  23
HETATM   23  C18 UNL     1      -2.440   1.565   0.742  1.00  0.00     0.270 C 
HETATM   24  C19 UNL     1      -2.879   1.039   2.133  1.00  0.00     0.241 C 
HETATM   25  C20 UNL     1      -3.832   2.037   2.828  1.00  0.00     0.220 C 
HETATM   26  O7  UNL     1      -1.731   0.844   2.945  1.00  0.00    -0.215 OA
HETATM   27  C21 UNL     1      -4.975   2.432   1.863  1.00  0.00     0.215 C 
HETATM   28  O6  UNL     1      -4.375   1.447   3.998  1.00  0.00    -0.218 OA
HETATM   29  C22 UNL     1      -4.420   2.891   0.496  1.00  0.00     0.184 C 
HETATM   30  O5  UNL     1      -5.733   3.488   2.424  1.00  0.00    -0.218 OA
HETATM   31  O3  UNL     1      -3.584   1.875  -0.039  1.00  0.00    -0.326 OA
BRANCH  29  32
HETATM   32  C23 UNL     1      -5.522   3.145  -0.539  1.00  0.00     0.214 C 
HETATM   33  O4  UNL     1      -4.914   3.586  -1.732  1.00  0.00    -0.218 OA
ENDBRANCH  29  32
ENDBRANCH  22  23
ENDBRANCH  17  22
BRANCH  16  34
HETATM   34  C24 UNL     1      -1.197  -0.980  -2.250  1.00  0.00     0.003 C 
HETATM   35  C31 UNL     1      -2.357  -0.369  -3.037  1.00  0.00     0.000 C 
BRANCH  34  36
HETATM   36  C25 UNL     1      -1.664  -1.725  -0.996  1.00  0.00     0.003 C 
BRANCH  36  37
HETATM   37  C26 UNL     1      -3.186  -1.842  -0.912  1.00  0.00     0.033 C 
BRANCH  37  38
HETATM   38  C27 UNL     1      -3.639  -2.957   0.029  1.00  0.00     0.152 C 
HETATM   39  O8  UNL     1      -2.957  -2.807   1.254  1.00  0.00    -0.224 OA
BRANCH  38  40
HETATM   40  C28 UNL     1      -5.141  -2.918   0.311  1.00  0.00     0.030 C 
HETATM   41  C29 UNL     1      -5.758  -4.313   0.428  1.00  0.00     0.003 C 
HETATM   42  C30 UNL     1      -5.496  -2.016   1.494  1.00  0.00     0.003 C 
ENDBRANCH  38  40
ENDBRANCH  37  38
ENDBRANCH  36  37
ENDBRANCH  34  36
ENDBRANCH  16  34
TORSDOF 8
