REMARK  5 active torsions:
REMARK  status: ('A' for Active; 'I' for Inactive)
REMARK    1  A    between atoms: C2_2  and  O1_3 
REMARK    2  A    between atoms: O1_3  and  C3_4 
REMARK    3  A    between atoms: C3_4  and  C4_5 
REMARK    4  A    between atoms: C7_9  and  C8_10 
REMARK    5  A    between atoms: C8_10  and  C9_11 
ROOT
HETATM    1  C1  UNL     1      -1.445   1.914  -0.433  1.00  0.00     0.153 A 
HETATM    2  C2  UNL     1      -0.846   0.650  -0.598  1.00  0.00     0.119 A 
HETATM    3  C6  UNL     1      -0.281  -0.007   0.509  1.00  0.00     0.022 A 
HETATM    4  C7  UNL     1      -0.312   0.593   1.780  1.00  0.00    -0.016 A 
HETATM    5  C11 UNL     1      -0.910   1.854   1.945  1.00  0.00    -0.002 A 
HETATM    6  C12 UNL     1      -1.475   2.512   0.839  1.00  0.00     0.029 A 
HETATM    7  O3  UNL     1      -1.977   2.537  -1.465  1.00  0.00    -0.188 OA
ENDROOT
BRANCH   2   8
HETATM    8  O1  UNL     1      -0.813   0.082  -1.787  1.00  0.00    -0.321 OA
BRANCH   8   9
HETATM    9  C3  UNL     1      -0.198  -1.193  -1.900  1.00  0.00     0.213 C 
BRANCH   9  10
HETATM   10  C4  UNL     1      -0.268  -1.659  -3.329  1.00  0.00     0.181 C 
HETATM   11  O2  UNL     1      -0.790  -0.979  -4.181  1.00  0.00    -0.293 OA
HETATM   12  C5  UNL     1       0.333  -2.998  -3.667  1.00  0.00     0.075 C 
ENDBRANCH   9  10
ENDBRANCH   8   9
ENDBRANCH   2   8
BRANCH   4  13
HETATM   13  C8  UNL     1       0.287  -0.106   2.947  1.00  0.00     0.052 C 
BRANCH  13  14
HETATM   14  C9  UNL     1       1.790  -0.023   2.947  1.00  0.00    -0.021 C 
HETATM   15  C10 UNL     1       2.365   1.190   2.947  1.00  0.00    -0.005 C 
ENDBRANCH  13  14
ENDBRANCH   4  13
TORSDOF 5
