REMARK  2 active torsions:
REMARK  status: ('A' for Active; 'I' for Inactive)
REMARK    1  A    between atoms: C3_3  and  C13_15 
REMARK    2  A    between atoms: C10_10  and  C12_12 
ROOT
HETATM    1  C1  UNL     1      -1.877   1.705  -0.568  1.00  0.00     0.022 C 
HETATM    2  C2  UNL     1      -1.984   0.281  -1.137  1.00  0.00     0.005 C 
HETATM    3  C3  UNL     1      -1.043  -0.725  -0.439  1.00  0.00     0.005 C 
HETATM    4  C4  UNL     1       0.215  -0.051   0.164  1.00  0.00     0.026 C 
HETATM    5  C5  UNL     1       0.662   1.187  -0.646  1.00  0.00     0.023 C 
HETATM    6  C6  UNL     1      -0.457   2.217  -0.672  1.00  0.00    -0.044 C 
HETATM    7  C7  UNL     1      -0.213   3.535  -0.791  1.00  0.00    -0.009 C 
HETATM    8  C8  UNL     1       1.990   1.715  -0.078  1.00  0.00     0.009 C 
HETATM    9  C9  UNL     1       3.084   0.643  -0.172  1.00  0.00     0.033 C 
HETATM   10  C10 UNL     1       2.641  -0.738   0.272  1.00  0.00     0.038 C 
HETATM   11  C11 UNL     1       1.334  -1.049   0.404  1.00  0.00    -0.024 C 
ENDROOT
BRANCH   3  12
HETATM   12  C13 UNL     1      -1.793  -1.533   0.629  1.00  0.00     0.000 C 
HETATM   13  C14 UNL     1      -2.580  -0.647   1.596  1.00  0.00     0.000 C 
HETATM   14  C15 UNL     1      -2.643  -2.654   0.033  1.00  0.00     0.000 C 
ENDBRANCH   3  12
BRANCH  10  15
HETATM   15  C12 UNL     1       3.680  -1.742   0.551  1.00  0.00     0.206 C 
HETATM   16  O1  UNL     1       4.914  -1.416   0.180  1.00  0.00    -0.644 OA
HETATM   17  O2  UNL     1       3.391  -2.787   1.084  1.00  0.00    -0.644 OA
ENDBRANCH  10  15
TORSDOF 2
