REMARK  4 active torsions:
REMARK  status: ('A' for Active; 'I' for Inactive)
REMARK    1  A    between atoms: C1_1  and  O4_15 
REMARK    2  A    between atoms: C10_11  and  O3_13 
REMARK    3  A    between atoms: O4_15  and  C12_16 
REMARK    4  A    between atoms: C16_20  and  C17_22 
ROOT
HETATM    1  C1  UNL     1      -0.543   0.209   1.254  1.00  0.00     0.209 C 
HETATM    2  C2  UNL     1      -0.693   1.488   0.402  1.00  0.00     0.073 C 
HETATM    3  C3  UNL     1      -0.258   2.688   1.254  1.00  0.00     0.090 C 
HETATM    4  C4  UNL     1      -1.150   2.777   2.475  1.00  0.00     0.176 C 
HETATM    5  C5  UNL     1      -1.627   1.518   3.084  1.00  0.00     0.034 C 
HETATM    6  C6  UNL     1      -1.344   0.311   2.549  1.00  0.00     0.010 C 
HETATM    7  C7  UNL     1      -1.822  -0.947   3.234  1.00  0.00     0.031 C 
HETATM    8  O1  UNL     1      -1.471   3.848   2.939  1.00  0.00    -0.291 OA
HETATM    9  C8  UNL     1       1.172   2.449   1.699  1.00  0.00     0.019 C 
HETATM   10  C9  UNL     1       2.088   3.434   1.600  1.00  0.00    -0.004 C 
HETATM   11  C10 UNL     1       1.498   1.063   2.250  1.00  0.00     0.259 C 
HETATM   12  O2  UNL     1       0.848   0.025   1.516  1.00  0.00    -0.304 OA
ENDROOT
BRANCH   1  13
HETATM   13  O4  UNL     1      -0.998  -0.881   0.475  1.00  0.00    -0.305 OA
BRANCH  13  14
HETATM   14  C12 UNL     1      -0.320  -1.004  -0.760  1.00  0.00     0.272 C 
HETATM   15  C13 UNL     1      -0.098  -2.498  -1.109  1.00  0.00     0.241 C 
HETATM   16  C14 UNL     1       0.506  -2.652  -2.523  1.00  0.00     0.220 C 
HETATM   17  O9  UNL     1       0.779  -3.080  -0.156  1.00  0.00    -0.215 OA
HETATM   18  C15 UNL     1      -0.328  -1.844  -3.539  1.00  0.00     0.215 C 
HETATM   19  O8  UNL     1       0.522  -4.022  -2.895  1.00  0.00    -0.218 OA
HETATM   20  C16 UNL     1      -0.529  -0.385  -3.070  1.00  0.00     0.184 C 
HETATM   21  O7  UNL     1       0.326  -1.830  -4.797  1.00  0.00    -0.218 OA
HETATM   22  O5  UNL     1      -1.105  -0.385  -1.772  1.00  0.00    -0.326 OA
BRANCH  20  23
HETATM   23  C17 UNL     1      -1.475   0.406  -3.979  1.00  0.00     0.214 C 
HETATM   24  O6  UNL     1      -1.457   1.754  -3.566  1.00  0.00    -0.218 OA
ENDBRANCH  20  23
ENDBRANCH  13  14
ENDBRANCH   1  13
BRANCH  11  25
HETATM   25  O3  UNL     1       2.885   0.795   2.248  1.00  0.00    -0.325 OA
HETATM   26  C11 UNL     1       3.242  -0.287   3.080  1.00  0.00     0.177 C 
ENDBRANCH  11  25
TORSDOF 4
