REMARK  3 active torsions:
REMARK  status: ('A' for Active; 'I' for Inactive)
REMARK    1  A    between atoms: C11_11  and  C12_12 
REMARK    2  A    between atoms: C16_16  and  O1_18 
REMARK    3  A    between atoms: C19_21  and  O4_26 
ROOT
HETATM    1  C1  UNL     1      -3.346  -2.459   2.363  1.00  0.00     0.131 A 
HETATM    2  C2  UNL     1      -2.330  -3.289   1.859  1.00  0.00     0.027 A 
HETATM    3  C3  UNL     1      -1.250  -2.725   1.150  1.00  0.00    -0.002 A 
HETATM    4  C4  UNL     1      -1.156  -1.322   0.926  1.00  0.00    -0.018 A 
HETATM    5  C5  UNL     1      -2.195  -0.471   1.451  1.00  0.00    -0.023 A 
HETATM    6  C6  UNL     1      -3.273  -1.066   2.162  1.00  0.00     0.023 A 
HETATM    7  C7  UNL     1      -2.264   1.022   1.342  1.00  0.00     0.031 C 
HETATM    8  C8  UNL     1      -1.234   1.779   0.486  1.00  0.00     0.031 C 
HETATM    9  C9  UNL     1       0.158   1.565   0.935  1.00  0.00    -0.021 A 
HETATM   10  C10 UNL     1       0.774   0.289   0.775  1.00  0.00     0.004 A 
HETATM   11  C11 UNL     1       0.037  -0.852   0.144  1.00  0.00     0.068 C 
HETATM   12  C19 UNL     1       2.113   0.111   1.234  1.00  0.00     0.092 A 
HETATM   13  C20 UNL     1       2.817   1.180   1.834  1.00  0.00     0.051 A 
HETATM   14  C21 UNL     1       2.199   2.440   1.986  1.00  0.00     0.133 A 
HETATM   15  C22 UNL     1       0.875   2.631   1.539  1.00  0.00     0.023 A 
HETATM   16  O3  UNL     1       2.869   3.449   2.557  1.00  0.00    -0.190 OA
HETATM   17  O5  UNL     1      -4.381  -2.988   3.031  1.00  0.00    -0.190 OA
ENDROOT
BRANCH  11  18
HETATM   18  C12 UNL     1      -0.305  -0.609  -1.287  1.00  0.00    -0.012 A 
HETATM   19  C13 UNL     1      -1.492  -1.135  -1.826  1.00  0.00    -0.001 A 
HETATM   20  C14 UNL     1      -1.810  -0.904  -3.176  1.00  0.00     0.029 A 
HETATM   21  C15 UNL     1      -0.947  -0.150  -3.990  1.00  0.00     0.153 A 
HETATM   22  C16 UNL     1       0.242   0.375  -3.449  1.00  0.00     0.119 A 
HETATM   23  O2  UNL     1      -1.254   0.061  -5.254  1.00  0.00    -0.188 OA
HETATM   24  C17 UNL     1       0.561   0.145  -2.100  1.00  0.00     0.023 A 
BRANCH  22  25
HETATM   25  O1  UNL     1       1.057   1.084  -4.205  1.00  0.00    -0.326 OA
HETATM   26  C18 UNL     1       2.180   1.695  -3.584  1.00  0.00     0.181 C 
ENDBRANCH  22  25
ENDBRANCH  11  18
BRANCH  12  27
HETATM   27  O4  UNL     1       2.733  -1.072   1.109  1.00  0.00    -0.328 OA
HETATM   28  C23 UNL     1       4.104  -1.148   1.465  1.00  0.00     0.181 C 
ENDBRANCH  12  27
TORSDOF 3
