REMARK  5 active torsions:
REMARK  status: ('A' for Active; 'I' for Inactive)
REMARK    1  A    between atoms: C1_1  and  C12_14 
REMARK    2  A    between atoms: C3_3  and  C7_8 
REMARK    3  A    between atoms: C7_8  and  C8_9 
REMARK    4  A    between atoms: C12_14  and  C13_16 
REMARK    5  A    between atoms: C14_17  and  C15_18 
ROOT
HETATM    1  C1  UNL     1      -0.111  -0.086   0.553  1.00  0.00     0.064 A 
HETATM    2  C2  UNL     1      -0.689  -1.334   0.244  1.00  0.00     0.132 A 
HETATM    3  C3  UNL     1       0.131  -2.473   0.123  1.00  0.00     0.033 A 
HETATM    4  C4  UNL     1       1.523  -2.365   0.306  1.00  0.00     0.129 A 
HETATM    5  C5  UNL     1       2.092  -1.119   0.613  1.00  0.00     0.027 A 
HETATM    6  C6  UNL     1       1.277   0.020   0.736  1.00  0.00     0.007 A 
HETATM    7  O1  UNL     1       2.297  -3.428   0.193  1.00  0.00    -0.190 OA
HETATM    8  O2  UNL     1      -1.994  -1.437   0.072  1.00  0.00    -0.190 OA
ENDROOT
BRANCH   1   9
HETATM    9  C12 UNL     1      -0.969   1.133   0.685  1.00  0.00     0.198 C 
HETATM   10  O3  UNL     1      -2.170   1.041   0.771  1.00  0.00    -0.286 OA
BRANCH   9  11
HETATM   11  C13 UNL     1      -0.320   2.449   0.711  1.00  0.00     0.042 C 
HETATM   12  C14 UNL     1      -0.922   3.498   1.297  1.00  0.00     0.003 C 
BRANCH  12  13
HETATM   13  C15 UNL     1      -0.223   4.817   1.297  1.00  0.00     0.000 A 
HETATM   14  C16 UNL     1      -0.967   6.010   1.297  1.00  0.00     0.002 A 
HETATM   15  C17 UNL     1      -0.309   7.250   1.297  1.00  0.00     0.027 A 
HETATM   16  C18 UNL     1       1.098   7.305   1.297  1.00  0.00     0.131 A 
HETATM   17  C19 UNL     1       1.840   6.111   1.297  1.00  0.00     0.027 A 
HETATM   18  O4  UNL     1       1.715   8.471   1.297  1.00  0.00    -0.190 OA
HETATM   19  C20 UNL     1       1.184   4.869   1.297  1.00  0.00     0.002 A 
ENDBRANCH  12  13
ENDBRANCH   9  11
ENDBRANCH   1   9
BRANCH   3  20
HETATM   20  C7  UNL     1      -0.475  -3.793  -0.203  1.00  0.00     0.056 C 
BRANCH  20  21
HETATM   21  C8  UNL     1      -0.555  -4.031  -1.688  1.00  0.00    -0.030 C 
HETATM   22  C9  UNL     1      -0.869  -5.262  -2.123  1.00  0.00    -0.048 C 
HETATM   23  C10 UNL     1      -0.916  -5.508  -3.608  1.00  0.00     0.026 C 
HETATM   24  C11 UNL     1      -1.160  -6.332  -1.106  1.00  0.00     0.026 C 
ENDBRANCH  20  21
ENDBRANCH   3  20
TORSDOF 5
