REMARK  2 active torsions:
REMARK  status: ('A' for Active; 'I' for Inactive)
REMARK    1  A    between atoms: C15_15  and  C18_18 
REMARK    2  A    between atoms: C21_21  and  C22_23 
ROOT
HETATM    1  C1  UNL     1       4.809  -1.965  -1.158  1.00  0.00     0.033 C 
HETATM    2  C2  UNL     1       5.779  -1.072  -0.371  1.00  0.00     0.152 C 
HETATM    3  C3  UNL     1       5.383   0.437  -0.440  1.00  0.00     0.028 C 
HETATM    4  C4  UNL     1       3.877   0.623  -0.822  1.00  0.00     0.002 C 
HETATM    5  C5  UNL     1       2.930  -0.434  -0.184  1.00  0.00     0.000 C 
HETATM    6  C6  UNL     1       3.358  -1.857  -0.651  1.00  0.00     0.003 C 
HETATM    7  C7  UNL     1       1.453  -0.174  -0.619  1.00  0.00     0.000 C 
HETATM    8  C8  UNL     1       0.983   1.295  -0.404  1.00  0.00     0.000 C 
HETATM    9  C9  UNL     1       1.953   2.277  -1.090  1.00  0.00     0.000 C 
HETATM   10  C10 UNL     1       3.389   2.072  -0.598  1.00  0.00     0.000 C 
HETATM   11  C11 UNL     1      -0.432   1.418  -1.037  1.00  0.00     0.000 C 
HETATM   12  C12 UNL     1      -1.408   0.453  -0.344  1.00  0.00     0.002 C 
HETATM   13  C13 UNL     1      -0.980  -1.002  -0.553  1.00  0.00     0.000 C 
HETATM   14  C14 UNL     1       0.447  -1.182  -0.006  1.00  0.00     0.000 C 
HETATM   15  C15 UNL     1      -2.768   0.850  -0.926  1.00  0.00     0.025 C 
HETATM   16  C16 UNL     1      -2.668   2.379  -1.018  1.00  0.00     0.002 C 
HETATM   17  C17 UNL     1      -1.189   2.732  -0.817  1.00  0.00     0.000 C 
HETATM   18  C26 UNL     1      -0.414   1.186  -2.559  1.00  0.00     0.000 C 
HETATM   19  C27 UNL     1       0.887   1.641   1.094  1.00  0.00     0.000 C 
HETATM   20  C28 UNL     1       3.039  -0.352   1.347  1.00  0.00     0.000 C 
HETATM   21  C29 UNL     1       5.719   1.174   0.873  1.00  0.00     0.003 C 
HETATM   22  C30 UNL     1       6.229   1.109  -1.531  1.00  0.00     0.003 C 
HETATM   23  O3  UNL     1       5.826  -1.559   0.959  1.00  0.00    -0.224 OA
ENDROOT
BRANCH  15  24
HETATM   24  C18 UNL     1      -3.932   0.383  -0.055  1.00  0.00     0.093 C 
HETATM   25  C19 UNL     1      -3.967   1.033   1.324  1.00  0.00     0.030 C 
HETATM   26  C20 UNL     1      -4.795   0.006   2.094  1.00  0.00     0.035 C 
HETATM   27  C21 UNL     1      -4.250  -1.305   1.523  1.00  0.00     0.143 C 
HETATM   28  O1  UNL     1      -3.795  -0.994   0.221  1.00  0.00    -0.359 OA
HETATM   29  C25 UNL     1      -5.240   0.590  -0.813  1.00  0.00     0.030 C 
BRANCH  27  30
HETATM   30  C22 UNL     1      -5.297  -2.408   1.439  1.00  0.00     0.152 C 
HETATM   31  C23 UNL     1      -5.861  -2.682   2.834  1.00  0.00     0.035 C 
HETATM   32  O2  UNL     1      -6.346  -1.957   0.611  1.00  0.00    -0.224 OA
HETATM   33  C24 UNL     1      -4.680  -3.650   0.797  1.00  0.00     0.035 C 
ENDBRANCH  27  30
ENDBRANCH  15  24
TORSDOF 2
