REMARK  18 active torsions:
REMARK  status: ('A' for Active; 'I' for Inactive)
REMARK    1  A    between atoms: C2_2  and  C3_3 
REMARK    2  A    between atoms: C3_3  and  C4_4 
REMARK    3  A    between atoms: C4_4  and  C5_5 
REMARK    4  A    between atoms: C5_5  and  C6_6 
REMARK    5  A    between atoms: C6_6  and  C7_7 
REMARK    6  A    between atoms: C7_7  and  C8_8 
REMARK    7  A    between atoms: C8_8  and  C9_9 
REMARK    8  A    between atoms: C8_8  and  O5_26 
REMARK    9  A    between atoms: C9_9  and  C10_10 
REMARK   10  A    between atoms: C9_9  and  O3_22 
REMARK   11  A    between atoms: C10_10  and  C11_11 
REMARK   12  A    between atoms: C10_10  and  O1_18 
REMARK   13  A    between atoms: C12_12  and  C13_13 
REMARK   14  A    between atoms: C14_14  and  C15_15 
REMARK   15  A    between atoms: C15_15  and  C16_16 
REMARK   16  A    between atoms: O1_18  and  C18_19 
REMARK   17  A    between atoms: O3_22  and  C20_23 
REMARK   18  A    between atoms: O5_26  and  C22_27 
ROOT
HETATM    1  C9  UNL     1      -0.309  -1.840  -0.133  1.00  0.00     0.192 C 
ENDROOT
BRANCH   1   2
HETATM    2  C8  UNL     1       0.281  -1.274   1.158  1.00  0.00     0.155 C 
BRANCH   2   3
HETATM    3  C7  UNL     1       1.774  -1.578   1.309  1.00  0.00     0.033 C 
BRANCH   3   4
HETATM    4  C6  UNL     1       2.650  -0.656   0.461  1.00  0.00     0.003 C 
BRANCH   4   5
HETATM    5  C5  UNL     1       4.143  -0.854   0.730  1.00  0.00     0.000 C 
BRANCH   5   6
HETATM    6  C4  UNL     1       5.024   0.045  -0.139  1.00  0.00     0.005 C 
BRANCH   6   7
HETATM    7  C3  UNL     1       6.516  -0.158   0.123  1.00  0.00     0.026 C 
BRANCH   7   8
HETATM    8  C2  UNL     1       7.377   0.707  -0.760  1.00  0.00    -0.026 C 
HETATM    9  C1  UNL     1       8.319   1.471  -0.184  1.00  0.00    -0.005 C 
ENDBRANCH   7   8
ENDBRANCH   6   7
ENDBRANCH   5   6
ENDBRANCH   4   5
ENDBRANCH   3   4
ENDBRANCH   2   3
BRANCH   2  10
HETATM   10  O5  UNL     1      -0.424  -1.801   2.271  1.00  0.00    -0.302 OA
BRANCH  10  11
HETATM   11  C22 UNL     1      -0.211  -1.104   3.385  1.00  0.00     0.272 C 
HETATM   12  O6  UNL     1       0.477  -0.109   3.434  1.00  0.00    -0.264 OA
HETATM   13  C23 UNL     1      -0.891  -1.639   4.615  1.00  0.00     0.106 C 
ENDBRANCH  10  11
ENDBRANCH   2  10
ENDBRANCH   1   2
BRANCH   1  14
HETATM   14  C10 UNL     1      -1.838  -1.840  -0.133  1.00  0.00     0.218 C 
BRANCH  14  15
HETATM   15  C11 UNL     1      -2.350  -0.473  -0.133  1.00  0.00    -0.045 C 
HETATM   16  C12 UNL     1      -2.766   0.642  -0.133  1.00  0.00    -0.012 C 
BRANCH  16  17
HETATM   17  C13 UNL     1      -3.248   1.935  -0.133  1.00  0.00    -0.014 C 
HETATM   18  C14 UNL     1      -3.666   3.051  -0.133  1.00  0.00    -0.078 C 
BRANCH  18  19
HETATM   19  C15 UNL     1      -4.176   4.418  -0.133  1.00  0.00     0.077 C 
BRANCH  19  20
HETATM   20  C16 UNL     1      -5.705   4.418  -0.133  1.00  0.00     0.014 C 
HETATM   21  C17 UNL     1      -6.295   5.828  -0.131  1.00  0.00     0.001 C 
ENDBRANCH  19  20
ENDBRANCH  18  19
ENDBRANCH  16  17
ENDBRANCH  14  15
BRANCH  14  22
HETATM   22  O1  UNL     1      -2.311  -2.522  -1.285  1.00  0.00    -0.288 OA
BRANCH  22  23
HETATM   23  C18 UNL     1      -3.604  -2.818  -1.201  1.00  0.00     0.273 C 
HETATM   24  O2  UNL     1      -4.291  -2.572  -0.238  1.00  0.00    -0.264 OA
HETATM   25  C19 UNL     1      -4.184  -3.502  -2.412  1.00  0.00     0.106 C 
ENDBRANCH  22  23
ENDBRANCH  14  22
ENDBRANCH   1  14
BRANCH   1  26
HETATM   26  O3  UNL     1       0.164  -1.086  -1.240  1.00  0.00    -0.298 OA
BRANCH  26  27
HETATM   27  C20 UNL     1       0.131  -1.777  -2.375  1.00  0.00     0.273 C 
HETATM   28  O4  UNL     1      -0.051  -2.971  -2.432  1.00  0.00    -0.264 OA
HETATM   29  C21 UNL     1       0.334  -0.963  -3.627  1.00  0.00     0.106 C 
ENDBRANCH  26  27
ENDBRANCH   1  26
TORSDOF 18
