REMARK  3 active torsions:
REMARK  status: ('A' for Active; 'I' for Inactive)
REMARK    1  A    between atoms: C5_7  and  C6_8 
REMARK    2  A    between atoms: C9_11  and  C10_13 
REMARK    3  A    between atoms: C13_16  and  O2_19 
ROOT
HETATM    1  C6  UNL     1       0.231   2.133   0.786  1.00  0.00     0.100 A 
HETATM    2  C7  UNL     1       1.177   1.858   1.780  1.00  0.00     0.027 A 
HETATM    3  C8  UNL     1       1.725   0.621   1.434  1.00  0.00     0.027 A 
HETATM    4  C9  UNL     1       1.064   0.249   0.257  1.00  0.00     0.100 A 
HETATM    5  O1  UNL     1       0.140   1.159  -0.165  1.00  0.00    -0.307 OA
ENDROOT
BRANCH   1   6
HETATM    6  C5  UNL     1      -0.635   3.295   0.654  1.00  0.00     0.034 C 
HETATM    7  C4  UNL     1      -1.983   3.231   0.550  1.00  0.00     0.118 A 
HETATM    8  C1  UNL     1      -2.782   4.477   0.414  1.00  0.00     0.288 A 
HETATM    9  C3  UNL     1      -2.732   1.944   0.563  1.00  0.00     0.288 A 
HETATM   10  N1  UNL     1      -4.152   4.382   0.301  1.00  0.00    -0.152 NA
HETATM   11  O5  UNL     1      -2.253   5.566   0.401  1.00  0.00    -0.265 OA
HETATM   12  C2  UNL     1      -4.804   3.162   0.313  1.00  0.00     0.374 A 
HETATM   13  N2  UNL     1      -4.105   1.975   0.442  1.00  0.00    -0.152 NA
HETATM   14  O4  UNL     1      -6.009   3.132   0.210  1.00  0.00    -0.242 OA
HETATM   15  O3  UNL     1      -2.172   0.877   0.676  1.00  0.00    -0.265 OA
ENDBRANCH   1   6
BRANCH   4  16
HETATM   16  C10 UNL     1       1.466  -1.049  -0.330  1.00  0.00     0.023 A 
HETATM   17  C11 UNL     1       1.515  -1.205  -1.727  1.00  0.00     0.004 A 
HETATM   18  C12 UNL     1       1.896  -2.437  -2.283  1.00  0.00     0.024 A 
HETATM   19  C13 UNL     1       2.231  -3.518  -1.448  1.00  0.00     0.094 A 
HETATM   20  C14 UNL     1       2.182  -3.359  -0.051  1.00  0.00     0.024 A 
HETATM   21  C15 UNL     1       1.800  -2.128   0.508  1.00  0.00     0.004 A 
BRANCH  19  22
HETATM   22  O2  UNL     1       2.589  -4.673  -1.971  1.00  0.00    -0.328 OA
HETATM   23  C16 UNL     1       2.868  -5.748  -1.085  1.00  0.00     0.181 C 
ENDBRANCH  19  22
ENDBRANCH   4  16
TORSDOF 3
