REMARK  5 active torsions:
REMARK  status: ('A' for Active; 'I' for Inactive)
REMARK    1  A    between atoms: C3_3  and  O3_11 
REMARK    2  A    between atoms: C6_6  and  C7_7 
REMARK    3  A    between atoms: C7_7  and  O2_9 
REMARK    4  A    between atoms: O3_11  and  C9_12 
REMARK    5  A    between atoms: C13_16  and  C14_18 
ROOT
HETATM    1  C1  UNL     1       1.082   2.496  -1.147  1.00  0.00     0.032 C 
HETATM    2  C2  UNL     1       0.791   1.033  -1.541  1.00  0.00     0.034 C 
HETATM    3  C3  UNL     1      -0.316   0.418  -0.668  1.00  0.00     0.123 C 
HETATM    4  C4  UNL     1      -1.564   1.309  -0.754  1.00  0.00     0.056 C 
HETATM    5  C5  UNL     1      -1.266   2.719  -0.313  1.00  0.00    -0.023 C 
HETATM    6  C6  UNL     1      -0.049   3.274  -0.488  1.00  0.00     0.037 C 
HETATM    7  C15 UNL     1       2.125   0.279  -1.361  1.00  0.00     0.033 C 
HETATM    8  C16 UNL     1       3.149   1.381  -1.086  1.00  0.00     0.152 C 
HETATM    9  C17 UNL     1       2.332   2.381  -0.275  1.00  0.00     0.037 C 
HETATM   10  O9  UNL     1       4.240   0.897  -0.330  1.00  0.00    -0.224 OA
HETATM   11  C18 UNL     1       2.500  -0.537  -2.596  1.00  0.00     0.003 C 
ENDROOT
BRANCH   3  12
HETATM   12  O3  UNL     1      -0.639  -0.879  -1.135  1.00  0.00    -0.331 OA
BRANCH  12  13
HETATM   13  C9  UNL     1      -1.330  -1.658  -0.180  1.00  0.00     0.270 C 
HETATM   14  C10 UNL     1      -1.926  -2.926  -0.842  1.00  0.00     0.241 C 
HETATM   15  C11 UNL     1      -2.549  -3.865   0.215  1.00  0.00     0.220 C 
HETATM   16  O8  UNL     1      -2.924  -2.541  -1.775  1.00  0.00    -0.215 OA
HETATM   17  C12 UNL     1      -1.541  -4.111   1.359  1.00  0.00     0.215 C 
HETATM   18  O7  UNL     1      -2.904  -5.100  -0.387  1.00  0.00    -0.218 OA
HETATM   19  C13 UNL     1      -0.977  -2.783   1.908  1.00  0.00     0.184 C 
HETATM   20  O6  UNL     1      -2.178  -4.807   2.418  1.00  0.00    -0.218 OA
HETATM   21  O4  UNL     1      -0.414  -2.033   0.840  1.00  0.00    -0.326 OA
BRANCH  19  22
HETATM   22  C14 UNL     1       0.141  -2.988   2.938  1.00  0.00     0.214 C 
HETATM   23  O5  UNL     1       0.463  -1.734   3.494  1.00  0.00    -0.218 OA
ENDBRANCH  19  22
ENDBRANCH  12  13
ENDBRANCH   3  12
BRANCH   6  24
HETATM   24  C7  UNL     1       0.213   4.653  -0.049  1.00  0.00     0.291 C 
HETATM   25  O1  UNL     1       1.117   5.291  -0.537  1.00  0.00    -0.260 OA
BRANCH  24  26
HETATM   26  O2  UNL     1      -0.596   5.121   0.896  1.00  0.00    -0.296 OA
HETATM   27  C8  UNL     1      -0.271   6.449   1.277  1.00  0.00     0.185 C 
ENDBRANCH  24  26
ENDBRANCH   6  24
TORSDOF 5
