REMARK  6 active torsions:
REMARK  status: ('A' for Active; 'I' for Inactive)
REMARK    1  A    between atoms: C2_2  and  C18_22 
REMARK    2  A    between atoms: C5_5  and  C9_10 
REMARK    3  A    between atoms: C9_10  and  O2_11 
REMARK    4  A    between atoms: O2_11  and  C10_12 
REMARK    5  A    between atoms: C10_12  and  C11_13 
REMARK    6  A    between atoms: C18_22  and  O5_23 
ROOT
HETATM    1  C1  UNL     1      -1.356  -2.295  -1.379  1.00  0.00     0.100 A 
HETATM    2  C2  UNL     1      -0.106  -2.756  -1.846  1.00  0.00     0.053 A 
HETATM    3  C3  UNL     1       1.059  -2.313  -1.160  1.00  0.00     0.103 A 
HETATM    4  C4  UNL     1       0.932  -1.428  -0.041  1.00  0.00     0.021 A 
HETATM    5  C5  UNL     1      -0.354  -0.984   0.396  1.00  0.00     0.011 A 
HETATM    6  C6  UNL     1      -1.488  -1.451  -0.313  1.00  0.00     0.023 A 
HETATM    7  C7  UNL     1      -2.795  -1.172  -0.082  1.00  0.00     0.029 A 
HETATM    8  C8  UNL     1      -3.504  -1.891  -1.070  1.00  0.00     0.123 A 
HETATM    9  O1  UNL     1      -2.598  -2.609  -1.902  1.00  0.00    -0.305 OA
HETATM   10  C15 UNL     1       2.174  -0.986   0.650  1.00  0.00     0.007 A 
HETATM   11  C16 UNL     1       3.363  -1.430   0.201  1.00  0.00     0.069 A 
HETATM   12  C17 UNL     1       3.426  -2.344  -0.961  1.00  0.00     0.300 A 
HETATM   13  O3  UNL     1       2.281  -2.725  -1.564  1.00  0.00    -0.273 OA
HETATM   14  O4  UNL     1       4.510  -2.725  -1.338  1.00  0.00    -0.259 OA
ENDROOT
BRANCH   5  15
HETATM   15  C9  UNL     1      -0.502  -0.072   1.549  1.00  0.00     0.169 C 
BRANCH  15  16
HETATM   16  O2  UNL     1      -0.164   1.238   1.154  1.00  0.00    -0.345 OA
BRANCH  16  17
HETATM   17  C10 UNL     1      -0.279   2.178   2.199  1.00  0.00     0.168 C 
BRANCH  17  18
HETATM   18  C11 UNL     1       0.098   3.543   1.689  1.00  0.00    -0.003 C 
HETATM   19  C12 UNL     1      -0.160   4.611   2.463  1.00  0.00    -0.045 C 
HETATM   20  C13 UNL     1       0.125   6.041   2.092  1.00  0.00     0.026 C 
HETATM   21  C14 UNL     1      -0.785   4.385   3.813  1.00  0.00     0.026 C 
ENDBRANCH  17  18
ENDBRANCH  16  17
ENDBRANCH  15  16
ENDBRANCH   5  15
BRANCH   2  22
HETATM   22  C18 UNL     1      -0.014  -3.664  -3.000  1.00  0.00     0.173 C 
BRANCH  22  23
HETATM   23  O5  UNL     1       0.262  -2.918  -4.164  1.00  0.00    -0.347 OA
HETATM   24  C19 UNL     1       0.361  -3.713  -5.324  1.00  0.00     0.175 C 
ENDBRANCH  22  23
ENDBRANCH   2  22
TORSDOF 6
