REMARK  1 active torsions:
REMARK  status: ('A' for Active; 'I' for Inactive)
REMARK    1  A    between atoms: C2_2  and  C15_15 
ROOT
HETATM    1  C1  UNL     1      -2.483   0.566  -0.084  1.00  0.00     0.032 C 
HETATM    2  C2  UNL     1      -1.609   0.467  -1.307  1.00  0.00     0.034 C 
HETATM    3  C3  UNL     1      -0.399   0.049  -0.934  1.00  0.00    -0.043 C 
HETATM    4  C4  UNL     1      -0.227  -0.102   0.537  1.00  0.00     0.015 C 
HETATM    5  C5  UNL     1      -1.695  -0.193   1.012  1.00  0.00     0.009 C 
HETATM    6  C6  UNL     1       0.537   1.102   1.166  1.00  0.00     0.003 C 
HETATM    7  C7  UNL     1       1.846   1.400   0.400  1.00  0.00     0.000 C 
HETATM    8  C8  UNL     1       2.627   0.143  -0.020  1.00  0.00     0.000 C 
HETATM    9  C9  UNL     1       1.685  -0.945  -0.571  1.00  0.00     0.004 C 
HETATM   10  C10 UNL     1       0.809  -0.377  -1.711  1.00  0.00     0.022 C 
HETATM   11  C11 UNL     1       0.676  -1.359   0.543  1.00  0.00     0.004 C 
HETATM   12  C12 UNL     1       1.310  -1.654   1.902  1.00  0.00     0.000 C 
HETATM   13  C13 UNL     1      -0.063  -2.617   0.066  1.00  0.00     0.000 C 
HETATM   14  C14 UNL     1      -0.318   2.373   1.248  1.00  0.00     0.000 C 
ENDROOT
BRANCH   2  15
HETATM   15  C15 UNL     1      -2.051   0.754  -2.678  1.00  0.00     0.206 C 
HETATM   16  O1  UNL     1      -1.276   0.660  -3.602  1.00  0.00    -0.644 OA
HETATM   17  O2  UNL     1      -3.324   1.109  -2.813  1.00  0.00    -0.644 OA
ENDBRANCH   2  15
TORSDOF 1
