REMARK  1 active torsions:
REMARK  status: ('A' for Active; 'I' for Inactive)
REMARK    1  A    between atoms: C8_8  and  C9_9 
ROOT
HETATM    1  C1  UNL     1      -2.240   1.963  -0.313  1.00  0.00     0.069 C 
HETATM    2  C2  UNL     1      -3.477   1.121  -0.080  1.00  0.00     0.172 C 
HETATM    3  C3  UNL     1      -3.342  -0.348  -0.080  1.00  0.00     0.029 C 
HETATM    4  C4  UNL     1      -2.164  -0.965  -0.307  1.00  0.00    -0.041 C 
HETATM    5  C5  UNL     1      -2.090  -2.471  -0.279  1.00  0.00     0.026 C 
HETATM    6  C6  UNL     1      -0.906  -0.156  -0.594  1.00  0.00     0.019 C 
HETATM    7  C7  UNL     1       0.406  -0.906  -0.273  1.00  0.00     0.008 C 
HETATM    8  C8  UNL     1       1.648  -0.076  -0.639  1.00  0.00     0.019 C 
HETATM    9  C12 UNL     1       1.604   1.318   0.008  1.00  0.00     0.004 C 
HETATM   10  C13 UNL     1       0.289   2.051  -0.305  1.00  0.00     0.001 C 
HETATM   11  C14 UNL     1      -0.949   1.227   0.105  1.00  0.00     0.011 C 
HETATM   12  C15 UNL     1      -0.949   1.053   1.635  1.00  0.00     0.001 C 
HETATM   13  O1  UNL     1      -4.553   1.637   0.107  1.00  0.00    -0.291 OA
ENDROOT
BRANCH   8  14
HETATM   14  C9  UNL     1       2.920  -0.805  -0.275  1.00  0.00    -0.044 C 
HETATM   15  C10 UNL     1       3.811  -1.061  -1.246  1.00  0.00    -0.009 C 
HETATM   16  C11 UNL     1       3.232  -1.256   1.127  1.00  0.00     0.026 C 
ENDBRANCH   8  14
TORSDOF 1
