REMARK  8 active torsions:
REMARK  status: ('A' for Active; 'I' for Inactive)
REMARK    1  A    between atoms: C5_7  and  C8_10 
REMARK    2  A    between atoms: C9_11  and  C10_12 
REMARK    3  A    between atoms: C10_12  and  C11_13 
REMARK    4  A    between atoms: C11_13  and  C12_14 
REMARK    5  A    between atoms: C12_14  and  C13_15 
REMARK    6  A    between atoms: C13_15  and  C14_16 
REMARK    7  A    between atoms: C14_16  and  C15_17 
REMARK    8  A    between atoms: C15_17  and  C16_18 
REMARK       I    between atoms: C16_18  and  N1_19 
ROOT
HETATM    1  C11 UNL     1      -0.633   1.250   0.723  1.00  0.00     0.005 C 
ENDROOT
BRANCH   1   2
HETATM    2  C10 UNL     1      -1.711   2.150   1.324  1.00  0.00     0.026 C 
BRANCH   2   3
HETATM    3  C9  UNL     1      -1.225   3.561   1.541  1.00  0.00    -0.026 C 
HETATM    4  C8  UNL     1      -1.939   4.570   1.021  1.00  0.00    -0.004 C 
BRANCH   4   5
HETATM    5  C5  UNL     1      -1.467   5.955   1.232  1.00  0.00     0.002 A 
HETATM    6  C4  UNL     1      -2.395   7.018   1.299  1.00  0.00     0.026 A 
HETATM    7  C3  UNL     1      -1.963   8.354   1.504  1.00  0.00     0.119 A 
HETATM    8  C2  UNL     1      -0.596   8.621   1.637  1.00  0.00     0.119 A 
HETATM    9  O2  UNL     1      -2.643   9.496   1.602  1.00  0.00    -0.300 OA
HETATM   10  O1  UNL     1      -0.426   9.930   1.818  1.00  0.00    -0.300 OA
HETATM   11  C7  UNL     1       0.336   7.551   1.568  1.00  0.00     0.026 A 
HETATM   12  C1  UNL     1      -1.715  10.584   1.814  1.00  0.00     0.304 A 
HETATM   13  C6  UNL     1      -0.090   6.221   1.367  1.00  0.00     0.002 A 
ENDBRANCH   4   5
ENDBRANCH   2   3
ENDBRANCH   1   2
BRANCH   1  14
HETATM   14  C12 UNL     1      -1.115  -0.186   0.508  1.00  0.00     0.000 C 
BRANCH  14  15
HETATM   15  C13 UNL     1      -0.039  -1.086  -0.096  1.00  0.00     0.001 C 
BRANCH  15  16
HETATM   16  C14 UNL     1      -0.521  -2.522  -0.311  1.00  0.00     0.010 C 
BRANCH  16  17
HETATM   17  C15 UNL     1       0.555  -3.422  -0.916  1.00  0.00     0.088 C 
BRANCH  17  18
HETATM   18  C16 UNL     1       0.076  -4.834  -1.119  1.00  0.00     0.234 C 
HETATM   19  N1  UNL     1       0.932  -5.744  -1.678  1.00  0.00    -0.320 N 
HETATM   20  C17 UNL     1       0.506  -7.147  -1.916  1.00  0.00     0.104 C 
HETATM   21  C21 UNL     1       2.311  -5.356  -2.063  1.00  0.00     0.104 C 
HETATM   22  C18 UNL     1       1.559  -8.149  -1.410  1.00  0.00     0.024 C 
HETATM   23  C19 UNL     1       2.967  -7.819  -1.924  1.00  0.00     0.004 C 
HETATM   24  C20 UNL     1       3.346  -6.375  -1.557  1.00  0.00     0.024 C 
HETATM   25  O3  UNL     1      -1.043  -5.164  -0.797  1.00  0.00    -0.272 OA
ENDBRANCH  17  18
ENDBRANCH  16  17
ENDBRANCH  15  16
ENDBRANCH  14  15
ENDBRANCH   1  14
TORSDOF 8
