REMARK  0 active torsions:
REMARK  status: ('A' for Active; 'I' for Inactive)
ROOT
HETATM    1  C1  UNL     1       1.793   4.563   0.730  1.00  0.00    -0.000 A 
HETATM    2  C2  UNL     1       0.697   5.160   0.066  1.00  0.00     0.002 A 
HETATM    3  C3  UNL     1      -0.322   4.348  -0.475  1.00  0.00     0.017 A 
HETATM    4  C4  UNL     1      -0.203   2.945  -0.324  1.00  0.00     0.059 A 
HETATM    5  C5  UNL     1       0.869   2.293   0.309  1.00  0.00     0.002 A 
HETATM    6  C6  UNL     1       1.871   3.152   0.844  1.00  0.00    -0.002 A 
HETATM    7  C7  UNL     1       0.793   0.762   0.295  1.00  0.00     0.093 A 
HETATM    8  C8  UNL     1      -0.553   0.531  -0.475  1.00  0.00     0.101 A 
HETATM    9  N1  UNL     1      -1.100   1.861  -0.744  1.00  0.00    -0.301 N 
HETATM   10  C9  UNL     1      -2.396   2.113  -1.254  1.00  0.00     0.240 C 
HETATM   11  C10 UNL     1      -3.223   0.859  -1.508  1.00  0.00     0.118 C 
HETATM   12  C11 UNL     1      -2.842  -0.449  -0.730  1.00  0.00     0.127 C 
HETATM   13  C12 UNL     1      -1.652  -0.250   0.250  1.00  0.00     0.053 C 
HETATM   14  C13 UNL     1      -1.080  -1.449   1.035  1.00  0.00     0.032 C 
HETATM   15  C14 UNL     1      -0.187  -0.853   2.150  1.00  0.00     0.069 C 
HETATM   16  C15 UNL     1       0.811   0.211   1.723  1.00  0.00     0.156 C 
HETATM   17  O1  UNL     1       1.625   0.604   2.525  1.00  0.00    -0.296 OA
HETATM   18  C16 UNL     1      -0.437  -2.561   0.207  1.00  0.00    -0.013 C 
HETATM   19  C17 UNL     1       0.961  -3.074   0.529  1.00  0.00     0.272 C 
HETATM   20  N2  UNL     1       2.000  -2.051   0.412  1.00  0.00     0.143 N 
HETATM   21  C18 UNL     1       2.020  -1.273  -0.832  1.00  0.00     0.252 C 
HETATM   22  C19 UNL     1       1.996   0.232  -0.529  1.00  0.00     0.048 C 
HETATM   23  C20 UNL     1       3.316  -2.527   0.822  1.00  0.00     0.286 C 
HETATM   24  C21 UNL     1      -1.098  -3.133  -0.818  1.00  0.00    -0.001 C 
HETATM   25  C22 UNL     1      -2.508  -2.783  -1.213  1.00  0.00     0.168 C 
HETATM   26  O2  UNL     1      -2.602  -1.459  -1.703  1.00  0.00    -0.351 OA
HETATM   27  O3  UNL     1      -2.834   3.223  -1.459  1.00  0.00    -0.272 OA
ENDROOT
TORSDOF 0
