REMARK  7 active torsions:
REMARK  status: ('A' for Active; 'I' for Inactive)
REMARK    1  A    between atoms: C1_1  and  O5_22 
REMARK    2  A    between atoms: C14_16  and  O4_20 
REMARK    3  A    between atoms: C15_17  and  O3_18 
REMARK    4  A    between atoms: O5_22  and  C18_23 
REMARK    5  A    between atoms: C19_24  and  O10_33 
REMARK    6  A    between atoms: C22_27  and  C23_29 
REMARK    7  A    between atoms: O10_33  and  C24_34 
ROOT
HETATM    1  C1  UNL     1       0.973   0.289   0.383  1.00  0.00     0.099 A 
HETATM    2  C2  UNL     1       0.311   1.475   0.774  1.00  0.00     0.024 A 
HETATM    3  C3  UNL     1      -1.043   1.430   1.176  1.00  0.00     0.002 A 
HETATM    4  C4  UNL     1      -1.744   0.195   1.186  1.00  0.00     0.028 A 
HETATM    5  C5  UNL     1      -1.086  -0.990   0.758  1.00  0.00     0.094 A 
HETATM    6  C6  UNL     1       0.275  -0.941   0.379  1.00  0.00     0.048 A 
HETATM    7  O1  UNL     1      -1.738  -2.168   0.711  1.00  0.00    -0.331 OA
HETATM    8  C7  UNL     1      -3.160  -2.189   0.574  1.00  0.00     0.156 C 
HETATM    9  C8  UNL     1      -3.836  -1.264   1.598  1.00  0.00     0.086 C 
HETATM   10  C9  UNL     1      -3.149   0.143   1.662  1.00  0.00     0.152 C 
HETATM   11  O2  UNL     1      -4.008   1.033   0.930  1.00  0.00    -0.327 OA
HETATM   12  C10 UNL     1      -5.201   0.475   0.736  1.00  0.00     0.115 A 
HETATM   13  C11 UNL     1      -5.221  -0.873   1.133  1.00  0.00     0.007 A 
HETATM   14  C12 UNL     1      -6.416  -1.625   1.045  1.00  0.00    -0.000 A 
HETATM   15  C13 UNL     1      -7.592  -1.045   0.535  1.00  0.00     0.026 A 
HETATM   16  C14 UNL     1      -7.569   0.297   0.106  1.00  0.00     0.118 A 
HETATM   17  C15 UNL     1      -6.381   1.066   0.201  1.00  0.00     0.138 A 
ENDROOT
BRANCH   1  18
HETATM   18  O5  UNL     1       2.262   0.330   0.014  1.00  0.00    -0.304 OA
BRANCH  18  19
HETATM   19  C18 UNL     1       2.795  -0.795  -0.672  1.00  0.00     0.271 C 
HETATM   20  C19 UNL     1       4.279  -0.547  -1.016  1.00  0.00     0.207 C 
HETATM   21  C20 UNL     1       4.850  -1.693  -1.881  1.00  0.00     0.217 C 
HETATM   22  C21 UNL     1       3.916  -1.951  -3.086  1.00  0.00     0.215 C 
HETATM   23  O9  UNL     1       6.147  -1.348  -2.342  1.00  0.00    -0.218 OA
HETATM   24  C22 UNL     1       2.449  -2.129  -2.633  1.00  0.00     0.184 C 
HETATM   25  O8  UNL     1       4.326  -3.125  -3.766  1.00  0.00    -0.218 OA
HETATM   26  O6  UNL     1       2.051  -1.000  -1.865  1.00  0.00    -0.326 OA
BRANCH  20  27
HETATM   27  O10 UNL     1       5.012  -0.443   0.191  1.00  0.00    -0.324 OA
BRANCH  27  28
HETATM   28  C24 UNL     1       4.811   0.785   0.861  1.00  0.00     0.270 C 
HETATM   29  C25 UNL     1       6.172   1.404   1.279  1.00  0.00     0.241 C 
HETATM   30  C26 UNL     1       5.965   2.668   2.145  1.00  0.00     0.220 C 
HETATM   31  O14 UNL     1       6.912   1.744   0.117  1.00  0.00    -0.215 OA
HETATM   32  C27 UNL     1       4.984   2.359   3.295  1.00  0.00     0.215 C 
HETATM   33  O13 UNL     1       7.209   3.096   2.676  1.00  0.00    -0.218 OA
HETATM   34  C28 UNL     1       3.691   1.709   2.766  1.00  0.00     0.181 C 
HETATM   35  O12 UNL     1       4.635   3.549   3.979  1.00  0.00    -0.218 OA
HETATM   36  O11 UNL     1       4.014   0.547   2.014  1.00  0.00    -0.326 OA
ENDBRANCH  27  28
ENDBRANCH  20  27
BRANCH  24  37
HETATM   37  C23 UNL     1       1.471  -2.234  -3.805  1.00  0.00     0.214 C 
HETATM   38  O7  UNL     1       0.201  -2.570  -3.293  1.00  0.00    -0.218 OA
ENDBRANCH  24  37
ENDBRANCH  18  19
ENDBRANCH   1  18
BRANCH  17  39
HETATM   39  O3  UNL     1      -6.502   2.326  -0.238  1.00  0.00    -0.324 OA
HETATM   40  C16 UNL     1      -6.549   2.541  -1.641  1.00  0.00     0.182 C 
ENDBRANCH  17  39
BRANCH  16  41
HETATM   41  O4  UNL     1      -8.686   0.842  -0.394  1.00  0.00    -0.326 OA
HETATM   42  C17 UNL     1      -9.822   0.006  -0.555  1.00  0.00     0.181 C 
ENDBRANCH  16  41
TORSDOF 7
