REMARK  5 active torsions:
REMARK  status: ('A' for Active; 'I' for Inactive)
REMARK    1  A    between atoms: C9_10  and  C10_11 
REMARK    2  A    between atoms: C10_11  and  C11_12 
REMARK    3  A    between atoms: C11_12  and  C12_13 
REMARK    4  A    between atoms: C12_13  and  C13_14 
REMARK    5  A    between atoms: C16_21  and  C17_22 
ROOT
HETATM    1  C1  UNL     1      -1.137  -0.309  -0.078  1.00  0.00     0.071 C 
HETATM    2  C2  UNL     1      -1.264  -1.488  -1.049  1.00  0.00     0.124 C 
HETATM    3  C3  UNL     1      -0.373  -2.691  -0.721  1.00  0.00     0.032 C 
HETATM    4  C4  UNL     1       1.125  -2.418  -0.953  1.00  0.00     0.027 C 
HETATM    5  C5  UNL     1       1.752  -1.389   0.010  1.00  0.00     0.106 C 
HETATM    6  N1  UNL     1       1.402   0.016  -0.303  1.00  0.00    -0.329 N 
HETATM    7  C6  UNL     1       0.103   0.533  -0.344  1.00  0.00     0.039 A 
HETATM    8  C7  UNL     1       0.225   1.877  -0.658  1.00  0.00     0.014 A 
HETATM    9  C8  UNL     1       1.533   2.182  -0.813  1.00  0.00     0.021 A 
HETATM   10  C9  UNL     1       2.303   1.047  -0.604  1.00  0.00     0.095 A 
HETATM   11  O4  UNL     1      -2.625  -1.857  -0.969  1.00  0.00    -0.333 OA
HETATM   12  C15 UNL     1      -3.401  -0.822  -0.398  1.00  0.00     0.215 A 
HETATM   13  C16 UNL     1      -2.471   0.396  -0.356  1.00  0.00     0.064 C 
HETATM   14  C19 UNL     1      -4.701  -0.631  -1.143  1.00  0.00     0.030 A 
HETATM   15  C20 UNL     1      -5.697  -0.877  -0.293  1.00  0.00     0.042 A 
HETATM   16  C21 UNL     1      -5.131  -1.230   0.998  1.00  0.00     0.294 A 
HETATM   17  O5  UNL     1      -3.793  -1.205   0.934  1.00  0.00    -0.274 OA
HETATM   18  O6  UNL     1      -5.791  -1.506   1.973  1.00  0.00    -0.259 OA
HETATM   19  C22 UNL     1      -7.164  -0.797  -0.619  1.00  0.00     0.036 C 
ENDROOT
BRANCH  10  20
HETATM   20  C10 UNL     1       3.775   0.957  -0.682  1.00  0.00     0.189 C 
HETATM   21  O3  UNL     1       4.369   1.514  -1.574  1.00  0.00    -0.290 OA
BRANCH  20  22
HETATM   22  C11 UNL     1       4.514   0.166   0.365  1.00  0.00     0.081 C 
BRANCH  22  23
HETATM   23  C12 UNL     1       5.699   0.934   0.949  1.00  0.00     0.095 C 
HETATM   24  C14 UNL     1       6.898   0.977   0.000  1.00  0.00     0.012 C 
BRANCH  23  25
HETATM   25  C13 UNL     1       6.074   0.451   2.324  1.00  0.00     0.185 C 
HETATM   26  O1  UNL     1       5.189   0.723   3.279  1.00  0.00    -0.647 OA
HETATM   27  O2  UNL     1       7.113  -0.137   2.516  1.00  0.00    -0.647 OA
ENDBRANCH  23  25
ENDBRANCH  22  23
ENDBRANCH  20  22
ENDBRANCH  10  20
BRANCH  13  28
HETATM   28  C17 UNL     1      -2.854   1.412   0.719  1.00  0.00     0.006 C 
HETATM   29  C18 UNL     1      -4.014   2.273   0.217  1.00  0.00     0.000 C 
ENDBRANCH  13  28
TORSDOF 5
