REMARK  0 active torsions:
REMARK  status: ('A' for Active; 'I' for Inactive)
ROOT
HETATM    1  C1  UNL     1       3.252   0.404  -0.508  1.00  0.00     0.102 C 
HETATM    2  C2  UNL     1       2.440   1.471  -1.197  1.00  0.00     0.171 C 
HETATM    3  C3  UNL     1       0.983   1.533  -0.949  1.00  0.00     0.007 C 
HETATM    4  C4  UNL     1       0.346   0.623  -0.172  1.00  0.00    -0.016 C 
HETATM    5  C5  UNL     1       1.080  -0.561   0.471  1.00  0.00     0.046 C 
HETATM    6  C6  UNL     1       2.402  -0.854  -0.293  1.00  0.00     0.163 C 
HETATM    7  O1  UNL     1       3.182  -1.818   0.393  1.00  0.00    -0.223 OA
HETATM    8  C7  UNL     1       0.211  -1.858   0.484  1.00  0.00     0.007 C 
HETATM    9  C8  UNL     1      -1.275  -1.674   0.861  1.00  0.00     0.008 C 
HETATM   10  C9  UNL     1      -1.816  -0.652  -0.137  1.00  0.00     0.059 C 
HETATM   11  C10 UNL     1      -1.133   0.680   0.166  1.00  0.00     0.147 C 
HETATM   12  O2  UNL     1      -1.951   1.693  -0.432  1.00  0.00    -0.297 OA
HETATM   13  C11 UNL     1      -3.215   1.248  -0.395  1.00  0.00     0.292 C 
HETATM   14  C12 UNL     1      -3.234  -0.180  -0.094  1.00  0.00     0.043 C 
HETATM   15  C13 UNL     1      -4.309  -0.945   0.170  1.00  0.00     0.001 C 
HETATM   16  O3  UNL     1      -4.207   1.912  -0.586  1.00  0.00    -0.259 OA
HETATM   17  C14 UNL     1       1.371  -0.137   1.920  1.00  0.00     0.007 C 
HETATM   18  C15 UNL     1       0.227   2.668  -1.598  1.00  0.00     0.033 C 
HETATM   19  O4  UNL     1       2.975   2.260  -1.941  1.00  0.00    -0.292 OA
ENDROOT
TORSDOF 0
