REMARK  7 active torsions:
REMARK  status: ('A' for Active; 'I' for Inactive)
REMARK    1  A    between atoms: C13_14  and  O3_17 
REMARK    2  A    between atoms: O3_17  and  C15_18 
REMARK    3  A    between atoms: C17_21  and  C20_25 
REMARK    4  A    between atoms: C20_25  and  C21_26 
REMARK    5  A    between atoms: C21_26  and  C22_27 
REMARK    6  A    between atoms: C22_27  and  C23_28 
REMARK    7  A    between atoms: C23_28  and  O7_30 
ROOT
HETATM    1  C1  UNL     1       5.285   0.850  -1.117  1.00  0.00     0.033 C 
HETATM    2  C2  UNL     1       5.717   1.566   0.166  1.00  0.00     0.152 C 
HETATM    3  C3  UNL     1       4.961   1.025   1.400  1.00  0.00     0.029 C 
HETATM    4  C4  UNL     1       3.428   1.145   1.160  1.00  0.00     0.009 C 
HETATM    5  C5  UNL     1       2.912   0.467  -0.150  1.00  0.00     0.021 C 
HETATM    6  C6  UNL     1       3.771   0.969  -1.344  1.00  0.00     0.007 C 
HETATM    7  C7  UNL     1       1.400   0.713  -0.314  1.00  0.00     0.009 C 
HETATM    8  C8  UNL     1       0.607   0.941   0.773  1.00  0.00    -0.009 C 
HETATM    9  C9  UNL     1       1.123   0.887   2.207  1.00  0.00     0.171 C 
HETATM   10  C10 UNL     1       2.629   0.625   2.361  1.00  0.00     0.038 C 
HETATM   11  O1  UNL     1       0.459  -0.127   2.936  1.00  0.00    -0.219 OA
HETATM   12  C11 UNL     1      -0.861   1.272   0.514  1.00  0.00     0.071 C 
HETATM   13  C12 UNL     1      -1.412   0.205  -0.457  1.00  0.00     0.043 C 
HETATM   14  C13 UNL     1      -0.729   0.414  -1.816  1.00  0.00     0.185 C 
HETATM   15  C14 UNL     1       0.762   0.688  -1.676  1.00  0.00     0.196 C 
HETATM   16  O2  UNL     1       1.396   0.883  -2.686  1.00  0.00    -0.289 OA
HETATM   17  C17 UNL     1      -2.940   0.395  -0.330  1.00  0.00     0.011 C 
HETATM   18  C18 UNL     1      -3.113   0.531   1.191  1.00  0.00     0.065 C 
HETATM   19  C19 UNL     1      -1.852   1.205   1.650  1.00  0.00     0.153 C 
HETATM   20  O5  UNL     1      -1.684   1.643   2.766  1.00  0.00    -0.296 OA
HETATM   21  C26 UNL     1      -1.102  -1.213   0.061  1.00  0.00     0.004 C 
HETATM   22  C27 UNL     1      -0.951   2.701  -0.025  1.00  0.00     0.012 C 
HETATM   23  C28 UNL     1       3.055  -1.061  -0.072  1.00  0.00     0.004 C 
HETATM   24  C29 UNL     1       5.352  -0.437   1.674  1.00  0.00     0.003 C 
HETATM   25  C30 UNL     1       5.356   1.856   2.631  1.00  0.00     0.003 C 
HETATM   26  O8  UNL     1       7.117   1.418   0.324  1.00  0.00    -0.224 OA
ENDROOT
BRANCH  17  27
HETATM   27  C20 UNL     1      -3.779  -0.734  -0.926  1.00  0.00     0.001 C 
HETATM   28  C25 UNL     1      -4.971  -0.143  -1.676  1.00  0.00     0.000 C 
BRANCH  27  29
HETATM   29  C21 UNL     1      -4.199  -1.697   0.186  1.00  0.00     0.010 C 
BRANCH  29  30
HETATM   30  C22 UNL     1      -5.006  -2.887  -0.338  1.00  0.00     0.096 C 
BRANCH  30  31
HETATM   31  C23 UNL     1      -5.320  -3.887   0.742  1.00  0.00     0.272 C 
HETATM   32  O6  UNL     1      -4.963  -3.705   1.883  1.00  0.00    -0.264 OA
BRANCH  31  33
HETATM   33  O7  UNL     1      -6.006  -4.953   0.344  1.00  0.00    -0.299 OA
HETATM   34  C24 UNL     1      -6.262  -5.861   1.404  1.00  0.00     0.184 C 
ENDBRANCH  31  33
ENDBRANCH  30  31
ENDBRANCH  29  30
ENDBRANCH  27  29
ENDBRANCH  17  27
BRANCH  14  35
HETATM   35  O3  UNL     1      -1.336   1.494  -2.512  1.00  0.00    -0.296 OA
BRANCH  35  36
HETATM   36  C15 UNL     1      -1.096   1.451  -3.820  1.00  0.00     0.273 C 
HETATM   37  O4  UNL     1      -0.543   0.531  -4.373  1.00  0.00    -0.264 OA
HETATM   38  C16 UNL     1      -1.566   2.652  -4.596  1.00  0.00     0.106 C 
ENDBRANCH  35  36
ENDBRANCH  14  35
TORSDOF 7
