REMARK  14 active torsions:
REMARK  status: ('A' for Active; 'I' for Inactive)
REMARK    1  A    between atoms: C1_1  and  O21_54 
REMARK    2  A    between atoms: C2_2  and  O10_31 
REMARK    3  A    between atoms: C3_3  and  O9_29 
REMARK    4  A    between atoms: C5_5  and  C7_7 
REMARK    5  A    between atoms: C7_7  and  O1_8 
REMARK    6  A    between atoms: O1_8  and  C8_9 
REMARK    7  A    between atoms: C13_14  and  O2_15 
REMARK    8  A    between atoms: O2_15  and  C14_16 
REMARK    9  A    between atoms: C18_20  and  C19_22 
REMARK   10  A    between atoms: O10_31  and  C22_32 
REMARK   11  A    between atoms: C26_36  and  C27_38 
REMARK   12  A    between atoms: C27_38  and  O12_39 
REMARK   13  A    between atoms: O12_39  and  C28_40 
REMARK   14  A    between atoms: C32_44  and  C33_46 
ROOT
HETATM    1  C1  UNL     1      -0.443   2.373  -0.070  1.00  0.00     0.118 A 
HETATM    2  C2  UNL     1      -0.863   2.281   1.270  1.00  0.00     0.141 A 
HETATM    3  C3  UNL     1      -1.541   1.131   1.717  1.00  0.00     0.118 A 
HETATM    4  C4  UNL     1      -1.799   0.076   0.824  1.00  0.00     0.032 A 
HETATM    5  C5  UNL     1      -1.381   0.168  -0.516  1.00  0.00     0.068 A 
HETATM    6  C6  UNL     1      -0.703   1.316  -0.961  1.00  0.00     0.032 A 
ENDROOT
BRANCH   2   7
HETATM    7  O10 UNL     1      -0.621   3.272   2.106  1.00  0.00    -0.300 OA
BRANCH   7   8
HETATM    8  C22 UNL     1       0.734   3.555   2.430  1.00  0.00     0.274 C 
HETATM    9  C23 UNL     1       0.820   4.854   3.260  1.00  0.00     0.241 C 
HETATM   10  C24 UNL     1       2.264   5.115   3.740  1.00  0.00     0.220 C 
HETATM   11  O20 UNL     1       0.373   5.932   2.455  1.00  0.00    -0.215 OA
HETATM   12  C25 UNL     1       2.820   3.848   4.426  1.00  0.00     0.215 C 
HETATM   13  O19 UNL     1       2.275   6.201   4.653  1.00  0.00    -0.218 OA
HETATM   14  C26 UNL     1       2.633   2.596   3.535  1.00  0.00     0.180 C 
HETATM   15  O18 UNL     1       4.201   4.012   4.692  1.00  0.00    -0.218 OA
HETATM   16  O11 UNL     1       1.262   2.469   3.182  1.00  0.00    -0.326 OA
BRANCH  14  17
HETATM   17  C27 UNL     1       3.027   1.295   4.242  1.00  0.00     0.177 C 
BRANCH  17  18
HETATM   18  O12 UNL     1       2.973   0.248   3.299  1.00  0.00    -0.326 OA
BRANCH  18  19
HETATM   19  C28 UNL     1       3.272  -1.018   3.854  1.00  0.00     0.270 C 
HETATM   20  C29 UNL     1       2.977  -2.143   2.830  1.00  0.00     0.241 C 
HETATM   21  C30 UNL     1       3.445  -3.516   3.365  1.00  0.00     0.220 C 
HETATM   22  O17 UNL     1       1.582  -2.189   2.572  1.00  0.00    -0.215 OA
HETATM   23  C31 UNL     1       4.904  -3.418   3.860  1.00  0.00     0.215 C 
HETATM   24  O16 UNL     1       3.350  -4.488   2.336  1.00  0.00    -0.218 OA
HETATM   25  C32 UNL     1       5.092  -2.232   4.834  1.00  0.00     0.184 C 
HETATM   26  O15 UNL     1       5.266  -4.615   4.526  1.00  0.00    -0.218 OA
HETATM   27  O13 UNL     1       4.648  -1.035   4.209  1.00  0.00    -0.326 OA
BRANCH  25  28
HETATM   28  C33 UNL     1       6.555  -2.008   5.229  1.00  0.00     0.214 C 
HETATM   29  O14 UNL     1       6.594  -1.025   6.238  1.00  0.00    -0.218 OA
ENDBRANCH  25  28
ENDBRANCH  18  19
ENDBRANCH  17  18
ENDBRANCH  14  17
ENDBRANCH   7   8
ENDBRANCH   2   7
BRANCH   1  30
HETATM   30  O21 UNL     1       0.191   3.447  -0.494  1.00  0.00    -0.326 OA
HETATM   31  C34 UNL     1       0.682   3.449  -1.826  1.00  0.00     0.181 C 
ENDBRANCH   1  30
BRANCH   3  32
HETATM   32  O9  UNL     1      -1.936   1.041   2.973  1.00  0.00    -0.326 OA
HETATM   33  C21 UNL     1      -2.615  -0.141   3.373  1.00  0.00     0.181 C 
ENDBRANCH   3  32
BRANCH   5  34
HETATM   34  C7  UNL     1      -1.656  -0.955  -1.463  1.00  0.00     0.300 C 
HETATM   35  O8  UNL     1      -2.234  -1.949  -1.096  1.00  0.00    -0.259 OA
BRANCH  34  36
HETATM   36  O1  UNL     1      -1.221  -0.766  -2.705  1.00  0.00    -0.271 OA
BRANCH  36  37
HETATM   37  C8  UNL     1      -1.084  -1.809  -3.500  1.00  0.00     0.125 A 
HETATM   38  C9  UNL     1      -0.611  -3.027  -2.982  1.00  0.00     0.023 A 
HETATM   39  C10 UNL     1      -0.463  -4.145  -3.822  1.00  0.00    -0.020 A 
HETATM   40  C11 UNL     1      -0.787  -4.041  -5.186  1.00  0.00    -0.002 A 
HETATM   41  C20 UNL     1       0.037  -5.430  -3.269  1.00  0.00     0.031 C 
HETATM   42  C12 UNL     1      -1.260  -2.824  -5.705  1.00  0.00     0.026 A 
HETATM   43  C13 UNL     1      -1.408  -1.707  -4.865  1.00  0.00     0.119 A 
BRANCH  43  44
HETATM   44  O2  UNL     1      -1.852  -0.568  -5.359  1.00  0.00    -0.302 OA
BRANCH  44  45
HETATM   45  C14 UNL     1      -3.115  -0.092  -4.912  1.00  0.00     0.274 C 
HETATM   46  C15 UNL     1      -3.369   1.328  -5.457  1.00  0.00     0.241 C 
HETATM   47  C16 UNL     1      -4.789   1.818  -5.096  1.00  0.00     0.220 C 
HETATM   48  O7  UNL     1      -2.400   2.203  -4.908  1.00  0.00    -0.215 OA
HETATM   49  C17 UNL     1      -5.826   0.750  -5.504  1.00  0.00     0.215 C 
HETATM   50  O6  UNL     1      -5.061   3.037  -5.768  1.00  0.00    -0.218 OA
HETATM   51  C18 UNL     1      -5.445  -0.645  -4.959  1.00  0.00     0.184 C 
HETATM   52  O5  UNL     1      -7.102   1.104  -4.998  1.00  0.00    -0.218 OA
HETATM   53  O3  UNL     1      -4.127  -0.973  -5.377  1.00  0.00    -0.326 OA
BRANCH  51  54
HETATM   54  C19 UNL     1      -6.363  -1.760  -5.475  1.00  0.00     0.214 C 
HETATM   55  O4  UNL     1      -6.039  -2.949  -4.789  1.00  0.00    -0.218 OA
ENDBRANCH  51  54
ENDBRANCH  44  45
ENDBRANCH  43  44
ENDBRANCH  36  37
ENDBRANCH  34  36
ENDBRANCH   5  34
TORSDOF 14
