REMARK  1 active torsions:
REMARK  status: ('A' for Active; 'I' for Inactive)
REMARK    1  A    between atoms: C12_13  and  C13_14 
ROOT
HETATM    1  C13 UNL     1      -0.976  -0.197   2.154  1.00  0.00     0.009 A 
HETATM    2  C14 UNL     1      -1.002  -1.119   3.228  1.00  0.00     0.129 A 
HETATM    3  C15 UNL     1      -1.314  -2.475   2.984  1.00  0.00     0.051 A 
HETATM    4  C16 UNL     1      -1.598  -2.920   1.670  1.00  0.00     0.092 A 
HETATM    5  C17 UNL     1      -1.518  -2.010   0.576  1.00  0.00     0.006 A 
HETATM    6  C18 UNL     1      -1.238  -0.641   0.838  1.00  0.00    -0.004 A 
HETATM    7  C19 UNL     1      -1.725  -2.486  -0.828  1.00  0.00     0.077 C 
HETATM    8  C20 UNL     1      -1.994  -4.031  -0.934  1.00  0.00     0.165 C 
HETATM    9  C21 UNL     1      -2.666  -4.598   0.322  1.00  0.00     0.180 C 
HETATM   10  O2  UNL     1      -1.943  -4.209   1.490  1.00  0.00    -0.328 OA
HETATM   11  C22 UNL     1      -0.607  -4.703  -1.217  1.00  0.00     0.053 C 
HETATM   12  C23 UNL     1       0.188  -3.582  -1.838  1.00  0.00    -0.021 A 
HETATM   13  C24 UNL     1      -0.445  -2.340  -1.637  1.00  0.00    -0.018 A 
HETATM   14  C25 UNL     1       0.149  -1.172  -2.192  1.00  0.00     0.025 A 
HETATM   15  C26 UNL     1       1.361  -1.227  -2.906  1.00  0.00     0.156 A 
HETATM   16  C27 UNL     1       2.004  -2.467  -3.082  1.00  0.00     0.156 A 
HETATM   17  C28 UNL     1       1.416  -3.633  -2.551  1.00  0.00     0.025 A 
HETATM   18  O3  UNL     1       3.164  -2.543  -3.752  1.00  0.00    -0.188 OA
HETATM   19  O4  UNL     1       1.897  -0.107  -3.412  1.00  0.00    -0.188 OA
HETATM   20  C29 UNL     1      -0.633  -5.963  -2.086  1.00  0.00     0.007 C 
HETATM   21  O5  UNL     1      -2.873  -4.258  -2.029  1.00  0.00    -0.222 OA
HETATM   22  O6  UNL     1      -0.738  -0.715   4.479  1.00  0.00    -0.190 OA
ENDROOT
BRANCH   1  23
HETATM   23  C12 UNL     1      -0.674   1.230   2.402  1.00  0.00     0.077 C 
HETATM   24  C8  UNL     1       0.832   1.633   2.248  1.00  0.00     0.169 C 
HETATM   25  C7  UNL     1       1.557   0.830   1.141  1.00  0.00     0.180 C 
HETATM   26  C9  UNL     1       0.785   3.148   1.846  1.00  0.00     0.077 C 
HETATM   27  O9  UNL     1       1.525   1.463   3.473  1.00  0.00    -0.222 OA
HETATM   28  O1  UNL     1       2.830   1.393   0.820  1.00  0.00    -0.328 OA
HETATM   29  C5  UNL     1       2.963   2.719   0.633  1.00  0.00     0.093 A 
HETATM   30  C4  UNL     1       1.984   3.639   1.103  1.00  0.00     0.006 A 
HETATM   31  C6  UNL     1       4.115   3.191  -0.039  1.00  0.00     0.051 A 
HETATM   32  C3  UNL     1       2.178   5.027   0.887  1.00  0.00     0.000 A 
HETATM   33  C2  UNL     1       3.324   5.494   0.205  1.00  0.00     0.027 A 
HETATM   34  C1  UNL     1       4.293   4.576  -0.258  1.00  0.00     0.133 A 
HETATM   35  O10 UNL     1       5.383   5.020  -0.902  1.00  0.00    -0.190 OA
HETATM   36  C10 UNL     1      -0.531   3.240   1.088  1.00  0.00    -0.017 A 
HETATM   37  C11 UNL     1      -1.361   2.148   1.416  1.00  0.00    -0.017 A 
HETATM   38  C33 UNL     1      -1.012   4.217   0.170  1.00  0.00     0.025 A 
HETATM   39  C30 UNL     1      -2.652   2.057   0.828  1.00  0.00     0.025 A 
HETATM   40  C31 UNL     1      -3.117   3.025  -0.082  1.00  0.00     0.156 A 
HETATM   41  C32 UNL     1      -2.291   4.115  -0.414  1.00  0.00     0.156 A 
HETATM   42  O8  UNL     1      -4.338   2.908  -0.625  1.00  0.00    -0.188 OA
HETATM   43  O7  UNL     1      -2.713   5.051  -1.277  1.00  0.00    -0.188 OA
ENDBRANCH   1  23
TORSDOF 1
