REMARK  3 active torsions:
REMARK  status: ('A' for Active; 'I' for Inactive)
REMARK    1  A    between atoms: C1_1  and  C2_2 
REMARK    2  A    between atoms: C1_1  and  C17_27 
REMARK    3  A    between atoms: C6_8  and  C13_21 
ROOT
HETATM    1  C2  UNL     1       1.820  -0.656   0.268  1.00  0.00     0.191 C 
HETATM    2  N1  UNL     1       0.602  -1.244   0.877  1.00  0.00    -0.228 NA
HETATM    3  C3  UNL     1      -0.500  -1.605   0.133  1.00  0.00     0.274 C 
HETATM    4  C4  UNL     1      -1.699  -2.201   0.852  1.00  0.00     0.186 C 
HETATM    5  N2  UNL     1      -2.891  -2.318  -0.033  1.00  0.00    -0.229 NA
HETATM    6  C5  UNL     1      -3.934  -1.418  -0.092  1.00  0.00     0.274 C 
HETATM    7  C6  UNL     1      -4.004  -0.170   0.775  1.00  0.00     0.186 C 
HETATM    8  N3  UNL     1      -3.221   0.969   0.227  1.00  0.00    -0.229 NA
HETATM    9  C7  UNL     1      -3.449   1.494  -1.029  1.00  0.00     0.277 C 
HETATM   10  C8  UNL     1      -2.678   2.705  -1.514  1.00  0.00     0.218 C 
HETATM   11  N4  UNL     1      -1.203   2.588  -1.397  1.00  0.00    -0.226 NA
HETATM   12  C9  UNL     1      -0.488   3.258  -0.426  1.00  0.00     0.274 C 
HETATM   13  C10 UNL     1       1.018   3.111  -0.334  1.00  0.00     0.186 C 
HETATM   14  N5  UNL     1       1.389   1.805   0.266  1.00  0.00    -0.229 NA
HETATM   15  C11 UNL     1       1.500   0.637  -0.459  1.00  0.00     0.275 C 
HETATM   16  O1  UNL     1       1.338   0.635  -1.658  1.00  0.00    -0.268 OA
HETATM   17  C12 UNL     1       1.744   3.379  -1.662  1.00  0.00     0.037 C 
HETATM   18  O2  UNL     1      -1.062   3.969   0.367  1.00  0.00    -0.268 OA
HETATM   19  O3  UNL     1      -4.281   0.998  -1.754  1.00  0.00    -0.268 OA
HETATM   20  O4  UNL     1      -4.836  -1.643  -0.869  1.00  0.00    -0.268 OA
HETATM   21  C16 UNL     1      -1.352  -3.586   1.408  1.00  0.00     0.037 C 
HETATM   22  O5  UNL     1      -0.502  -1.447  -1.066  1.00  0.00    -0.268 OA
ENDROOT
BRANCH   1  23
HETATM   23  C1  UNL     1       2.510  -1.680  -0.641  1.00  0.00     0.062 C 
BRANCH  23  24
HETATM   24  C17 UNL     1       3.861  -1.178  -1.107  1.00  0.00     0.001 A 
HETATM   25  C18 UNL     1       5.029  -1.187  -0.430  1.00  0.00     0.015 A 
HETATM   26  C19 UNL     1       6.063  -0.650  -1.158  1.00  0.00     0.081 A 
HETATM   27  C24 UNL     1       5.236  -1.678   0.885  1.00  0.00     0.001 A 
HETATM   28  N6  UNL     1       5.533  -0.271  -2.381  1.00  0.00    -0.244 NA
HETATM   29  C21 UNL     1       7.373  -0.564  -0.633  1.00  0.00     0.019 A 
HETATM   30  C20 UNL     1       4.154  -0.598  -2.357  1.00  0.00     0.095 A 
HETATM   31  C22 UNL     1       7.608  -1.049   0.680  1.00  0.00     0.002 A 
HETATM   32  C23 UNL     1       6.541  -1.603   1.437  1.00  0.00     0.000 A 
ENDBRANCH  23  24
ENDBRANCH   1  23
BRANCH   7  33
HETATM   33  C13 UNL     1      -5.453   0.272   1.010  1.00  0.00     0.032 C 
HETATM   34  C14 UNL     1      -6.313  -0.830   1.635  1.00  0.00     0.003 C 
HETATM   35  C15 UNL     1      -5.551   1.596   1.768  1.00  0.00     0.003 C 
ENDBRANCH   7  33
TORSDOF 3
