REMARK  2 active torsions:
REMARK  status: ('A' for Active; 'I' for Inactive)
REMARK    1  A    between atoms: C4_4  and  O2_17 
REMARK    2  A    between atoms: C9_9  and  O1_15 
ROOT
HETATM    1  C1  UNL     1       3.260   1.119   0.219  1.00  0.00     0.023 A 
HETATM    2  C2  UNL     1       3.893  -0.123   0.000  1.00  0.00     0.133 A 
HETATM    3  C3  UNL     1       3.113  -1.273  -0.242  1.00  0.00     0.051 A 
HETATM    4  C4  UNL     1       1.701  -1.197  -0.262  1.00  0.00     0.096 A 
HETATM    5  C5  UNL     1       1.043   0.051  -0.018  1.00  0.00     0.018 A 
HETATM    6  C6  UNL     1      -0.439   0.205   0.008  1.00  0.00    -0.002 A 
HETATM    7  C7  UNL     1      -1.328  -0.891   0.217  1.00  0.00     0.002 A 
HETATM    8  C8  UNL     1      -2.728  -0.699   0.211  1.00  0.00     0.024 A 
HETATM    9  C9  UNL     1      -3.268   0.588   0.008  1.00  0.00     0.094 A 
HETATM   10  C10 UNL     1      -2.406   1.691  -0.178  1.00  0.00     0.020 A 
HETATM   11  C11 UNL     1      -1.000   1.508  -0.172  1.00  0.00    -0.020 A 
HETATM   12  C12 UNL     1      -0.107   2.678  -0.359  1.00  0.00     0.031 C 
HETATM   13  C13 UNL     1       1.201   2.529   0.440  1.00  0.00     0.031 C 
HETATM   14  C14 UNL     1       1.846   1.213   0.209  1.00  0.00    -0.018 A 
HETATM   15  O3  UNL     1       5.231  -0.207   0.020  1.00  0.00    -0.190 OA
ENDROOT
BRANCH   4  16
HETATM   16  O2  UNL     1       1.031  -2.324  -0.541  1.00  0.00    -0.328 OA
HETATM   17  C16 UNL     1       1.688  -3.563  -0.312  1.00  0.00     0.181 C 
ENDBRANCH   4  16
BRANCH   9  18
HETATM   18  O1  UNL     1      -4.596   0.766  -0.002  1.00  0.00    -0.328 OA
HETATM   19  C15 UNL     1      -5.424  -0.381   0.127  1.00  0.00     0.181 C 
ENDBRANCH   9  18
TORSDOF 2
