REMARK  6 active torsions:
REMARK  status: ('A' for Active; 'I' for Inactive)
REMARK    1  A    between atoms: C3_3  and  C8_9 
REMARK    2  A    between atoms: C8_9  and  C9_10 
REMARK    3  A    between atoms: C8_9  and  O4_19 
REMARK    4  A    between atoms: C9_10  and  O2_11 
REMARK    5  A    between atoms: O2_11  and  C10_12 
REMARK    6  A    between atoms: C10_12  and  C11_14 
ROOT
HETATM    1  C8  UNL     1       0.228  -0.270  -0.572  1.00  0.00     0.141 C 
HETATM    2  C15 UNL     1      -0.475   0.750  -1.471  1.00  0.00     0.037 C 
ENDROOT
BRANCH   1   3
HETATM    3  C3  UNL     1      -0.479  -1.578  -0.572  1.00  0.00     0.030 A 
HETATM    4  C2  UNL     1       0.268  -2.770  -0.572  1.00  0.00    -0.000 A 
HETATM    5  C1  UNL     1      -0.389  -4.012  -0.572  1.00  0.00    -0.004 A 
HETATM    6  C6  UNL     1      -1.793  -4.065  -0.572  1.00  0.00    -0.020 A 
HETATM    7  C5  UNL     1      -2.539  -2.871  -0.572  1.00  0.00     0.023 A 
HETATM    8  C7  UNL     1      -2.490  -5.377  -0.572  1.00  0.00     0.031 C 
HETATM    9  C4  UNL     1      -1.885  -1.627  -0.572  1.00  0.00     0.129 A 
HETATM   10  O1  UNL     1      -2.594  -0.516  -0.572  1.00  0.00    -0.190 OA
ENDBRANCH   1   3
BRANCH   1  11
HETATM   11  C9  UNL     1       0.305   0.330   0.834  1.00  0.00     0.183 C 
BRANCH  11  12
HETATM   12  O2  UNL     1       0.975   1.580   0.779  1.00  0.00    -0.296 OA
BRANCH  12  13
HETATM   13  C10 UNL     1       1.072   2.154   1.975  1.00  0.00     0.291 C 
HETATM   14  O3  UNL     1       0.639   1.668   2.992  1.00  0.00    -0.260 OA
BRANCH  13  15
HETATM   15  C11 UNL     1       1.758   3.451   2.006  1.00  0.00     0.037 C 
HETATM   16  C12 UNL     1       3.049   3.627   2.760  1.00  0.00     0.036 C 
HETATM   17  C13 UNL     1       1.246   4.512   1.358  1.00  0.00    -0.025 C 
HETATM   18  C14 UNL     1      -0.045   4.336   0.604  1.00  0.00     0.030 C 
ENDBRANCH  13  15
ENDBRANCH  12  13
ENDBRANCH  11  12
ENDBRANCH   1  11
BRANCH   1  19
HETATM   19  O4  UNL     1       1.543  -0.443  -1.049  1.00  0.00    -0.350 OA
HETATM   20  C16 UNL     1       1.598  -0.770  -2.420  1.00  0.00     0.175 C 
ENDBRANCH   1  19
TORSDOF 6
