REMARK  4 active torsions:
REMARK  status: ('A' for Active; 'I' for Inactive)
REMARK    1  A    between atoms: C2_2  and  O7_24 
REMARK    2  A    between atoms: C8_9  and  C10_12 
REMARK    3  A    between atoms: C13_15  and  O4_20 
REMARK    4  A    between atoms: C14_16  and  O3_18 
ROOT
HETATM    1  C1  UNL     1       4.217   2.625  -0.344  1.00  0.00     0.157 A 
HETATM    2  C2  UNL     1       4.363   1.217  -0.344  1.00  0.00     0.145 A 
HETATM    3  C3  UNL     1       3.221   0.381  -0.316  1.00  0.00     0.160 A 
HETATM    4  C4  UNL     1       1.926   0.963  -0.291  1.00  0.00     0.089 A 
HETATM    5  C5  UNL     1       1.777   2.377  -0.287  1.00  0.00     0.107 A 
HETATM    6  C6  UNL     1       2.926   3.203  -0.316  1.00  0.00     0.054 A 
HETATM    7  O1  UNL     1       0.547   2.935  -0.258  1.00  0.00    -0.305 OA
HETATM    8  C7  UNL     1      -0.590   2.211  -0.229  1.00  0.00     0.126 A 
HETATM    9  C8  UNL     1      -0.588   0.859  -0.231  1.00  0.00     0.064 A 
HETATM   10  C9  UNL     1       0.699   0.115  -0.264  1.00  0.00     0.202 A 
HETATM   11  O2  UNL     1       0.654  -1.094  -0.268  1.00  0.00    -0.286 OA
HETATM   12  O6  UNL     1       3.375  -0.951  -0.318  1.00  0.00    -0.188 OA
HETATM   13  O8  UNL     1       5.299   3.414  -0.369  1.00  0.00    -0.188 OA
ENDROOT
BRANCH   9  14
HETATM   14  C10 UNL     1      -1.887   0.121  -0.199  1.00  0.00     0.009 A 
HETATM   15  C11 UNL     1      -2.984   0.600  -0.936  1.00  0.00     0.030 A 
HETATM   16  C12 UNL     1      -4.209  -0.094  -0.908  1.00  0.00     0.155 A 
HETATM   17  C13 UNL     1      -4.334  -1.268  -0.141  1.00  0.00     0.141 A 
HETATM   18  O5  UNL     1      -5.234   0.359  -1.600  1.00  0.00    -0.188 OA
HETATM   19  C14 UNL     1      -3.234  -1.746   0.596  1.00  0.00     0.118 A 
HETATM   20  C15 UNL     1      -2.012  -1.051   0.564  1.00  0.00     0.026 A 
BRANCH  17  21
HETATM   21  O4  UNL     1      -5.481  -1.918  -0.113  1.00  0.00    -0.324 OA
HETATM   22  C17 UNL     1      -5.445  -3.334  -0.211  1.00  0.00     0.182 C 
ENDBRANCH  17  21
BRANCH  19  23
HETATM   23  O3  UNL     1      -3.346  -2.846   1.314  1.00  0.00    -0.326 OA
HETATM   24  C16 UNL     1      -2.174  -3.369   1.920  1.00  0.00     0.181 C 
ENDBRANCH  19  23
ENDBRANCH   9  14
BRANCH   2  25
HETATM   25  O7  UNL     1       5.588   0.672  -0.367  1.00  0.00    -0.324 OA
HETATM   26  C18 UNL     1       6.619   1.316   0.367  1.00  0.00     0.182 C 
ENDBRANCH   2  25
TORSDOF 4
