REMARK  1 active torsions:
REMARK  status: ('A' for Active; 'I' for Inactive)
REMARK    1  A    between atoms: C2_2  and  C8_8 
ROOT
HETATM    1  C1  UNL     1       1.051  -0.543  -0.391  1.00  0.00    -0.032 C 
HETATM    2  C2  UNL     1      -0.295  -0.512  -0.385  1.00  0.00    -0.021 C 
HETATM    3  C3  UNL     1      -0.998   0.699  -0.951  1.00  0.00     0.024 C 
HETATM    4  C4  UNL     1      -0.340   2.004  -0.463  1.00  0.00     0.005 C 
HETATM    5  C5  UNL     1       1.213   1.984  -0.488  1.00  0.00     0.005 C 
HETATM    6  C6  UNL     1       1.797   0.637  -0.969  1.00  0.00     0.025 C 
HETATM    7  C7  UNL     1       1.793   2.367   0.879  1.00  0.00     0.000 C 
ENDROOT
BRANCH   2   8
HETATM    8  C8  UNL     1      -1.105  -1.649   0.180  1.00  0.00     0.142 C 
HETATM    9  C9  UNL     1      -1.988  -1.213   1.350  1.00  0.00     0.037 C 
HETATM   10  C10 UNL     1      -0.246  -2.869   0.512  1.00  0.00     0.037 C 
HETATM   11  O1  UNL     1      -1.943  -1.981  -0.904  1.00  0.00    -0.222 OA
ENDBRANCH   2   8
TORSDOF 1
