REMARK  0 active torsions:
REMARK  status: ('A' for Active; 'I' for Inactive)
ROOT
HETATM    1  O1  UNL     1       2.678  -0.615   0.637  1.00  0.00    -0.218 OA
HETATM    2  C1  UNL     1       1.465  -0.256  -0.010  1.00  0.00     0.218 C 
HETATM    3  C2  UNL     1       0.937   1.100   0.522  1.00  0.00     0.218 C 
HETATM    4  O2  UNL     1       1.900   2.125   0.332  1.00  0.00    -0.218 OA
HETATM    5  C3  UNL     1      -0.412   1.504  -0.137  1.00  0.00     0.218 C 
HETATM    6  O3  UNL     1      -0.225   1.824  -1.506  1.00  0.00    -0.218 OA
HETATM    7  C4  UNL     1      -1.479   0.383  -0.039  1.00  0.00     0.218 C 
HETATM    8  O4  UNL     1      -1.940   0.320   1.297  1.00  0.00    -0.218 OA
HETATM    9  C5  UNL     1      -0.963  -1.020  -0.461  1.00  0.00     0.218 C 
HETATM   10  O5  UNL     1      -0.856  -1.064  -1.873  1.00  0.00    -0.218 OA
HETATM   11  C6  UNL     1       0.416  -1.393   0.145  1.00  0.00     0.218 C 
HETATM   12  O6  UNL     1       0.225  -1.715   1.514  1.00  0.00    -0.218 OA
ENDROOT
TORSDOF 0
