REMARK  6 active torsions:
REMARK  status: ('A' for Active; 'I' for Inactive)
REMARK    1  A    between atoms: C15_16  and  C18_19 
REMARK    2  A    between atoms: C18_19  and  C19_20 
REMARK    3  A    between atoms: C19_20  and  C20_21 
REMARK    4  A    between atoms: C20_21  and  C21_22 
REMARK    5  A    between atoms: C21_22  and  C22_23 
REMARK    6  A    between atoms: C21_22  and  C25_26 
ROOT
HETATM    1  C1  UNL     1      -6.321   0.355   1.791  1.00  0.00     0.034 C 
HETATM    2  C2  UNL     1      -7.000   1.600   1.176  1.00  0.00     0.156 C 
HETATM    3  C3  UNL     1      -6.100   2.848   1.188  1.00  0.00     0.055 C 
HETATM    4  C4  UNL     1      -4.711   2.603   0.625  1.00  0.00    -0.039 C 
HETATM    5  C5  UNL     1      -4.139   1.189   0.660  1.00  0.00     0.016 C 
HETATM    6  C6  UNL     1      -4.783   0.439   1.850  1.00  0.00     0.006 C 
HETATM    7  C7  UNL     1      -2.590   1.264   0.811  1.00  0.00     0.011 C 
HETATM    8  C8  UNL     1      -1.969   2.127  -0.318  1.00  0.00     0.062 C 
HETATM    9  C9  UNL     1      -2.631   3.486  -0.398  1.00  0.00     0.172 C 
HETATM   10  C10 UNL     1      -4.002   3.635   0.119  1.00  0.00     0.029 C 
HETATM   11  O1  UNL     1      -2.059   4.439  -0.871  1.00  0.00    -0.291 OA
HETATM   12  C11 UNL     1      -0.434   2.217  -0.205  1.00  0.00     0.007 C 
HETATM   13  C12 UNL     1       0.244   0.844  -0.076  1.00  0.00     0.000 C 
HETATM   14  C13 UNL     1      -0.383   0.010   1.057  1.00  0.00     0.000 C 
HETATM   15  C14 UNL     1      -1.901  -0.115   0.869  1.00  0.00     0.001 C 
HETATM   16  C15 UNL     1       1.680   1.295   0.229  1.00  0.00     0.000 C 
HETATM   17  C16 UNL     1       1.510   2.424   1.246  1.00  0.00     0.000 C 
HETATM   18  C17 UNL     1       0.115   3.000   0.994  1.00  0.00     0.000 C 
HETATM   19  C28 UNL     1       0.209   0.103  -1.414  1.00  0.00     0.000 C 
HETATM   20  C29 UNL     1      -4.500   0.478  -0.654  1.00  0.00     0.004 C 
HETATM   21  O2  UNL     1      -7.381   1.326  -0.160  1.00  0.00    -0.223 OA
ENDROOT
BRANCH  16  22
HETATM   22  C18 UNL     1       2.586   0.180   0.746  1.00  0.00     0.000 C 
HETATM   23  C27 UNL     1       3.891   0.785   1.268  1.00  0.00     0.000 C 
BRANCH  22  24
HETATM   24  C19 UNL     1       2.814  -0.848  -0.361  1.00  0.00     0.000 C 
BRANCH  24  25
HETATM   25  C20 UNL     1       4.088  -1.666  -0.154  1.00  0.00     0.000 C 
BRANCH  25  26
HETATM   26  C21 UNL     1       4.197  -2.846  -1.123  1.00  0.00     0.000 C 
BRANCH  26  27
HETATM   27  C22 UNL     1       5.436  -2.764  -2.014  1.00  0.00     0.000 C 
HETATM   28  C23 UNL     1       5.652  -4.031  -2.842  1.00  0.00     0.000 C 
HETATM   29  C24 UNL     1       5.469  -1.492  -2.863  1.00  0.00     0.000 C 
ENDBRANCH  26  27
BRANCH  26  30
HETATM   30  C25 UNL     1       4.061  -4.197  -0.422  1.00  0.00     0.000 C 
HETATM   31  C26 UNL     1       2.791  -4.301   0.422  1.00  0.00     0.000 C 
ENDBRANCH  26  30
ENDBRANCH  25  26
ENDBRANCH  24  25
ENDBRANCH  22  24
ENDBRANCH  16  22
TORSDOF 6
