REMARK  3 active torsions:
REMARK  status: ('A' for Active; 'I' for Inactive)
REMARK    1  A    between atoms: C4_4  and  C7_7 
REMARK    2  A    between atoms: C7_7  and  C8_8 
REMARK    3  A    between atoms: C9_9  and  C10_10 
ROOT
HETATM    1  C7  UNL     1       1.633   1.070   1.555  1.00  0.00     0.237 C 
HETATM    2  O2  UNL     1       2.041   1.436   2.639  1.00  0.00    -0.278 OA
ENDROOT
BRANCH   1   3
HETATM    3  C4  UNL     1       2.375   1.297   0.279  1.00  0.00     0.047 A 
HETATM    4  C3  UNL     1       3.535   2.094   0.269  1.00  0.00     0.006 A 
HETATM    5  C2  UNL     1       4.232   2.307  -0.932  1.00  0.00     0.028 A 
HETATM    6  C1  UNL     1       3.777   1.727  -2.127  1.00  0.00     0.131 A 
HETATM    7  C6  UNL     1       2.617   0.930  -2.117  1.00  0.00     0.028 A 
HETATM    8  O3  UNL     1       4.432   1.926  -3.254  1.00  0.00    -0.190 OA
HETATM    9  C5  UNL     1       1.918   0.715  -0.918  1.00  0.00     0.006 A 
ENDBRANCH   1   3
BRANCH   1  10
HETATM   10  C8  UNL     1       0.383   0.371   1.396  1.00  0.00    -0.018 C 
HETATM   11  C9  UNL     1      -0.650  -0.201   1.262  1.00  0.00    -0.056 C 
BRANCH  11  12
HETATM   12  C10 UNL     1      -1.902  -0.890   1.092  1.00  0.00     0.042 A 
HETATM   13  C11 UNL     1      -2.369  -1.740   2.113  1.00  0.00     0.010 A 
HETATM   14  C12 UNL     1      -3.590  -2.412   1.943  1.00  0.00     0.028 A 
HETATM   15  C13 UNL     1      -4.342  -2.236   0.765  1.00  0.00     0.131 A 
HETATM   16  C14 UNL     1      -3.869  -1.383  -0.244  1.00  0.00     0.028 A 
HETATM   17  O1  UNL     1      -5.486  -2.877   0.609  1.00  0.00    -0.190 OA
HETATM   18  C15 UNL     1      -2.651  -0.705  -0.088  1.00  0.00     0.010 A 
ENDBRANCH  11  12
ENDBRANCH   1  10
TORSDOF 3
