REMARK  2 active torsions:
REMARK  status: ('A' for Active; 'I' for Inactive)
REMARK    1  A    between atoms: C5_5  and  C9_9 
REMARK    2  A    between atoms: C10_10  and  C11_11 
ROOT
HETATM    1  C1  UNL     1      -2.184   1.056   0.244  1.00  0.00     0.182 C 
HETATM    2  C2  UNL     1      -1.555   2.381  -0.248  1.00  0.00     0.182 C 
HETATM    3  C3  UNL     1      -0.117   2.535   0.273  1.00  0.00     0.036 C 
HETATM    4  C4  UNL     1       0.762   1.328  -0.092  1.00  0.00     0.007 C 
HETATM    5  C5  UNL     1       0.119   0.006   0.391  1.00  0.00     0.025 C 
HETATM    6  C6  UNL     1      -1.324  -0.178  -0.145  1.00  0.00     0.034 C 
HETATM    7  C7  UNL     1      -1.938  -1.447   0.471  1.00  0.00     0.003 C 
HETATM    8  C8  UNL     1      -1.293  -0.352  -1.674  1.00  0.00     0.003 C 
HETATM    9  C13 UNL     1       2.178   1.513   0.469  1.00  0.00     0.000 C 
HETATM   10  O2  UNL     1      -2.311   3.488   0.207  1.00  0.00    -0.221 OA
HETATM   11  O3  UNL     1      -3.494   0.916  -0.283  1.00  0.00    -0.221 OA
ENDROOT
BRANCH   5  12
HETATM   12  C9  UNL     1       0.996  -1.178   0.049  1.00  0.00    -0.023 C 
HETATM   13  C10 UNL     1       1.459  -1.944   1.049  1.00  0.00     0.033 C 
BRANCH  13  14
HETATM   14  C11 UNL     1       2.312  -3.104   0.769  1.00  0.00     0.173 C 
HETATM   15  C12 UNL     1       3.041  -3.164  -0.547  1.00  0.00     0.077 C 
HETATM   16  O1  UNL     1       2.428  -3.991   1.584  1.00  0.00    -0.291 OA
ENDBRANCH  13  14
ENDBRANCH   5  12
TORSDOF 2
