REMARK  6 active torsions:
REMARK  status: ('A' for Active; 'I' for Inactive)
REMARK    1  A    between atoms: C17_17  and  C18_18 
REMARK    2  A    between atoms: C18_18  and  C19_19 
REMARK    3  A    between atoms: C19_19  and  C20_20 
REMARK    4  A    between atoms: C20_20  and  C21_21 
REMARK    5  A    between atoms: C21_21  and  C22_22 
REMARK    6  A    between atoms: C21_21  and  C25_25 
ROOT
HETATM    1  C1  UNL     1       3.307  -0.865  -2.410  1.00  0.00     0.015 C 
HETATM    2  C2  UNL     1       3.904  -0.523  -3.793  1.00  0.00     0.006 C 
HETATM    3  C3  UNL     1       5.303  -1.125  -4.045  1.00  0.00     0.034 C 
HETATM    4  C4  UNL     1       6.192  -1.234  -2.783  1.00  0.00     0.156 C 
HETATM    5  C5  UNL     1       5.746  -0.309  -1.637  1.00  0.00     0.055 C 
HETATM    6  C6  UNL     1       4.254  -0.313  -1.352  1.00  0.00    -0.044 C 
HETATM    7  C7  UNL     1       3.817   0.189  -0.176  1.00  0.00    -0.002 C 
HETATM    8  C8  UNL     1       2.352   0.373   0.150  1.00  0.00     0.173 C 
HETATM    9  C9  UNL     1       1.389  -0.385  -0.799  1.00  0.00     0.035 C 
HETATM   10  C10 UNL     1       1.861  -0.291  -2.270  1.00  0.00     0.006 C 
HETATM   11  C11 UNL     1       0.869  -0.986  -3.232  1.00  0.00     0.000 C 
HETATM   12  C12 UNL     1      -0.586  -0.557  -3.024  1.00  0.00     0.000 C 
HETATM   13  C13 UNL     1      -1.021  -0.811  -1.568  1.00  0.00     0.000 C 
HETATM   14  C14 UNL     1      -0.111  -0.053  -0.592  1.00  0.00     0.003 C 
HETATM   15  C15 UNL     1      -0.588   1.393  -0.783  1.00  0.00     0.000 C 
HETATM   16  C16 UNL     1      -2.064   1.322  -1.178  1.00  0.00     0.000 C 
HETATM   17  C17 UNL     1      -2.391  -0.168  -1.301  1.00  0.00     0.000 C 
HETATM   18  C28 UNL     1      -1.047  -2.309  -1.252  1.00  0.00     0.000 C 
HETATM   19  O1  UNL     1       2.125   1.766   0.100  1.00  0.00    -0.219 OA
HETATM   20  O2  UNL     1       6.201  -2.570  -2.315  1.00  0.00    -0.223 OA
HETATM   21  C29 UNL     1       3.264  -2.391  -2.223  1.00  0.00     0.004 C 
ENDROOT
BRANCH  17  22
HETATM   22  C18 UNL     1      -3.025  -0.647   0.006  1.00  0.00     0.000 C 
HETATM   23  C27 UNL     1      -4.541  -0.465  -0.066  1.00  0.00     0.000 C 
BRANCH  22  24
HETATM   24  C19 UNL     1      -2.396   0.100   1.182  1.00  0.00     0.000 C 
BRANCH  24  25
HETATM   25  C20 UNL     1      -3.437   0.639   2.164  1.00  0.00     0.000 C 
BRANCH  25  26
HETATM   26  C21 UNL     1      -2.805   1.328   3.373  1.00  0.00     0.000 C 
BRANCH  26  27
HETATM   27  C22 UNL     1      -2.416   0.344   4.477  1.00  0.00     0.000 C 
HETATM   28  C23 UNL     1      -1.350   0.904   5.418  1.00  0.00     0.000 C 
HETATM   29  C24 UNL     1      -3.627  -0.217   5.223  1.00  0.00     0.000 C 
ENDBRANCH  26  27
BRANCH  26  30
HETATM   30  C25 UNL     1      -3.646   2.494   3.895  1.00  0.00     0.000 C 
HETATM   31  C26 UNL     1      -3.662   3.686   2.936  1.00  0.00     0.000 C 
ENDBRANCH  26  30
ENDBRANCH  25  26
ENDBRANCH  24  25
ENDBRANCH  22  24
ENDBRANCH  17  22
TORSDOF 6
