REMARK  5 active torsions:
REMARK  status: ('A' for Active; 'I' for Inactive)
REMARK    1  A    between atoms: C1_1  and  C2_2 
REMARK    2  A    between atoms: C1_1  and  C4_6 
REMARK    3  A    between atoms: C2_2  and  C3_3 
REMARK    4  A    between atoms: C6_8  and  O5_15 
REMARK    5  A    between atoms: C8_10  and  O3_12 
ROOT
HETATM    1  C4  UNL     1       0.422  -0.004  -0.029  1.00  0.00     0.039 A 
HETATM    2  C5  UNL     1       1.078   1.240  -0.029  1.00  0.00     0.029 A 
HETATM    3  C6  UNL     1       0.334   2.432  -0.029  1.00  0.00     0.121 A 
HETATM    4  C7  UNL     1      -1.072   2.381  -0.029  1.00  0.00     0.175 A 
HETATM    5  C8  UNL     1      -1.733   1.137  -0.029  1.00  0.00     0.121 A 
HETATM    6  C9  UNL     1      -0.983  -0.053  -0.029  1.00  0.00     0.029 A 
HETATM    7  O4  UNL     1      -1.774   3.498  -0.029  1.00  0.00    -0.186 OA
ENDROOT
BRANCH   1   8
HETATM    8  C1  UNL     1       1.215  -1.269  -0.029  1.00  0.00     0.176 C 
HETATM    9  O2  UNL     1       2.424  -1.244  -0.025  1.00  0.00    -0.291 OA
BRANCH   8  10
HETATM   10  C2  UNL     1       0.467  -2.574  -0.035  1.00  0.00     0.105 C 
BRANCH  10  11
HETATM   11  C3  UNL     1       1.400  -3.783   0.026  1.00  0.00     0.191 C 
HETATM   12  O1  UNL     1       0.613  -4.951   0.012  1.00  0.00    -0.220 OA
ENDBRANCH  10  11
ENDBRANCH   8  10
ENDBRANCH   1   8
BRANCH   3  13
HETATM   13  O5  UNL     1       0.955   3.594  -0.029  1.00  0.00    -0.326 OA
HETATM   14  C11 UNL     1       2.369   3.596   0.106  1.00  0.00     0.181 C 
ENDBRANCH   3  13
BRANCH   5  15
HETATM   15  O3  UNL     1      -3.049   1.084  -0.029  1.00  0.00    -0.326 OA
HETATM   16  C10 UNL     1      -3.664  -0.195  -0.029  1.00  0.00     0.181 C 
ENDBRANCH   5  15
TORSDOF 5
