REMARK  0 active torsions:
REMARK  status: ('A' for Active; 'I' for Inactive)
ROOT
HETATM    1  C1  UNL     1       3.605  -0.482   0.434  1.00  0.00     0.008 C 
HETATM    2  C2  UNL     1       2.156  -0.965   0.490  1.00  0.00     0.061 C 
HETATM    3  C3  UNL     1       1.818  -1.943  -0.606  1.00  0.00     0.150 C 
HETATM    4  C4  UNL     1       0.400  -1.754  -1.078  1.00  0.00     0.058 C 
HETATM    5  C5  UNL     1      -0.170  -0.793  -0.012  1.00  0.00     0.023 C 
HETATM    6  C6  UNL     1       1.057   0.125   0.363  1.00  0.00     0.048 C 
HETATM    7  C7  UNL     1       0.727   0.865   1.678  1.00  0.00     0.036 C 
HETATM    8  C8  UNL     1      -0.443   1.850   1.389  1.00  0.00     0.153 C 
HETATM    9  C9  UNL     1      -1.719   1.166   0.826  1.00  0.00     0.163 C 
HETATM   10  C10 UNL     1      -1.268   0.242  -0.348  1.00  0.00     0.134 A 
HETATM   11  C11 UNL     1      -1.606   0.631  -1.863  1.00  0.00     0.164 A 
HETATM   12  O1  UNL     1      -2.697  -0.291  -1.861  1.00  0.00    -0.301 OA
HETATM   13  C12 UNL     1      -2.453  -0.633  -0.641  1.00  0.00     0.276 A 
HETATM   14  O2  UNL     1      -3.100  -1.453  -0.033  1.00  0.00    -0.264 OA
HETATM   15  C13 UNL     1      -2.779   2.211   0.447  1.00  0.00     0.036 C 
HETATM   16  O3  UNL     1      -2.279   0.455   1.924  1.00  0.00    -0.223 OA
HETATM   17  O4  UNL     1      -0.035   2.869   0.469  1.00  0.00    -0.300 OA
HETATM   18  C14 UNL     1       0.660   2.512  -0.621  1.00  0.00     0.303 C 
HETATM   19  O5  UNL     1       0.635   3.209  -1.611  1.00  0.00    -0.261 OA
HETATM   20  C15 UNL     1       1.510   1.250  -0.629  1.00  0.00     0.238 C 
HETATM   21  O6  UNL     1       1.709   0.781  -1.949  1.00  0.00    -0.213 OA
HETATM   22  C16 UNL     1      -0.504  -1.707   1.193  1.00  0.00     0.001 C 
HETATM   23  C17 UNL     1      -0.357  -3.072  -1.236  1.00  0.00     0.008 C 
HETATM   24  O7  UNL     1       2.582  -2.770  -1.049  1.00  0.00    -0.296 OA
ENDROOT
TORSDOF 0
