REMARK  4 active torsions:
REMARK  status: ('A' for Active; 'I' for Inactive)
REMARK    1  A    between atoms: C12_12  and  O3_19 
REMARK    2  A    between atoms: C13_13  and  O2_17 
REMARK    3  A    between atoms: C14_14  and  O1_15 
REMARK    4  A    between atoms: C18_22  and  O6_30 
ROOT
HETATM    1  C1  UNL     1       1.975   2.945   0.805  1.00  0.00     0.000 C 
HETATM    2  C2  UNL     1       0.598   2.984   0.125  1.00  0.00     0.005 C 
HETATM    3  C3  UNL     1      -0.441   2.186   0.959  1.00  0.00     0.027 C 
HETATM    4  C4  UNL     1      -1.479   1.420   0.195  1.00  0.00    -0.012 A 
HETATM    5  C5  UNL     1      -1.190   0.098  -0.254  1.00  0.00     0.023 A 
HETATM    6  C6  UNL     1       0.182  -0.428  -0.084  1.00  0.00     0.023 A 
HETATM    7  C7  UNL     1       1.252   0.187  -0.814  1.00  0.00    -0.012 A 
HETATM    8  C8  UNL     1       0.934   1.217  -1.859  1.00  0.00     0.027 C 
HETATM    9  C9  UNL     1       0.703   2.684  -1.394  1.00  0.00     0.005 C 
HETATM   10  C10 UNL     1       1.723   3.623  -2.053  1.00  0.00     0.000 C 
HETATM   11  C11 UNL     1       2.584  -0.207  -0.547  1.00  0.00     0.055 A 
HETATM   12  C12 UNL     1       2.830  -1.264   0.359  1.00  0.00     0.124 A 
HETATM   13  C13 UNL     1       1.766  -1.914   1.002  1.00  0.00     0.139 A 
HETATM   14  C14 UNL     1       0.443  -1.496   0.789  1.00  0.00     0.118 A 
HETATM   15 BR1  UNL     1       4.070   0.639  -1.367  1.00  0.00    -0.047 Br
HETATM   16  C18 UNL     1      -2.197  -0.705  -0.861  1.00  0.00     0.118 A 
HETATM   17  C19 UNL     1      -3.484  -0.149  -1.068  1.00  0.00     0.142 A 
HETATM   18  C20 UNL     1      -3.766   1.170  -0.707  1.00  0.00     0.127 A 
HETATM   19  C21 UNL     1      -2.762   1.961  -0.090  1.00  0.00     0.055 A 
HETATM   20 BR2  UNL     1      -3.219   3.748   0.328  1.00  0.00    -0.047 Br
HETATM   21  O4  UNL     1      -5.029   1.449  -1.033  1.00  0.00    -0.299 OA
HETATM   22  C22 UNL     1      -5.643   0.279  -1.615  1.00  0.00     0.304 A 
HETATM   23  O5  UNL     1      -4.578  -0.695  -1.603  1.00  0.00    -0.297 OA
ENDROOT
BRANCH  12  24
HETATM   24  O3  UNL     1       4.063  -1.664   0.619  1.00  0.00    -0.326 OA
HETATM   25  C17 UNL     1       4.428  -1.859   1.979  1.00  0.00     0.181 C 
ENDBRANCH  12  24
BRANCH  13  26
HETATM   26  O2  UNL     1       2.008  -2.920   1.818  1.00  0.00    -0.324 OA
HETATM   27  C16 UNL     1       1.582  -4.217   1.426  1.00  0.00     0.182 C 
ENDBRANCH  13  26
BRANCH  14  28
HETATM   28  O1  UNL     1      -0.543  -2.102   1.422  1.00  0.00    -0.326 OA
HETATM   29  C15 UNL     1      -0.566  -2.033   2.840  1.00  0.00     0.181 C 
ENDBRANCH  14  28
BRANCH  16  30
HETATM   30  O6  UNL     1      -1.830  -1.949  -1.205  1.00  0.00    -0.326 OA
HETATM   31  C23 UNL     1      -2.799  -2.783  -1.824  1.00  0.00     0.181 C 
ENDBRANCH  16  30
TORSDOF 4
