REMARK  2 active torsions:
REMARK  status: ('A' for Active; 'I' for Inactive)
REMARK    1  A    between atoms: C12_13  and  C16_17 
REMARK    2  A    between atoms: C16_17  and  C17_18 
ROOT
HETATM    1  C1  UNL     1      -3.277   1.891   0.760  1.00  0.00     0.033 C 
HETATM    2  C2  UNL     1      -3.891   0.955  -0.289  1.00  0.00     0.152 C 
HETATM    3  C3  UNL     1      -3.344  -0.502  -0.164  1.00  0.00     0.028 C 
HETATM    4  C4  UNL     1      -1.949  -0.547   0.547  1.00  0.00     0.005 C 
HETATM    5  C5  UNL     1      -1.033   0.666   0.225  1.00  0.00     0.004 C 
HETATM    6  C6  UNL     1      -1.744   1.990   0.639  1.00  0.00     0.003 C 
HETATM    7  C7  UNL     1       0.320   0.568   0.992  1.00  0.00     0.020 C 
HETATM    8  C8  UNL     1       0.982  -0.801   0.887  1.00  0.00    -0.019 C 
HETATM    9  C9  UNL     1       0.098  -2.012   1.084  1.00  0.00     0.170 C 
HETATM   10  C10 UNL     1      -1.223  -1.893   0.313  1.00  0.00     0.037 C 
HETATM   11  O1  UNL     1      -0.178  -2.168   2.463  1.00  0.00    -0.219 OA
HETATM   12  C11 UNL     1       2.303  -0.963   0.645  1.00  0.00    -0.030 C 
HETATM   13  C12 UNL     1       3.266   0.193   0.475  1.00  0.00     0.049 C 
HETATM   14  C13 UNL     1       2.701   1.469   1.123  1.00  0.00     0.007 C 
HETATM   15  C14 UNL     1       1.273   1.734   0.641  1.00  0.00     0.004 C 
HETATM   16  C15 UNL     1       4.600  -0.170   1.135  1.00  0.00     0.007 C 
HETATM   17  C18 UNL     1      -0.756   0.672  -1.289  1.00  0.00     0.000 C 
HETATM   18  C19 UNL     1      -3.307  -1.203  -1.535  1.00  0.00     0.003 C 
HETATM   19  C20 UNL     1      -4.326  -1.309   0.699  1.00  0.00     0.003 C 
HETATM   20  O4  UNL     1      -3.647   1.520  -1.566  1.00  0.00    -0.224 OA
ENDROOT
BRANCH  13  21
HETATM   21  C16 UNL     1       3.494   0.408  -1.025  1.00  0.00     0.189 C 
HETATM   22  O3  UNL     1       4.324   1.535  -1.187  1.00  0.00    -0.220 OA
BRANCH  21  23
HETATM   23  C17 UNL     1       4.174  -0.787  -1.695  1.00  0.00     0.215 C 
HETATM   24  O2  UNL     1       4.074  -0.627  -3.092  1.00  0.00    -0.218 OA
ENDBRANCH  21  23
ENDBRANCH  13  21
TORSDOF 2
