REMARK  5 active torsions:
REMARK  status: ('A' for Active; 'I' for Inactive)
REMARK    1  A    between atoms: C1_1  and  O3_19 
REMARK    2  A    between atoms: C4_4  and  C8_9 
REMARK    3  A    between atoms: C5_5  and  O1_7 
REMARK    4  A    between atoms: C8_9  and  C9_10 
REMARK    5  A    between atoms: C8_9  and  C11_12 
ROOT
HETATM    1  C1  UNL     1       1.408   1.533  -2.141  1.00  0.00     0.105 C 
HETATM    2  C2  UNL     1       1.680   0.058  -1.916  1.00  0.00     0.218 C 
HETATM    3  C3  UNL     1       1.361  -0.400  -0.510  1.00  0.00     0.007 C 
HETATM    4  C4  UNL     1       0.490   0.269   0.272  1.00  0.00    -0.007 C 
HETATM    5  C5  UNL     1      -0.207   1.521  -0.221  1.00  0.00     0.158 C 
HETATM    6  C6  UNL     1       0.535   2.195  -1.355  1.00  0.00     0.030 C 
HETATM    7  O2  UNL     1       0.922  -0.701  -2.834  1.00  0.00    -0.212 OA
ENDROOT
BRANCH   4   8
HETATM    8  C8  UNL     1       0.191  -0.215   1.668  1.00  0.00     0.065 C 
BRANCH   8   9
HETATM    9  C9  UNL     1       1.447  -0.238   2.498  1.00  0.00    -0.018 C 
HETATM   10  C10 UNL     1       1.332  -0.320   3.834  1.00  0.00    -0.004 C 
ENDBRANCH   8   9
BRANCH   8  11
HETATM   11  C11 UNL     1      -0.504  -1.529   1.668  1.00  0.00    -0.015 A 
HETATM   12  C12 UNL     1      -1.910  -1.580   1.668  1.00  0.00    -0.004 A 
HETATM   13  C13 UNL     1      -2.568  -2.822   1.668  1.00  0.00    -0.000 A 
HETATM   14  C14 UNL     1      -1.822  -4.014   1.668  1.00  0.00    -0.000 A 
HETATM   15  C15 UNL     1      -0.418  -3.963   1.668  1.00  0.00    -0.000 A 
HETATM   16  C16 UNL     1       0.242  -2.721   1.668  1.00  0.00    -0.004 A 
ENDBRANCH   8  11
ENDBRANCH   4   8
BRANCH   5  17
HETATM   17  O1  UNL     1      -1.514   1.199  -0.644  1.00  0.00    -0.345 OA
HETATM   18  C7  UNL     1      -2.334   2.332  -0.826  1.00  0.00     0.175 C 
ENDBRANCH   5  17
BRANCH   1  19
HETATM   19  O3  UNL     1       2.039   2.185  -3.115  1.00  0.00    -0.330 OA
HETATM   20  C17 UNL     1       1.145   2.908  -3.947  1.00  0.00     0.181 C 
ENDBRANCH   1  19
TORSDOF 5
