REMARK WARNING: 32 MAX_TORS EXCEEDED!!!
REMARK  34 active torsions:
REMARK  status: ('A' for Active; 'I' for Inactive)
REMARK    1  A    between atoms: C3_3  and  O4_10 
REMARK    2  A    between atoms: C4_5  and  C6_8 
REMARK    3  A    between atoms: O4_10  and  C7_11 
REMARK    4  A    between atoms: C7_11  and  C8_12 
REMARK    5  A    between atoms: C8_12  and  N1_13 
REMARK    6  A    between atoms: C8_12  and  C27_34 
REMARK       I    between atoms: N1_13  and  C9_14 
REMARK    7  A    between atoms: C9_14  and  C10_16 
REMARK    8  A    between atoms: C10_16  and  C11_18 
REMARK    9  A    between atoms: C11_18  and  C12_19 
REMARK   10  A    between atoms: C12_19  and  C13_20 
REMARK   11  A    between atoms: C13_20  and  C14_21 
REMARK   12  A    between atoms: C14_21  and  C15_22 
REMARK   13  A    between atoms: C15_22  and  C16_23 
REMARK   14  A    between atoms: C16_23  and  C17_24 
REMARK   15  A    between atoms: C17_24  and  C18_25 
REMARK   16  A    between atoms: C18_25  and  C19_26 
REMARK   17  A    between atoms: C19_26  and  C20_27 
REMARK   18  A    between atoms: C20_27  and  C21_28 
REMARK   19  A    between atoms: C21_28  and  C22_29 
REMARK   20  A    between atoms: C22_29  and  C23_30 
REMARK   21  A    between atoms: C23_30  and  C24_31 
REMARK   22  A    between atoms: C24_31  and  C25_32 
REMARK   23  A    between atoms: C27_34  and  C28_36 
REMARK   24  A    between atoms: C29_37  and  C30_38 
REMARK   25  A    between atoms: C30_38  and  C31_39 
REMARK   26  A    between atoms: C31_39  and  C32_40 
REMARK   27  A    between atoms: C33_41  and  C34_42 
REMARK   28  A    between atoms: C34_42  and  C35_43 
REMARK   29  A    between atoms: C35_43  and  C36_44 
REMARK   30  A    between atoms: C36_44  and  C37_45 
REMARK   31  A    between atoms: C37_45  and  C38_46 
REMARK   32  A    between atoms: C38_46  and  C39_47 
REMARK   33  A    between atoms: C39_47  and  C40_48 
REMARK   34  A    between atoms: C40_48  and  C41_49 
ROOT
HETATM    1  C8  UNL     1      -5.664  -4.066   2.566  1.00  0.00     0.170 C 
ENDROOT
BRANCH   1   2
HETATM    2  C7  UNL     1      -6.873  -3.703   3.428  1.00  0.00     0.172 C 
BRANCH   2   3
HETATM    3  O4  UNL     1      -7.326  -2.426   3.037  1.00  0.00    -0.327 OA
BRANCH   3   4
HETATM    4  C3  UNL     1      -8.424  -1.965   3.799  1.00  0.00     0.270 C 
HETATM    5  C2  UNL     1      -8.740  -0.486   3.457  1.00  0.00     0.241 C 
HETATM    6  C1  UNL     1     -10.029  -0.018   4.172  1.00  0.00     0.220 C 
HETATM    7  O8  UNL     1      -7.654   0.332   3.861  1.00  0.00    -0.215 OA
HETATM    8  C5  UNL     1     -11.170  -1.027   3.918  1.00  0.00     0.215 C 
HETATM    9  O9  UNL     1     -10.406   1.264   3.691  1.00  0.00    -0.218 OA
HETATM   10  C4  UNL     1     -10.727  -2.473   4.240  1.00  0.00     0.184 C 
HETATM   11  O2  UNL     1     -12.285  -0.705   4.731  1.00  0.00    -0.218 OA
HETATM   12  O1  UNL     1      -9.551  -2.781   3.504  1.00  0.00    -0.326 OA
BRANCH  10  13
HETATM   13  C6  UNL     1     -11.778  -3.520   3.854  1.00  0.00     0.214 C 
HETATM   14  O3  UNL     1     -11.348  -4.773   4.332  1.00  0.00    -0.218 OA
ENDBRANCH  10  13
ENDBRANCH   3   4
ENDBRANCH   2   3
ENDBRANCH   1   2
BRANCH   1  15
HETATM   15  N1  UNL     1      -4.496  -3.246   2.926  1.00  0.00    -0.232 NA
HETATM   16  C9  UNL     1      -4.317  -2.035   2.320  1.00  0.00     0.282 C 
HETATM   17  O5  UNL     1      -5.109  -1.639   1.498  1.00  0.00    -0.268 OA
BRANCH  16  18
HETATM   18  C10 UNL     1      -3.117  -1.209   2.701  1.00  0.00     0.232 C 
HETATM   19  O6  UNL     1      -3.352  -0.582   3.941  1.00  0.00    -0.213 OA
BRANCH  18  20
HETATM   20  C11 UNL     1      -2.805  -0.125   1.668  1.00  0.00     0.043 C 
BRANCH  20  21
HETATM   21  C12 UNL     1      -1.467   0.568   1.926  1.00  0.00     0.003 C 
BRANCH  21  22
HETATM   22  C13 UNL     1      -1.137   1.625   0.871  1.00  0.00     0.000 C 
BRANCH  22  23
HETATM   23  C14 UNL     1       0.201   2.318   1.131  1.00  0.00     0.000 C 
BRANCH  23  24
HETATM   24  C15 UNL     1       0.531   3.375   0.076  1.00  0.00     0.000 C 
BRANCH  24  25
HETATM   25  C16 UNL     1       1.869   4.068   0.334  1.00  0.00     0.000 C 
BRANCH  25  26
HETATM   26  C17 UNL     1       2.199   5.125  -0.721  1.00  0.00     0.000 C 
BRANCH  26  27
HETATM   27  C18 UNL     1       3.537   5.818  -0.463  1.00  0.00     0.000 C 
BRANCH  27  28
HETATM   28  C19 UNL     1       3.867   6.875  -1.518  1.00  0.00     0.000 C 
BRANCH  28  29
HETATM   29  C20 UNL     1       5.205   7.569  -1.258  1.00  0.00     0.000 C 
BRANCH  29  30
HETATM   30  C21 UNL     1       5.535   8.625  -2.313  1.00  0.00     0.000 C 
BRANCH  30  31
HETATM   31  C22 UNL     1       6.873   9.319  -2.055  1.00  0.00     0.000 C 
BRANCH  31  32
HETATM   32  C23 UNL     1       7.205  10.375  -3.109  1.00  0.00     0.000 C 
BRANCH  32  33
HETATM   33  C24 UNL     1       8.543  11.069  -2.850  1.00  0.00     0.000 C 
BRANCH  33  34
HETATM   34  C25 UNL     1       8.873  12.125  -3.904  1.00  0.00     0.000 C 
HETATM   35  C26 UNL     1      10.211  12.819  -3.647  1.00  0.00     0.000 C 
ENDBRANCH  33  34
ENDBRANCH  32  33
ENDBRANCH  31  32
ENDBRANCH  30  31
ENDBRANCH  29  30
ENDBRANCH  28  29
ENDBRANCH  27  28
ENDBRANCH  26  27
ENDBRANCH  25  26
ENDBRANCH  24  25
ENDBRANCH  23  24
ENDBRANCH  22  23
ENDBRANCH  21  22
ENDBRANCH  20  21
ENDBRANCH  18  20
ENDBRANCH  16  18
ENDBRANCH   1  15
BRANCH   1  36
HETATM   36  C27 UNL     1      -5.326  -5.557   2.625  1.00  0.00     0.199 C 
HETATM   37  O7  UNL     1      -6.422  -6.277   2.109  1.00  0.00    -0.216 OA
BRANCH  36  38
HETATM   38  C28 UNL     1      -4.088  -5.895   1.836  1.00  0.00     0.004 C 
HETATM   39  C29 UNL     1      -3.063  -6.481   2.477  1.00  0.00    -0.028 C 
BRANCH  39  40
HETATM   40  C30 UNL     1      -1.824  -6.818   1.687  1.00  0.00     0.030 C 
BRANCH  40  41
HETATM   41  C31 UNL     1      -0.555  -6.248   2.322  1.00  0.00     0.030 C 
BRANCH  41  42
HETATM   42  C32 UNL     1       0.684  -6.596   1.541  1.00  0.00    -0.030 C 
HETATM   43  C33 UNL     1       1.502  -5.602   1.164  1.00  0.00    -0.031 C 
BRANCH  43  44
HETATM   44  C34 UNL     1       2.742  -5.949   0.383  1.00  0.00     0.026 C 
BRANCH  44  45
HETATM   45  C35 UNL     1       2.854  -5.154  -0.920  1.00  0.00     0.005 C 
BRANCH  45  46
HETATM   46  C36 UNL     1       4.113  -5.500  -1.715  1.00  0.00     0.000 C 
BRANCH  46  47
HETATM   47  C37 UNL     1       4.223  -4.707  -3.018  1.00  0.00     0.000 C 
BRANCH  47  48
HETATM   48  C38 UNL     1       5.482  -5.051  -3.813  1.00  0.00     0.000 C 
BRANCH  48  49
HETATM   49  C39 UNL     1       5.592  -4.258  -5.115  1.00  0.00     0.000 C 
BRANCH  49  50
HETATM   50  C40 UNL     1       6.852  -4.602  -5.910  1.00  0.00     0.000 C 
BRANCH  50  51
HETATM   51  C41 UNL     1       6.963  -3.809  -7.213  1.00  0.00     0.000 C 
HETATM   52  C42 UNL     1       8.223  -4.154  -8.010  1.00  0.00     0.000 C 
ENDBRANCH  50  51
ENDBRANCH  49  50
ENDBRANCH  48  49
ENDBRANCH  47  48
ENDBRANCH  46  47
ENDBRANCH  45  46
ENDBRANCH  44  45
ENDBRANCH  43  44
ENDBRANCH  41  42
ENDBRANCH  40  41
ENDBRANCH  39  40
ENDBRANCH  36  38
ENDBRANCH   1  36
TORSDOF 34
