REMARK  4 active torsions:
REMARK  status: ('A' for Active; 'I' for Inactive)
REMARK    1  A    between atoms: C3_3  and  O2_12 
REMARK    2  A    between atoms: C5_5  and  C7_7 
REMARK    3  A    between atoms: C7_7  and  C8_8 
REMARK    4  A    between atoms: C8_8  and  C9_9 
ROOT
HETATM    1  C1  UNL     1       2.713   1.428  -0.651  1.00  0.00     0.029 A 
HETATM    2  C2  UNL     1       1.969   2.621  -0.651  1.00  0.00     0.153 A 
HETATM    3  C3  UNL     1       0.563   2.570  -0.651  1.00  0.00     0.119 A 
HETATM    4  C4  UNL     1      -0.092   1.326  -0.651  1.00  0.00     0.022 A 
HETATM    5  C5  UNL     1       0.652   0.135  -0.651  1.00  0.00    -0.020 A 
HETATM    6  C6  UNL     1       2.057   0.186  -0.651  1.00  0.00    -0.002 A 
HETATM    7  O3  UNL     1       2.592   3.783  -0.651  1.00  0.00    -0.188 OA
ENDROOT
BRANCH   5   8
HETATM    8  C7  UNL     1      -0.045  -1.180  -0.651  1.00  0.00     0.029 C 
BRANCH   8   9
HETATM    9  C8  UNL     1      -0.262  -1.701   0.769  1.00  0.00     0.038 C 
BRANCH   9  10
HETATM   10  C9  UNL     1      -0.910  -3.086   0.796  1.00  0.00     0.153 C 
HETATM   11  C10 UNL     1      -0.910  -3.709   2.193  1.00  0.00     0.036 C 
HETATM   12  O1  UNL     1      -2.248  -2.953   0.373  1.00  0.00    -0.223 OA
ENDBRANCH   9  10
ENDBRANCH   8   9
ENDBRANCH   5   8
BRANCH   3  13
HETATM   13  O2  UNL     1      -0.143   3.684  -0.651  1.00  0.00    -0.326 OA
HETATM   14  C11 UNL     1      -1.553   3.580  -0.770  1.00  0.00     0.181 C 
ENDBRANCH   3  13
TORSDOF 4
