REMARK  6 active torsions:
REMARK  status: ('A' for Active; 'I' for Inactive)
REMARK    1  A    between atoms: C7_7  and  C15_18 
REMARK    2  A    between atoms: C10_10  and  O1_11 
REMARK    3  A    between atoms: O1_11  and  C11_12 
REMARK    4  A    between atoms: C15_18  and  C16_19 
REMARK    5  A    between atoms: C16_19  and  C17_20 
REMARK    6  A    between atoms: C17_20  and  C18_21 
ROOT
HETATM    1  C1  UNL     1      -3.289  -1.523  -0.152  1.00  0.00     0.005 C 
HETATM    2  C2  UNL     1      -3.459  -0.045  -0.477  1.00  0.00     0.004 C 
HETATM    3  C3  UNL     1      -2.330   0.449  -1.401  1.00  0.00     0.017 C 
HETATM    4  C4  UNL     1      -0.945  -0.027  -0.957  1.00  0.00    -0.023 C 
HETATM    5  C5  UNL     1      -0.773  -1.025  -0.045  1.00  0.00    -0.050 C 
HETATM    6  C6  UNL     1      -1.967  -1.732   0.586  1.00  0.00     0.021 C 
HETATM    7  C7  UNL     1       0.607  -1.494   0.420  1.00  0.00     0.017 C 
HETATM    8  C8  UNL     1       1.771  -0.973  -0.457  1.00  0.00     0.037 C 
HETATM    9  C9  UNL     1       1.549   0.508  -0.791  1.00  0.00     0.184 C 
HETATM   10  C10 UNL     1       0.248   0.668  -1.594  1.00  0.00     0.172 C 
HETATM   11  O3  UNL     1       2.635   1.018  -1.547  1.00  0.00    -0.221 OA
HETATM   12  C13 UNL     1       3.141  -1.234   0.195  1.00  0.00     0.003 C 
HETATM   13  C14 UNL     1       0.680  -3.027   0.433  1.00  0.00     0.004 C 
HETATM   14  C21 UNL     1      -2.402   1.982  -1.440  1.00  0.00     0.004 C 
HETATM   15  C22 UNL     1      -2.568  -0.082  -2.819  1.00  0.00     0.004 C 
ENDROOT
BRANCH   7  16
HETATM   16  C15 UNL     1       0.771  -0.986   1.859  1.00  0.00     0.007 C 
BRANCH  16  17
HETATM   17  C16 UNL     1       0.010   0.314   2.117  1.00  0.00     0.035 C 
BRANCH  17  18
HETATM   18  C17 UNL     1       0.547   1.082   3.324  1.00  0.00     0.145 C 
HETATM   19  C20 UNL     1      -0.482   2.047   3.914  1.00  0.00     0.038 C 
HETATM   20  O4  UNL     1       0.898   0.148   4.320  1.00  0.00    -0.222 OA
BRANCH  18  21
HETATM   21  C18 UNL     1       1.865   1.752   3.041  1.00  0.00     0.003 C 
HETATM   22  C19 UNL     1       2.992   1.039   3.195  1.00  0.00    -0.002 C 
ENDBRANCH  18  21
ENDBRANCH  17  18
ENDBRANCH  16  17
ENDBRANCH   7  16
BRANCH  10  23
HETATM   23  O1  UNL     1       0.416   0.115  -2.895  1.00  0.00    -0.297 OA
BRANCH  23  24
HETATM   24  C11 UNL     1       0.906   0.998  -3.760  1.00  0.00     0.273 C 
HETATM   25  O2  UNL     1       1.061   2.172  -3.512  1.00  0.00    -0.264 OA
HETATM   26  C12 UNL     1       1.268   0.439  -5.110  1.00  0.00     0.106 C 
ENDBRANCH  23  24
ENDBRANCH  10  23
TORSDOF 6
