REMARK  7 active torsions:
REMARK  status: ('A' for Active; 'I' for Inactive)
REMARK    1  A    between atoms: C4_4  and  O3_9 
REMARK    2  A    between atoms: C5_6  and  C6_7 
REMARK    3  A    between atoms: O3_9  and  C7_10 
REMARK    4  A    between atoms: C7_10  and  C8_11 
REMARK    5  A    between atoms: C7_10  and  C16_21 
REMARK    6  A    between atoms: C8_11  and  C9_12 
REMARK    7  A    between atoms: C13_16  and  O4_18 
ROOT
HETATM    1  C7  UNL     1       0.955   0.244  -0.584  1.00  0.00     0.155 C 
ENDROOT
BRANCH   1   2
HETATM    2  O3  UNL     1       0.414   1.314   0.154  1.00  0.00    -0.329 OA
BRANCH   2   3
HETATM    3  C4  UNL     1       0.568   1.162   1.551  1.00  0.00     0.270 C 
HETATM    4  C3  UNL     1       1.162   2.467   2.141  1.00  0.00     0.241 C 
HETATM    5  C2  UNL     1       0.168   3.658   2.076  1.00  0.00     0.220 C 
HETATM    6  O7  UNL     1       1.524   2.228   3.490  1.00  0.00    -0.215 OA
HETATM    7  C1  UNL     1      -1.299   3.166   1.969  1.00  0.00     0.215 C 
HETATM    8  O8  UNL     1       0.465   4.453   0.941  1.00  0.00    -0.218 OA
HETATM    9  C5  UNL     1      -1.482   1.824   2.713  1.00  0.00     0.184 C 
HETATM   10  O9  UNL     1      -2.160   4.141   2.527  1.00  0.00    -0.218 OA
HETATM   11  O1  UNL     1      -0.687   0.791   2.127  1.00  0.00    -0.326 OA
BRANCH   9  12
HETATM   12  C6  UNL     1      -2.926   1.310   2.715  1.00  0.00     0.214 C 
HETATM   13  O2  UNL     1      -2.986   0.168   3.537  1.00  0.00    -0.218 OA
ENDBRANCH   9  12
ENDBRANCH   2   3
ENDBRANCH   1   2
BRANCH   1  14
HETATM   14  C8  UNL     1       0.254  -1.043  -0.145  1.00  0.00     0.059 C 
BRANCH  14  15
HETATM   15  C9  UNL     1       0.479  -2.147  -1.113  1.00  0.00    -0.018 A 
HETATM   16  C10 UNL     1       1.385  -3.176  -0.813  1.00  0.00    -0.002 A 
HETATM   17  C11 UNL     1       1.594  -4.219  -1.733  1.00  0.00     0.029 A 
HETATM   18  C12 UNL     1       0.897  -4.237  -2.953  1.00  0.00     0.153 A 
HETATM   19  C13 UNL     1      -0.012  -3.205  -3.256  1.00  0.00     0.119 A 
HETATM   20  O5  UNL     1       1.098  -5.217  -3.811  1.00  0.00    -0.188 OA
HETATM   21  C14 UNL     1      -0.221  -2.162  -2.334  1.00  0.00     0.022 A 
BRANCH  19  22
HETATM   22  O4  UNL     1      -0.670  -3.213  -4.399  1.00  0.00    -0.326 OA
HETATM   23  C15 UNL     1      -1.693  -2.246  -4.586  1.00  0.00     0.181 C 
ENDBRANCH  19  22
ENDBRANCH  14  15
ENDBRANCH   1  14
BRANCH   1  24
HETATM   24  C16 UNL     1       2.463   0.207  -0.340  1.00  0.00     0.212 C 
HETATM   25  O6  UNL     1       3.080  -0.367  -1.471  1.00  0.00    -0.218 OA
ENDBRANCH   1  24
TORSDOF 7
