REMARK  5 active torsions:
REMARK  status: ('A' for Active; 'I' for Inactive)
REMARK    1  A    between atoms: C7_8  and  C19_25 
REMARK    2  A    between atoms: C8_9  and  O3_12 
REMARK    3  A    between atoms: O3_12  and  C10_13 
REMARK    4  A    between atoms: C10_13  and  C11_15 
REMARK    5  A    between atoms: C12_16  and  C13_17 
ROOT
HETATM    1  C1  UNL     1      -5.174   1.400   0.713  1.00  0.00     0.135 A 
HETATM    2  C2  UNL     1      -5.018   0.098   1.242  1.00  0.00     0.055 A 
HETATM    3  C3  UNL     1      -3.725  -0.443   1.437  1.00  0.00     0.138 A 
HETATM    4  C4  UNL     1      -2.584   0.330   1.098  1.00  0.00     0.089 A 
HETATM    5  C5  UNL     1      -2.738   1.637   0.568  1.00  0.00     0.107 A 
HETATM    6  C6  UNL     1      -4.035   2.170   0.377  1.00  0.00     0.052 A 
HETATM    7  O1  UNL     1      -1.652   2.373   0.248  1.00  0.00    -0.305 OA
HETATM    8  C7  UNL     1      -0.383   1.941   0.400  1.00  0.00     0.126 A 
HETATM    9  C8  UNL     1      -0.104   0.709   0.896  1.00  0.00     0.165 A 
HETATM   10  C9  UNL     1      -1.207  -0.201   1.285  1.00  0.00     0.224 A 
HETATM   11  O2  UNL     1      -0.899  -1.287   1.719  1.00  0.00    -0.284 OA
HETATM   12  O9  UNL     1      -3.596  -1.680   1.939  1.00  0.00    -0.190 OA
HETATM   13  O10 UNL     1      -6.401   1.906   0.531  1.00  0.00    -0.190 OA
ENDROOT
BRANCH   9  14
HETATM   14  O3  UNL     1       1.154   0.293   1.043  1.00  0.00    -0.268 OA
BRANCH  14  15
HETATM   15  C10 UNL     1       1.543  -0.344  -0.061  1.00  0.00     0.300 C 
HETATM   16  O4  UNL     1       0.797  -0.641  -0.963  1.00  0.00    -0.259 OA
BRANCH  15  17
HETATM   17  C11 UNL     1       2.969  -0.680  -0.133  1.00  0.00     0.069 C 
HETATM   18  C12 UNL     1       3.365  -1.955  -0.281  1.00  0.00     0.006 C 
BRANCH  18  19
HETATM   19  C13 UNL     1       2.326  -3.022  -0.369  1.00  0.00     0.002 A 
HETATM   20  C14 UNL     1       2.336  -3.928  -1.445  1.00  0.00     0.029 A 
HETATM   21  C15 UNL     1       1.357  -4.936  -1.533  1.00  0.00     0.156 A 
HETATM   22  C16 UNL     1       0.367  -5.037  -0.539  1.00  0.00     0.156 A 
HETATM   23  O6  UNL     1       1.373  -5.779  -2.545  1.00  0.00    -0.188 OA
HETATM   24  C17 UNL     1       0.357  -4.131   0.537  1.00  0.00     0.029 A 
HETATM   25  O5  UNL     1      -0.553  -5.979  -0.613  1.00  0.00    -0.188 OA
HETATM   26  C18 UNL     1       1.334  -3.125   0.623  1.00  0.00     0.002 A 
ENDBRANCH  18  19
ENDBRANCH  15  17
ENDBRANCH  14  15
ENDBRANCH   9  14
BRANCH   8  27
HETATM   27  C19 UNL     1       0.738   2.848   0.014  1.00  0.00     0.027 A 
HETATM   28  C20 UNL     1       1.889   2.928   0.816  1.00  0.00     0.004 A 
HETATM   29  C21 UNL     1       2.943   3.781   0.449  1.00  0.00     0.030 A 
HETATM   30  C22 UNL     1       2.853   4.555  -0.721  1.00  0.00     0.156 A 
HETATM   31  C23 UNL     1       1.701   4.475  -1.527  1.00  0.00     0.156 A 
HETATM   32  O8  UNL     1       3.846   5.354  -1.059  1.00  0.00    -0.188 OA
HETATM   33  C24 UNL     1       0.646   3.621  -1.158  1.00  0.00     0.032 A 
HETATM   34  O7  UNL     1       1.609   5.195  -2.627  1.00  0.00    -0.188 OA
ENDBRANCH   8  27
TORSDOF 5
