REMARK  6 active torsions:
REMARK  status: ('A' for Active; 'I' for Inactive)
REMARK    1  A    between atoms: C2_2  and  O6_13 
REMARK    2  A    between atoms: C6_6  and  C7_7 
REMARK    3  A    between atoms: O6_13  and  C8_14 
REMARK    4  A    between atoms: C8_14  and  C9_15 
REMARK    5  A    between atoms: C10_16  and  C11_17 
REMARK    6  A    between atoms: C14_20  and  O8_24 
ROOT
HETATM    1  O6  UNL     1      -0.877  -1.201  -0.168  1.00  0.00    -0.298 OA
ENDROOT
BRANCH   1   2
HETATM    2  C2  UNL     1      -0.807  -2.529   0.334  1.00  0.00     0.160 C 
HETATM    3  C1  UNL     1       0.664  -2.984   0.334  1.00  0.00     0.074 C 
HETATM    4  C6  UNL     1       0.836  -4.459   0.758  1.00  0.00     0.209 C 
HETATM    5  C5  UNL     1      -0.074  -5.385  -0.080  1.00  0.00     0.077 C 
HETATM    6  O3  UNL     1       0.471  -4.582   2.119  1.00  0.00    -0.215 OA
HETATM    7  C4  UNL     1      -1.551  -4.932  -0.078  1.00  0.00     0.188 C 
HETATM    8  C3  UNL     1      -1.690  -3.457  -0.521  1.00  0.00     0.210 C 
HETATM    9  O4  UNL     1      -2.277  -5.777  -0.951  1.00  0.00    -0.221 OA
HETATM   10  O5  UNL     1      -3.039  -3.037  -0.400  1.00  0.00    -0.218 OA
BRANCH   4  11
HETATM   11  C7  UNL     1       2.279  -4.883   0.647  1.00  0.00     0.214 C 
HETATM   12  O1  UNL     1       3.168  -3.981   1.057  1.00  0.00    -0.646 OA
HETATM   13  O2  UNL     1       2.578  -5.973   0.215  1.00  0.00    -0.646 OA
ENDBRANCH   4  11
ENDBRANCH   1   2
BRANCH   1  14
HETATM   14  C8  UNL     1      -0.428  -0.305   0.705  1.00  0.00     0.296 C 
HETATM   15  O9  UNL     1      -0.102  -0.572   1.838  1.00  0.00    -0.259 OA
BRANCH  14  16
HETATM   16  C9  UNL     1      -0.344   1.078   0.217  1.00  0.00     0.068 C 
HETATM   17  C10 UNL     1       0.094   2.063   1.018  1.00  0.00     0.005 C 
BRANCH  17  18
HETATM   18  C11 UNL     1       0.162   3.451   0.475  1.00  0.00     0.002 A 
HETATM   19  C12 UNL     1      -0.231   3.711  -0.851  1.00  0.00     0.002 A 
HETATM   20  C13 UNL     1      -0.166   5.020  -1.359  1.00  0.00     0.026 A 
HETATM   21  C14 UNL     1       0.291   6.072  -0.547  1.00  0.00     0.119 A 
HETATM   22  C15 UNL     1       0.684   5.815   0.779  1.00  0.00     0.153 A 
HETATM   23  C16 UNL     1       0.617   4.504   1.287  1.00  0.00     0.029 A 
HETATM   24  O7  UNL     1       1.111   6.797   1.549  1.00  0.00    -0.188 OA
BRANCH  21  25
HETATM   25  O8  UNL     1       0.348   7.297  -1.031  1.00  0.00    -0.326 OA
HETATM   26  C17 UNL     1       0.027   7.488  -2.400  1.00  0.00     0.181 C 
ENDBRANCH  21  25
ENDBRANCH  17  18
ENDBRANCH  14  16
ENDBRANCH   1  14
TORSDOF 6
