REMARK  7 active torsions:
REMARK  status: ('A' for Active; 'I' for Inactive)
REMARK    1  A    between atoms: C5_5  and  C7_7 
REMARK    2  A    between atoms: C7_7  and  C8_8 
REMARK    3  A    between atoms: C8_8  and  C9_9 
REMARK    4  A    between atoms: C9_9  and  C10_10 
REMARK    5  A    between atoms: C11_11  and  C12_12 
REMARK    6  A    between atoms: C12_12  and  C13_13 
REMARK    7  A    between atoms: C13_13  and  C14_14 
ROOT
HETATM    1  C10 UNL     1       1.508  -0.328   1.910  1.00  0.00     0.060 C 
HETATM    2  C11 UNL     1       0.244  -0.371   1.455  1.00  0.00     0.112 C 
HETATM    3  O2  UNL     1      -0.359   0.736   1.035  1.00  0.00    -0.195 OA
ENDROOT
BRANCH   1   4
HETATM    4  C9  UNL     1       2.244   0.941   1.953  1.00  0.00     0.175 C 
HETATM    5  O3  UNL     1       2.861   1.258   2.942  1.00  0.00    -0.291 OA
BRANCH   4   6
HETATM    6  C8  UNL     1       2.211   1.834   0.740  1.00  0.00     0.074 C 
BRANCH   6   7
HETATM    7  C7  UNL     1       1.533   3.176   1.022  1.00  0.00     0.035 C 
BRANCH   7   8
HETATM    8  C5  UNL     1       1.209   3.898  -0.234  1.00  0.00    -0.022 A 
HETATM    9  C4  UNL     1      -0.041   3.713  -0.849  1.00  0.00    -0.002 A 
HETATM   10  C3  UNL     1      -0.348   4.397  -2.039  1.00  0.00     0.027 A 
HETATM   11  C2  UNL     1       0.594   5.270  -2.617  1.00  0.00     0.131 A 
HETATM   12  C1  UNL     1       1.842   5.453  -1.998  1.00  0.00     0.027 A 
HETATM   13  O4  UNL     1       0.305   5.910  -3.730  1.00  0.00    -0.190 OA
HETATM   14  C6  UNL     1       2.150   4.770  -0.808  1.00  0.00    -0.002 A 
ENDBRANCH   7   8
ENDBRANCH   6   7
ENDBRANCH   4   6
ENDBRANCH   1   4
BRANCH   2  15
HETATM   15  C12 UNL     1      -0.465  -1.699   1.434  1.00  0.00     0.059 C 
BRANCH  15  16
HETATM   16  C13 UNL     1      -0.627  -2.250   0.016  1.00  0.00     0.033 C 
BRANCH  16  17
HETATM   17  C14 UNL     1      -1.322  -3.565   0.016  1.00  0.00    -0.022 A 
HETATM   18  C15 UNL     1      -2.727  -3.615   0.016  1.00  0.00    -0.002 A 
HETATM   19  C16 UNL     1      -3.385  -4.858   0.016  1.00  0.00     0.027 A 
HETATM   20  C17 UNL     1      -2.641  -6.053   0.016  1.00  0.00     0.131 A 
HETATM   21  C18 UNL     1      -1.236  -5.996   0.016  1.00  0.00     0.027 A 
HETATM   22  O1  UNL     1      -3.258  -7.217   0.016  1.00  0.00    -0.190 OA
HETATM   23  C19 UNL     1      -0.576  -4.756   0.016  1.00  0.00    -0.002 A 
ENDBRANCH  16  17
ENDBRANCH  15  16
ENDBRANCH   2  15
TORSDOF 7
