REMARK  4 active torsions:
REMARK  status: ('A' for Active; 'I' for Inactive)
REMARK    1  A    between atoms: C4_4  and  O2_8 
REMARK    2  A    between atoms: O2_8  and  C7_9 
REMARK    3  A    between atoms: C11_14  and  O4_15 
REMARK    4  A    between atoms: O4_15  and  C12_16 
ROOT
HETATM    1  C12 UNL     1       1.650  -2.068  -0.182  1.00  0.00     0.179 C 
HETATM    2  C13 UNL     1       2.025  -2.102  -1.678  1.00  0.00     0.186 C 
HETATM    3  C14 UNL     1       1.949  -0.705  -2.312  1.00  0.00     0.057 C 
HETATM    4  C15 UNL     1       0.588  -0.076  -2.086  1.00  0.00    -0.044 C 
HETATM    5  C16 UNL     1       0.051  -0.025  -0.652  1.00  0.00     0.046 C 
HETATM    6  C17 UNL     1       0.242  -1.439  -0.004  1.00  0.00     0.185 C 
HETATM    7  O5  UNL     1      -0.096  -1.441   1.373  1.00  0.00    -0.220 OA
HETATM    8  C18 UNL     1      -1.455   0.424  -0.580  1.00  0.00     0.006 C 
HETATM    9  C19 UNL     1      -1.777   1.529  -1.611  1.00  0.00     0.005 C 
HETATM   10  C20 UNL     1      -1.453   1.027  -3.027  1.00  0.00     0.025 C 
HETATM   11  C21 UNL     1      -0.086   0.416  -3.146  1.00  0.00    -0.035 C 
HETATM   12  C22 UNL     1      -3.213   2.133  -1.562  1.00  0.00     0.003 C 
HETATM   13  C23 UNL     1      -3.912   2.010  -0.189  1.00  0.00     0.003 C 
HETATM   14  C24 UNL     1      -2.875   2.000   0.936  1.00  0.00     0.000 C 
HETATM   15  C25 UNL     1      -1.904   0.815   0.857  1.00  0.00     0.000 C 
HETATM   16  C26 UNL     1      -4.733   0.697  -0.269  1.00  0.00     0.032 C 
HETATM   17  C27 UNL     1      -4.713   0.281  -1.740  1.00  0.00     0.118 C 
HETATM   18  C28 UNL     1      -4.297   1.543  -2.477  1.00  0.00     0.030 C 
HETATM   19  O6  UNL     1      -6.035  -0.098  -2.061  1.00  0.00    -0.337 OA
HETATM   20  C29 UNL     1      -6.768  -0.381  -0.885  1.00  0.00     0.188 C 
HETATM   21  C30 UNL     1      -6.238   0.705   0.064  1.00  0.00     0.054 C 
HETATM   22  C31 UNL     1      -6.504   0.484   1.553  1.00  0.00     0.005 C 
HETATM   23  O7  UNL     1      -6.481  -1.682  -0.355  1.00  0.00    -0.330 OA
HETATM   24  C32 UNL     1      -6.838  -2.779  -1.187  1.00  0.00     0.167 C 
HETATM   25  C33 UNL     1      -8.295  -2.707  -1.588  1.00  0.00    -0.015 C 
HETATM   26  C34 UNL     1      -8.809  -1.365  -2.051  1.00  0.00     0.029 C 
HETATM   27  C35 UNL     1      -8.281  -0.246  -1.139  1.00  0.00     0.061 C 
HETATM   28  C36 UNL     1      -9.098  -3.785  -1.523  1.00  0.00    -0.007 C 
HETATM   29  C37 UNL     1      -4.816   3.236  -0.033  1.00  0.00     0.000 C 
HETATM   30  C38 UNL     1       0.934   1.029   0.037  1.00  0.00     0.007 C 
HETATM   31  O8  UNL     1       3.316  -2.648  -1.873  1.00  0.00    -0.220 OA
ENDROOT
BRANCH   1  32
HETATM   32  O4  UNL     1       2.625  -1.344   0.557  1.00  0.00    -0.326 OA
BRANCH  32  33
HETATM   33  C11 UNL     1       3.553  -2.178   1.223  1.00  0.00     0.267 C 
HETATM   34  C7  UNL     1       4.711  -1.332   1.820  1.00  0.00     0.207 C 
HETATM   35  C8  UNL     1       5.645  -2.217   2.680  1.00  0.00     0.217 C 
HETATM   36  C9  UNL     1       4.832  -3.041   3.703  1.00  0.00     0.214 C 
HETATM   37  O10 UNL     1       6.637  -1.437   3.330  1.00  0.00    -0.218 OA
HETATM   38  C10 UNL     1       3.674  -3.785   3.002  1.00  0.00     0.181 C 
HETATM   39  O9  UNL     1       4.293  -2.213   4.723  1.00  0.00    -0.218 OA
HETATM   40  O3  UNL     1       2.869  -2.877   2.258  1.00  0.00    -0.326 OA
BRANCH  34  41
HETATM   41  O2  UNL     1       5.455  -0.746   0.766  1.00  0.00    -0.324 OA
BRANCH  41  42
HETATM   42  C4  UNL     1       6.024   0.502   1.111  1.00  0.00     0.270 C 
HETATM   43  C3  UNL     1       5.135   1.676   0.621  1.00  0.00     0.241 C 
HETATM   44  C2  UNL     1       5.805   3.020   0.990  1.00  0.00     0.220 C 
HETATM   45  O11 UNL     1       4.932   1.590  -0.785  1.00  0.00    -0.215 OA
HETATM   46  C1  UNL     1       7.268   3.047   0.486  1.00  0.00     0.212 C 
HETATM   47  O12 UNL     1       5.065   4.117   0.479  1.00  0.00    -0.218 OA
HETATM   48  C5  UNL     1       8.043   1.791   0.953  1.00  0.00     0.151 C 
HETATM   49  O13 UNL     1       7.928   4.197   0.988  1.00  0.00    -0.218 OA
HETATM   50  O1  UNL     1       7.338   0.613   0.574  1.00  0.00    -0.329 OA
HETATM   51  C6  UNL     1       9.442   1.691   0.336  1.00  0.00     0.035 C 
ENDBRANCH  41  42
ENDBRANCH  34  41
ENDBRANCH  32  33
ENDBRANCH   1  32
TORSDOF 4
