REMARK  10 active torsions:
REMARK  status: ('A' for Active; 'I' for Inactive)
REMARK    1  A    between atoms: C2_2  and  O3_24 
REMARK    2  A    between atoms: C12_12  and  C15_15 
REMARK    3  A    between atoms: O3_24  and  C22_25 
REMARK    4  A    between atoms: C24_28  and  O5_29 
REMARK    5  A    between atoms: O5_29  and  C25_30 
REMARK    6  A    between atoms: C27_32  and  O11_48 
REMARK    7  A    between atoms: C28_33  and  O6_34 
REMARK    8  A    between atoms: O6_34  and  C29_35 
REMARK    9  A    between atoms: C31_37  and  O9_43 
REMARK   10  A    between atoms: C39_50  and  O12_52 
ROOT
HETATM    1  C22 UNL     1      -0.902  -1.978  -0.506  1.00  0.00     0.238 C 
HETATM    2  O4  UNL     1       0.297  -1.570   0.162  1.00  0.00    -0.331 OA
HETATM    3  C23 UNL     1       0.986  -0.443  -0.379  1.00  0.00     0.147 C 
HETATM    4  C24 UNL     1       1.309  -0.643  -1.889  1.00  0.00     0.172 C 
HETATM    5  C39 UNL     1       0.775  -1.975  -2.463  1.00  0.00     0.150 C 
HETATM    6  C40 UNL     1      -0.682  -2.197  -2.027  1.00  0.00     0.094 C 
HETATM    7  C42 UNL     1       0.188   0.838  -0.111  1.00  0.00     0.035 C 
ENDROOT
BRANCH   1   8
HETATM    8  O3  UNL     1      -1.977  -1.092  -0.283  1.00  0.00    -0.326 OA
BRANCH   8   9
HETATM    9  C2  UNL     1      -2.432  -1.094   1.057  1.00  0.00     0.179 C 
HETATM   10  C1  UNL     1      -3.072   0.238   1.369  1.00  0.00     0.178 C 
HETATM   11  C6  UNL     1      -4.430   0.484   0.752  1.00  0.00     0.071 C 
HETATM   12  O13 UNL     1      -2.533   1.057   2.078  1.00  0.00    -0.293 OA
HETATM   13  C5  UNL     1      -5.440  -0.662   0.996  1.00  0.00     0.022 C 
HETATM   14  C4  UNL     1      -4.787  -2.000   0.666  1.00  0.00    -0.046 C 
HETATM   15  C7  UNL     1      -6.738  -0.377   0.172  1.00  0.00     0.011 C 
HETATM   16  C21 UNL     1      -5.750  -0.742   2.500  1.00  0.00     0.004 C 
HETATM   17  C3  UNL     1      -3.414  -2.260   1.260  1.00  0.00     0.059 C 
HETATM   18  C10 UNL     1      -5.377  -2.941  -0.102  1.00  0.00    -0.034 C 
HETATM   19  C9  UNL     1      -6.734  -2.746  -0.729  1.00  0.00     0.033 C 
HETATM   20  C8  UNL     1      -7.580  -1.645  -0.068  1.00  0.00     0.062 C 
HETATM   21  C11 UNL     1      -8.287  -2.047   1.209  1.00  0.00     0.153 C 
HETATM   22  C12 UNL     1      -9.135  -0.978   1.875  1.00  0.00     0.072 C 
HETATM   23  O2  UNL     1      -8.184  -3.158   1.678  1.00  0.00    -0.296 OA
HETATM   24  C13 UNL     1      -9.043   0.363   1.107  1.00  0.00     0.011 C 
HETATM   25  C20 UNL     1     -10.588  -1.453   1.941  1.00  0.00     0.012 C 
HETATM   26  C14 UNL     1      -7.598   0.777   0.760  1.00  0.00     0.002 C 
BRANCH  22  27
HETATM   27  C15 UNL     1      -8.633  -0.791   3.293  1.00  0.00     0.004 A 
HETATM   28  C16 UNL     1      -7.867  -1.687   4.037  1.00  0.00     0.025 A 
HETATM   29  C17 UNL     1      -7.658  -1.074   5.275  1.00  0.00     0.122 A 
HETATM   30  O1  UNL     1      -8.250   0.154   5.348  1.00  0.00    -0.310 OA
HETATM   31  C18 UNL     1      -8.842   0.313   4.127  1.00  0.00     0.074 A 
HETATM   32  C19 UNL     1      -9.619   1.565   3.783  1.00  0.00     0.058 C 
ENDBRANCH  22  27
ENDBRANCH   8   9
ENDBRANCH   1   8
BRANCH   5  33
HETATM   33  O12 UNL     1       0.844  -1.973  -3.881  1.00  0.00    -0.351 OA
HETATM   34  C41 UNL     1       2.158  -2.105  -4.373  1.00  0.00     0.174 C 
ENDBRANCH   5  33
BRANCH   4  35
HETATM   35  O5  UNL     1       2.713  -0.584  -2.084  1.00  0.00    -0.328 OA
BRANCH  35  36
HETATM   36  C25 UNL     1       3.236   0.723  -1.969  1.00  0.00     0.238 C 
HETATM   37  C26 UNL     1       4.447   0.910  -2.914  1.00  0.00     0.094 C 
HETATM   38  C27 UNL     1       5.734   0.227  -2.408  1.00  0.00     0.150 C 
HETATM   39  C28 UNL     1       5.963   0.516  -0.910  1.00  0.00     0.172 C 
HETATM   40  C36 UNL     1       4.676   0.307  -0.070  1.00  0.00     0.147 C 
HETATM   41  O10 UNL     1       3.588   1.045  -0.625  1.00  0.00    -0.331 OA
HETATM   42  C37 UNL     1       4.830   0.734   1.395  1.00  0.00     0.035 C 
BRANCH  38  43
HETATM   43  O11 UNL     1       5.629  -1.172  -2.600  1.00  0.00    -0.351 OA
HETATM   44  C38 UNL     1       6.830  -1.861  -2.338  1.00  0.00     0.174 C 
ENDBRANCH  38  43
BRANCH  39  45
HETATM   45  O6  UNL     1       6.418   1.854  -0.779  1.00  0.00    -0.328 OA
BRANCH  45  46
HETATM   46  C29 UNL     1       7.494   1.988   0.121  1.00  0.00     0.238 C 
HETATM   47  C30 UNL     1       8.797   1.395  -0.486  1.00  0.00     0.094 C 
HETATM   48  C31 UNL     1       9.975   2.385  -0.445  1.00  0.00     0.153 C 
HETATM   49  C32 UNL     1       9.545   3.770  -0.992  1.00  0.00     0.206 C 
HETATM   50  C33 UNL     1       8.194   4.268  -0.377  1.00  0.00     0.151 C 
HETATM   51  O8  UNL     1       9.453   3.721  -2.410  1.00  0.00    -0.218 OA
HETATM   52  O7  UNL     1       7.674   3.336   0.572  1.00  0.00    -0.331 OA
HETATM   53  C34 UNL     1       7.086   4.643  -1.375  1.00  0.00     0.035 C 
BRANCH  48  54
HETATM   54  O9  UNL     1      11.094   1.850  -1.137  1.00  0.00    -0.351 OA
HETATM   55  C35 UNL     1      11.571   0.647  -0.576  1.00  0.00     0.174 C 
ENDBRANCH  48  54
ENDBRANCH  45  46
ENDBRANCH  39  45
ENDBRANCH  35  36
ENDBRANCH   4  35
TORSDOF 10
