REMARK  7 active torsions:
REMARK  status: ('A' for Active; 'I' for Inactive)
REMARK    1  A    between atoms: C4_4  and  C14_18 
REMARK    2  A    between atoms: C5_6  and  C6_7 
REMARK    3  A    between atoms: C8_9  and  O4_16 
REMARK    4  A    between atoms: C10_11  and  O2_13 
REMARK    5  A    between atoms: C14_18  and  C15_19 
REMARK    6  A    between atoms: C15_19  and  C16_20 
REMARK    7  A    between atoms: C20_24  and  O5_26 
ROOT
HETATM    1  C1  UNL     1      -0.072   3.086  -0.857  1.00  0.00     0.067 C 
HETATM    2  C2  UNL     1      -1.416   3.680  -1.312  1.00  0.00     0.157 C 
HETATM    3  C3  UNL     1      -2.576   2.801  -0.818  1.00  0.00     0.063 C 
HETATM    4  C4  UNL     1      -2.352   1.309  -1.137  1.00  0.00     0.119 C 
HETATM    5  O1  UNL     1      -1.090   0.895  -0.625  1.00  0.00    -0.355 OA
HETATM    6  C5  UNL     1       0.033   1.576  -1.172  1.00  0.00     0.140 C 
HETATM    7  O7  UNL     1      -1.447   3.750  -2.725  1.00  0.00    -0.223 OA
ENDROOT
BRANCH   4   8
HETATM    8  C14 UNL     1      -3.418   0.416  -0.502  1.00  0.00     0.034 C 
BRANCH   8   9
HETATM    9  C15 UNL     1      -3.457  -0.984  -1.115  1.00  0.00     0.029 C 
BRANCH   9  10
HETATM   10  C16 UNL     1      -2.447  -1.883  -0.496  1.00  0.00    -0.020 A 
HETATM   11  C17 UNL     1      -1.398  -2.404  -1.269  1.00  0.00    -0.002 A 
HETATM   12  C18 UNL     1      -0.445  -3.252  -0.682  1.00  0.00     0.029 A 
HETATM   13  C19 UNL     1      -0.537  -3.580   0.684  1.00  0.00     0.153 A 
HETATM   14  C20 UNL     1      -1.588  -3.059   1.461  1.00  0.00     0.119 A 
HETATM   15  O6  UNL     1       0.361  -4.377   1.229  1.00  0.00    -0.188 OA
HETATM   16  C21 UNL     1      -2.541  -2.209   0.869  1.00  0.00     0.022 A 
BRANCH  14  17
HETATM   17  O5  UNL     1      -1.682  -3.361   2.740  1.00  0.00    -0.326 OA
HETATM   18  C22 UNL     1      -2.656  -2.680   3.516  1.00  0.00     0.181 C 
ENDBRANCH  14  17
ENDBRANCH   9  10
ENDBRANCH   8   9
ENDBRANCH   4   8
BRANCH   6  19
HETATM   19  C6  UNL     1       1.275   0.977  -0.615  1.00  0.00     0.009 A 
HETATM   20  C7  UNL     1       1.549  -0.387  -0.816  1.00  0.00     0.025 A 
HETATM   21  C8  UNL     1       2.723  -0.955  -0.291  1.00  0.00     0.121 A 
HETATM   22  C9  UNL     1       3.625  -0.156   0.438  1.00  0.00     0.175 A 
HETATM   23  C10 UNL     1       3.350   1.209   0.639  1.00  0.00     0.121 A 
HETATM   24  O3  UNL     1       4.725  -0.687   0.932  1.00  0.00    -0.186 OA
HETATM   25  C11 UNL     1       2.176   1.774   0.111  1.00  0.00     0.025 A 
BRANCH  21  26
HETATM   26  O4  UNL     1       2.975  -2.234  -0.482  1.00  0.00    -0.326 OA
HETATM   27  C13 UNL     1       4.322  -2.623  -0.701  1.00  0.00     0.181 C 
ENDBRANCH  21  26
BRANCH  23  28
HETATM   28  O2  UNL     1       4.192   1.961   1.320  1.00  0.00    -0.326 OA
HETATM   29  C12 UNL     1       3.881   3.338   1.473  1.00  0.00     0.181 C 
ENDBRANCH  23  28
ENDBRANCH   6  19
TORSDOF 7
