REMARK  1 active torsions:
REMARK  status: ('A' for Active; 'I' for Inactive)
REMARK    1  A    between atoms: C13_14  and  O2_16 
ROOT
HETATM    1  C1  UNL     1      -0.721   1.119  -0.215  1.00  0.00    -0.018 A 
HETATM    2  C2  UNL     1      -0.168  -0.188  -0.035  1.00  0.00     0.021 A 
HETATM    3  C3  UNL     1       1.317  -0.334  -0.061  1.00  0.00    -0.002 A 
HETATM    4  C4  UNL     1       2.127   0.824   0.166  1.00  0.00    -0.020 A 
HETATM    5  C5  UNL     1       1.485   2.141   0.400  1.00  0.00     0.031 C 
HETATM    6  C6  UNL     1       0.176   2.289  -0.397  1.00  0.00     0.031 C 
HETATM    7  C7  UNL     1       3.539   0.719   0.172  1.00  0.00     0.023 A 
HETATM    8  C8  UNL     1       4.164  -0.525  -0.059  1.00  0.00     0.131 A 
HETATM    9  C9  UNL     1       3.377  -1.672  -0.303  1.00  0.00     0.027 A 
HETATM   10  C10 UNL     1       1.967  -1.578  -0.313  1.00  0.00     0.002 A 
HETATM   11  O1  UNL     1       5.500  -0.617  -0.047  1.00  0.00    -0.190 OA
HETATM   12  C11 UNL     1      -1.064  -1.285   0.168  1.00  0.00     0.133 A 
HETATM   13  C12 UNL     1      -2.463  -1.076   0.150  1.00  0.00     0.051 A 
HETATM   14  C13 UNL     1      -2.994   0.215  -0.051  1.00  0.00     0.096 A 
HETATM   15  C14 UNL     1      -2.125   1.311  -0.227  1.00  0.00     0.020 A 
HETATM   16  O3  UNL     1      -0.635  -2.533   0.404  1.00  0.00    -0.190 OA
ENDROOT
BRANCH  14  17
HETATM   17  O2  UNL     1      -4.320   0.400  -0.068  1.00  0.00    -0.328 OA
HETATM   18  C15 UNL     1      -5.156  -0.742   0.045  1.00  0.00     0.181 C 
ENDBRANCH  14  17
TORSDOF 1
