REMARK  1 active torsions:
REMARK  status: ('A' for Active; 'I' for Inactive)
REMARK    1  A    between atoms: C9_9  and  C11_11 
ROOT
HETATM    1  C1  UNL     1       3.383  -0.271  -0.275  1.00  0.00     0.026 C 
HETATM    2  C2  UNL     1       2.818   0.973  -0.916  1.00  0.00    -0.027 C 
HETATM    3  C3  UNL     1       1.369   1.256  -0.779  1.00  0.00    -0.033 C 
HETATM    4  C4  UNL     1       0.520   0.391  -0.168  1.00  0.00    -0.049 C 
HETATM    5  C5  UNL     1       1.008  -0.953   0.379  1.00  0.00     0.015 C 
HETATM    6  C6  UNL     1       2.338  -1.387  -0.277  1.00  0.00     0.008 C 
HETATM    7  C7  UNL     1      -0.027  -2.076   0.147  1.00  0.00     0.004 C 
HETATM    8  C8  UNL     1      -1.447  -1.691   0.572  1.00  0.00     0.004 C 
HETATM    9  C9  UNL     1      -1.914  -0.455  -0.201  1.00  0.00     0.022 C 
HETATM   10  C10 UNL     1      -0.955   0.727   0.023  1.00  0.00     0.026 C 
HETATM   11  C14 UNL     1       1.225  -0.768   1.887  1.00  0.00     0.004 C 
HETATM   12  C15 UNL     1       0.854   2.564  -1.334  1.00  0.00     0.030 C 
HETATM   13  C16 UNL     1       3.645   1.789  -1.596  1.00  0.00    -0.005 C 
ENDROOT
BRANCH   9  14
HETATM   14  C11 UNL     1      -3.330  -0.086   0.162  1.00  0.00    -0.044 C 
HETATM   15  C12 UNL     1      -4.281  -0.188  -0.781  1.00  0.00    -0.009 C 
HETATM   16  C13 UNL     1      -3.729   0.393   1.533  1.00  0.00     0.026 C 
ENDBRANCH   9  14
TORSDOF 1
