REMARK  3 active torsions:
REMARK  status: ('A' for Active; 'I' for Inactive)
REMARK    1  A    between atoms: C3_3  and  C29_30 
REMARK    2  A    between atoms: C29_30  and  O3_32 
REMARK    3  A    between atoms: O3_32  and  C30_33 
ROOT
HETATM    1  C1  UNL     1      -2.967  -0.026  -2.735  1.00  0.00     0.131 C 
HETATM    2  C2  UNL     1      -2.391  -0.447  -1.348  1.00  0.00     0.055 C 
HETATM    3  C3  UNL     1      -3.109   0.250  -0.145  1.00  0.00     0.084 C 
HETATM    4  C4  UNL     1      -4.584   0.598  -0.488  1.00  0.00     0.010 C 
HETATM    5  C5  UNL     1      -5.207  -0.391  -1.479  1.00  0.00     0.003 C 
HETATM    6  C6  UNL     1      -4.475  -0.412  -2.838  1.00  0.00     0.028 C 
HETATM    7  C7  UNL     1      -5.240   0.379  -3.910  1.00  0.00     0.003 C 
HETATM    8  C8  UNL     1      -2.381   1.541   0.277  1.00  0.00     0.010 C 
HETATM    9  C9  UNL     1      -0.897   1.310   0.560  1.00  0.00     0.004 C 
HETATM   10  C10 UNL     1      -0.111   0.734  -0.645  1.00  0.00     0.015 C 
HETATM   11  C11 UNL     1      -0.861  -0.449  -1.262  1.00  0.00    -0.046 C 
HETATM   12  C12 UNL     1      -0.201  -1.524  -1.752  1.00  0.00    -0.035 C 
HETATM   13  C13 UNL     1       1.301  -1.672  -1.731  1.00  0.00     0.025 C 
HETATM   14  C14 UNL     1       2.066  -0.381  -1.373  1.00  0.00     0.005 C 
HETATM   15  C15 UNL     1       1.352   0.355  -0.209  1.00  0.00     0.004 C 
HETATM   16  C16 UNL     1       2.156   1.623   0.168  1.00  0.00     0.000 C 
HETATM   17  C17 UNL     1       3.631   1.334   0.459  1.00  0.00     0.000 C 
HETATM   18  C18 UNL     1       4.326   0.650  -0.734  1.00  0.00     0.002 C 
HETATM   19  C19 UNL     1       3.594  -0.651  -1.158  1.00  0.00     0.001 C 
HETATM   20  C20 UNL     1       4.205  -1.182  -2.488  1.00  0.00     0.003 C 
HETATM   21  C21 UNL     1       5.639  -0.703  -2.781  1.00  0.00     0.033 C 
HETATM   22  C22 UNL     1       6.488  -0.549  -1.512  1.00  0.00     0.152 C 
HETATM   23  C23 UNL     1       5.865   0.478  -0.512  1.00  0.00     0.028 C 
HETATM   24  C24 UNL     1       6.188   0.107   0.947  1.00  0.00     0.003 C 
HETATM   25  C25 UNL     1       6.523   1.842  -0.760  1.00  0.00     0.003 C 
HETATM   26  O1  UNL     1       6.647  -1.836  -0.938  1.00  0.00    -0.224 OA
HETATM   27  C26 UNL     1       3.791  -1.703  -0.053  1.00  0.00     0.000 C 
HETATM   28  C27 UNL     1       1.307  -0.572   1.019  1.00  0.00     0.000 C 
HETATM   29  C28 UNL     1      -0.070   1.801  -1.750  1.00  0.00     0.004 C 
HETATM   30  C35 UNL     1      -2.193  -0.633  -3.910  1.00  0.00     0.033 C 
HETATM   31  O9  UNL     1      -2.824   1.375  -2.887  1.00  0.00    -0.226 OA
ENDROOT
BRANCH   3  32
HETATM   32  C29 UNL     1      -3.111  -0.705   1.031  1.00  0.00     0.273 C 
HETATM   33  O2  UNL     1      -2.486  -1.738   0.996  1.00  0.00    -0.264 OA
BRANCH  32  34
HETATM   34  O3  UNL     1      -3.840  -0.315   2.074  1.00  0.00    -0.273 OA
BRANCH  34  35
HETATM   35  C30 UNL     1      -3.777  -1.236   3.154  1.00  0.00     0.278 C 
HETATM   36  O4  UNL     1      -4.871  -1.051   4.053  1.00  0.00    -0.300 OA
HETATM   37  C31 UNL     1      -4.908   0.187   4.766  1.00  0.00     0.304 C 
HETATM   38  C32 UNL     1      -3.602   0.420   5.574  1.00  0.00     0.244 C 
HETATM   39  O8  UNL     1      -5.162   1.289   3.916  1.00  0.00    -0.187 OA
HETATM   40  C33 UNL     1      -2.316   0.172   4.748  1.00  0.00     0.223 C 
HETATM   41  O7  UNL     1      -3.600  -0.449   6.693  1.00  0.00    -0.215 OA
HETATM   42  C34 UNL     1      -2.416  -1.104   3.879  1.00  0.00     0.241 C 
HETATM   43  O6  UNL     1      -2.104   1.281   3.894  1.00  0.00    -0.218 OA
HETATM   44  O5  UNL     1      -2.215  -2.242   4.697  1.00  0.00    -0.215 OA
ENDBRANCH  34  35
ENDBRANCH  32  34
ENDBRANCH   3  32
TORSDOF 3
