REMARK  3 active torsions:
REMARK  status: ('A' for Active; 'I' for Inactive)
REMARK    1  A    between atoms: C1_1  and  C12_17 
REMARK    2  A    between atoms: C2_2  and  O5_15 
REMARK    3  A    between atoms: C5_6  and  O4_13 
ROOT
HETATM    1  C1  UNL     1       0.553   0.480  -0.064  1.00  0.00     0.125 A 
HETATM    2  C2  UNL     1       0.832  -0.752   0.432  1.00  0.00     0.156 A 
HETATM    3  C3  UNL     1      -0.272  -1.662   0.820  1.00  0.00     0.223 A 
HETATM    4  O1  UNL     1       0.039  -2.748   1.256  1.00  0.00    -0.284 OA
HETATM    5  C4  UNL     1      -1.649  -1.129   0.633  1.00  0.00     0.086 A 
HETATM    6  C5  UNL     1      -2.789  -1.902   0.973  1.00  0.00     0.101 A 
HETATM    7  C6  UNL     1      -4.082  -1.363   0.777  1.00  0.00     0.052 A 
HETATM    8  C7  UNL     1      -4.238  -0.061   0.248  1.00  0.00     0.135 A 
HETATM    9  O2  UNL     1      -5.465   0.447   0.066  1.00  0.00    -0.190 OA
HETATM   10  C8  UNL     1      -3.100   0.709  -0.088  1.00  0.00     0.052 A 
HETATM   11  C9  UNL     1      -1.803   0.178   0.104  1.00  0.00     0.107 A 
HETATM   12  O3  UNL     1      -0.717   0.912  -0.217  1.00  0.00    -0.305 OA
ENDROOT
BRANCH   1  13
HETATM   13  C12 UNL     1       1.678   1.389  -0.453  1.00  0.00     0.027 A 
HETATM   14  C13 UNL     1       2.834   1.457   0.344  1.00  0.00     0.032 A 
HETATM   15  C14 UNL     1       3.893   2.309  -0.018  1.00  0.00     0.156 A 
HETATM   16  O6  UNL     1       4.975   2.367   0.734  1.00  0.00    -0.188 OA
HETATM   17  C15 UNL     1       3.795   3.096  -1.180  1.00  0.00     0.156 A 
HETATM   18  O7  UNL     1       4.783   3.897  -1.527  1.00  0.00    -0.188 OA
HETATM   19  C16 UNL     1       2.637   3.025  -1.977  1.00  0.00     0.030 A 
HETATM   20  C17 UNL     1       1.580   2.174  -1.615  1.00  0.00     0.004 A 
ENDBRANCH   1  13
BRANCH   2  21
HETATM   21  O5  UNL     1       2.092  -1.168   0.578  1.00  0.00    -0.323 OA
HETATM   22  C11 UNL     1       2.582  -1.822  -0.584  1.00  0.00     0.182 C 
ENDBRANCH   2  21
BRANCH   6  23
HETATM   23  O4  UNL     1      -2.660  -3.139   1.475  1.00  0.00    -0.328 OA
HETATM   24  C10 UNL     1      -3.844  -3.857   1.793  1.00  0.00     0.181 C 
ENDBRANCH   6  23
TORSDOF 3
