REMARK  0 active torsions:
REMARK  status: ('A' for Active; 'I' for Inactive)
ROOT
HETATM    1  C1  UNL     1      -4.144  -0.041   1.199  1.00  0.00     0.013 C 
HETATM    2  C2  UNL     1      -4.684  -0.787  -0.018  1.00  0.00     0.070 C 
HETATM    3  C3  UNL     1      -3.877  -0.481  -1.258  1.00  0.00     0.173 C 
HETATM    4  C4  UNL     1      -2.414  -0.213  -1.090  1.00  0.00     0.031 A 
HETATM    5  C5  UNL     1      -1.810  -0.184   0.207  1.00  0.00    -0.016 A 
HETATM    6  C6  UNL     1      -2.658  -0.342   1.428  1.00  0.00     0.027 C 
HETATM    7  C7  UNL     1      -0.392  -0.006   0.313  1.00  0.00     0.040 A 
HETATM    8  C8  UNL     1       0.377   0.234  -0.869  1.00  0.00     0.025 A 
HETATM    9  C9  UNL     1      -0.246   0.246  -2.137  1.00  0.00     0.002 A 
HETATM   10  C10 UNL     1      -1.631   0.014  -2.246  1.00  0.00     0.003 A 
HETATM   11  C11 UNL     1       1.846   0.473  -0.787  1.00  0.00     0.093 A 
HETATM   12  C12 UNL     1       2.463   0.434   0.400  1.00  0.00     0.044 A 
HETATM   13  C13 UNL     1       1.762   0.180   1.668  1.00  0.00     0.232 A 
HETATM   14  C14 UNL     1       0.305  -0.072   1.647  1.00  0.00     0.234 A 
HETATM   15  O1  UNL     1      -0.189  -0.318   2.725  1.00  0.00    -0.283 OA
HETATM   16  O2  UNL     1       2.379   0.178   2.709  1.00  0.00    -0.283 OA
HETATM   17  C15 UNL     1       3.932   0.678   0.268  1.00  0.00     0.058 C 
HETATM   18  C16 UNL     1       3.988   1.061  -1.213  1.00  0.00     0.153 C 
HETATM   19  O3  UNL     1       2.711   0.734  -1.771  1.00  0.00    -0.331 OA
HETATM   20  C17 UNL     1       4.750  -0.576   0.555  1.00  0.00     0.007 C 
HETATM   21  O4  UNL     1      -4.484  -0.477  -2.305  1.00  0.00    -0.291 OA
ENDROOT
TORSDOF 0
