REMARK  2 active torsions:
REMARK  status: ('A' for Active; 'I' for Inactive)
REMARK    1  A    between atoms: C2_2  and  C10_14 
REMARK    2  A    between atoms: C10_14  and  C11_15 
ROOT
HETATM    1  C1  UNL     1       2.005   0.976  -1.660  1.00  0.00     0.157 C 
HETATM    2  C2  UNL     1       0.652   1.165  -0.951  1.00  0.00     0.097 C 
HETATM    3  C3  UNL     1      -0.219  -0.065  -1.106  1.00  0.00     0.179 C 
HETATM    4  C4  UNL     1       0.496  -1.374  -1.175  1.00  0.00     0.083 A 
HETATM    5  C5  UNL     1      -0.229  -2.595  -1.192  1.00  0.00     0.138 A 
HETATM    6  C6  UNL     1       0.468  -3.826  -1.207  1.00  0.00     0.055 A 
HETATM    7  C7  UNL     1       1.882  -3.843  -1.205  1.00  0.00     0.135 A 
HETATM    8  C8  UNL     1       2.605  -2.628  -1.207  1.00  0.00     0.052 A 
HETATM    9  C9  UNL     1       1.918  -1.391  -1.213  1.00  0.00     0.101 A 
HETATM   10  O1  UNL     1       2.631  -0.246  -1.254  1.00  0.00    -0.330 OA
HETATM   11  O2  UNL     1       2.538  -5.012  -1.205  1.00  0.00    -0.190 OA
HETATM   12  O3  UNL     1      -1.570  -2.602  -1.185  1.00  0.00    -0.190 OA
HETATM   13  O4  UNL     1      -1.415   0.109  -1.155  1.00  0.00    -0.291 OA
ENDROOT
BRANCH   2  14
HETATM   14  C10 UNL     1       0.840   1.494   0.533  1.00  0.00     0.037 C 
BRANCH  14  15
HETATM   15  C11 UNL     1      -0.451   1.833   1.185  1.00  0.00    -0.021 A 
HETATM   16  C12 UNL     1      -1.102   0.884   1.994  1.00  0.00    -0.002 A 
HETATM   17  C13 UNL     1      -2.323   1.206   2.611  1.00  0.00     0.027 A 
HETATM   18  C14 UNL     1      -2.898   2.475   2.422  1.00  0.00     0.131 A 
HETATM   19  C15 UNL     1      -2.245   3.422   1.613  1.00  0.00     0.027 A 
HETATM   20  O5  UNL     1      -4.043   2.776   3.001  1.00  0.00    -0.190 OA
HETATM   21  C16 UNL     1      -1.024   3.103   0.995  1.00  0.00    -0.002 A 
ENDBRANCH  14  15
ENDBRANCH   2  14
TORSDOF 2
