REMARK  8 active torsions:
REMARK  status: ('A' for Active; 'I' for Inactive)
REMARK    1  A    between atoms: C3_3  and  C7_8 
REMARK    2  A    between atoms: C7_8  and  C8_9 
REMARK    3  A    between atoms: C8_9  and  C9_10 
REMARK    4  A    between atoms: C11_12  and  O5_33 
REMARK    5  A    between atoms: C12_13  and  C22_25 
REMARK    6  A    between atoms: C14_15  and  C15_16 
REMARK    7  A    between atoms: C15_16  and  C16_17 
REMARK    8  A    between atoms: C22_25  and  C23_26 
ROOT
HETATM    1  C9  UNL     1      -0.051  -0.961   1.461  1.00  0.00    -0.022 A 
HETATM    2  C10 UNL     1      -1.424  -1.166   1.672  1.00  0.00     0.019 A 
HETATM    3  C11 UNL     1      -2.371  -0.363   1.012  1.00  0.00     0.092 A 
HETATM    4  C12 UNL     1      -1.937   0.650   0.137  1.00  0.00     0.029 A 
HETATM    5  C13 UNL     1      -0.560   0.861  -0.078  1.00  0.00     0.125 A 
HETATM    6  C14 UNL     1       0.383   0.053   0.586  1.00  0.00     0.004 A 
HETATM    7  O3  UNL     1      -0.156   1.812  -0.898  1.00  0.00    -0.191 OA
ENDROOT
BRANCH   1   8
HETATM    8  C8  UNL     1       0.934  -1.824   2.170  1.00  0.00     0.031 C 
BRANCH   8   9
HETATM    9  C7  UNL     1       1.197  -1.326   3.592  1.00  0.00     0.031 C 
BRANCH   9  10
HETATM   10  C3  UNL     1       1.895  -0.014   3.592  1.00  0.00    -0.020 A 
HETATM   11  C2  UNL     1       3.299   0.039   3.592  1.00  0.00    -0.004 A 
HETATM   12  C1  UNL     1       3.955   1.281   3.592  1.00  0.00     0.002 A 
HETATM   13  C6  UNL     1       3.209   2.471   3.592  1.00  0.00     0.027 A 
HETATM   14  C5  UNL     1       1.803   2.424   3.592  1.00  0.00     0.131 A 
HETATM   15  C4  UNL     1       1.149   1.180   3.592  1.00  0.00     0.023 A 
HETATM   16  O1  UNL     1       1.104   3.541   3.592  1.00  0.00    -0.190 OA
ENDBRANCH   9  10
ENDBRANCH   8   9
ENDBRANCH   1   8
BRANCH   6  17
HETATM   17  C15 UNL     1       1.838   0.275   0.358  1.00  0.00     0.054 C 
BRANCH  17  18
HETATM   18  C16 UNL     1       2.242  -0.358  -0.924  1.00  0.00    -0.018 A 
HETATM   19  C17 UNL     1       2.109   0.349  -2.133  1.00  0.00    -0.002 A 
HETATM   20  C18 UNL     1       2.490  -0.252  -3.344  1.00  0.00     0.027 A 
HETATM   21  C19 UNL     1       3.006  -1.561  -3.353  1.00  0.00     0.131 A 
HETATM   22  C20 UNL     1       3.137  -2.266  -2.144  1.00  0.00     0.027 A 
HETATM   23  O2  UNL     1       3.363  -2.123  -4.490  1.00  0.00    -0.190 OA
HETATM   24  C21 UNL     1       2.756  -1.666  -0.932  1.00  0.00    -0.002 A 
ENDBRANCH  17  18
ENDBRANCH   6  17
BRANCH   3  25
HETATM   25  O5  UNL     1      -3.656  -0.565   1.217  1.00  0.00    -0.328 OA
HETATM   26  C29 UNL     1      -4.043  -1.731   1.930  1.00  0.00     0.181 C 
ENDBRANCH   3  25
BRANCH   4  27
HETATM   27  C22 UNL     1      -2.936   1.504  -0.564  1.00  0.00     0.057 C 
BRANCH  27  28
HETATM   28  C23 UNL     1      -3.002   1.113  -1.996  1.00  0.00    -0.018 A 
HETATM   29  C24 UNL     1      -2.801   2.078  -3.000  1.00  0.00    -0.002 A 
HETATM   30  C25 UNL     1      -2.865   1.707  -4.353  1.00  0.00     0.027 A 
HETATM   31  C26 UNL     1      -3.131   0.373  -4.711  1.00  0.00     0.131 A 
HETATM   32  C27 UNL     1      -3.332  -0.590  -3.705  1.00  0.00     0.027 A 
HETATM   33  O4  UNL     1      -3.189   0.027  -5.980  1.00  0.00    -0.190 OA
HETATM   34  C28 UNL     1      -3.268  -0.221  -2.350  1.00  0.00    -0.002 A 
ENDBRANCH  27  28
ENDBRANCH   4  27
TORSDOF 8
