REMARK  9 active torsions:
REMARK  status: ('A' for Active; 'I' for Inactive)
REMARK    1  A    between atoms: C9_9  and  C10_11 
REMARK    2  A    between atoms: C10_11  and  C11_12 
REMARK    3  A    between atoms: C11_12  and  C12_13 
REMARK    4  A    between atoms: C13_14  and  C14_15 
REMARK    5  A    between atoms: C14_15  and  C15_16 
REMARK    6  A    between atoms: C15_16  and  C16_17 
REMARK    7  A    between atoms: C17_18  and  C18_19 
REMARK    8  A    between atoms: C18_19  and  C19_20 
REMARK    9  A    between atoms: C19_20  and  C20_21 
ROOT
HETATM    1  C10 UNL     1      -1.654  -0.078   2.881  1.00  0.00     0.032 C 
ENDROOT
BRANCH   1   2
HETATM    2  C9  UNL     1      -1.455  -0.414   4.365  1.00  0.00     0.099 C 
HETATM    3  C8  UNL     1      -1.488   0.856   5.232  1.00  0.00     0.033 C 
HETATM    4  C7  UNL     1      -0.324   1.793   4.869  1.00  0.00     0.030 C 
HETATM    5  C6  UNL     1       0.967   1.068   4.748  1.00  0.00    -0.002 A 
HETATM    6  C1  UNL     1       2.201   1.774   4.797  1.00  0.00     0.001 A 
HETATM    7  C5  UNL     1       0.969  -0.346   4.578  1.00  0.00     0.085 A 
HETATM    8  C2  UNL     1       3.426   1.068   4.691  1.00  0.00     0.122 A 
HETATM    9  C29 UNL     1       2.221   3.238   4.959  1.00  0.00     0.033 C 
HETATM   10  C3  UNL     1       3.426  -0.338   4.531  1.00  0.00     0.001 A 
HETATM   11  O2  UNL     1       4.588   1.736   4.744  1.00  0.00    -0.191 OA
HETATM   12  C4  UNL     1       2.199  -1.043   4.477  1.00  0.00    -0.002 A 
HETATM   13  C28 UNL     1       4.705  -1.060   4.422  1.00  0.00     0.033 C 
HETATM   14  C27 UNL     1       2.193  -2.510   4.311  1.00  0.00     0.033 C 
HETATM   15  O1  UNL     1      -0.182  -1.055   4.520  1.00  0.00    -0.336 OA
HETATM   16  C26 UNL     1      -2.531  -1.406   4.813  1.00  0.00     0.030 C 
ENDBRANCH   1   2
BRANCH   1  17
HETATM   17  C11 UNL     1      -1.580  -1.314   1.982  1.00  0.00     0.028 C 
BRANCH  17  18
HETATM   18  C12 UNL     1      -1.578  -0.961   0.519  1.00  0.00    -0.035 C 
HETATM   19  C13 UNL     1      -1.168  -1.887  -0.363  1.00  0.00    -0.048 C 
HETATM   20  C25 UNL     1      -0.732  -3.230   0.156  1.00  0.00     0.026 C 
BRANCH  19  21
HETATM   21  C14 UNL     1      -1.166  -1.533  -1.826  1.00  0.00     0.026 C 
BRANCH  21  22
HETATM   22  C15 UNL     1      -0.928  -0.043  -2.066  1.00  0.00     0.030 C 
BRANCH  22  23
HETATM   23  C16 UNL     1      -0.635   0.268  -3.510  1.00  0.00    -0.034 C 
HETATM   24  C17 UNL     1      -0.738   1.541  -3.924  1.00  0.00    -0.048 C 
HETATM   25  C24 UNL     1      -1.141   2.592  -2.926  1.00  0.00     0.026 C 
BRANCH  24  26
HETATM   26  C18 UNL     1      -0.445   1.852  -5.367  1.00  0.00     0.026 C 
BRANCH  26  27
HETATM   27  C19 UNL     1      -0.775   0.680  -6.295  1.00  0.00     0.030 C 
BRANCH  27  28
HETATM   28  C20 UNL     1      -0.764   1.076  -7.746  1.00  0.00    -0.034 C 
HETATM   29  C21 UNL     1      -0.666   0.111  -8.674  1.00  0.00    -0.048 C 
HETATM   30  C22 UNL     1      -0.582   0.512 -10.123  1.00  0.00     0.026 C 
HETATM   31  C23 UNL     1      -0.645  -1.324  -8.217  1.00  0.00     0.026 C 
ENDBRANCH  27  28
ENDBRANCH  26  27
ENDBRANCH  24  26
ENDBRANCH  22  23
ENDBRANCH  21  22
ENDBRANCH  19  21
ENDBRANCH  17  18
ENDBRANCH   1  17
TORSDOF 9
