REMARK  6 active torsions:
REMARK  status: ('A' for Active; 'I' for Inactive)
REMARK    1  A    between atoms: C2_2  and  O1_3 
REMARK    2  A    between atoms: O1_3  and  C3_4 
REMARK    3  A    between atoms: C3_4  and  C4_5 
REMARK    4  A    between atoms: C5_6  and  C11_12 
REMARK    5  A    between atoms: C15_16  and  C16_17 
REMARK    6  A    between atoms: C16_17  and  C17_18 
ROOT
HETATM    1  O1  UNL     1      -0.378  -0.762   0.983  1.00  0.00    -0.329 OA
ENDROOT
BRANCH   1   2
HETATM    2  C2  UNL     1       0.165  -0.626   2.176  1.00  0.00     0.119 A 
HETATM    3  C1  UNL     1       0.283  -1.737   3.032  1.00  0.00     0.153 A 
HETATM    4  C20 UNL     1       0.864  -1.583   4.303  1.00  0.00     0.029 A 
HETATM    5  O2  UNL     1      -0.147  -2.922   2.646  1.00  0.00    -0.188 OA
HETATM    6  C19 UNL     1       1.326  -0.323   4.722  1.00  0.00    -0.002 A 
HETATM    7  C15 UNL     1       1.208   0.787   3.868  1.00  0.00    -0.016 A 
HETATM    8  C14 UNL     1       0.627   0.634   2.597  1.00  0.00     0.022 A 
BRANCH   7   9
HETATM    9  C16 UNL     1       1.695   2.120   4.308  1.00  0.00     0.052 C 
BRANCH   9  10
HETATM   10  C17 UNL     1       3.198   2.203   4.308  1.00  0.00    -0.021 C 
HETATM   11  C18 UNL     1       3.773   3.416   4.308  1.00  0.00    -0.005 C 
ENDBRANCH   9  10
ENDBRANCH   7   9
ENDBRANCH   1   2
BRANCH   1  12
HETATM   12  C3  UNL     1      -0.511   0.398   0.175  1.00  0.00     0.149 C 
BRANCH  12  13
HETATM   13  C4  UNL     1      -1.195   0.025  -1.145  1.00  0.00     0.030 C 
HETATM   14  C5  UNL     1      -0.197  -0.592  -2.147  1.00  0.00     0.002 C 
HETATM   15  C6  UNL     1      -0.879  -0.911  -3.488  1.00  0.00     0.000 C 
HETATM   16  C7  UNL     1      -1.587   0.315  -4.078  1.00  0.00     0.000 C 
HETATM   17  C8  UNL     1      -2.594   0.918  -3.087  1.00  0.00     0.000 C 
HETATM   18  C9  UNL     1      -1.913   1.246  -1.749  1.00  0.00     0.003 C 
HETATM   19  C10 UNL     1      -3.283   2.151  -3.678  1.00  0.00     0.000 C 
BRANCH  14  20
HETATM   20  C11 UNL     1       0.476  -1.844  -1.573  1.00  0.00     0.000 C 
HETATM   21  C12 UNL     1      -0.506  -2.996  -1.359  1.00  0.00     0.000 C 
HETATM   22  C13 UNL     1       1.715  -2.263  -2.365  1.00  0.00     0.000 C 
ENDBRANCH  14  20
ENDBRANCH  12  13
ENDBRANCH   1  12
TORSDOF 6
