REMARK  6 active torsions:
REMARK  status: ('A' for Active; 'I' for Inactive)
REMARK    1  A    between atoms: C1_1  and  C2_2 
REMARK    2  A    between atoms: C1_1  and  C14_17 
REMARK    3  A    between atoms: C2_2  and  C3_3 
REMARK    4  A    between atoms: C3_3  and  C4_4 
REMARK    5  A    between atoms: C5_5  and  C6_6 
REMARK    6  A    between atoms: C7_7  and  C8_8 
ROOT
HETATM    1  C3  UNL     1       0.543   3.018   0.996  1.00  0.00     0.173 C 
HETATM    2  O3  UNL     1       1.645   3.168   1.470  1.00  0.00    -0.291 OA
ENDROOT
BRANCH   1   3
HETATM    3  C2  UNL     1      -0.193   4.172   0.369  1.00  0.00     0.074 C 
BRANCH   3   4
HETATM    4  C1  UNL     1       0.514   4.707  -0.877  1.00  0.00     0.035 C 
BRANCH   4   5
HETATM    5  C14 UNL     1       0.777   3.627  -1.864  1.00  0.00    -0.019 A 
HETATM    6  C15 UNL     1      -0.182   3.322  -2.846  1.00  0.00     0.025 A 
HETATM    7  C16 UNL     1       0.061   2.301  -3.782  1.00  0.00     0.156 A 
HETATM    8  C17 UNL     1       1.270   1.582  -3.735  1.00  0.00     0.156 A 
HETATM    9  O5  UNL     1      -0.842   2.021  -4.700  1.00  0.00    -0.188 OA
HETATM   10  C18 UNL     1       2.229   1.887  -2.750  1.00  0.00     0.029 A 
HETATM   11  O4  UNL     1       1.508   0.623  -4.606  1.00  0.00    -0.188 OA
HETATM   12  C19 UNL     1       1.983   2.908  -1.817  1.00  0.00    -0.002 A 
ENDBRANCH   4   5
ENDBRANCH   3   4
ENDBRANCH   1   3
BRANCH   1  13
HETATM   13  C4  UNL     1      -0.103   1.701   1.021  1.00  0.00     0.037 C 
HETATM   14  C5  UNL     1       0.504   0.650   1.595  1.00  0.00     0.003 C 
BRANCH  14  15
HETATM   15  C6  UNL     1      -0.144  -0.666   1.621  1.00  0.00     0.000 C 
HETATM   16  C7  UNL     1       0.463  -1.717   2.197  1.00  0.00     0.000 C 
BRANCH  16  17
HETATM   17  C8  UNL     1      -0.234  -3.037   2.197  1.00  0.00     0.002 A 
HETATM   18  C9  UNL     1      -1.641  -3.090   2.197  1.00  0.00     0.029 A 
HETATM   19  C10 UNL     1      -2.303  -4.332   2.197  1.00  0.00     0.156 A 
HETATM   20  C11 UNL     1      -1.555  -5.524   2.197  1.00  0.00     0.156 A 
HETATM   21  O2  UNL     1      -3.619  -4.373   2.197  1.00  0.00    -0.188 OA
HETATM   22  C12 UNL     1      -0.150  -5.469   2.197  1.00  0.00     0.029 A 
HETATM   23  O1  UNL     1      -2.166  -6.692   2.197  1.00  0.00    -0.188 OA
HETATM   24  C13 UNL     1       0.510  -4.229   2.197  1.00  0.00     0.002 A 
ENDBRANCH  16  17
ENDBRANCH  14  15
ENDBRANCH   1  13
TORSDOF 6
