REMARK  3 active torsions:
REMARK  status: ('A' for Active; 'I' for Inactive)
REMARK    1  A    between atoms: C7_7  and  C12_12 
REMARK    2  A    between atoms: C12_12  and  C13_13 
REMARK    3  A    between atoms: C13_13  and  C14_14 
ROOT
HETATM    1  C1  UNL     1       1.955   0.184  -0.207  1.00  0.00     0.000 C 
HETATM    2  C2  UNL     1       3.178  -0.594  -0.719  1.00  0.00     0.000 C 
HETATM    3  C3  UNL     1       3.172  -2.027  -0.203  1.00  0.00     0.000 C 
HETATM    4  C4  UNL     1       1.969  -2.830  -0.746  1.00  0.00     0.000 C 
HETATM    5  C5  UNL     1       0.715  -1.920  -0.977  1.00  0.00     0.005 C 
HETATM    6  C6  UNL     1       0.658  -0.670  -0.059  1.00  0.00     0.004 C 
HETATM    7  C7  UNL     1      -0.561   0.213  -0.453  1.00  0.00     0.021 C 
HETATM    8  C8  UNL     1      -1.848  -0.549  -0.713  1.00  0.00    -0.048 C 
HETATM    9  C9  UNL     1      -1.863  -1.873  -0.951  1.00  0.00    -0.035 C 
HETATM   10  C10 UNL     1      -0.611  -2.717  -0.928  1.00  0.00     0.025 C 
HETATM   11  C11 UNL     1      -3.149   0.215  -0.715  1.00  0.00     0.026 C 
HETATM   12  C18 UNL     1       0.516  -1.141   1.398  1.00  0.00     0.000 C 
HETATM   13  C19 UNL     1       2.355  -3.473  -2.086  1.00  0.00     0.000 C 
HETATM   14  C20 UNL     1       1.697  -3.971   0.244  1.00  0.00     0.000 C 
ENDROOT
BRANCH   7  15
HETATM   15  C12 UNL     1      -0.781   1.350   0.557  1.00  0.00     0.041 C 
BRANCH  15  16
HETATM   16  C13 UNL     1      -1.242   2.648  -0.107  1.00  0.00     0.176 C 
HETATM   17  O4  UNL     1      -0.121   3.260  -0.705  1.00  0.00    -0.219 OA
BRANCH  16  18
HETATM   18  C14 UNL     1      -1.873   3.602   0.871  1.00  0.00     0.050 A 
HETATM   19  C15 UNL     1      -3.084   4.148   0.766  1.00  0.00     0.067 A 
HETATM   20  C16 UNL     1      -3.275   4.996   1.932  1.00  0.00     0.298 A 
HETATM   21  O1  UNL     1      -2.197   4.957   2.729  1.00  0.00    -0.266 OA
HETATM   22  O3  UNL     1      -4.281   5.637   2.131  1.00  0.00    -0.259 OA
HETATM   23  C17 UNL     1      -1.217   4.086   2.141  1.00  0.00     0.298 A 
HETATM   24  O2  UNL     1      -0.025   4.789   1.865  1.00  0.00    -0.185 OA
ENDBRANCH  16  18
ENDBRANCH  15  16
ENDBRANCH   7  15
TORSDOF 3
