REMARK  9 active torsions:
REMARK  status: ('A' for Active; 'I' for Inactive)
REMARK    1  A    between atoms: C6_6  and  C7_7 
REMARK    2  A    between atoms: C7_7  and  O1_8 
REMARK    3  A    between atoms: O1_8  and  C8_9 
REMARK    4  A    between atoms: C8_9  and  C9_10 
REMARK    5  A    between atoms: C9_10  and  C10_11 
REMARK    6  A    between atoms: C10_11  and  C11_12 
REMARK    7  A    between atoms: C11_12  and  C12_13 
REMARK    8  A    between atoms: C12_13  and  C13_14 
REMARK    9  A    between atoms: C13_14  and  C14_15 
ROOT
HETATM    1  C8  UNL     1       0.945   0.602  -0.147  1.00  0.00     0.188 C 
ENDROOT
BRANCH   1   2
HETATM    2  O1  UNL     1       0.133   1.766  -0.147  1.00  0.00    -0.296 OA
BRANCH   2   3
HETATM    3  C7  UNL     1       0.852   2.885  -0.147  1.00  0.00     0.296 C 
HETATM    4  O8  UNL     1       2.061   2.908  -0.147  1.00  0.00    -0.259 OA
BRANCH   3   5
HETATM    5  C6  UNL     1       0.059   4.151  -0.147  1.00  0.00     0.067 A 
HETATM    6  C1  UNL     1       0.715   5.395  -0.147  1.00  0.00     0.035 A 
HETATM    7  C2  UNL     1      -0.029   6.586  -0.147  1.00  0.00     0.158 A 
HETATM    8  C3  UNL     1      -1.435   6.535  -0.147  1.00  0.00     0.181 A 
HETATM    9  O11 UNL     1       0.592   7.748  -0.147  1.00  0.00    -0.188 OA
HETATM   10  C4  UNL     1      -2.096   5.291  -0.147  1.00  0.00     0.158 A 
HETATM   11  O10 UNL     1      -2.137   7.653  -0.147  1.00  0.00    -0.186 OA
HETATM   12  C5  UNL     1      -1.346   4.102  -0.147  1.00  0.00     0.035 A 
HETATM   13  O9  UNL     1      -3.412   5.238  -0.147  1.00  0.00    -0.188 OA
ENDBRANCH   3   5
ENDBRANCH   2   3
ENDBRANCH   1   2
BRANCH   1  14
HETATM   14  C9  UNL     1       0.057  -0.642  -0.147  1.00  0.00     0.215 C 
HETATM   15  O7  UNL     1      -0.797  -0.574  -1.268  1.00  0.00    -0.218 OA
BRANCH  14  16
HETATM   16  C10 UNL     1       0.858  -1.941  -0.233  1.00  0.00     0.218 C 
HETATM   17  O6  UNL     1       1.879  -1.894   0.736  1.00  0.00    -0.218 OA
BRANCH  16  18
HETATM   18  C11 UNL     1       0.002  -3.180   0.035  1.00  0.00     0.222 C 
HETATM   19  O5  UNL     1      -0.877  -3.353  -1.055  1.00  0.00    -0.217 OA
BRANCH  18  20
HETATM   20  C12 UNL     1       0.836  -4.453   0.182  1.00  0.00     0.244 C 
HETATM   21  O4  UNL     1       1.512  -4.680  -1.035  1.00  0.00    -0.212 OA
BRANCH  20  22
HETATM   22  C13 UNL     1      -0.004  -5.654   0.521  1.00  0.00     0.216 C 
HETATM   23  O3  UNL     1      -1.207  -5.572   0.590  1.00  0.00    -0.290 OA
BRANCH  22  24
HETATM   24  C14 UNL     1       0.699  -6.961   0.773  1.00  0.00     0.249 C 
HETATM   25  O2  UNL     1      -0.055  -7.734   1.680  1.00  0.00    -0.212 OA
ENDBRANCH  22  24
ENDBRANCH  20  22
ENDBRANCH  18  20
ENDBRANCH  16  18
ENDBRANCH  14  16
ENDBRANCH   1  14
TORSDOF 9
