REMARK  1 active torsions:
REMARK  status: ('A' for Active; 'I' for Inactive)
REMARK    1  A    between atoms: C15_17  and  C17_20 
ROOT
HETATM    1  C1  UNL     1       3.853  -1.691   0.420  1.00  0.00    -0.000 A 
HETATM    2  C2  UNL     1       4.545  -0.482   0.207  1.00  0.00    -0.004 A 
HETATM    3  C3  UNL     1       3.832   0.707  -0.053  1.00  0.00    -0.022 A 
HETATM    4  C4  UNL     1       2.406   0.686  -0.098  1.00  0.00    -0.004 A 
HETATM    5  C5  UNL     1       1.685  -0.541   0.125  1.00  0.00     0.003 A 
HETATM    6  C6  UNL     1       2.441  -1.723   0.381  1.00  0.00     0.000 A 
HETATM    7  C7  UNL     1       0.244  -0.535   0.082  1.00  0.00     0.044 A 
HETATM    8  C8  UNL     1      -0.428   0.699  -0.203  1.00  0.00     0.026 A 
HETATM    9  C9  UNL     1       0.295   1.893  -0.422  1.00  0.00     0.002 A 
HETATM   10  C10 UNL     1       1.699   1.887  -0.365  1.00  0.00    -0.000 A 
HETATM   11  C11 UNL     1      -1.916   0.735  -0.275  1.00  0.00     0.103 A 
HETATM   12  C12 UNL     1      -2.664  -0.389  -0.063  1.00  0.00     0.065 A 
HETATM   13  C13 UNL     1      -2.069  -1.701   0.250  1.00  0.00     0.236 A 
HETATM   14  C14 UNL     1      -0.584  -1.793   0.330  1.00  0.00     0.234 A 
HETATM   15  O1  UNL     1      -0.186  -2.902   0.596  1.00  0.00    -0.283 OA
HETATM   16  O2  UNL     1      -2.774  -2.668   0.438  1.00  0.00    -0.283 OA
HETATM   17  C15 UNL     1      -3.967   0.000  -0.207  1.00  0.00     0.041 A 
HETATM   18  C16 UNL     1      -3.994   1.371  -0.510  1.00  0.00     0.121 A 
HETATM   19  O3  UNL     1      -2.674   1.858  -0.555  1.00  0.00    -0.305 OA
HETATM   20  C18 UNL     1       4.603   1.947  -0.270  1.00  0.00     0.031 C 
ENDROOT
BRANCH  17  21
HETATM   21  C17 UNL     1      -5.186  -0.889  -0.066  1.00  0.00     0.211 C 
HETATM   22  O4  UNL     1      -5.406  -1.170   1.297  1.00  0.00    -0.215 OA
ENDBRANCH  17  21
TORSDOF 1
