REMARK  6 active torsions:
REMARK  status: ('A' for Active; 'I' for Inactive)
REMARK    1  A    between atoms: C5_5  and  C7_7 
REMARK    2  A    between atoms: C8_8  and  C9_9 
REMARK    3  A    between atoms: C9_9  and  C10_10 
REMARK    4  A    between atoms: C10_10  and  C11_11 
REMARK    5  A    between atoms: C12_12  and  C13_13 
REMARK    6  A    between atoms: C14_14  and  C15_15 
REMARK       I    between atoms: C15_15  and  N1_16 
ROOT
HETATM    1  C10 UNL     1      -0.977   2.502   0.697  1.00  0.00     0.031 C 
ENDROOT
BRANCH   1   2
HETATM    2  C9  UNL     1       0.328   2.910   1.379  1.00  0.00     0.031 C 
BRANCH   2   3
HETATM    3  C8  UNL     1       0.994   1.756   2.082  1.00  0.00    -0.026 C 
HETATM    4  C7  UNL     1       2.267   1.465   1.770  1.00  0.00    -0.004 C 
BRANCH   4   5
HETATM    5  C5  UNL     1       2.924   0.334   2.457  1.00  0.00     0.002 A 
HETATM    6  C4  UNL     1       2.160  -0.768   2.897  1.00  0.00     0.002 A 
HETATM    7  C3  UNL     1       2.812  -1.836   3.551  1.00  0.00     0.026 A 
HETATM    8  C2  UNL     1       4.215  -1.818   3.774  1.00  0.00     0.119 A 
HETATM    9  C1  UNL     1       4.969  -0.725   3.336  1.00  0.00     0.119 A 
HETATM   10  O2  UNL     1       5.027  -2.699   4.360  1.00  0.00    -0.300 OA
HETATM   11  C6  UNL     1       4.318   0.352   2.676  1.00  0.00     0.026 A 
HETATM   12  O3  UNL     1       6.248  -0.924   3.651  1.00  0.00    -0.300 OA
HETATM   13  C21 UNL     1       6.381  -2.191   4.328  1.00  0.00     0.304 A 
ENDBRANCH   4   5
ENDBRANCH   2   3
ENDBRANCH   1   2
BRANCH   1  14
HETATM   14  C11 UNL     1      -1.647   3.658   0.002  1.00  0.00    -0.026 C 
HETATM   15  C12 UNL     1      -2.662   3.398  -0.838  1.00  0.00    -0.004 C 
BRANCH  15  16
HETATM   16  C13 UNL     1      -3.108   2.020  -1.070  1.00  0.00     0.005 C 
HETATM   17  C14 UNL     1      -3.715   1.682  -2.221  1.00  0.00     0.060 C 
BRANCH  17  18
HETATM   18  C15 UNL     1      -4.160   0.303  -2.453  1.00  0.00     0.257 C 
HETATM   19  N1  UNL     1      -3.303  -0.609  -3.014  1.00  0.00    -0.317 N 
HETATM   20  C16 UNL     1      -3.731  -2.010  -3.250  1.00  0.00     0.104 C 
HETATM   21  C20 UNL     1      -1.924  -0.219  -3.398  1.00  0.00     0.104 C 
HETATM   22  C17 UNL     1      -2.676  -3.012  -2.744  1.00  0.00     0.024 C 
HETATM   23  C18 UNL     1      -1.268  -2.682  -3.260  1.00  0.00     0.004 C 
HETATM   24  C19 UNL     1      -0.889  -1.240  -2.891  1.00  0.00     0.024 C 
HETATM   25  O1  UNL     1      -5.281  -0.037  -2.156  1.00  0.00    -0.267 OA
ENDBRANCH  17  18
ENDBRANCH  15  16
ENDBRANCH   1  14
TORSDOF 6
