REMARK  26 active torsions:
REMARK  status: ('A' for Active; 'I' for Inactive)
REMARK    1  A    between atoms: C3_3  and  O1_39 
REMARK    2  A    between atoms: C6_6  and  C7_7 
REMARK    3  A    between atoms: C8_8  and  C9_9 
REMARK    4  A    between atoms: C11_11  and  C12_12 
REMARK    5  A    between atoms: C13_13  and  C14_14 
REMARK    6  A    between atoms: C16_16  and  C17_17 
REMARK    7  A    between atoms: C18_18  and  C19_19 
REMARK    8  A    between atoms: C20_20  and  C22_22 
REMARK    9  A    between atoms: C23_23  and  C24_24 
REMARK   10  A    between atoms: C25_25  and  C27_27 
REMARK   11  A    between atoms: C28_28  and  C29_29 
REMARK   12  A    between atoms: O1_39  and  C39_40 
REMARK   13  A    between atoms: C39_40  and  C40_41 
REMARK   14  A    between atoms: C40_41  and  C41_42 
REMARK   15  A    between atoms: C41_42  and  C42_43 
REMARK   16  A    between atoms: C42_43  and  C43_44 
REMARK   17  A    between atoms: C43_44  and  C44_45 
REMARK   18  A    between atoms: C44_45  and  C45_46 
REMARK   19  A    between atoms: C45_46  and  C46_47 
REMARK   20  A    between atoms: C46_47  and  C47_48 
REMARK   21  A    between atoms: C47_48  and  C48_49 
REMARK   22  A    between atoms: C48_49  and  C49_50 
REMARK   23  A    between atoms: C49_50  and  C50_51 
REMARK   24  A    between atoms: C50_51  and  C51_52 
REMARK   25  A    between atoms: C51_52  and  C52_53 
REMARK   26  A    between atoms: C52_53  and  C53_54 
ROOT
HETATM    1  C7  UNL     1       3.988   1.330   2.387  1.00  0.00    -0.005 C 
HETATM    2  C8  UNL     1       3.939   2.615   2.772  1.00  0.00    -0.005 C 
ENDROOT
BRANCH   2   3
HETATM    3  C9  UNL     1       2.695   3.387   2.643  1.00  0.00    -0.022 C 
HETATM    4  C10 UNL     1       2.291   4.379   3.697  1.00  0.00     0.031 C 
HETATM    5  C11 UNL     1       1.895   3.221   1.576  1.00  0.00    -0.004 C 
BRANCH   5   6
HETATM    6  C12 UNL     1       0.652   3.990   1.447  1.00  0.00    -0.001 C 
HETATM    7  C13 UNL     1      -0.148   3.826   0.383  1.00  0.00    -0.004 C 
BRANCH   7   8
HETATM    8  C14 UNL     1      -1.391   4.596   0.254  1.00  0.00    -0.022 C 
HETATM    9  C15 UNL     1      -1.846   5.111  -1.086  1.00  0.00     0.031 C 
HETATM   10  C16 UNL     1      -2.150   4.857   1.332  1.00  0.00    -0.004 C 
BRANCH  10  11
HETATM   11  C17 UNL     1      -3.393   5.629   1.203  1.00  0.00    -0.000 C 
HETATM   12  C18 UNL     1      -4.151   5.891   2.279  1.00  0.00    -0.000 C 
BRANCH  12  13
HETATM   13  C19 UNL     1      -5.393   6.660   2.150  1.00  0.00    -0.004 C 
HETATM   14  C20 UNL     1      -6.328   6.617   3.113  1.00  0.00    -0.022 C 
HETATM   15  C21 UNL     1      -6.074   5.760   4.324  1.00  0.00     0.031 C 
BRANCH  14  16
HETATM   16  C22 UNL     1      -7.590   7.365   3.037  1.00  0.00    -0.004 C 
HETATM   17  C23 UNL     1      -8.194   7.572   1.856  1.00  0.00    -0.001 C 
BRANCH  17  18
HETATM   18  C24 UNL     1      -9.453   8.320   1.781  1.00  0.00    -0.004 C 
HETATM   19  C25 UNL     1      -9.869   8.846   0.617  1.00  0.00    -0.022 C 
HETATM   20  C26 UNL     1      -9.014   8.649  -0.605  1.00  0.00     0.031 C 
BRANCH  19  21
HETATM   21  C27 UNL     1     -11.119   9.604   0.482  1.00  0.00    -0.005 C 
HETATM   22  C28 UNL     1     -11.563  10.375   1.488  1.00  0.00    -0.005 C 
BRANCH  22  23
HETATM   23  C29 UNL     1     -12.821  11.137   1.354  1.00  0.00    -0.031 C 
HETATM   24  C30 UNL     1     -12.729  12.660   1.305  1.00  0.00     0.018 C 
HETATM   25  C31 UNL     1     -14.022  13.319   0.783  1.00  0.00     0.004 C 
HETATM   26  C36 UNL     1     -11.565  13.088   0.400  1.00  0.00     0.004 C 
HETATM   27  C37 UNL     1     -12.448  13.149   2.729  1.00  0.00     0.004 C 
HETATM   28  C32 UNL     1     -15.258  12.707   1.440  1.00  0.00     0.005 C 
HETATM   29  C33 UNL     1     -15.330  11.211   1.119  1.00  0.00     0.022 C 
HETATM   30  C34 UNL     1     -14.008  10.490   1.283  1.00  0.00    -0.048 C 
HETATM   31  C35 UNL     1     -14.076   8.985   1.369  1.00  0.00     0.026 C 
ENDBRANCH  22  23
ENDBRANCH  19  21
ENDBRANCH  17  18
ENDBRANCH  14  16
ENDBRANCH  12  13
ENDBRANCH  10  11
ENDBRANCH   7   8
ENDBRANCH   5   6
ENDBRANCH   2   3
BRANCH   1  32
HETATM   32  C6  UNL     1       5.238   0.555   2.518  1.00  0.00    -0.030 C 
HETATM   33  C1  UNL     1       6.084   0.355   1.262  1.00  0.00     0.021 C 
HETATM   34  C2  UNL     1       7.502  -0.172   1.565  1.00  0.00     0.035 C 
HETATM   35  C55 UNL     1       5.344  -0.641   0.361  1.00  0.00     0.004 C 
HETATM   36  C56 UNL     1       6.211   1.686   0.506  1.00  0.00     0.004 C 
HETATM   37  C3  UNL     1       7.498  -1.273   2.629  1.00  0.00     0.129 C 
HETATM   38  C4  UNL     1       6.881  -0.744   3.926  1.00  0.00     0.052 C 
HETATM   39  C5  UNL     1       5.602   0.037   3.717  1.00  0.00    -0.045 C 
HETATM   40  C38 UNL     1       4.727   0.221   4.934  1.00  0.00     0.026 C 
BRANCH  37  41
HETATM   41  O1  UNL     1       6.752  -2.391   2.166  1.00  0.00    -0.304 OA
BRANCH  41  42
HETATM   42  C39 UNL     1       7.389  -3.066   1.215  1.00  0.00     0.272 C 
HETATM   43  O2  UNL     1       8.512  -2.813   0.846  1.00  0.00    -0.264 OA
BRANCH  42  44
HETATM   44  C40 UNL     1       6.611  -4.203   0.606  1.00  0.00     0.096 C 
BRANCH  44  45
HETATM   45  C41 UNL     1       7.520  -5.272  -0.002  1.00  0.00     0.010 C 
BRANCH  45  46
HETATM   46  C42 UNL     1       6.738  -6.449  -0.584  1.00  0.00     0.001 C 
BRANCH  46  47
HETATM   47  C43 UNL     1       7.647  -7.518  -1.195  1.00  0.00     0.000 C 
BRANCH  47  48
HETATM   48  C44 UNL     1       6.863  -8.693  -1.779  1.00  0.00     0.000 C 
BRANCH  48  49
HETATM   49  C45 UNL     1       7.772  -9.762  -2.391  1.00  0.00     0.000 C 
BRANCH  49  50
HETATM   50  C46 UNL     1       6.990 -10.938  -2.975  1.00  0.00     0.000 C 
BRANCH  50  51
HETATM   51  C47 UNL     1       7.899 -12.006  -3.584  1.00  0.00     0.000 C 
BRANCH  51  52
HETATM   52  C48 UNL     1       7.115 -13.182  -4.168  1.00  0.00     0.000 C 
BRANCH  52  53
HETATM   53  C49 UNL     1       8.024 -14.250  -4.779  1.00  0.00     0.000 C 
BRANCH  53  54
HETATM   54  C50 UNL     1       7.240 -15.428  -5.363  1.00  0.00     0.000 C 
BRANCH  54  55
HETATM   55  C51 UNL     1       8.150 -16.494  -5.975  1.00  0.00     0.000 C 
BRANCH  55  56
HETATM   56  C52 UNL     1       7.367 -17.672  -6.557  1.00  0.00     0.000 C 
BRANCH  56  57
HETATM   57  C53 UNL     1       8.275 -18.739  -7.168  1.00  0.00     0.000 C 
HETATM   58  C54 UNL     1       7.492 -19.916  -7.752  1.00  0.00     0.000 C 
ENDBRANCH  56  57
ENDBRANCH  55  56
ENDBRANCH  54  55
ENDBRANCH  53  54
ENDBRANCH  52  53
ENDBRANCH  51  52
ENDBRANCH  50  51
ENDBRANCH  49  50
ENDBRANCH  48  49
ENDBRANCH  47  48
ENDBRANCH  46  47
ENDBRANCH  45  46
ENDBRANCH  44  45
ENDBRANCH  42  44
ENDBRANCH  41  42
ENDBRANCH  37  41
ENDBRANCH   1  32
TORSDOF 26
