REMARK  1 active torsions:
REMARK  status: ('A' for Active; 'I' for Inactive)
REMARK    1  A    between atoms: C8_9  and  C11_13 
ROOT
HETATM    1  C1  UNL     1      -3.248   0.217   0.354  1.00  0.00     0.127 A 
HETATM    2  C2  UNL     1      -3.133   1.508   0.920  1.00  0.00     0.029 A 
HETATM    3  C3  UNL     1      -1.857   2.103   1.082  1.00  0.00     0.134 A 
HETATM    4  C4  UNL     1      -0.693   1.400   0.674  1.00  0.00     0.082 A 
HETATM    5  C5  UNL     1      -0.805   0.088   0.139  1.00  0.00     0.097 A 
HETATM    6  C6  UNL     1      -2.086  -0.494  -0.037  1.00  0.00     0.026 A 
HETATM    7  C7  UNL     1      -2.207  -1.840  -0.623  1.00  0.00     0.035 C 
HETATM    8  O1  UNL     1       0.293  -0.621  -0.209  1.00  0.00    -0.329 OA
HETATM    9  C8  UNL     1       1.578  -0.268   0.311  1.00  0.00     0.151 C 
HETATM   10  C9  UNL     1       1.807   1.252   0.197  1.00  0.00     0.104 C 
HETATM   11  C10 UNL     1       0.652   2.033   0.791  1.00  0.00     0.180 C 
HETATM   12  O2  UNL     1       0.914   3.098   1.301  1.00  0.00    -0.291 OA
HETATM   13  O3  UNL     1      -1.762   3.332   1.613  1.00  0.00    -0.190 OA
HETATM   14  C17 UNL     1      -4.344   2.238   1.340  1.00  0.00     0.035 C 
HETATM   15  O4  UNL     1      -4.457  -0.340   0.189  1.00  0.00    -0.191 OA
ENDROOT
BRANCH   9  16
HETATM   16  C11 UNL     1       2.623  -1.051  -0.400  1.00  0.00     0.005 A 
HETATM   17  C12 UNL     1       2.649  -1.076  -1.807  1.00  0.00    -0.002 A 
HETATM   18  C13 UNL     1       3.635  -1.816  -2.479  1.00  0.00    -0.000 A 
HETATM   19  C14 UNL     1       4.598  -2.533  -1.746  1.00  0.00    -0.000 A 
HETATM   20  C15 UNL     1       4.572  -2.508  -0.342  1.00  0.00    -0.000 A 
HETATM   21  C16 UNL     1       3.586  -1.768   0.332  1.00  0.00    -0.002 A 
ENDBRANCH   9  16
TORSDOF 1
