REMARK  0 active torsions:
REMARK  status: ('A' for Active; 'I' for Inactive)
ROOT
HETATM    1  C1  UNL     1      -1.756  -1.352  -0.225  1.00  0.00     0.036 C 
HETATM    2  C2  UNL     1      -1.820  -0.883  -1.680  1.00  0.00     0.155 C 
HETATM    3  C3  UNL     1      -1.225   0.527  -1.672  1.00  0.00     0.060 C 
HETATM    4  C4  UNL     1      -0.428   0.609  -0.357  1.00  0.00     0.105 C 
HETATM    5  C5  UNL     1      -0.385  -0.809   0.272  1.00  0.00     0.068 C 
HETATM    6  C6  UNL     1      -0.395  -0.451   1.785  1.00  0.00     0.067 C 
HETATM    7  C7  UNL     1      -0.363   1.090   1.750  1.00  0.00     0.245 C 
HETATM    8  C8  UNL     1       0.994   1.668   1.254  1.00  0.00     0.180 C 
HETATM    9  C9  UNL     1       0.910   1.408  -0.305  1.00  0.00     0.082 C 
HETATM   10  C10 UNL     1       2.170   0.752  -0.928  1.00  0.00     0.157 C 
HETATM   11  O1  UNL     1       1.857  -0.213  -1.937  1.00  0.00    -0.300 OA
HETATM   12  C11 UNL     1       1.324  -1.385  -1.549  1.00  0.00     0.303 C 
HETATM   13  C12 UNL     1       0.900  -1.596  -0.105  1.00  0.00     0.240 C 
HETATM   14  O2  UNL     1       0.781  -2.967   0.219  1.00  0.00    -0.213 OA
HETATM   15  O3  UNL     1       1.170  -2.280  -2.350  1.00  0.00    -0.261 OA
HETATM   16  C13 UNL     1       0.605   2.685  -1.115  1.00  0.00     0.007 C 
HETATM   17  C14 UNL     1       2.152   1.021   2.018  1.00  0.00     0.038 C 
HETATM   18  O4  UNL     1       1.104   3.057   1.531  1.00  0.00    -0.221 OA
HETATM   19  O5  UNL     1      -0.869   1.650   2.949  1.00  0.00    -0.193 OA
HETATM   20  O6  UNL     1      -1.147   1.293   0.629  1.00  0.00    -0.335 OA
HETATM   21  O7  UNL     1      -3.156  -0.862  -2.146  1.00  0.00    -0.223 OA
HETATM   22  C15 UNL     1      -2.008  -2.852  -0.102  1.00  0.00     0.003 C 
ENDROOT
TORSDOF 0
