REMARK  3 active torsions:
REMARK  status: ('A' for Active; 'I' for Inactive)
REMARK    1  A    between atoms: C1_1  and  O4_25 
REMARK    2  A    between atoms: C13_14  and  O2_19 
REMARK    3  A    between atoms: O2_19  and  C17_20 
ROOT
HETATM    1  C1  UNL     1      -1.016   2.531  -0.412  1.00  0.00     0.119 A 
HETATM    2  C2  UNL     1       0.275   1.961  -0.320  1.00  0.00     0.153 A 
HETATM    3  C3  UNL     1       0.436   0.545  -0.189  1.00  0.00     0.026 A 
HETATM    4  C4  UNL     1      -0.730  -0.289  -0.287  1.00  0.00     0.005 A 
HETATM    5  C5  UNL     1      -2.025   0.301  -0.408  1.00  0.00    -0.020 A 
HETATM    6  C6  UNL     1      -2.156   1.709  -0.449  1.00  0.00     0.022 A 
HETATM    7  C7  UNL     1      -3.262  -0.517  -0.508  1.00  0.00     0.059 C 
HETATM    8  C8  UNL     1      -3.064  -1.996  -0.146  1.00  0.00     0.222 C 
HETATM    9  N1  UNL     1      -1.789  -2.570  -0.783  1.00  0.00    -0.001 N 
HETATM   10  C9  UNL     1      -0.564  -1.777  -0.250  1.00  0.00     0.215 C 
HETATM   11  C10 UNL     1       0.754  -2.205  -0.945  1.00  0.00     0.062 C 
HETATM   12  C11 UNL     1       1.920  -1.461  -0.414  1.00  0.00    -0.018 A 
HETATM   13  C12 UNL     1       1.764  -0.109   0.022  1.00  0.00     0.022 A 
HETATM   14  C13 UNL     1       2.879   0.533   0.651  1.00  0.00     0.119 A 
HETATM   15  C14 UNL     1       4.137  -0.113   0.711  1.00  0.00     0.153 A 
HETATM   16  C15 UNL     1       4.293  -1.420   0.207  1.00  0.00     0.029 A 
HETATM   17  C16 UNL     1       3.184  -2.098  -0.340  1.00  0.00    -0.002 A 
HETATM   18  O1  UNL     1       5.188   0.512   1.260  1.00  0.00    -0.188 OA
HETATM   19  C19 UNL     1      -1.668  -4.049  -0.396  1.00  0.00     0.250 C 
HETATM   20  C20 UNL     1      -1.894  -2.488  -2.312  1.00  0.00     0.250 C 
HETATM   21  O3  UNL     1       1.318   2.801  -0.394  1.00  0.00    -0.188 OA
ENDROOT
BRANCH  14  22
HETATM   22  O2  UNL     1       2.779   1.736   1.233  1.00  0.00    -0.329 OA
BRANCH  22  23
HETATM   23  C17 UNL     1       1.975   1.848   2.397  1.00  0.00     0.149 C 
HETATM   24  C18 UNL     1       1.910   3.313   2.832  1.00  0.00     0.035 C 
ENDBRANCH  22  23
ENDBRANCH  14  22
BRANCH   1  25
HETATM   25  O4  UNL     1      -1.160   3.863  -0.476  1.00  0.00    -0.326 OA
HETATM   26  C21 UNL     1      -2.477   4.387  -0.576  1.00  0.00     0.181 C 
ENDBRANCH   1  25
TORSDOF 3
