REMARK  0 active torsions:
REMARK  status: ('A' for Active; 'I' for Inactive)
ROOT
HETATM    1  C1  UNL     1      -3.674   0.803  -0.908  1.00  0.00     0.055 A 
HETATM    2  C2  UNL     1      -3.814   0.205   0.363  1.00  0.00     0.133 A 
HETATM    3  C3  UNL     1      -2.676  -0.252   1.064  1.00  0.00     0.028 A 
HETATM    4  C4  UNL     1      -1.387  -0.111   0.490  1.00  0.00     0.006 A 
HETATM    5  C5  UNL     1      -1.234   0.496  -0.801  1.00  0.00     0.051 A 
HETATM    6  C6  UNL     1      -2.394   0.951  -1.494  1.00  0.00     0.135 A 
HETATM    7  O1  UNL     1      -2.312   1.525  -2.703  1.00  0.00    -0.190 OA
HETATM    8  C7  UNL     1       0.072   0.633  -1.362  1.00  0.00     0.138 A 
HETATM    9  C8  UNL     1       1.196   0.162  -0.633  1.00  0.00     0.089 A 
HETATM   10  C9  UNL     1       1.031  -0.436   0.629  1.00  0.00     0.009 A 
HETATM   11  C10 UNL     1      -0.252  -0.578   1.201  1.00  0.00     0.001 A 
HETATM   12  C11 UNL     1       2.246  -0.906   1.330  1.00  0.00     0.021 A 
HETATM   13  C12 UNL     1       3.459  -0.752   0.748  1.00  0.00     0.081 A 
HETATM   14  O2  UNL     1       3.668  -0.180  -0.467  1.00  0.00    -0.277 OA
HETATM   15  C13 UNL     1       2.590   0.267  -1.153  1.00  0.00     0.302 A 
HETATM   16  O3  UNL     1       2.842   0.766  -2.227  1.00  0.00    -0.259 OA
HETATM   17  C14 UNL     1       4.651  -1.256   1.519  1.00  0.00     0.058 C 
HETATM   18  O4  UNL     1       0.250   1.199  -2.567  1.00  0.00    -0.190 OA
HETATM   19  O5  UNL     1      -5.033   0.070   0.908  1.00  0.00    -0.190 OA
ENDROOT
TORSDOF 0
