REMARK  2 active torsions:
REMARK  status: ('A' for Active; 'I' for Inactive)
REMARK    1  A    between atoms: C5_5  and  C7_7 
REMARK    2  A    between atoms: C7_7  and  C8_9 
ROOT
HETATM    1  C1  UNL     1      -1.852  -1.166  -0.401  1.00  0.00     0.027 A 
HETATM    2  C2  UNL     1      -1.107  -2.359  -0.401  1.00  0.00     0.131 A 
HETATM    3  C3  UNL     1       0.297  -2.305  -0.401  1.00  0.00     0.027 A 
HETATM    4  C4  UNL     1       0.957  -1.062  -0.401  1.00  0.00     0.000 A 
HETATM    5  C5  UNL     1       0.211   0.129  -0.401  1.00  0.00     0.010 A 
HETATM    6  C6  UNL     1      -1.195   0.076  -0.401  1.00  0.00     0.000 A 
HETATM    7  O2  UNL     1      -1.725  -3.523  -0.401  1.00  0.00    -0.190 OA
ENDROOT
BRANCH   5   8
HETATM    8  C7  UNL     1       0.906   1.442  -0.401  1.00  0.00     0.214 C 
HETATM    9  O1  UNL     1       0.529   2.174  -1.547  1.00  0.00    -0.216 OA
BRANCH   8  10
HETATM   10  C8  UNL     1       0.547   2.270   0.834  1.00  0.00     0.375 C 
HETATM   11  N1  UNL     1       0.981   1.592   2.043  1.00  0.00     0.621 N 
ENDBRANCH   8  10
ENDBRANCH   5   8
TORSDOF 2
