REMARK  1 active torsions:
REMARK  status: ('A' for Active; 'I' for Inactive)
REMARK    1  A    between atoms: C9_10  and  O3_13 
ROOT
HETATM    1  C1  UNL     1       2.822   0.781  -0.424  1.00  0.00     0.020 A 
HETATM    2  C2  UNL     1       2.887  -0.543  -0.178  1.00  0.00     0.041 A 
HETATM    3  C3  UNL     1       1.692  -1.365   0.088  1.00  0.00     0.198 A 
HETATM    4  C4  UNL     1       0.365  -0.676   0.084  1.00  0.00     0.069 A 
HETATM    5  C5  UNL     1       0.291   0.723  -0.174  1.00  0.00     0.044 A 
HETATM    6  C6  UNL     1       1.531   1.510  -0.445  1.00  0.00     0.192 A 
HETATM    7  O1  UNL     1       1.586   2.695  -0.682  1.00  0.00    -0.287 OA
HETATM    8  C7  UNL     1      -0.969   1.373  -0.176  1.00  0.00     0.005 A 
HETATM    9  C8  UNL     1      -2.148   0.639   0.078  1.00  0.00     0.026 A 
HETATM   10  C9  UNL     1      -2.076  -0.750   0.336  1.00  0.00     0.119 A 
HETATM   11  C10 UNL     1      -0.824  -1.410   0.338  1.00  0.00     0.156 A 
HETATM   12  O2  UNL     1      -0.779  -2.729   0.582  1.00  0.00    -0.188 OA
HETATM   13  O4  UNL     1       1.897  -2.541   0.287  1.00  0.00    -0.286 OA
HETATM   14  C12 UNL     1       4.106   1.531  -0.682  1.00  0.00     0.035 C 
ENDROOT
BRANCH  10  15
HETATM   15  O3  UNL     1      -3.201  -1.440   0.576  1.00  0.00    -0.326 OA
HETATM   16  C11 UNL     1      -4.428  -0.727   0.609  1.00  0.00     0.181 C 
ENDBRANCH  10  15
TORSDOF 1
