REMARK  6 active torsions:
REMARK  status: ('A' for Active; 'I' for Inactive)
REMARK    1  A    between atoms: C3_3  and  C34_39 
REMARK    2  A    between atoms: C22_22  and  O1_26 
REMARK    3  A    between atoms: O1_26  and  C26_27 
REMARK    4  A    between atoms: C34_39  and  O7_41 
REMARK    5  A    between atoms: O7_41  and  C35_42 
REMARK    6  A    between atoms: C39_46  and  C40_47 
ROOT
HETATM    1  C1  UNL     1       3.971  -1.543   0.565  1.00  0.00     0.131 C 
HETATM    2  C2  UNL     1       3.160  -0.268   0.965  1.00  0.00     0.055 C 
HETATM    3  C3  UNL     1       3.615   0.996   0.168  1.00  0.00     0.084 C 
HETATM    4  C4  UNL     1       5.135   1.195   0.352  1.00  0.00     0.010 C 
HETATM    5  C5  UNL     1       5.955  -0.055  -0.004  1.00  0.00     0.003 C 
HETATM    6  C6  UNL     1       5.487  -1.297   0.775  1.00  0.00     0.028 C 
HETATM    7  C7  UNL     1       6.346  -2.516   0.412  1.00  0.00     0.003 C 
HETATM    8  C8  UNL     1       2.854   2.266   0.645  1.00  0.00     0.010 C 
HETATM    9  C9  UNL     1       1.317   2.084   0.742  1.00  0.00     0.004 C 
HETATM   10  C10 UNL     1       0.942   0.869   1.627  1.00  0.00     0.015 C 
HETATM   11  C11 UNL     1       1.635  -0.283   0.910  1.00  0.00    -0.046 C 
HETATM   12  C12 UNL     1       0.936  -1.199   0.211  1.00  0.00    -0.035 C 
HETATM   13  C13 UNL     1      -0.498  -0.967  -0.193  1.00  0.00     0.025 C 
HETATM   14  C14 UNL     1      -1.373  -0.068   0.707  1.00  0.00     0.005 C 
HETATM   15  C15 UNL     1      -0.584   0.582   1.893  1.00  0.00     0.004 C 
HETATM   16  C16 UNL     1      -1.314   1.850   2.395  1.00  0.00     0.000 C 
HETATM   17  C17 UNL     1      -2.832   1.676   2.348  1.00  0.00     0.000 C 
HETATM   18  C18 UNL     1      -3.350   1.615   0.893  1.00  0.00     0.002 C 
HETATM   19  C19 UNL     1      -2.340   0.885  -0.074  1.00  0.00     0.001 C 
HETATM   20  C20 UNL     1      -3.123   0.109  -1.162  1.00  0.00     0.003 C 
HETATM   21  C21 UNL     1      -4.107  -0.928  -0.600  1.00  0.00     0.030 C 
HETATM   22  C22 UNL     1      -4.937  -0.402   0.596  1.00  0.00     0.118 C 
HETATM   23  C23 UNL     1      -4.836   1.133   0.791  1.00  0.00     0.025 C 
HETATM   24  C24 UNL     1      -5.654   1.572   2.018  1.00  0.00     0.002 C 
HETATM   25  C25 UNL     1      -5.514   1.816  -0.406  1.00  0.00     0.002 C 
HETATM   26  C31 UNL     1      -1.504   1.943  -0.809  1.00  0.00     0.000 C 
HETATM   27  C32 UNL     1      -0.654  -0.451   3.043  1.00  0.00     0.000 C 
HETATM   28  C33 UNL     1       1.588   1.119   3.010  1.00  0.00     0.004 C 
HETATM   29  O13 UNL     1       3.580  -2.602   1.424  1.00  0.00    -0.226 OA
HETATM   30  C41 UNL     1       3.711  -2.029  -0.869  1.00  0.00     0.033 C 
ENDROOT
BRANCH   3  31
HETATM   31  C34 UNL     1       3.320   0.840  -1.311  1.00  0.00     0.273 C 
HETATM   32  O6  UNL     1       2.219   0.525  -1.695  1.00  0.00    -0.264 OA
BRANCH  31  33
HETATM   33  O7  UNL     1       4.350   1.074  -2.119  1.00  0.00    -0.273 OA
BRANCH  33  34
HETATM   34  C35 UNL     1       3.998   0.957  -3.490  1.00  0.00     0.276 C 
HETATM   35  C36 UNL     1       5.283   0.858  -4.354  1.00  0.00     0.241 C 
HETATM   36  C37 UNL     1       5.082   1.410  -5.797  1.00  0.00     0.220 C 
HETATM   37  O12 UNL     1       5.690  -0.502  -4.340  1.00  0.00    -0.215 OA
HETATM   38  C38 UNL     1       3.596   1.305  -6.203  1.00  0.00     0.215 C 
HETATM   39  O11 UNL     1       5.930   0.783  -6.750  1.00  0.00    -0.218 OA
HETATM   40  C39 UNL     1       2.664   2.024  -5.184  1.00  0.00     0.184 C 
HETATM   41  O10 UNL     1       3.379   1.865  -7.486  1.00  0.00    -0.218 OA
HETATM   42  O9  UNL     1       3.250   2.096  -3.883  1.00  0.00    -0.326 OA
BRANCH  40  43
HETATM   43  C40 UNL     1       1.299   1.336  -5.053  1.00  0.00     0.214 C 
HETATM   44  O8  UNL     1       0.600   1.514  -6.264  1.00  0.00    -0.218 OA
ENDBRANCH  40  43
ENDBRANCH  33  34
ENDBRANCH  31  33
ENDBRANCH   3  31
BRANCH  22  45
HETATM   45  O1  UNL     1      -4.541  -1.078   1.775  1.00  0.00    -0.332 OA
BRANCH  45  46
HETATM   46  C26 UNL     1      -5.010  -2.410   1.840  1.00  0.00     0.270 C 
HETATM   47  O2  UNL     1      -6.404  -2.467   2.127  1.00  0.00    -0.326 OA
HETATM   48  C27 UNL     1      -6.789  -2.002   3.420  1.00  0.00     0.181 C 
HETATM   49  C28 UNL     1      -6.100  -2.814   4.539  1.00  0.00     0.215 C 
HETATM   50  C29 UNL     1      -4.568  -2.898   4.346  1.00  0.00     0.220 C 
HETATM   51  O5  UNL     1      -6.645  -4.121   4.574  1.00  0.00    -0.218 OA
HETATM   52  C30 UNL     1      -4.185  -3.219   2.881  1.00  0.00     0.241 C 
HETATM   53  O4  UNL     1      -4.004  -1.650   4.703  1.00  0.00    -0.218 OA
HETATM   54  O3  UNL     1      -4.385  -4.602   2.647  1.00  0.00    -0.215 OA
ENDBRANCH  45  46
ENDBRANCH  22  45
TORSDOF 6
