REMARK  0 active torsions:
REMARK  status: ('A' for Active; 'I' for Inactive)
ROOT
HETATM    1  C1  UNL     1      -5.369  -1.031  -1.256  1.00  0.00     0.000 C 
HETATM    2  C2  UNL     1      -5.936  -0.350   0.004  1.00  0.00     0.000 C 
HETATM    3  C3  UNL     1      -5.078  -0.607   1.273  1.00  0.00     0.000 C 
HETATM    4  C4  UNL     1      -3.604  -0.897   0.881  1.00  0.00     0.000 C 
HETATM    5  C5  UNL     1      -3.145  -0.064  -0.350  1.00  0.00     0.000 C 
HETATM    6  C6  UNL     1      -3.914  -0.615  -1.578  1.00  0.00     0.000 C 
HETATM    7  C7  UNL     1      -1.606  -0.221  -0.467  1.00  0.00     0.000 C 
HETATM    8  C8  UNL     1      -0.836   0.480   0.701  1.00  0.00     0.000 C 
HETATM    9  C9  UNL     1      -1.613   0.273   2.041  1.00  0.00     0.000 C 
HETATM   10  C10 UNL     1      -2.584  -0.916   2.047  1.00  0.00     0.000 C 
HETATM   11  C11 UNL     1       0.641  -0.053   0.715  1.00  0.00     0.000 C 
HETATM   12  C12 UNL     1       1.318   0.236  -0.674  1.00  0.00     0.001 C 
HETATM   13  C13 UNL     1       0.484  -0.311  -1.859  1.00  0.00     0.000 C 
HETATM   14  C14 UNL     1      -0.984   0.139  -1.822  1.00  0.00     0.000 C 
HETATM   15  C15 UNL     1       2.826  -0.168  -0.740  1.00  0.00     0.009 C 
HETATM   16  C16 UNL     1       3.586   0.533   0.412  1.00  0.00     0.058 C 
HETATM   17  C17 UNL     1       2.965   0.221   1.781  1.00  0.00     0.007 C 
HETATM   18  C18 UNL     1       1.486   0.627   1.824  1.00  0.00     0.000 C 
HETATM   19  C19 UNL     1       5.074   0.252   0.355  1.00  0.00     0.152 C 
HETATM   20  C20 UNL     1       5.774   0.637  -0.936  1.00  0.00     0.080 C 
HETATM   21  C21 UNL     1       4.996  -0.002  -2.115  1.00  0.00     0.159 C 
HETATM   22  C22 UNL     1       3.479   0.277  -2.074  1.00  0.00     0.034 C 
HETATM   23  O1  UNL     1       5.514   0.457  -3.350  1.00  0.00    -0.223 OA
HETATM   24  C23 UNL     1       5.783   2.170  -1.025  1.00  0.00     0.010 C 
HETATM   25  C24 UNL     1       7.225   0.137  -0.922  1.00  0.00     0.010 C 
HETATM   26  O2  UNL     1       5.666  -0.250   1.283  1.00  0.00    -0.296 OA
HETATM   27  C25 UNL     1       2.977  -1.695  -0.621  1.00  0.00     0.001 C 
HETATM   28  C26 UNL     1       0.619  -1.563   1.010  1.00  0.00     0.000 C 
HETATM   29  C27 UNL     1      -0.787   2.004   0.457  1.00  0.00     0.000 C 
HETATM   30  C28 UNL     1      -3.504   1.426  -0.195  1.00  0.00     0.000 C 
HETATM   31  C29 UNL     1      -5.170   0.607   2.205  1.00  0.00     0.000 C 
HETATM   32  C30 UNL     1      -5.639  -1.820   2.029  1.00  0.00     0.000 C 
ENDROOT
TORSDOF 0
