REMARK  3 active torsions:
REMARK  status: ('A' for Active; 'I' for Inactive)
REMARK    1  A    between atoms: C2_2  and  C16_20 
REMARK    2  A    between atoms: C8_9  and  C10_12 
REMARK    3  A    between atoms: C16_20  and  C17_21 
ROOT
HETATM    1  C1  UNL     1       1.898   2.238  -0.453  1.00  0.00     0.131 A 
HETATM    2  C2  UNL     1       2.049   0.828  -0.453  1.00  0.00     0.033 A 
HETATM    3  C3  UNL     1       0.904  -0.008  -0.426  1.00  0.00     0.134 A 
HETATM    4  C4  UNL     1      -0.391   0.574  -0.398  1.00  0.00     0.087 A 
HETATM    5  C5  UNL     1      -0.541   1.986  -0.396  1.00  0.00     0.107 A 
HETATM    6  C6  UNL     1       0.605   2.814  -0.424  1.00  0.00     0.052 A 
HETATM    7  O1  UNL     1      -1.770   2.545  -0.367  1.00  0.00    -0.305 OA
HETATM    8  C7  UNL     1      -2.906   1.822  -0.338  1.00  0.00     0.126 A 
HETATM    9  C8  UNL     1      -2.904   0.469  -0.340  1.00  0.00     0.064 A 
HETATM   10  C9  UNL     1      -1.617  -0.274  -0.373  1.00  0.00     0.201 A 
HETATM   11  O2  UNL     1      -1.660  -1.485  -0.377  1.00  0.00    -0.286 OA
HETATM   12  O4  UNL     1       1.051  -1.342  -0.428  1.00  0.00    -0.190 OA
HETATM   13  O5  UNL     1       2.977   3.035  -0.479  1.00  0.00    -0.190 OA
ENDROOT
BRANCH   9  14
HETATM   14  C10 UNL     1      -4.203  -0.270  -0.309  1.00  0.00     0.005 A 
HETATM   15  C11 UNL     1      -5.270   0.217   0.467  1.00  0.00     0.002 A 
HETATM   16  C12 UNL     1      -6.490  -0.479   0.496  1.00  0.00     0.027 A 
HETATM   17  C13 UNL     1      -6.651  -1.660  -0.250  1.00  0.00     0.131 A 
HETATM   18  C14 UNL     1      -5.582  -2.143  -1.025  1.00  0.00     0.027 A 
HETATM   19  O3  UNL     1      -7.797  -2.311  -0.223  1.00  0.00    -0.190 OA
HETATM   20  C15 UNL     1      -4.359  -1.451  -1.055  1.00  0.00     0.002 A 
ENDBRANCH   9  14
BRANCH   2  21
HETATM   21  C16 UNL     1       3.395   0.232  -0.479  1.00  0.00     0.056 C 
BRANCH  21  22
HETATM   22  C17 UNL     1       4.090   0.342   0.852  1.00  0.00    -0.030 C 
HETATM   23  C18 UNL     1       5.232  -0.342   1.035  1.00  0.00    -0.048 C 
HETATM   24  C19 UNL     1       5.910  -0.258   2.377  1.00  0.00     0.026 C 
HETATM   25  C20 UNL     1       5.775  -1.154  -0.109  1.00  0.00     0.026 C 
ENDBRANCH  21  22
ENDBRANCH   2  21
TORSDOF 3
