REMARK  2 active torsions:
REMARK  status: ('A' for Active; 'I' for Inactive)
REMARK    1  A    between atoms: C15_19  and  C17_21 
REMARK    2  A    between atoms: C17_21  and  O5_24 
ROOT
HETATM    1  C1  UNL     1      -5.881  -0.068  -0.160  1.00  0.00     0.117 C 
HETATM    2  O1  UNL     1      -5.318   1.254  -0.063  1.00  0.00    -0.331 OA
HETATM    3  C2  UNL     1      -3.982   1.461  -0.043  1.00  0.00     0.098 A 
HETATM    4  C3  UNL     1      -3.092   0.398   0.252  1.00  0.00     0.045 A 
HETATM    5  C4  UNL     1      -3.656  -0.940   0.551  1.00  0.00     0.002 C 
HETATM    6  C5  UNL     1      -4.975  -1.154   0.396  1.00  0.00     0.001 C 
HETATM    7  C6  UNL     1      -1.691   0.621   0.275  1.00  0.00     0.107 A 
HETATM    8  C7  UNL     1      -1.187   1.908   0.010  1.00  0.00     0.087 A 
HETATM    9  C8  UNL     1      -2.070   2.980  -0.283  1.00  0.00     0.138 A 
HETATM   10  C9  UNL     1      -3.467   2.752  -0.305  1.00  0.00     0.052 A 
HETATM   11  O2  UNL     1      -1.602   4.211  -0.537  1.00  0.00    -0.190 OA
HETATM   12  C10 UNL     1       0.281   2.098   0.045  1.00  0.00     0.198 A 
HETATM   13  C11 UNL     1       1.098   0.893   0.396  1.00  0.00     0.042 A 
HETATM   14  C12 UNL     1       0.516  -0.326   0.617  1.00  0.00     0.101 A 
HETATM   15  O3  UNL     1      -0.838  -0.385   0.549  1.00  0.00    -0.307 OA
HETATM   16  C13 UNL     1       1.283  -1.592   0.951  1.00  0.00     0.045 A 
HETATM   17  C14 UNL     1       2.692  -1.830   0.728  1.00  0.00     0.098 A 
HETATM   18  O4  UNL     1       3.606  -1.029   0.141  1.00  0.00    -0.330 OA
HETATM   19  C15 UNL     1       3.295   0.193  -0.506  1.00  0.00     0.154 C 
HETATM   20  C16 UNL     1       2.592   1.096   0.496  1.00  0.00     0.064 C 
HETATM   21  C20 UNL     1       3.258  -3.059   1.150  1.00  0.00     0.052 A 
HETATM   22  C21 UNL     1       2.475  -4.068   1.746  1.00  0.00     0.133 A 
HETATM   23  C22 UNL     1       1.096  -3.861   1.930  1.00  0.00     0.028 A 
HETATM   24  C23 UNL     1       0.516  -2.639   1.537  1.00  0.00     0.006 A 
HETATM   25  O7  UNL     1       3.039  -5.223   2.129  1.00  0.00    -0.190 OA
HETATM   26  O8  UNL     1       0.863   3.135  -0.180  1.00  0.00    -0.287 OA
HETATM   27  C24 UNL     1      -6.127  -0.357  -1.645  1.00  0.00     0.035 C 
HETATM   28  C25 UNL     1      -7.211  -0.059   0.594  1.00  0.00     0.035 C 
ENDROOT
BRANCH  19  29
HETATM   29  C17 UNL     1       4.610   0.801  -1.000  1.00  0.00     0.155 C 
HETATM   30  C18 UNL     1       5.479   1.334   0.141  1.00  0.00     0.036 C 
HETATM   31  C19 UNL     1       5.375  -0.133  -1.940  1.00  0.00     0.036 C 
BRANCH  29  32
HETATM   32  O5  UNL     1       4.147   1.900  -1.752  1.00  0.00    -0.192 OA
HETATM   33  O6  UNL     1       5.295   2.596  -2.277  1.00  0.00    -0.035 OA
ENDBRANCH  29  32
ENDBRANCH  19  29
TORSDOF 2
