REMARK  4 active torsions:
REMARK  status: ('A' for Active; 'I' for Inactive)
REMARK    1  A    between atoms: C1_1  and  C2_2 
REMARK    2  A    between atoms: C3_3  and  C4_4 
REMARK    3  A    between atoms: C7_8  and  O2_9 
REMARK    4  A    between atoms: O2_9  and  C8_10 
ROOT
HETATM    1  C4  UNL     1      -1.047  -0.860   0.128  1.00  0.00     0.002 A 
HETATM    2  C5  UNL     1      -1.791   0.334   0.128  1.00  0.00     0.029 A 
HETATM    3  C6  UNL     1      -1.137   1.578   0.128  1.00  0.00     0.154 A 
HETATM    4  O1  UNL     1      -1.842   2.691   0.128  1.00  0.00    -0.188 OA
HETATM    5  C7  UNL     1       0.269   1.629   0.128  1.00  0.00     0.128 A 
HETATM    6  C10 UNL     1       1.014   0.435   0.128  1.00  0.00     0.027 A 
HETATM    7  C11 UNL     1       0.357  -0.807   0.128  1.00  0.00     0.002 A 
ENDROOT
BRANCH   1   8
HETATM    8  C3  UNL     1      -1.748  -2.178   0.128  1.00  0.00     0.006 C 
HETATM    9  C2  UNL     1      -1.010  -3.301   0.128  1.00  0.00     0.070 C 
BRANCH   9  10
HETATM   10  C1  UNL     1      -1.652  -4.619   0.128  1.00  0.00     0.211 C 
HETATM   11  O4  UNL     1      -2.858  -4.713   0.128  1.00  0.00    -0.644 OA
HETATM   12  O5  UNL     1      -0.830  -5.664   0.128  1.00  0.00    -0.644 OA
ENDBRANCH   9  10
ENDBRANCH   1   8
BRANCH   5  13
HETATM   13  O2  UNL     1       0.893   2.791   0.128  1.00  0.00    -0.274 OA
BRANCH  13  14
HETATM   14  C8  UNL     1       2.010   2.924  -0.583  1.00  0.00     0.277 C 
HETATM   15  O3  UNL     1       2.326   2.183  -1.485  1.00  0.00    -0.264 OA
HETATM   16  C9  UNL     1       2.883   4.084  -0.190  1.00  0.00     0.107 C 
ENDBRANCH  13  14
ENDBRANCH   5  13
TORSDOF 4
