REMARK  4 active torsions:
REMARK  status: ('A' for Active; 'I' for Inactive)
REMARK    1  A    between atoms: C6_6  and  C7_7 
REMARK    2  A    between atoms: C7_7  and  C8_9 
REMARK    3  A    between atoms: C8_9  and  C9_10 
REMARK    4  A    between atoms: C9_10  and  C10_11 
ROOT
HETATM    1  C1  UNL     1      -1.467  -0.584   1.457  1.00  0.00    -0.002 A 
HETATM    2  C2  UNL     1      -2.125  -1.826   1.457  1.00  0.00    -0.000 A 
HETATM    3  C3  UNL     1      -1.377  -3.016   1.457  1.00  0.00    -0.000 A 
HETATM    4  C4  UNL     1       0.027  -2.965   1.457  1.00  0.00    -0.000 A 
HETATM    5  C5  UNL     1       0.685  -1.723   1.457  1.00  0.00    -0.002 A 
HETATM    6  C6  UNL     1      -0.061  -0.531   1.457  1.00  0.00     0.008 A 
ENDROOT
BRANCH   6   7
HETATM    7  C7  UNL     1       0.635   0.783   1.457  1.00  0.00     0.174 C 
HETATM    8  O1  UNL     1       0.263   1.510   2.605  1.00  0.00    -0.219 OA
BRANCH   7   9
HETATM    9  C8  UNL     1       0.271   1.613   0.226  1.00  0.00     0.038 C 
BRANCH   9  10
HETATM   10  C9  UNL     1       0.650   0.922  -1.084  1.00  0.00     0.003 C 
BRANCH  10  11
HETATM   11  C10 UNL     1       0.289   1.754  -2.317  1.00  0.00     0.000 C 
HETATM   12  C11 UNL     1       0.668   1.065  -3.627  1.00  0.00     0.000 C 
ENDBRANCH  10  11
ENDBRANCH   9  10
ENDBRANCH   7   9
ENDBRANCH   6   7
TORSDOF 4
