REMARK  1 active torsions:
REMARK  status: ('A' for Active; 'I' for Inactive)
REMARK    1  A    between atoms: C9_9  and  C10_10 
ROOT
HETATM    1  C1  UNL     1      -1.830   1.816  -0.809  1.00  0.00    -0.005 C 
HETATM    2  C2  UNL     1      -3.211   1.303  -1.176  1.00  0.00     0.146 C 
HETATM    3  C3  UNL     1      -3.748   0.332  -0.111  1.00  0.00     0.044 C 
HETATM    4  C4  UNL     1      -2.776  -0.822  -0.416  1.00  0.00     0.085 C 
HETATM    5  C5  UNL     1      -1.430  -0.416   0.233  1.00  0.00     0.037 C 
HETATM    6  C6  UNL     1      -0.994   0.959  -0.189  1.00  0.00    -0.046 C 
HETATM    7  C7  UNL     1       0.451   1.180   0.135  1.00  0.00     0.021 C 
HETATM    8  C8  UNL     1       0.996  -0.279   0.256  1.00  0.00     0.018 C 
HETATM    9  C9  UNL     1      -0.180  -1.242  -0.076  1.00  0.00     0.092 C 
HETATM   10  C11 UNL     1       2.217  -0.525  -0.664  1.00  0.00     0.008 C 
HETATM   11  C12 UNL     1       3.201   0.504  -0.096  1.00  0.00     0.049 C 
HETATM   12  C13 UNL     1       2.768   1.897  -0.629  1.00  0.00     0.156 C 
HETATM   13  C14 UNL     1       1.240   2.016  -0.883  1.00  0.00     0.037 C 
HETATM   14  O3  UNL     1       3.186   2.918   0.258  1.00  0.00    -0.223 OA
HETATM   15  C15 UNL     1       2.996   0.275   1.383  1.00  0.00    -0.042 C 
HETATM   16  C16 UNL     1       1.684  -0.408   1.629  1.00  0.00     0.023 C 
HETATM   17  C17 UNL     1       3.867   0.625   2.346  1.00  0.00    -0.009 C 
HETATM   18  C18 UNL     1      -3.303  -2.150   0.119  1.00  0.00     0.010 C 
HETATM   19  C19 UNL     1      -2.748  -0.723  -1.920  1.00  0.00     0.272 C 
HETATM   20  O4  UNL     1      -3.070   0.498  -2.346  1.00  0.00    -0.300 OA
HETATM   21  O5  UNL     1      -2.471  -1.656  -2.635  1.00  0.00    -0.264 OA
ENDROOT
BRANCH   9  22
HETATM   22  C10 UNL     1      -0.141  -2.574   0.635  1.00  0.00     0.185 C 
HETATM   23  O1  UNL     1      -0.582  -2.695   1.754  1.00  0.00    -0.647 OA
HETATM   24  O2  UNL     1       0.404  -3.570  -0.057  1.00  0.00    -0.647 OA
ENDBRANCH   9  22
TORSDOF 1
