REMARK  10 active torsions:
REMARK  status: ('A' for Active; 'I' for Inactive)
REMARK    1  A    between atoms: C3_3  and  O8_26 
REMARK    2  A    between atoms: C4_4  and  O6_22 
REMARK    3  A    between atoms: C5_5  and  C9_11 
REMARK    4  A    between atoms: C6_6  and  O1_7 
REMARK    5  A    between atoms: O1_7  and  C7_8 
REMARK    6  A    between atoms: C9_11  and  O3_12 
REMARK    7  A    between atoms: O3_12  and  C10_13 
REMARK    8  A    between atoms: C10_13  and  C11_14 
REMARK    9  A    between atoms: O6_22  and  C17_23 
REMARK   10  A    between atoms: O8_26  and  C19_27 
ROOT
HETATM    1  C1  UNL     1       1.189  -2.172  -0.922  1.00  0.00     0.004 C 
HETATM    2  C2  UNL     1       1.804  -2.607   0.196  1.00  0.00     0.004 C 
HETATM    3  C3  UNL     1       1.765  -1.837   1.499  1.00  0.00     0.176 C 
HETATM    4  C4  UNL     1       0.683  -0.743   1.537  1.00  0.00     0.189 C 
HETATM    5  C5  UNL     1       0.620   0.060   0.222  1.00  0.00     0.211 C 
HETATM    6  C6  UNL     1       0.368  -0.899  -0.964  1.00  0.00     0.179 C 
HETATM    7  O5  UNL     1       1.864   0.708   0.017  1.00  0.00    -0.218 OA
ENDROOT
BRANCH   5   8
HETATM    8  C9  UNL     1      -0.429   1.176   0.284  1.00  0.00     0.188 C 
BRANCH   8   9
HETATM    9  O3  UNL     1      -0.515   1.816  -0.981  1.00  0.00    -0.296 OA
BRANCH   9  10
HETATM   10  C10 UNL     1      -1.412   2.798  -0.991  1.00  0.00     0.296 C 
HETATM   11  O4  UNL     1      -2.080   3.111  -0.033  1.00  0.00    -0.259 OA
BRANCH  10  12
HETATM   12  C11 UNL     1      -1.555   3.515  -2.293  1.00  0.00     0.063 A 
HETATM   13  C12 UNL     1      -2.475   4.572  -2.419  1.00  0.00     0.005 A 
HETATM   14  C13 UNL     1      -2.609   5.247  -3.645  1.00  0.00     0.000 A 
HETATM   15  C14 UNL     1      -1.823   4.867  -4.746  1.00  0.00     0.000 A 
HETATM   16  C15 UNL     1      -0.903   3.812  -4.622  1.00  0.00     0.000 A 
HETATM   17  C16 UNL     1      -0.769   3.136  -3.397  1.00  0.00     0.005 A 
ENDBRANCH  10  12
ENDBRANCH   9  10
ENDBRANCH   8   9
ENDBRANCH   5   8
BRANCH   4  18
HETATM   18  O6  UNL     1       0.927   0.123   2.640  1.00  0.00    -0.299 OA
BRANCH  18  19
HETATM   19  C17 UNL     1       0.540  -0.408   3.796  1.00  0.00     0.273 C 
HETATM   20  O7  UNL     1      -0.170  -1.382   3.885  1.00  0.00    -0.264 OA
HETATM   21  C18 UNL     1       1.052   0.294   5.026  1.00  0.00     0.106 C 
ENDBRANCH  18  19
ENDBRANCH   4  18
BRANCH   6  22
HETATM   22  O1  UNL     1      -0.999  -1.287  -0.962  1.00  0.00    -0.297 OA
BRANCH  22  23
HETATM   23  C7  UNL     1      -1.375  -1.825  -2.119  1.00  0.00     0.273 C 
HETATM   24  O2  UNL     1      -0.658  -1.903  -3.089  1.00  0.00    -0.264 OA
HETATM   25  C8  UNL     1      -2.786  -2.348  -2.154  1.00  0.00     0.106 C 
ENDBRANCH  22  23
ENDBRANCH   6  22
BRANCH   3  26
HETATM   26  O8  UNL     1       1.549  -2.746   2.570  1.00  0.00    -0.297 OA
BRANCH  26  27
HETATM   27  C19 UNL     1       2.619  -3.494   2.822  1.00  0.00     0.273 C 
HETATM   28  O9  UNL     1       3.677  -3.371   2.250  1.00  0.00    -0.264 OA
HETATM   29  C20 UNL     1       2.435  -4.535   3.894  1.00  0.00     0.106 C 
ENDBRANCH  26  27
ENDBRANCH   3  26
TORSDOF 10
