REMARK  5 active torsions:
REMARK  status: ('A' for Active; 'I' for Inactive)
REMARK    1  A    between atoms: C15_17  and  C18_21 
REMARK    2  A    between atoms: C19_22  and  C20_23 
REMARK    3  A    between atoms: C20_23  and  C21_25 
REMARK    4  A    between atoms: C21_25  and  C22_26 
REMARK    5  A    between atoms: C22_26  and  C24_28 
ROOT
HETATM    1  C1  UNL     1       3.414  -0.951   1.738  1.00  0.00     0.065 C 
HETATM    2  C2  UNL     1       3.803  -1.883   0.611  1.00  0.00     0.150 C 
HETATM    3  C3  UNL     1       4.596  -1.275  -0.527  1.00  0.00     0.052 C 
HETATM    4  C4  UNL     1       3.875  -0.004  -1.107  1.00  0.00     0.013 C 
HETATM    5  C5  UNL     1       2.916   0.734  -0.115  1.00  0.00     0.022 C 
HETATM    6  C6  UNL     1       3.479   0.525   1.312  1.00  0.00     0.012 C 
HETATM    7  C7  UNL     1       1.453   0.258  -0.168  1.00  0.00     0.006 C 
HETATM    8  C8  UNL     1       1.033  -0.684  -1.061  1.00  0.00    -0.014 C 
HETATM    9  C9  UNL     1       1.910  -1.127  -2.227  1.00  0.00     0.170 C 
HETATM   10  C10 UNL     1       3.143  -0.240  -2.430  1.00  0.00     0.038 C 
HETATM   11  O1  UNL     1       1.230  -1.092  -3.465  1.00  0.00    -0.219 OA
HETATM   12  C11 UNL     1      -0.342  -1.324  -0.850  1.00  0.00     0.046 C 
HETATM   13  C12 UNL     1      -1.389  -0.279  -0.414  1.00  0.00     0.016 C 
HETATM   14  C13 UNL     1      -0.924   0.324   0.914  1.00  0.00     0.070 C 
HETATM   15  C14 UNL     1       0.490   0.856   0.812  1.00  0.00     0.169 C 
HETATM   16  O2  UNL     1       0.813   1.777   1.523  1.00  0.00    -0.292 OA
HETATM   17  C15 UNL     1      -2.689  -1.098  -0.330  1.00  0.00     0.022 C 
HETATM   18  C16 UNL     1      -2.582  -2.070  -1.514  1.00  0.00     0.037 C 
HETATM   19  C17 UNL     1      -1.139  -1.949  -2.020  1.00  0.00     0.156 C 
HETATM   20  O3  UNL     1      -0.641  -3.213  -2.424  1.00  0.00    -0.223 OA
HETATM   21  C26 UNL     1      -1.535   0.826  -1.473  1.00  0.00     0.001 C 
HETATM   22  C27 UNL     1      -0.156  -2.400   0.236  1.00  0.00     0.007 C 
HETATM   23  C28 UNL     1       2.916   2.234  -0.449  1.00  0.00     0.004 C 
HETATM   24  C29 UNL     1       4.877  -2.336  -1.602  1.00  0.00     0.007 C 
HETATM   25  C30 UNL     1       5.961  -0.885   0.059  1.00  0.00     0.007 C 
HETATM   26  O7  UNL     1       3.481  -3.049   0.631  1.00  0.00    -0.296 OA
ENDROOT
BRANCH  17  27
HETATM   27  C18 UNL     1      -3.961  -0.281  -0.314  1.00  0.00    -0.041 C 
HETATM   28  C19 UNL     1      -4.066   0.982   0.125  1.00  0.00     0.029 C 
HETATM   29  C25 UNL     1      -5.195  -0.963  -0.840  1.00  0.00     0.026 C 
BRANCH  28  30
HETATM   30  C20 UNL     1      -2.893   1.693   0.646  1.00  0.00     0.173 C 
HETATM   31  O4  UNL     1      -2.045   2.111  -0.107  1.00  0.00    -0.291 OA
BRANCH  30  32
HETATM   32  C21 UNL     1      -2.770   1.889   2.135  1.00  0.00     0.080 C 
BRANCH  32  33
HETATM   33  C22 UNL     1      -3.965   2.637   2.727  1.00  0.00     0.095 C 
HETATM   34  C23 UNL     1      -4.033   4.094   2.270  1.00  0.00     0.012 C 
BRANCH  33  35
HETATM   35  C24 UNL     1      -4.045   2.500   4.223  1.00  0.00     0.185 C 
HETATM   36  O5  UNL     1      -3.152   1.979   4.850  1.00  0.00    -0.647 OA
HETATM   37  O6  UNL     1      -5.152   2.984   4.775  1.00  0.00    -0.647 OA
ENDBRANCH  33  35
ENDBRANCH  32  33
ENDBRANCH  30  32
ENDBRANCH  28  30
ENDBRANCH  17  27
TORSDOF 5
