REMARK  5 active torsions:
REMARK  status: ('A' for Active; 'I' for Inactive)
REMARK    1  A    between atoms: C1_1  and  O3_23 
REMARK    2  A    between atoms: C12_12  and  C15_15 
REMARK    3  A    between atoms: C15_15  and  C16_16 
REMARK    4  A    between atoms: O3_23  and  C21_24 
REMARK    5  A    between atoms: C25_31  and  C26_33 
ROOT
HETATM    1  C1  UNL     1       1.338   1.000   0.482  1.00  0.00     0.118 C 
HETATM    2  C2  UNL     1       2.318  -0.176   0.365  1.00  0.00     0.030 C 
HETATM    3  C3  UNL     1       1.666  -1.506   0.781  1.00  0.00     0.002 C 
HETATM    4  C4  UNL     1       0.359  -1.725  -0.029  1.00  0.00     0.001 C 
HETATM    5  C5  UNL     1      -0.672  -0.555   0.062  1.00  0.00     0.006 C 
HETATM    6  C6  UNL     1       0.059   0.756  -0.336  1.00  0.00     0.030 C 
HETATM    7  C7  UNL     1      -1.877  -0.832  -0.898  1.00  0.00     0.018 C 
HETATM    8  C8  UNL     1      -2.432  -2.252  -0.754  1.00  0.00    -0.049 C 
HETATM    9  C9  UNL     1      -1.435  -3.387  -0.684  1.00  0.00     0.022 C 
HETATM   10  C10 UNL     1      -0.297  -3.080   0.285  1.00  0.00     0.004 C 
HETATM   11  C11 UNL     1      -3.754  -2.531  -0.686  1.00  0.00    -0.033 C 
HETATM   12  C12 UNL     1      -4.822  -1.467  -0.748  1.00  0.00     0.049 C 
HETATM   13  C13 UNL     1      -4.266  -0.174  -0.135  1.00  0.00     0.007 C 
HETATM   14  C14 UNL     1      -2.980   0.266  -0.850  1.00  0.00     0.004 C 
HETATM   15  C17 UNL     1      -5.223  -1.254  -2.211  1.00  0.00     0.007 C 
HETATM   16  C18 UNL     1      -1.211  -0.416   1.494  1.00  0.00     0.000 C 
HETATM   17  C19 UNL     1       2.666  -2.633   0.486  1.00  0.00     0.000 C 
HETATM   18  C20 UNL     1       1.402  -1.508   2.293  1.00  0.00     0.000 C 
ENDROOT
BRANCH   1  19
HETATM   19  O3  UNL     1       1.973   2.174   0.012  1.00  0.00    -0.332 OA
BRANCH  19  20
HETATM   20  C21 UNL     1       3.061   2.586   0.822  1.00  0.00     0.270 C 
HETATM   21  C22 UNL     1       3.160   4.131   0.920  1.00  0.00     0.241 C 
HETATM   22  O4  UNL     1       1.930   4.680   1.361  1.00  0.00    -0.215 OA
HETATM   23  C23 UNL     1       3.598   4.764  -0.420  1.00  0.00     0.220 C 
HETATM   24  O5  UNL     1       3.856   6.146  -0.238  1.00  0.00    -0.218 OA
HETATM   25  C24 UNL     1       4.877   4.057  -0.922  1.00  0.00     0.215 C 
HETATM   26  O6  UNL     1       5.186   4.496  -2.232  1.00  0.00    -0.218 OA
HETATM   27  C25 UNL     1       4.713   2.518  -0.941  1.00  0.00     0.184 C 
HETATM   28  O7  UNL     1       4.295   2.057   0.342  1.00  0.00    -0.326 OA
BRANCH  27  29
HETATM   29  C26 UNL     1       6.020   1.787  -1.266  1.00  0.00     0.214 C 
HETATM   30  O8  UNL     1       5.731   0.418  -1.430  1.00  0.00    -0.218 OA
ENDBRANCH  27  29
ENDBRANCH  19  20
ENDBRANCH   1  19
BRANCH  12  31
HETATM   31  C15 UNL     1      -6.051  -1.934   0.039  1.00  0.00     0.189 C 
HETATM   32  O2  UNL     1      -6.594  -3.057  -0.615  1.00  0.00    -0.220 OA
BRANCH  31  33
HETATM   33  C16 UNL     1      -5.713  -2.336   1.477  1.00  0.00     0.215 C 
HETATM   34  O1  UNL     1      -6.914  -2.666   2.135  1.00  0.00    -0.218 OA
ENDBRANCH  31  33
ENDBRANCH  12  31
TORSDOF 5
