REMARK  2 active torsions:
REMARK  status: ('A' for Active; 'I' for Inactive)
REMARK    1  A    between atoms: C13_13  and  C36_41 
REMARK    2  A    between atoms: C18_22  and  C33_38 
ROOT
HETATM    1  C1  UNL     1      -5.594   2.443  -1.383  1.00  0.00     0.003 C 
HETATM    2  C2  UNL     1      -6.441   1.848  -0.244  1.00  0.00     0.000 C 
HETATM    3  C3  UNL     1      -5.615   1.377   0.984  1.00  0.00     0.002 C 
HETATM    4  C4  UNL     1      -4.141   1.111   0.565  1.00  0.00     0.029 C 
HETATM    5  C5  UNL     1      -3.426   2.381  -0.021  1.00  0.00     0.131 C 
HETATM    6  C6  UNL     1      -4.428   3.262  -0.828  1.00  0.00     0.031 C 
HETATM    7  C7  UNL     1      -2.139   2.049  -0.857  1.00  0.00     0.059 C 
HETATM    8  C8  UNL     1      -1.887   0.592  -1.211  1.00  0.00     0.017 C 
HETATM    9  C9  UNL     1      -1.725  -0.326  -0.227  1.00  0.00    -0.015 C 
HETATM   10  C10 UNL     1      -1.848   0.092   1.229  1.00  0.00     0.024 C 
HETATM   11  C11 UNL     1      -3.309   0.359   1.637  1.00  0.00     0.007 C 
HETATM   12  C12 UNL     1      -1.436  -1.783  -0.564  1.00  0.00     0.172 C 
HETATM   13  C13 UNL     1      -0.656  -1.959  -1.895  1.00  0.00     0.185 C 
HETATM   14  C14 UNL     1      -1.262  -1.121  -3.000  1.00  0.00     0.238 C 
HETATM   15  C15 UNL     1      -1.820   0.191  -2.635  1.00  0.00     0.228 C 
HETATM   16  O1  UNL     1      -2.219   0.935  -3.500  1.00  0.00    -0.284 OA
HETATM   17  O2  UNL     1      -1.289  -1.506  -4.147  1.00  0.00    -0.285 OA
HETATM   18  O3  UNL     1       0.688  -1.490  -1.711  1.00  0.00    -0.324 OA
HETATM   19  C16 UNL     1       1.352  -1.746  -0.562  1.00  0.00     0.112 A 
HETATM   20  C17 UNL     1       0.645  -2.246   0.563  1.00  0.00     0.112 A 
HETATM   21  O4  UNL     1      -0.693  -2.412   0.490  1.00  0.00    -0.325 OA
HETATM   22  C18 UNL     1       1.338  -2.563   1.754  1.00  0.00     0.001 A 
HETATM   23  C19 UNL     1       2.733  -2.348   1.834  1.00  0.00    -0.007 A 
HETATM   24  C20 UNL     1       3.442  -1.815   0.727  1.00  0.00    -0.024 A 
HETATM   25  C21 UNL     1       2.748  -1.512  -0.477  1.00  0.00     0.001 A 
HETATM   26  C22 UNL     1       3.504  -0.943  -1.623  1.00  0.00     0.059 C 
HETATM   27  C23 UNL     1       3.891   0.549  -1.414  1.00  0.00     0.131 C 
HETATM   28  C24 UNL     1       4.352   0.920   0.033  1.00  0.00     0.029 C 
HETATM   29  C25 UNL     1       5.328  -0.082   0.715  1.00  0.00     0.007 C 
HETATM   30  C26 UNL     1       4.904  -1.570   0.811  1.00  0.00     0.026 C 
HETATM   31  C27 UNL     1       4.836   2.402   0.166  1.00  0.00     0.002 C 
HETATM   32  C28 UNL     1       4.096   3.338  -0.822  1.00  0.00     0.000 C 
HETATM   33  C29 UNL     1       2.686   2.840  -1.148  1.00  0.00     0.003 C 
HETATM   34  C30 UNL     1       2.711   1.469  -1.850  1.00  0.00     0.031 C 
HETATM   35  C31 UNL     1       6.346   2.531  -0.092  1.00  0.00     0.000 C 
HETATM   36  C32 UNL     1       4.574   2.885   1.602  1.00  0.00     0.000 C 
HETATM   37  O5  UNL     1       4.979   0.797  -2.293  1.00  0.00    -0.226 OA
HETATM   38  O6  UNL     1      -2.996   3.187   1.068  1.00  0.00    -0.226 OA
HETATM   39  C39 UNL     1      -6.258   0.100   1.543  1.00  0.00     0.000 C 
HETATM   40  C40 UNL     1      -5.672   2.435   2.094  1.00  0.00     0.000 C 
ENDROOT
BRANCH  13  41
HETATM   41  C36 UNL     1      -0.600  -3.442  -2.297  1.00  0.00     0.035 C 
HETATM   42  C37 UNL     1      -1.971  -4.004  -2.674  1.00  0.00     0.003 C 
HETATM   43  C38 UNL     1       0.467  -3.727  -3.355  1.00  0.00     0.003 C 
ENDBRANCH  13  41
BRANCH  22  44
HETATM   44  C33 UNL     1       0.613  -3.110   2.912  1.00  0.00     0.024 C 
HETATM   45  C34 UNL     1       1.182  -4.459   3.348  1.00  0.00     0.005 C 
HETATM   46  C35 UNL     1       0.545  -2.102   4.061  1.00  0.00     0.005 C 
ENDBRANCH  22  44
TORSDOF 2
