REMARK  4 active torsions:
REMARK  status: ('A' for Active; 'I' for Inactive)
REMARK    1  A    between atoms: C4_4  and  C7_7 
REMARK    2  A    between atoms: C7_7  and  C8_8 
REMARK    3  A    between atoms: C8_8  and  C9_9 
REMARK    4  A    between atoms: C12_12  and  O2_16 
ROOT
HETATM    1  C9  UNL     1      -1.047   0.861  -0.029  1.00  0.00    -0.018 A 
HETATM    2  C10 UNL     1      -0.760  -0.326   0.666  1.00  0.00     0.025 A 
HETATM    3  C11 UNL     1       0.067  -0.297   1.803  1.00  0.00     0.155 A 
HETATM    4  C12 UNL     1       0.608   0.924   2.246  1.00  0.00     0.145 A 
HETATM    5  C13 UNL     1       0.320   2.115   1.551  1.00  0.00     0.155 A 
HETATM    6  C14 UNL     1      -0.506   2.082   0.416  1.00  0.00     0.025 A 
HETATM    7  O1  UNL     1       0.824   3.262   1.963  1.00  0.00    -0.188 OA
HETATM    8  O3  UNL     1       0.332  -1.414   2.449  1.00  0.00    -0.188 OA
ENDROOT
BRANCH   1   9
HETATM    9  C8  UNL     1      -1.922   0.828  -1.231  1.00  0.00     0.031 C 
BRANCH   9  10
HETATM   10  C7  UNL     1      -1.107   0.676  -2.516  1.00  0.00     0.031 C 
BRANCH  10  11
HETATM   11  C4  UNL     1      -0.316  -0.584  -2.516  1.00  0.00    -0.022 A 
HETATM   12  C3  UNL     1      -0.974  -1.828  -2.516  1.00  0.00    -0.004 A 
HETATM   13  C2  UNL     1      -0.228  -3.018  -2.516  1.00  0.00    -0.000 A 
HETATM   14  C1  UNL     1       1.176  -2.967  -2.516  1.00  0.00    -0.000 A 
HETATM   15  C6  UNL     1       1.834  -1.725  -2.516  1.00  0.00    -0.000 A 
HETATM   16  C5  UNL     1       1.088  -0.533  -2.516  1.00  0.00    -0.004 A 
ENDBRANCH  10  11
ENDBRANCH   9  10
ENDBRANCH   1   9
BRANCH   4  17
HETATM   17  O2  UNL     1       1.383   0.953   3.312  1.00  0.00    -0.324 OA
HETATM   18  C15 UNL     1       0.764   1.078   4.584  1.00  0.00     0.182 C 
ENDBRANCH   4  17
TORSDOF 4
