REMARK  3 active torsions:
REMARK  status: ('A' for Active; 'I' for Inactive)
REMARK    1  A    between atoms: C1_1  and  O3_9 
REMARK    2  A    between atoms: O3_9  and  C7_10 
REMARK    3  A    between atoms: C11_17  and  C12_19 
ROOT
HETATM    1  C7  UNL     1       0.398  -0.555  -0.760  1.00  0.00     0.270 C 
HETATM    2  C8  UNL     1       0.375  -2.065  -1.121  1.00  0.00     0.241 C 
HETATM    3  O4  UNL     1      -0.607  -2.319  -2.113  1.00  0.00    -0.215 OA
HETATM    4  C9  UNL     1       0.143  -2.949   0.121  1.00  0.00     0.220 C 
HETATM    5  O5  UNL     1       0.313  -4.317  -0.221  1.00  0.00    -0.218 OA
HETATM    6  C10 UNL     1       1.158  -2.559   1.219  1.00  0.00     0.215 C 
HETATM    7  O6  UNL     1       0.844  -3.231   2.426  1.00  0.00    -0.218 OA
HETATM    8  C11 UNL     1       1.158  -1.035   1.486  1.00  0.00     0.184 C 
HETATM    9  O7  UNL     1       1.365  -0.328   0.264  1.00  0.00    -0.326 OA
ENDROOT
BRANCH   1  10
HETATM   10  O3  UNL     1      -0.883  -0.080  -0.375  1.00  0.00    -0.333 OA
BRANCH  10  11
HETATM   11  C1  UNL     1      -1.145   1.234  -0.822  1.00  0.00     0.107 C 
HETATM   12  C2  UNL     1      -0.025   2.158  -0.328  1.00  0.00     0.061 C 
HETATM   13  C3  UNL     1      -0.348   3.600  -0.738  1.00  0.00     0.154 C 
HETATM   14  O1  UNL     1      -1.598   4.047  -0.203  1.00  0.00    -0.302 OA
HETATM   15  C4  UNL     1      -2.654   3.211  -0.217  1.00  0.00     0.274 C 
HETATM   16  C5  UNL     1      -2.486   1.703  -0.232  1.00  0.00     0.123 C 
HETATM   17  O2  UNL     1      -3.781   3.644  -0.197  1.00  0.00    -0.264 OA
HETATM   18  C6  UNL     1      -1.191   1.166  -2.356  1.00  0.00     0.030 C 
ENDBRANCH  10  11
ENDBRANCH   1  10
BRANCH   8  19
HETATM   19  C12 UNL     1       2.275  -0.600   2.439  1.00  0.00     0.214 C 
HETATM   20  O8  UNL     1       2.080   0.762   2.756  1.00  0.00    -0.218 OA
ENDBRANCH   8  19
TORSDOF 3
