REMARK  4 active torsions:
REMARK  status: ('A' for Active; 'I' for Inactive)
REMARK    1  A    between atoms: C1_2  and  C15_20 
REMARK    2  A    between atoms: C6_7  and  C10_12 
REMARK    3  A    between atoms: C10_12  and  C11_13 
REMARK    4  A    between atoms: C12_14  and  C14_16 
ROOT
HETATM    1  O1  UNL     1       2.803   2.082  -1.367  1.00  0.00    -0.308 OA
HETATM    2  C1  UNL     1       4.068   1.646  -1.199  1.00  0.00     0.114 A 
HETATM    3  C2  UNL     1       4.334   0.414  -0.715  1.00  0.00     0.065 A 
HETATM    4  C3  UNL     1       3.240  -0.510  -0.347  1.00  0.00     0.201 A 
HETATM    5  C4  UNL     1       1.863   0.021  -0.551  1.00  0.00     0.087 A 
HETATM    6  C5  UNL     1       0.721  -0.760  -0.238  1.00  0.00     0.134 A 
HETATM    7  C6  UNL     1      -0.574  -0.221  -0.445  1.00  0.00     0.033 A 
HETATM    8  C7  UNL     1      -0.723   1.090  -0.965  1.00  0.00     0.131 A 
HETATM    9  C8  UNL     1       0.420   1.865  -1.275  1.00  0.00     0.052 A 
HETATM   10  C9  UNL     1       1.715   1.336  -1.070  1.00  0.00     0.107 A 
HETATM   11  O2  UNL     1      -1.945   1.605  -1.164  1.00  0.00    -0.190 OA
HETATM   12  O4  UNL     1       0.857  -2.000   0.254  1.00  0.00    -0.190 OA
HETATM   13  O5  UNL     1       3.557  -1.598   0.078  1.00  0.00    -0.286 OA
ENDROOT
BRANCH   7  14
HETATM   14  C10 UNL     1      -1.766  -1.024  -0.123  1.00  0.00     0.056 C 
BRANCH  14  15
HETATM   15  C11 UNL     1      -2.215  -0.826   1.301  1.00  0.00    -0.027 C 
HETATM   16  C12 UNL     1      -3.391  -1.350   1.680  1.00  0.00    -0.015 C 
HETATM   17  C13 UNL     1      -3.840  -1.152   3.104  1.00  0.00     0.029 C 
BRANCH  16  18
HETATM   18  C14 UNL     1      -4.201  -2.108   0.664  1.00  0.00     0.204 C 
HETATM   19  O3  UNL     1      -4.973  -1.201  -0.094  1.00  0.00    -0.216 OA
ENDBRANCH  16  18
ENDBRANCH  14  15
ENDBRANCH   7  14
BRANCH   2  20
HETATM   20  C15 UNL     1       5.231   2.539  -1.553  1.00  0.00     0.233 C 
HETATM   21  O6  UNL     1       5.774   3.092  -0.375  1.00  0.00    -0.213 OA
ENDBRANCH   2  20
TORSDOF 4
