REMARK  4 active torsions:
REMARK  status: ('A' for Active; 'I' for Inactive)
REMARK    1  A    between atoms: C3_3  and  C19_21 
REMARK    2  A    between atoms: C7_7  and  C12_12 
REMARK    3  A    between atoms: C12_12  and  C13_13 
REMARK    4  A    between atoms: C13_13  and  C14_14 
ROOT
HETATM    1  C1  UNL     1      -2.865  -0.064  -0.025  1.00  0.00     0.033 C 
HETATM    2  C2  UNL     1      -2.910  -1.605  -0.185  1.00  0.00     0.154 C 
HETATM    3  C3  UNL     1      -1.850  -2.342   0.672  1.00  0.00     0.059 C 
HETATM    4  C4  UNL     1      -0.401  -1.789   0.442  1.00  0.00     0.005 C 
HETATM    5  C5  UNL     1      -0.317  -0.346  -0.137  1.00  0.00     0.004 C 
HETATM    6  C6  UNL     1      -1.490   0.486   0.410  1.00  0.00     0.003 C 
HETATM    7  C7  UNL     1       1.055   0.242   0.287  1.00  0.00     0.019 C 
HETATM    8  C8  UNL     1       2.191  -0.740   0.043  1.00  0.00    -0.044 C 
HETATM    9  C9  UNL     1       1.908  -2.035  -0.697  1.00  0.00     0.022 C 
HETATM   10  C10 UNL     1       0.572  -2.719  -0.320  1.00  0.00     0.004 C 
HETATM   11  C11 UNL     1       3.432  -0.471   0.490  1.00  0.00    -0.009 C 
HETATM   12  C18 UNL     1      -0.395  -0.338  -1.678  1.00  0.00     0.000 C 
HETATM   13  C20 UNL     1      -2.242  -2.127   2.143  1.00  0.00     0.005 C 
HETATM   14  O4  UNL     1      -2.762  -1.955  -1.551  1.00  0.00    -0.223 OA
ENDROOT
BRANCH   7  15
HETATM   15  C12 UNL     1       1.346   1.596  -0.377  1.00  0.00     0.009 C 
BRANCH  15  16
HETATM   16  C13 UNL     1       1.812   2.654   0.621  1.00  0.00     0.032 C 
BRANCH  16  17
HETATM   17  C14 UNL     1       2.002   4.004  -0.019  1.00  0.00     0.039 A 
HETATM   18  C15 UNL     1       3.008   4.340  -1.012  1.00  0.00     0.292 A 
HETATM   19  O1  UNL     1       2.893   5.627  -1.361  1.00  0.00    -0.294 OA
HETATM   20  O2  UNL     1       3.818   3.555  -1.441  1.00  0.00    -0.260 OA
HETATM   21  C16 UNL     1       1.803   6.211  -0.625  1.00  0.00     0.178 A 
HETATM   22  C17 UNL     1       1.271   5.090   0.233  1.00  0.00     0.007 A 
ENDBRANCH  16  17
ENDBRANCH  15  16
ENDBRANCH   7  15
BRANCH   3  23
HETATM   23  C19 UNL     1      -1.924  -3.859   0.436  1.00  0.00     0.185 C 
HETATM   24  O3  UNL     1      -3.244  -4.281   0.693  1.00  0.00    -0.221 OA
ENDBRANCH   3  23
TORSDOF 4
