REMARK  15 active torsions:
REMARK  status: ('A' for Active; 'I' for Inactive)
REMARK    1  A    between atoms: C1_1  and  C7_8 
REMARK    2  A    between atoms: C8_9  and  C9_10 
REMARK       I    between atoms: C9_10  and  N1_11 
REMARK    3  A    between atoms: N1_11  and  C10_12 
REMARK    4  A    between atoms: C10_12  and  C11_13 
REMARK    5  A    between atoms: C11_13  and  C12_14 
REMARK    6  A    between atoms: C12_14  and  N2_15 
REMARK    7  A    between atoms: N2_15  and  C13_16 
REMARK       I    between atoms: N2_15  and  C26_32 
REMARK    8  A    between atoms: C13_16  and  C14_17 
REMARK    9  A    between atoms: C14_17  and  C15_18 
REMARK   10  A    between atoms: C15_18  and  C16_19 
REMARK   11  A    between atoms: C16_19  and  N3_20 
REMARK       I    between atoms: N3_20  and  C17_21 
REMARK   12  A    between atoms: C17_21  and  C18_22 
REMARK   13  A    between atoms: C19_23  and  C20_24 
REMARK   14  A    between atoms: C26_32  and  C27_33 
REMARK   15  A    between atoms: C28_34  and  C29_35 
ROOT
HETATM    1  N2  UNL     1      -0.883   2.369  -2.734  1.00  0.00    -0.317 N 
HETATM    2  C26 UNL     1      -2.190   2.738  -2.582  1.00  0.00     0.257 C 
HETATM    3  O5  UNL     1      -3.053   2.221  -3.252  1.00  0.00    -0.267 OA
ENDROOT
BRANCH   1   4
HETATM    4  C12 UNL     1      -0.537   1.332  -3.717  1.00  0.00     0.106 C 
BRANCH   4   5
HETATM    5  C11 UNL     1      -0.943  -0.055  -3.215  1.00  0.00     0.051 C 
BRANCH   5   6
HETATM    6  C10 UNL     1      -0.469  -1.178  -4.137  1.00  0.00     0.131 C 
BRANCH   6   7
HETATM    7  N1  UNL     1      -0.885  -2.492  -3.625  1.00  0.00    -0.234 NA
HETATM    8  C9  UNL     1      -0.549  -3.619  -4.318  1.00  0.00     0.275 C 
HETATM    9  O6  UNL     1       0.086  -3.539  -5.344  1.00  0.00    -0.266 OA
BRANCH   8  10
HETATM   10  C8  UNL     1      -0.965  -4.930  -3.803  1.00  0.00     0.062 C 
HETATM   11  C7  UNL     1      -0.649  -6.055  -4.463  1.00  0.00     0.005 C 
BRANCH  11  12
HETATM   12  C1  UNL     1      -1.096  -7.365  -3.900  1.00  0.00     0.000 A 
HETATM   13  C2  UNL     1      -1.338  -8.453  -4.756  1.00  0.00     0.002 A 
HETATM   14  C3  UNL     1      -1.758  -9.686  -4.225  1.00  0.00     0.027 A 
HETATM   15  C4  UNL     1      -1.938  -9.834  -2.838  1.00  0.00     0.131 A 
HETATM   16  C5  UNL     1      -1.693  -8.744  -1.984  1.00  0.00     0.027 A 
HETATM   17  O1  UNL     1      -2.330 -10.988  -2.340  1.00  0.00    -0.190 OA
HETATM   18  C6  UNL     1      -1.274  -7.510  -2.512  1.00  0.00     0.002 A 
ENDBRANCH  11  12
ENDBRANCH   8  10
ENDBRANCH   6   7
ENDBRANCH   5   6
ENDBRANCH   4   5
ENDBRANCH   1   4
BRANCH   1  19
HETATM   19  C13 UNL     1       0.189   2.986  -1.941  1.00  0.00     0.104 C 
BRANCH  19  20
HETATM   20  C14 UNL     1       0.187   2.451  -0.508  1.00  0.00     0.026 C 
BRANCH  20  21
HETATM   21  C15 UNL     1       1.303   3.053   0.348  1.00  0.00     0.028 C 
BRANCH  21  22
HETATM   22  C16 UNL     1       1.293   2.527   1.783  1.00  0.00     0.129 C 
BRANCH  22  23
HETATM   23  N3  UNL     1       2.377   3.129   2.572  1.00  0.00    -0.234 NA
HETATM   24  C17 UNL     1       2.525   2.779   3.885  1.00  0.00     0.275 C 
HETATM   25  O3  UNL     1       1.773   1.982   4.393  1.00  0.00    -0.266 OA
BRANCH  24  26
HETATM   26  C18 UNL     1       3.609   3.383   4.668  1.00  0.00     0.062 C 
HETATM   27  C19 UNL     1       3.783   3.059   5.961  1.00  0.00     0.005 C 
BRANCH  27  28
HETATM   28  C20 UNL     1       4.898   3.699   6.717  1.00  0.00     0.000 A 
HETATM   29  C21 UNL     1       5.105   3.381   8.071  1.00  0.00     0.002 A 
HETATM   30  C22 UNL     1       6.158   3.983   8.783  1.00  0.00     0.027 A 
HETATM   31  C23 UNL     1       7.006   4.906   8.145  1.00  0.00     0.131 A 
HETATM   32  C24 UNL     1       6.797   5.223   6.791  1.00  0.00     0.027 A 
HETATM   33  O2  UNL     1       7.992   5.471   8.813  1.00  0.00    -0.190 OA
HETATM   34  C25 UNL     1       5.746   4.621   6.076  1.00  0.00     0.002 A 
ENDBRANCH  27  28
ENDBRANCH  24  26
ENDBRANCH  22  23
ENDBRANCH  21  22
ENDBRANCH  20  21
ENDBRANCH  19  20
ENDBRANCH   1  19
BRANCH   2  35
HETATM   35  C27 UNL     1      -2.533   3.768  -1.594  1.00  0.00     0.060 C 
HETATM   36  C28 UNL     1      -3.485   3.541  -0.672  1.00  0.00     0.005 C 
BRANCH  36  37
HETATM   37  C29 UNL     1      -4.184   2.221  -0.672  1.00  0.00     0.000 A 
HETATM   38  C30 UNL     1      -5.588   2.170  -0.672  1.00  0.00     0.002 A 
HETATM   39  C31 UNL     1      -6.244   0.926  -0.672  1.00  0.00     0.027 A 
HETATM   40  C32 UNL     1      -5.502  -0.268  -0.672  1.00  0.00     0.131 A 
HETATM   41  C33 UNL     1      -4.096  -0.213  -0.672  1.00  0.00     0.027 A 
HETATM   42  O4  UNL     1      -6.119  -1.432  -0.672  1.00  0.00    -0.190 OA
HETATM   43  C34 UNL     1      -3.438   1.029  -0.672  1.00  0.00     0.002 A 
ENDBRANCH  36  37
ENDBRANCH   2  35
TORSDOF 15
