REMARK  2 active torsions:
REMARK  status: ('A' for Active; 'I' for Inactive)
REMARK    1  A    between atoms: N1_4  and  C12_15 
REMARK    2  A    between atoms: C12_15  and  C13_16 
ROOT
HETATM    1  C13 UNL     1       1.486   1.711  -0.137  1.00  0.00     0.058 A 
HETATM    2  C14 UNL     1       2.205   2.244   0.963  1.00  0.00     0.131 A 
HETATM    3  C15 UNL     1       1.580   3.160   1.840  1.00  0.00     0.027 A 
HETATM    4  C16 UNL     1       0.246   3.563   1.609  1.00  0.00     0.002 A 
HETATM    5  C17 UNL     1      -0.475   3.047   0.502  1.00  0.00     0.028 A 
HETATM    6  C18 UNL     1       0.141   2.094  -0.355  1.00  0.00     0.092 A 
HETATM    7  O2  UNL     1      -0.541   1.549  -1.383  1.00  0.00    -0.331 OA
HETATM    8  C19 UNL     1      -1.967   1.471  -1.332  1.00  0.00     0.156 C 
HETATM    9  C20 UNL     1      -2.586   2.830  -0.979  1.00  0.00     0.086 C 
HETATM   10  C21 UNL     1      -1.855   3.522   0.232  1.00  0.00     0.152 C 
HETATM   11  O3  UNL     1      -2.721   3.369   1.375  1.00  0.00    -0.329 OA
HETATM   12  C22 UNL     1      -3.928   2.973   0.979  1.00  0.00     0.093 A 
HETATM   13  C23 UNL     1      -3.965   2.656  -0.389  1.00  0.00     0.007 A 
HETATM   14  C24 UNL     1      -5.217   2.244  -0.908  1.00  0.00     0.024 A 
HETATM   15  C25 UNL     1      -6.449   2.096  -0.227  1.00  0.00     0.119 A 
HETATM   16  C26 UNL     1      -6.420   2.393   1.139  1.00  0.00     0.121 A 
HETATM   17  C27 UNL     1      -5.164   2.807   1.650  1.00  0.00     0.050 A 
HETATM   18  O4  UNL     1      -7.635   2.207   1.656  1.00  0.00    -0.299 OA
HETATM   19  C28 UNL     1      -8.527   1.773   0.602  1.00  0.00     0.304 A 
HETATM   20  O5  UNL     1      -7.682   1.727  -0.574  1.00  0.00    -0.300 OA
HETATM   21  O6  UNL     1       3.477   1.881   1.182  1.00  0.00    -0.190 OA
ENDROOT
BRANCH   1  22
HETATM   22  C12 UNL     1       2.139   0.754  -1.047  1.00  0.00     0.281 C 
BRANCH  22  23
HETATM   23  N1  UNL     1       1.719  -0.615  -0.777  1.00  0.00     0.142 N 
HETATM   24  C3  UNL     1       2.025  -1.527  -1.887  1.00  0.00     0.253 C 
HETATM   25  C2  UNL     1       1.520  -2.979  -1.633  1.00  0.00     0.057 C 
HETATM   26  C1  UNL     1       0.928  -3.147  -0.229  1.00  0.00     0.012 C 
HETATM   27  C11 UNL     1       2.666  -3.996  -1.791  1.00  0.00     0.111 C 
HETATM   28  C5  UNL     1       1.988  -2.613   0.740  1.00  0.00     0.072 C 
HETATM   29  C4  UNL     1       2.150  -1.080   0.555  1.00  0.00     0.256 C 
HETATM   30  C6  UNL     1       3.328  -3.320   0.543  1.00  0.00     0.042 A 
HETATM   31  C7  UNL     1       4.207  -3.305   1.574  1.00  0.00     0.013 A 
HETATM   32  N2  UNL     1       3.641  -3.963  -0.658  1.00  0.00    -0.299 N 
HETATM   33  C8  UNL     1       5.527  -3.951   1.463  1.00  0.00     0.006 A 
HETATM   34  C9  UNL     1       5.844  -4.566   0.311  1.00  0.00     0.061 A 
HETATM   35  C10 UNL     1       4.873  -4.586  -0.805  1.00  0.00     0.261 A 
HETATM   36  O1  UNL     1       5.164  -5.150  -1.834  1.00  0.00    -0.267 OA
ENDBRANCH  22  23
ENDBRANCH   1  22
TORSDOF 2
