REMARK  7 active torsions:
REMARK  status: ('A' for Active; 'I' for Inactive)
REMARK    1  A    between atoms: C3_3  and  C20_24 
REMARK    2  A    between atoms: C13_14  and  C14_16 
REMARK    3  A    between atoms: C20_24  and  C21_25 
REMARK    4  A    between atoms: C22_26  and  C24_28 
REMARK    5  A    between atoms: C24_28  and  C25_29 
REMARK    6  A    between atoms: C25_29  and  C26_30 
REMARK    7  A    between atoms: C26_30  and  C27_31 
ROOT
HETATM    1  C1  UNL     1      -2.209  -0.725  -1.473  1.00  0.00     0.115 A 
HETATM    2  C2  UNL     1      -1.021  -1.428  -1.111  1.00  0.00     0.151 A 
HETATM    3  C3  UNL     1       0.256  -0.840  -1.324  1.00  0.00     0.032 A 
HETATM    4  C4  UNL     1       0.291   0.445  -1.906  1.00  0.00     0.098 A 
HETATM    5  C5  UNL     1      -0.828   1.131  -2.268  1.00  0.00     0.022 A 
HETATM    6  C6  UNL     1      -2.121   0.572  -2.072  1.00  0.00     0.004 A 
HETATM    7  C7  UNL     1      -3.353   1.295  -2.473  1.00  0.00     0.031 C 
HETATM    8  C8  UNL     1      -4.570   0.357  -2.557  1.00  0.00     0.033 C 
HETATM    9  C9  UNL     1      -4.631  -0.574  -1.332  1.00  0.00     0.099 C 
HETATM   10  O1  UNL     1      -3.404  -1.313  -1.242  1.00  0.00    -0.334 OA
HETATM   11  C10 UNL     1      -5.771  -1.584  -1.473  1.00  0.00     0.030 C 
HETATM   12  C11 UNL     1      -4.814   0.223  -0.035  1.00  0.00     0.030 C 
HETATM   13  C12 UNL     1      -0.498   2.334  -2.797  1.00  0.00     0.026 A 
HETATM   14  C13 UNL     1       0.914   2.398  -2.764  1.00  0.00     0.100 A 
HETATM   15  O2  UNL     1       1.420   1.191  -2.193  1.00  0.00    -0.307 OA
HETATM   16  O6  UNL     1      -1.113  -2.649  -0.562  1.00  0.00    -0.188 OA
ENDROOT
BRANCH   3  17
HETATM   17  C20 UNL     1       1.496  -1.541  -0.955  1.00  0.00     0.056 C 
BRANCH  17  18
HETATM   18  C21 UNL     1       1.713  -1.561   0.535  1.00  0.00    -0.030 C 
HETATM   19  C22 UNL     1       2.676  -2.354   1.031  1.00  0.00    -0.048 C 
HETATM   20  C23 UNL     1       3.488  -3.184   0.074  1.00  0.00     0.026 C 
BRANCH  19  21
HETATM   21  C24 UNL     1       2.893  -2.373   2.522  1.00  0.00     0.022 C 
BRANCH  21  22
HETATM   22  C25 UNL     1       1.617  -2.059   3.301  1.00  0.00     0.007 C 
BRANCH  22  23
HETATM   23  C26 UNL     1       1.734  -2.397   4.787  1.00  0.00     0.031 C 
BRANCH  23  24
HETATM   24  C27 UNL     1       0.418  -2.213   5.541  1.00  0.00     0.127 C 
HETATM   25  C28 UNL     1       0.582  -2.336   7.057  1.00  0.00     0.033 C 
HETATM   26  C29 UNL     1      -0.324  -0.940   5.131  1.00  0.00     0.033 C 
HETATM   27  O5  UNL     1      -0.324  -3.322   5.086  1.00  0.00    -0.226 OA
ENDBRANCH  23  24
ENDBRANCH  22  23
ENDBRANCH  21  22
ENDBRANCH  19  21
ENDBRANCH  17  18
ENDBRANCH   3  17
BRANCH  14  28
HETATM   28  C14 UNL     1       1.807   3.490  -3.217  1.00  0.00     0.027 A 
HETATM   29  C15 UNL     1       1.262   4.664  -3.773  1.00  0.00     0.029 A 
HETATM   30  C16 UNL     1       2.106   5.701  -4.205  1.00  0.00     0.133 A 
HETATM   31  C17 UNL     1       3.500   5.563  -4.080  1.00  0.00     0.055 A 
HETATM   32  O4  UNL     1       1.594   6.799  -4.725  1.00  0.00    -0.190 OA
HETATM   33  C18 UNL     1       4.051   4.395  -3.525  1.00  0.00     0.133 A 
HETATM   34  C19 UNL     1       3.203   3.359  -3.096  1.00  0.00     0.029 A 
HETATM   35  O3  UNL     1       5.358   4.270  -3.410  1.00  0.00    -0.190 OA
ENDBRANCH  14  28
TORSDOF 7
