REMARK  7 active torsions:
REMARK  status: ('A' for Active; 'I' for Inactive)
REMARK    1  A    between atoms: C14_15  and  O2_16 
REMARK    2  A    between atoms: O2_16  and  C15_17 
REMARK    3  A    between atoms: C15_17  and  C16_18 
REMARK    4  A    between atoms: C20_23  and  C23_26 
REMARK    5  A    between atoms: C25_28  and  C29_35 
REMARK    6  A    between atoms: C26_30  and  O5_31 
REMARK    7  A    between atoms: O5_31  and  C27_32 
ROOT
HETATM    1  C1  UNL     1      -5.793   0.619  -0.617  1.00  0.00     0.098 C 
HETATM    2  C2  UNL     1      -6.180   2.027  -1.004  1.00  0.00     0.156 C 
HETATM    3  C3  UNL     1      -5.217   3.172  -0.736  1.00  0.00     0.067 C 
HETATM    4  C4  UNL     1      -3.746   2.781  -0.869  1.00  0.00    -0.041 C 
HETATM    5  C5  UNL     1      -3.356   1.307  -1.064  1.00  0.00     0.046 C 
HETATM    6  C6  UNL     1      -4.320   0.436  -0.217  1.00  0.00     0.163 C 
HETATM    7  O1  UNL     1      -4.174   0.719   1.166  1.00  0.00    -0.223 OA
HETATM    8  C7  UNL     1      -1.844   1.092  -0.707  1.00  0.00     0.034 C 
HETATM    9  C8  UNL     1      -0.998   2.149  -1.469  1.00  0.00     0.007 C 
HETATM   10  C9  UNL     1      -1.328   3.529  -0.891  1.00  0.00     0.025 C 
HETATM   11  C10 UNL     1      -2.816   3.766  -0.797  1.00  0.00    -0.034 C 
HETATM   12  C11 UNL     1       0.510   1.793  -1.555  1.00  0.00     0.001 C 
HETATM   13  C12 UNL     1       0.953   0.906  -0.377  1.00  0.00     0.003 C 
HETATM   14  C13 UNL     1       0.228  -0.447  -0.467  1.00  0.00     0.030 C 
HETATM   15  C14 UNL     1      -1.252  -0.330  -0.914  1.00  0.00     0.125 C 
HETATM   16  C20 UNL     1       2.477   0.830  -0.578  1.00  0.00     0.005 C 
HETATM   17  C21 UNL     1       2.854   2.242  -1.053  1.00  0.00     0.000 C 
HETATM   18  C22 UNL     1       1.543   2.924  -1.469  1.00  0.00     0.000 C 
HETATM   19  C33 UNL     1       0.686   1.598   0.971  1.00  0.00     0.000 C 
HETATM   20  C34 UNL     1       0.799   1.082  -2.889  1.00  0.00     0.000 C 
HETATM   21  C35 UNL     1      -3.572   0.965  -2.547  1.00  0.00     0.007 C 
HETATM   22  C36 UNL     1      -5.473   3.662   0.693  1.00  0.00     0.011 C 
HETATM   23  C37 UNL     1      -5.529   4.309  -1.723  1.00  0.00     0.011 C 
HETATM   24  O8  UNL     1      -7.252   2.225  -1.525  1.00  0.00    -0.296 OA
ENDROOT
BRANCH  16  25
HETATM   25  C23 UNL     1       3.266   0.391   0.650  1.00  0.00     0.060 C 
HETATM   26  C24 UNL     1       4.779   0.315   0.406  1.00  0.00     0.037 C 
HETATM   27  C25 UNL     1       5.256  -0.861   1.268  1.00  0.00     0.147 C 
HETATM   28  O4  UNL     1       4.084  -1.342   1.887  1.00  0.00    -0.331 OA
HETATM   29  C26 UNL     1       2.963  -1.037   1.098  1.00  0.00     0.242 C 
BRANCH  27  30
HETATM   30  C29 UNL     1       6.256  -0.478   2.352  1.00  0.00     0.167 A 
HETATM   31  C30 UNL     1       7.203  -1.547   3.008  1.00  0.00     0.120 A 
HETATM   32  O7  UNL     1       7.533  -0.781   1.895  1.00  0.00    -0.354 OA
HETATM   33  C31 UNL     1       7.139  -3.006   2.576  1.00  0.00     0.032 C 
HETATM   34  C32 UNL     1       8.119  -1.141   4.152  1.00  0.00     0.032 C 
ENDBRANCH  27  30
BRANCH  29  35
HETATM   35  O5  UNL     1       2.896  -1.916  -0.019  1.00  0.00    -0.276 OA
BRANCH  35  36
HETATM   36  C27 UNL     1       2.512  -3.143   0.322  1.00  0.00     0.274 C 
HETATM   37  O6  UNL     1       2.258  -3.476   1.457  1.00  0.00    -0.264 OA
HETATM   38  C28 UNL     1       2.404  -4.121  -0.816  1.00  0.00     0.106 C 
ENDBRANCH  35  36
ENDBRANCH  29  35
ENDBRANCH  16  25
BRANCH  15  39
HETATM   39  O2  UNL     1      -1.986  -1.303  -0.186  1.00  0.00    -0.301 OA
BRANCH  39  40
HETATM   40  C15 UNL     1      -1.719  -2.543  -0.584  1.00  0.00     0.291 C 
HETATM   41  O3  UNL     1      -0.969  -2.810  -1.494  1.00  0.00    -0.260 OA
BRANCH  40  42
HETATM   42  C16 UNL     1      -2.399  -3.611   0.158  1.00  0.00     0.037 C 
HETATM   43  C17 UNL     1      -3.184  -3.377   1.223  1.00  0.00    -0.025 C 
HETATM   44  C18 UNL     1      -3.830  -4.551   1.908  1.00  0.00     0.030 C 
HETATM   45  C19 UNL     1      -2.203  -5.033  -0.293  1.00  0.00     0.036 C 
ENDBRANCH  40  42
ENDBRANCH  39  40
ENDBRANCH  15  39
TORSDOF 7
