REMARK  4 active torsions:
REMARK  status: ('A' for Active; 'I' for Inactive)
REMARK    1  A    between atoms: C3_3  and  O4_33 
REMARK    2  A    between atoms: C18_20  and  C22_24 
REMARK    3  A    between atoms: C22_24  and  C23_25 
REMARK    4  A    between atoms: O4_33  and  C29_34 
ROOT
HETATM    1  C1  UNL     1      -3.719  -1.837   2.438  1.00  0.00     0.002 C 
HETATM    2  C2  UNL     1      -3.828  -2.347   0.993  1.00  0.00     0.027 C 
HETATM    3  C3  UNL     1      -2.488  -2.285   0.222  1.00  0.00     0.095 C 
HETATM    4  C4  UNL     1      -1.268  -2.599   1.140  1.00  0.00     0.025 C 
HETATM    5  C5  UNL     1      -1.222  -1.643   2.373  1.00  0.00     0.005 A 
HETATM    6  C6  UNL     1      -2.534  -0.891   2.658  1.00  0.00     0.000 C 
HETATM    7  C7  UNL     1       0.102  -1.030   2.867  1.00  0.00     0.028 A 
HETATM    8  C8  UNL     1       1.362  -1.255   1.993  1.00  0.00     0.003 C 
HETATM    9  C9  UNL     1       1.319  -2.563   1.179  1.00  0.00     0.000 C 
HETATM   10  C10 UNL     1       0.052  -2.717   0.338  1.00  0.00     0.002 C 
HETATM   11  C11 UNL     1       1.502   0.015   1.126  1.00  0.00     0.009 C 
HETATM   12  C12 UNL     1       1.805   1.245   2.044  1.00  0.00     0.022 C 
HETATM   13  C13 UNL     1       0.540   1.549   2.867  1.00  0.00     0.037 C 
HETATM   14  C14 UNL     1       0.110   0.298   3.677  1.00  0.00     0.152 C 
HETATM   15  O1  UNL     1       0.972   0.131   4.786  1.00  0.00    -0.224 OA
HETATM   16  C15 UNL     1       2.238   2.258   1.011  1.00  0.00    -0.013 A 
HETATM   17  C16 UNL     1       2.725   1.646  -0.151  1.00  0.00     0.054 A 
HETATM   18  C17 UNL     1       2.593   0.139   0.019  1.00  0.00     0.046 C 
HETATM   19  N1  UNL     1       3.220   2.253  -1.279  1.00  0.00    -0.252 NA
HETATM   20  C18 UNL     1       3.223   3.635  -1.283  1.00  0.00     0.091 A 
HETATM   21  C19 UNL     1       2.739   4.375  -0.168  1.00  0.00     0.013 A 
HETATM   22  C20 UNL     1       2.251   3.682   0.977  1.00  0.00    -0.023 A 
HETATM   23  C21 UNL     1       1.757   4.450   2.130  1.00  0.00     0.031 C 
HETATM   24  C26 UNL     1       3.022   1.013   2.947  1.00  0.00     0.004 C 
HETATM   25  C27 UNL     1       0.206   0.288   0.332  1.00  0.00     0.001 C 
HETATM   26  C28 UNL     1      -0.511  -2.213   3.588  1.00  0.00     0.003 A 
HETATM   27  C34 UNL     1      -2.346  -0.934  -0.490  1.00  0.00     0.030 C 
ENDROOT
BRANCH   3  28
HETATM   28  O4  UNL     1      -2.553  -3.249  -0.814  1.00  0.00    -0.334 OA
BRANCH  28  29
HETATM   29  C29 UNL     1      -3.743  -3.172  -1.575  1.00  0.00     0.270 C 
HETATM   30  C30 UNL     1      -3.427  -3.272  -3.090  1.00  0.00     0.241 C 
HETATM   31  C31 UNL     1      -4.724  -3.347  -3.928  1.00  0.00     0.220 C 
HETATM   32  O8  UNL     1      -2.674  -2.138  -3.490  1.00  0.00    -0.215 OA
HETATM   33  C32 UNL     1      -5.650  -4.443  -3.356  1.00  0.00     0.215 C 
HETATM   34  O7  UNL     1      -4.410  -3.643  -5.279  1.00  0.00    -0.218 OA
HETATM   35  C33 UNL     1      -5.855  -4.267  -1.839  1.00  0.00     0.181 C 
HETATM   36  O6  UNL     1      -6.918  -4.390  -3.984  1.00  0.00    -0.218 OA
HETATM   37  O5  UNL     1      -4.593  -4.242  -1.188  1.00  0.00    -0.326 OA
ENDBRANCH  28  29
ENDBRANCH   3  28
BRANCH  20  38
HETATM   38  C22 UNL     1       3.734   4.347  -2.466  1.00  0.00     0.219 C 
HETATM   39  O3  UNL     1       3.398   3.627  -3.630  1.00  0.00    -0.214 OA
BRANCH  38  40
HETATM   40  C23 UNL     1       5.255   4.499  -2.419  1.00  0.00     0.160 C 
HETATM   41  C24 UNL     1       5.819   5.174  -3.669  1.00  0.00     0.036 C 
HETATM   42  C25 UNL     1       5.743   5.150  -1.125  1.00  0.00     0.036 C 
HETATM   43  O2  UNL     1       5.670   3.152  -2.419  1.00  0.00    -0.223 OA
ENDBRANCH  38  40
ENDBRANCH  20  38
TORSDOF 4
