REMARK  5 active torsions:
REMARK  status: ('A' for Active; 'I' for Inactive)
REMARK    1  A    between atoms: C11_13  and  C12_15 
REMARK    2  A    between atoms: C12_15  and  C13_16 
REMARK    3  A    between atoms: C13_16  and  O4_17 
REMARK    4  A    between atoms: O4_17  and  C14_18 
REMARK    5  A    between atoms: C18_22  and  C19_24 
ROOT
HETATM    1  C12 UNL     1      -1.066   2.086   0.176  1.00  0.00     0.182 C 
HETATM    2  C20 UNL     1      -2.051   2.887  -0.676  1.00  0.00     0.038 C 
HETATM    3  O10 UNL     1      -0.705   2.871   1.291  1.00  0.00    -0.221 OA
ENDROOT
BRANCH   1   4
HETATM    4  C11 UNL     1       0.199   1.793  -0.631  1.00  0.00     0.186 A 
HETATM    5  C10 UNL     1       1.397   1.109   0.117  1.00  0.00     0.208 A 
HETATM    6  C3  UNL     1       2.543   2.031  -0.223  1.00  0.00     0.055 A 
HETATM    7  O11 UNL     1       1.199   1.072   1.518  1.00  0.00    -0.216 OA
HETATM    8  C2  UNL     1       2.035   3.111  -0.961  1.00  0.00     0.095 A 
HETATM    9  C4  UNL     1       3.926   1.922   0.098  1.00  0.00     0.104 A 
HETATM   10  C1  UNL     1       2.936   4.121  -1.381  1.00  0.00     0.024 A 
HETATM   11  O3  UNL     1       0.721   3.021  -1.164  1.00  0.00    -0.328 OA
HETATM   12  C6  UNL     1       4.309   4.055  -1.082  1.00  0.00     0.004 A 
HETATM   13  C5  UNL     1       4.801   2.959  -0.348  1.00  0.00     0.023 A 
HETATM   14  C7  UNL     1       6.252   2.879  -0.029  1.00  0.00     0.007 A 
HETATM   15  C8  UNL     1       6.715   1.832   0.674  1.00  0.00     0.069 A 
HETATM   16  C9  UNL     1       5.779   0.783   1.115  1.00  0.00     0.300 A 
HETATM   17  O1  UNL     1       4.475   0.900   0.801  1.00  0.00    -0.273 OA
HETATM   18  O2  UNL     1       6.213  -0.151   1.748  1.00  0.00    -0.259 OA
ENDBRANCH   1   4
BRANCH   1  19
HETATM   19  C13 UNL     1      -1.660   0.773   0.688  1.00  0.00     0.178 C 
BRANCH  19  20
HETATM   20  O4  UNL     1      -2.131   0.041  -0.422  1.00  0.00    -0.326 OA
BRANCH  20  21
HETATM   21  C14 UNL     1      -2.736  -1.186  -0.062  1.00  0.00     0.270 C 
HETATM   22  C15 UNL     1      -3.436  -1.824  -1.289  1.00  0.00     0.241 C 
HETATM   23  C16 UNL     1      -3.971  -3.235  -0.951  1.00  0.00     0.220 C 
HETATM   24  O9  UNL     1      -4.512  -0.998  -1.705  1.00  0.00    -0.215 OA
HETATM   25  C17 UNL     1      -2.852  -4.076  -0.301  1.00  0.00     0.215 C 
HETATM   26  O8  UNL     1      -4.430  -3.873  -2.131  1.00  0.00    -0.218 OA
HETATM   27  C18 UNL     1      -2.193  -3.326   0.879  1.00  0.00     0.184 C 
HETATM   28  O7  UNL     1      -3.387  -5.297   0.180  1.00  0.00    -0.218 OA
HETATM   29  O5  UNL     1      -1.729  -2.059   0.430  1.00  0.00    -0.326 OA
BRANCH  27  30
HETATM   30  C19 UNL     1      -0.984  -4.069   1.453  1.00  0.00     0.214 C 
HETATM   31  O6  UNL     1      -0.576  -3.403   2.627  1.00  0.00    -0.218 OA
ENDBRANCH  27  30
ENDBRANCH  20  21
ENDBRANCH  19  20
ENDBRANCH   1  19
TORSDOF 5
