REMARK  2 active torsions:
REMARK  status: ('A' for Active; 'I' for Inactive)
REMARK    1  A    between atoms: N1_1  and  C1_2 
REMARK    2  A    between atoms: C1_2  and  C2_3 
ROOT
HETATM    1  N1  UNL     1      -0.156  -0.402   0.309  1.00  0.00     0.009 N 
HETATM    2  C3  UNL     1       0.385   0.340   1.531  1.00  0.00     0.250 C 
HETATM    3  C4  UNL     1      -1.684  -0.367   0.225  1.00  0.00     0.250 C 
HETATM    4  C5  UNL     1       0.410  -1.816   0.178  1.00  0.00     0.250 C 
ENDROOT
BRANCH   1   5
HETATM    5  C1  UNL     1       0.516   0.037  -0.992  1.00  0.00     0.313 C 
BRANCH   5   6
HETATM    6  C2  UNL     1       0.270   1.488  -1.305  1.00  0.00     0.218 C 
HETATM    7  O1  UNL     1       1.176   2.334  -0.824  1.00  0.00    -0.646 OA
HETATM    8  O2  UNL     1      -0.695   1.830  -1.951  1.00  0.00    -0.646 OA
ENDBRANCH   5   6
ENDBRANCH   1   5
TORSDOF 2
