REMARK  3 active torsions:
REMARK  status: ('A' for Active; 'I' for Inactive)
REMARK    1  A    between atoms: C9_10  and  C20_23 
REMARK    2  A    between atoms: C13_14  and  C17_18 
REMARK    3  A    between atoms: C17_18  and  O3_20 
ROOT
HETATM    1  O1  UNL     1      -4.133  -3.219  -0.207  1.00  0.00    -0.310 OA
HETATM    2  C1  UNL     1      -3.236  -2.152  -0.137  1.00  0.00     0.074 A 
HETATM    3  C2  UNL     1      -3.951  -0.977  -0.248  1.00  0.00    -0.002 A 
HETATM    4  C3  UNL     1      -5.272  -1.287  -0.375  1.00  0.00     0.024 A 
HETATM    5  C4  UNL     1      -5.410  -2.668  -0.355  1.00  0.00     0.122 A 
HETATM    6  C5  UNL     1      -3.297   0.395  -0.234  1.00  0.00     0.024 C 
HETATM    7  C6  UNL     1      -1.850   0.324   0.344  1.00  0.00     0.005 C 
HETATM    8  C7  UNL     1      -1.026  -0.885  -0.199  1.00  0.00     0.014 C 
HETATM    9  C8  UNL     1      -1.738  -2.248   0.053  1.00  0.00     0.052 C 
HETATM   10  C9  UNL     1       0.453  -0.910   0.309  1.00  0.00     0.059 C 
HETATM   11  C10 UNL     1       1.144   0.465   0.082  1.00  0.00     0.016 C 
HETATM   12  C11 UNL     1       0.318   1.627   0.672  1.00  0.00     0.001 C 
HETATM   13  C12 UNL     1      -1.110   1.654   0.123  1.00  0.00     0.000 C 
HETATM   14  C13 UNL     1       2.644   0.506   0.535  1.00  0.00     0.079 C 
HETATM   15  C14 UNL     1       3.307  -0.891   0.467  1.00  0.00     0.009 C 
HETATM   16  C15 UNL     1       2.726  -1.744  -0.660  1.00  0.00     0.001 C 
HETATM   17  C16 UNL     1       1.228  -2.025  -0.453  1.00  0.00     0.007 C 
HETATM   18  C19 UNL     1       2.807   1.045   1.965  1.00  0.00     0.010 C 
HETATM   19  C21 UNL     1      -3.348   0.973  -1.654  1.00  0.00     0.005 C 
ENDROOT
BRANCH  14  20
HETATM   20  C17 UNL     1       3.398   1.459  -0.363  1.00  0.00     0.271 C 
HETATM   21  O2  UNL     1       4.143   1.047  -1.221  1.00  0.00    -0.264 OA
BRANCH  20  22
HETATM   22  O3  UNL     1       3.176   2.750  -0.131  1.00  0.00    -0.299 OA
HETATM   23  C18 UNL     1       3.918   3.590  -1.004  1.00  0.00     0.184 C 
ENDBRANCH  20  22
ENDBRANCH  14  20
BRANCH  10  24
HETATM   24  C20 UNL     1       0.473  -1.207   1.793  1.00  0.00     0.206 C 
HETATM   25  O4  UNL     1       1.017  -2.199   2.223  1.00  0.00    -0.288 OA
ENDBRANCH  10  24
TORSDOF 3
