REMARK  8 active torsions:
REMARK  status: ('A' for Active; 'I' for Inactive)
REMARK    1  A    between atoms: C3_3  and  C10_13 
REMARK    2  A    between atoms: C6_6  and  C7_7 
REMARK    3  A    between atoms: C7_7  and  O1_8 
REMARK    4  A    between atoms: O1_8  and  C8_9 
REMARK    5  A    between atoms: C10_13  and  C11_14 
REMARK    6  A    between atoms: C11_14  and  O4_15 
REMARK    7  A    between atoms: O4_15  and  C12_16 
REMARK    8  A    between atoms: C12_16  and  C13_18 
ROOT
HETATM    1  C1  UNL     1      -0.154  -1.703   1.725  1.00  0.00    -0.002 A 
HETATM    2  C2  UNL     1       0.502  -0.461   1.725  1.00  0.00    -0.000 A 
HETATM    3  C3  UNL     1      -0.244   0.733   1.725  1.00  0.00     0.033 A 
HETATM    4  C4  UNL     1      -1.651   0.684   1.725  1.00  0.00     0.129 A 
HETATM    5  C5  UNL     1      -2.305  -0.562   1.725  1.00  0.00     0.025 A 
HETATM    6  C6  UNL     1      -1.559  -1.754   1.725  1.00  0.00     0.010 A 
HETATM    7  O3  UNL     1      -2.359   1.795   1.725  1.00  0.00    -0.190 OA
ENDROOT
BRANCH   3   8
HETATM    8  C10 UNL     1       0.463   2.041   1.725  1.00  0.00     0.175 C 
HETATM    9  C16 UNL     1       1.930   1.889   2.127  1.00  0.00     0.040 C 
HETATM   10  O6  UNL     1      -0.160   2.910   2.642  1.00  0.00    -0.219 OA
BRANCH   8  11
HETATM   11  C11 UNL     1       0.430   2.699   0.344  1.00  0.00     0.186 C 
BRANCH  11  12
HETATM   12  O4  UNL     1       1.078   1.858  -0.598  1.00  0.00    -0.299 OA
BRANCH  12  13
HETATM   13  C12 UNL     1       1.125   2.397  -1.813  1.00  0.00     0.271 C 
HETATM   14  O5  UNL     1       0.650   3.473  -2.090  1.00  0.00    -0.264 OA
BRANCH  13  15
HETATM   15  C13 UNL     1       1.826   1.568  -2.856  1.00  0.00     0.086 C 
HETATM   16  C14 UNL     1       3.338   1.793  -2.858  1.00  0.00     0.010 C 
HETATM   17  C15 UNL     1       1.203   1.727  -4.242  1.00  0.00     0.010 C 
ENDBRANCH  13  15
ENDBRANCH  12  13
ENDBRANCH  11  12
ENDBRANCH   8  11
ENDBRANCH   3   8
BRANCH   6  18
HETATM   18  C7  UNL     1      -2.256  -3.068   1.725  1.00  0.00     0.178 C 
BRANCH  18  19
HETATM   19  O1  UNL     1      -1.957  -3.762   0.521  1.00  0.00    -0.297 OA
BRANCH  19  20
HETATM   20  C8  UNL     1      -2.553  -4.949   0.461  1.00  0.00     0.273 C 
HETATM   21  O2  UNL     1      -3.260  -5.393   1.336  1.00  0.00    -0.264 OA
HETATM   22  C9  UNL     1      -2.287  -5.734  -0.795  1.00  0.00     0.106 C 
ENDBRANCH  19  20
ENDBRANCH  18  19
ENDBRANCH   6  18
TORSDOF 8
