REMARK  6 active torsions:
REMARK  status: ('A' for Active; 'I' for Inactive)
REMARK    1  A    between atoms: C6_6  and  O1_7 
REMARK    2  A    between atoms: O1_7  and  C7_8 
REMARK    3  A    between atoms: C8_9  and  O6_19 
REMARK    4  A    between atoms: C11_12  and  C12_14 
REMARK    5  A    between atoms: O6_19  and  C14_20 
REMARK    6  A    between atoms: C20_31  and  C23_35 
ROOT
HETATM    1  C7  UNL     1      -1.818  -0.670   0.937  1.00  0.00     0.268 C 
HETATM    2  C8  UNL     1      -2.092   0.654   0.180  1.00  0.00     0.178 C 
HETATM    3  C9  UNL     1      -2.283   1.809   1.197  1.00  0.00     0.214 C 
HETATM    4  C10 UNL     1      -1.123   1.836   2.221  1.00  0.00     0.214 C 
HETATM    5  C11 UNL     1      -0.910   0.445   2.861  1.00  0.00     0.184 C 
HETATM    6  O2  UNL     1      -0.727  -0.529   1.840  1.00  0.00    -0.326 OA
HETATM    7  O4  UNL     1      -1.410   2.768   3.250  1.00  0.00    -0.218 OA
HETATM    8  O5  UNL     1      -2.398   3.063   0.539  1.00  0.00    -0.218 OA
HETATM    9  C13 UNL     1      -3.311   0.508  -0.742  1.00  0.00     0.038 C 
ENDROOT
BRANCH   1  10
HETATM   10  O1  UNL     1      -1.533  -1.721   0.021  1.00  0.00    -0.300 OA
BRANCH  10  11
HETATM   11  C6  UNL     1      -1.383  -2.959   0.512  1.00  0.00     0.145 A 
HETATM   12  C1  UNL     1      -2.520  -3.742   0.826  1.00  0.00     0.157 A 
HETATM   13  C2  UNL     1      -2.363  -5.049   1.342  1.00  0.00     0.057 A 
HETATM   14  O15 UNL     1      -3.750  -3.244   0.633  1.00  0.00    -0.188 OA
HETATM   15  C3  UNL     1      -1.068  -5.584   1.549  1.00  0.00     0.138 A 
HETATM   16  C4  UNL     1       0.070  -4.799   1.234  1.00  0.00     0.089 A 
HETATM   17  O14 UNL     1      -0.939  -6.824   2.039  1.00  0.00    -0.190 OA
HETATM   18  C5  UNL     1      -0.084  -3.486   0.717  1.00  0.00     0.129 A 
HETATM   19  C22 UNL     1       1.451  -5.326   1.436  1.00  0.00     0.202 A 
HETATM   20  O11 UNL     1       1.000  -2.736   0.418  1.00  0.00    -0.305 OA
HETATM   21  C20 UNL     1       2.270  -3.164   0.582  1.00  0.00     0.103 A 
HETATM   22  C21 UNL     1       2.539  -4.397   1.066  1.00  0.00     0.067 A 
HETATM   23  O12 UNL     1       1.770  -6.412   1.861  1.00  0.00    -0.286 OA
BRANCH  21  24
HETATM   24  C23 UNL     1       3.408  -2.264   0.227  1.00  0.00     0.023 A 
HETATM   25  C24 UNL     1       3.233  -1.252  -0.734  1.00  0.00     0.004 A 
HETATM   26  C25 UNL     1       4.303  -0.406  -1.068  1.00  0.00     0.028 A 
HETATM   27  C26 UNL     1       5.555  -0.568  -0.445  1.00  0.00     0.131 A 
HETATM   28  C27 UNL     1       5.727  -1.580   0.514  1.00  0.00     0.028 A 
HETATM   29  O13 UNL     1       6.559   0.225  -0.760  1.00  0.00    -0.190 OA
HETATM   30  C28 UNL     1       4.656  -2.428   0.852  1.00  0.00     0.004 A 
ENDBRANCH  21  24
ENDBRANCH  10  11
ENDBRANCH   1  10
BRANCH   2  31
HETATM   31  O6  UNL     1      -0.984   0.926  -0.668  1.00  0.00    -0.326 OA
BRANCH  31  32
HETATM   32  C14 UNL     1      -1.217   1.998  -1.561  1.00  0.00     0.270 C 
HETATM   33  C15 UNL     1      -0.789   1.607  -2.998  1.00  0.00     0.241 C 
HETATM   34  C16 UNL     1      -0.887   2.816  -3.955  1.00  0.00     0.220 C 
HETATM   35  O10 UNL     1      -1.627   0.564  -3.473  1.00  0.00    -0.215 OA
HETATM   36  C17 UNL     1      -0.160   4.033  -3.340  1.00  0.00     0.212 C 
HETATM   37  O9  UNL     1      -0.303   2.490  -5.207  1.00  0.00    -0.218 OA
HETATM   38  C18 UNL     1      -0.633   4.299  -1.893  1.00  0.00     0.151 C 
HETATM   39  O8  UNL     1      -0.414   5.190  -4.119  1.00  0.00    -0.218 OA
HETATM   40  O7  UNL     1      -0.465   3.119  -1.119  1.00  0.00    -0.329 OA
HETATM   41  C19 UNL     1       0.168   5.402  -1.195  1.00  0.00     0.035 C 
ENDBRANCH  31  32
ENDBRANCH   2  31
BRANCH   5  42
HETATM   42  C12 UNL     1       0.328   0.385   3.760  1.00  0.00     0.214 C 
HETATM   43  O3  UNL     1       0.318  -0.848   4.443  1.00  0.00    -0.218 OA
ENDBRANCH   5  42
TORSDOF 6
