REMARK  13 active torsions:
REMARK  status: ('A' for Active; 'I' for Inactive)
REMARK    1  A    between atoms: C1_1  and  C28_31 
REMARK    2  A    between atoms: C6_6  and  C8_8 
REMARK    3  A    between atoms: C8_8  and  C9_9 
REMARK    4  A    between atoms: C9_9  and  C10_10 
REMARK    5  A    between atoms: C11_11  and  C13_13 
REMARK    6  A    between atoms: C13_13  and  C14_15 
REMARK    7  A    between atoms: C14_15  and  C15_16 
REMARK    8  A    between atoms: C16_17  and  C18_19 
REMARK    9  A    between atoms: C18_19  and  C19_20 
REMARK   10  A    between atoms: C19_20  and  C20_21 
REMARK   11  A    between atoms: C25_27  and  C27_29 
REMARK   12  A    between atoms: C28_31  and  C29_32 
REMARK   13  A    between atoms: C29_32  and  C30_33 
ROOT
HETATM    1  C1  UNL     1      -1.403  -2.524  -2.821  1.00  0.00     0.021 C 
HETATM    2  C2  UNL     1      -1.537  -3.471  -1.636  1.00  0.00    -0.045 C 
HETATM    3  C3  UNL     1      -2.953  -3.934  -1.332  1.00  0.00     0.024 C 
HETATM    4  C4  UNL     1      -3.943  -2.761  -1.265  1.00  0.00     0.035 C 
HETATM    5  C5  UNL     1      -3.872  -1.837  -2.499  1.00  0.00     0.127 C 
HETATM    6  C6  UNL     1      -2.414  -1.346  -2.748  1.00  0.00     0.030 C 
HETATM    7  C7  UNL     1      -2.329  -0.505  -4.032  1.00  0.00     0.003 C 
HETATM    8  O2  UNL     1      -4.335  -2.571  -3.620  1.00  0.00    -0.226 OA
HETATM    9  C24 UNL     1      -4.853  -0.666  -2.350  1.00  0.00     0.033 C 
HETATM   10  C25 UNL     1      -0.471  -3.874  -0.902  1.00  0.00     0.013 C 
HETATM   11  C26 UNL     1       0.921  -3.396  -1.232  1.00  0.00     0.034 C 
ENDROOT
BRANCH   6  12
HETATM   12  C8  UNL     1      -1.996  -0.428  -1.589  1.00  0.00     0.007 C 
BRANCH  12  13
HETATM   13  C9  UNL     1      -0.739   0.383  -1.903  1.00  0.00     0.025 C 
BRANCH  13  14
HETATM   14  C10 UNL     1      -0.212   1.117  -0.699  1.00  0.00    -0.032 C 
HETATM   15  C11 UNL     1       1.051   1.572  -0.727  1.00  0.00    -0.018 C 
HETATM   16  C12 UNL     1       1.875   1.326  -1.962  1.00  0.00     0.029 C 
BRANCH  15  17
HETATM   17  C13 UNL     1       1.577   2.305   0.478  1.00  0.00     0.174 C 
HETATM   18  O1  UNL     1       1.464   3.695   0.269  1.00  0.00    -0.219 OA
BRANCH  17  19
HETATM   19  C14 UNL     1       0.817   1.950   1.755  1.00  0.00     0.062 C 
BRANCH  19  20
HETATM   20  C15 UNL     1       1.521   2.431   2.996  1.00  0.00    -0.032 C 
HETATM   21  C16 UNL     1       0.822   2.509   4.140  1.00  0.00    -0.048 C 
HETATM   22  C17 UNL     1      -0.630   2.110   4.123  1.00  0.00     0.026 C 
BRANCH  21  23
HETATM   23  C18 UNL     1       1.526   2.990   5.380  1.00  0.00     0.026 C 
BRANCH  23  24
HETATM   24  C19 UNL     1       2.660   3.967   5.065  1.00  0.00     0.030 C 
BRANCH  24  25
HETATM   25  C20 UNL     1       3.171   4.668   6.295  1.00  0.00    -0.034 C 
HETATM   26  C21 UNL     1       4.363   5.285   6.232  1.00  0.00    -0.048 C 
HETATM   27  C22 UNL     1       4.874   5.986   7.462  1.00  0.00     0.026 C 
HETATM   28  C23 UNL     1       5.125   5.243   4.935  1.00  0.00     0.026 C 
ENDBRANCH  24  25
ENDBRANCH  23  24
ENDBRANCH  21  23
ENDBRANCH  19  20
ENDBRANCH  17  19
ENDBRANCH  15  17
ENDBRANCH  13  14
ENDBRANCH  12  13
ENDBRANCH   6  12
BRANCH   1  29
HETATM   29  C28 UNL     1      -1.506  -3.330  -4.122  1.00  0.00     0.007 C 
BRANCH  29  30
HETATM   30  C29 UNL     1      -0.275  -4.202  -4.374  1.00  0.00     0.036 C 
BRANCH  30  31
HETATM   31  C30 UNL     1      -0.369  -4.991  -5.681  1.00  0.00     0.182 C 
HETATM   32  O4  UNL     1       0.806  -5.758  -5.819  1.00  0.00    -0.221 OA
ENDBRANCH  30  31
ENDBRANCH  29  30
ENDBRANCH   1  29
BRANCH  10  33
HETATM   33  C27 UNL     1      -0.592  -4.792   0.241  1.00  0.00     0.229 C 
HETATM   34  O3  UNL     1       0.177  -4.715   1.171  1.00  0.00    -0.283 OA
ENDBRANCH  10  33
TORSDOF 13
