REMARK  1 active torsions:
REMARK  status: ('A' for Active; 'I' for Inactive)
REMARK    1  A    between atoms: C9_9  and  C10_10 
ROOT
HETATM    1  C1  UNL     1      -2.207  -1.701   0.568  1.00  0.00    -0.004 C 
HETATM    2  C2  UNL     1      -3.478  -1.369   0.266  1.00  0.00    -0.028 C 
HETATM    3  C3  UNL     1      -3.840   0.080  -0.020  1.00  0.00     0.035 C 
HETATM    4  C4  UNL     1      -2.676   1.066   0.238  1.00  0.00     0.085 C 
HETATM    5  C5  UNL     1      -1.428   0.467  -0.436  1.00  0.00     0.049 C 
HETATM    6  C6  UNL     1      -1.164  -0.600   0.637  1.00  0.00     0.120 C 
HETATM    7  C7  UNL     1       0.283  -1.031   0.383  1.00  0.00     0.033 C 
HETATM    8  C8  UNL     1       0.965   0.207  -0.270  1.00  0.00     0.017 C 
HETATM    9  C9  UNL     1      -0.127   1.283  -0.420  1.00  0.00     0.091 C 
HETATM   10  C11 UNL     1       2.182   0.676   0.564  1.00  0.00     0.007 C 
HETATM   11  C12 UNL     1       3.090  -0.559   0.451  1.00  0.00     0.049 C 
HETATM   12  C13 UNL     1       2.539  -1.645   1.412  1.00  0.00     0.156 C 
HETATM   13  C14 UNL     1       1.008  -1.551   1.635  1.00  0.00     0.036 C 
HETATM   14  O3  UNL     1       2.873  -2.942   0.951  1.00  0.00    -0.223 OA
HETATM   15  C15 UNL     1       2.942  -0.867  -1.018  1.00  0.00    -0.042 C 
HETATM   16  C16 UNL     1       1.688  -0.246  -1.557  1.00  0.00     0.023 C 
HETATM   17  C17 UNL     1       3.811  -1.586  -1.746  1.00  0.00    -0.009 C 
HETATM   18  O4  UNL     1      -1.320   0.082   1.885  1.00  0.00    -0.302 OA
HETATM   19  C18 UNL     1      -2.256   1.004   1.684  1.00  0.00     0.271 C 
HETATM   20  O5  UNL     1      -2.721   1.723   2.539  1.00  0.00    -0.264 OA
HETATM   21  C19 UNL     1      -2.975   2.478  -0.256  1.00  0.00     0.010 C 
ENDROOT
BRANCH   9  22
HETATM   22  C10 UNL     1       0.008   2.199  -1.611  1.00  0.00     0.185 C 
HETATM   23  O1  UNL     1      -0.678   2.047  -2.596  1.00  0.00    -0.647 OA
HETATM   24  O2  UNL     1       0.922   3.158  -1.486  1.00  0.00    -0.647 OA
ENDBRANCH   9  22
TORSDOF 1
