REMARK  9 active torsions:
REMARK  status: ('A' for Active; 'I' for Inactive)
REMARK    1  A    between atoms: C3_3  and  O9_26 
REMARK    2  A    between atoms: C4_4  and  O3_14 
REMARK    3  A    between atoms: C5_5  and  C7_7 
REMARK    4  A    between atoms: C7_7  and  C8_8 
REMARK    5  A    between atoms: C8_8  and  C9_9 
REMARK    6  A    between atoms: C9_9  and  O1_10 
REMARK    7  A    between atoms: O1_10  and  C10_11 
REMARK    8  A    between atoms: O3_14  and  C12_15 
REMARK    9  A    between atoms: C16_19  and  C17_21 
ROOT
HETATM    1  C1  UNL     1       2.383   3.078  -0.059  1.00  0.00     0.027 A 
HETATM    2  C2  UNL     1       2.094   2.556   1.169  1.00  0.00     0.124 A 
HETATM    3  C3  UNL     1       1.258   1.435   1.377  1.00  0.00     0.139 A 
HETATM    4  C4  UNL     1       0.707   0.850   0.199  1.00  0.00     0.117 A 
HETATM    5  C5  UNL     1       0.994   1.379  -1.095  1.00  0.00     0.003 A 
HETATM    6  C6  UNL     1       1.843   2.509  -1.233  1.00  0.00    -0.000 A 
HETATM    7  O10 UNL     1       2.738   3.284   2.155  1.00  0.00    -0.303 OA
HETATM    8  C19 UNL     1       3.442   4.289   1.430  1.00  0.00     0.123 A 
HETATM    9  C20 UNL     1       3.209   4.145   0.044  1.00  0.00     0.029 A 
ENDROOT
BRANCH   4  10
HETATM   10  O3  UNL     1      -0.096  -0.219   0.312  1.00  0.00    -0.302 OA
BRANCH  10  11
HETATM   11  C12 UNL     1      -1.148  -0.166   1.266  1.00  0.00     0.274 C 
HETATM   12  C13 UNL     1      -2.500  -0.453   0.580  1.00  0.00     0.241 C 
HETATM   13  C14 UNL     1      -3.645  -0.535   1.613  1.00  0.00     0.220 C 
HETATM   14  O8  UNL     1      -2.762   0.582  -0.351  1.00  0.00    -0.215 OA
HETATM   15  C15 UNL     1      -3.252  -1.507   2.748  1.00  0.00     0.215 C 
HETATM   16  O7  UNL     1      -4.831  -0.987   0.981  1.00  0.00    -0.218 OA
HETATM   17  C16 UNL     1      -1.858  -1.167   3.325  1.00  0.00     0.184 C 
HETATM   18  O6  UNL     1      -4.206  -1.437   3.793  1.00  0.00    -0.218 OA
HETATM   19  O4  UNL     1      -0.904  -1.140   2.272  1.00  0.00    -0.326 OA
BRANCH  17  20
HETATM   20  C17 UNL     1      -1.364  -2.199   4.343  1.00  0.00     0.214 C 
HETATM   21  O5  UNL     1      -0.156  -1.729   4.897  1.00  0.00    -0.218 OA
ENDBRANCH  17  20
ENDBRANCH  10  11
ENDBRANCH   4  10
BRANCH   3  22
HETATM   22  O9  UNL     1       0.920   0.857   2.538  1.00  0.00    -0.324 OA
HETATM   23  C18 UNL     1       1.365   1.467   3.741  1.00  0.00     0.182 C 
ENDBRANCH   3  22
BRANCH   5  24
HETATM   24  C7  UNL     1       0.411   0.758  -2.295  1.00  0.00     0.039 C 
BRANCH  24  25
HETATM   25  C8  UNL     1       1.440  -0.084  -3.050  1.00  0.00     0.101 C 
BRANCH  25  26
HETATM   26  C9  UNL     1       0.872  -0.704  -4.298  1.00  0.00     0.272 C 
HETATM   27  O2  UNL     1      -0.257  -0.459  -4.656  1.00  0.00    -0.264 OA
BRANCH  26  28
HETATM   28  O1  UNL     1       1.696  -1.518  -4.951  1.00  0.00    -0.302 OA
BRANCH  28  29
HETATM   29  C10 UNL     1       1.100  -2.069  -6.117  1.00  0.00     0.152 C 
HETATM   30  C11 UNL     1       2.101  -2.992  -6.813  1.00  0.00     0.035 C 
ENDBRANCH  28  29
ENDBRANCH  26  28
ENDBRANCH  25  26
ENDBRANCH  24  25
ENDBRANCH   5  24
TORSDOF 9
