REMARK  1 active torsions:
REMARK  status: ('A' for Active; 'I' for Inactive)
REMARK    1  A    between atoms: C8_8  and  C9_9 
ROOT
HETATM    1  C1  UNL     1      -2.027  -1.264   0.494  1.00  0.00    -0.031 C 
HETATM    2  C2  UNL     1      -2.307   0.054   0.574  1.00  0.00    -0.030 C 
HETATM    3  C3  UNL     1      -2.268   1.031  -0.578  1.00  0.00     0.026 C 
HETATM    4  C4  UNL     1      -1.193   2.138  -0.449  1.00  0.00     0.004 C 
HETATM    5  C5  UNL     1      -1.752   3.443  -1.039  1.00  0.00     0.000 C 
HETATM    6  C6  UNL     1       0.166   1.820  -1.123  1.00  0.00     0.000 C 
HETATM    7  C7  UNL     1       1.266   1.172  -0.252  1.00  0.00     0.000 C 
HETATM    8  C8  UNL     1       1.010  -0.190   0.432  1.00  0.00     0.000 C 
HETATM    9  C12 UNL     1       0.918  -1.412  -0.518  1.00  0.00     0.000 C 
HETATM   10  C13 UNL     1      -0.318  -1.537  -1.432  1.00  0.00     0.004 C 
HETATM   11  C14 UNL     1      -1.633  -1.998  -0.770  1.00  0.00     0.022 C 
HETATM   12  C15 UNL     1      -1.586  -3.504  -0.479  1.00  0.00     0.004 C 
ENDROOT
BRANCH   8  13
HETATM   13  C9  UNL     1       2.137  -0.446   1.437  1.00  0.00     0.000 C 
HETATM   14  C10 UNL     1       3.525  -0.270   0.824  1.00  0.00     0.000 C 
HETATM   15  C11 UNL     1       1.959   0.343   2.734  1.00  0.00     0.000 C 
ENDBRANCH   8  13
TORSDOF 1
