REMARK  5 active torsions:
REMARK  status: ('A' for Active; 'I' for Inactive)
REMARK    1  A    between atoms: C7_7  and  C9_9 
REMARK    2  A    between atoms: C9_9  and  C10_10 
REMARK    3  A    between atoms: C10_10  and  C11_11 
REMARK    4  A    between atoms: C12_12  and  C13_13 
REMARK    5  A    between atoms: C12_12  and  C14_15 
ROOT
HETATM    1  C1  UNL     1      -0.877  -0.774   1.568  1.00  0.00     0.000 C 
HETATM    2  C2  UNL     1      -0.036  -1.984   1.036  1.00  0.00     0.000 C 
HETATM    3  C3  UNL     1       1.129  -1.338   0.239  1.00  0.00     0.000 C 
HETATM    4  C4  UNL     1       0.207  -0.520  -0.679  1.00  0.00     0.000 A 
HETATM    5  C5  UNL     1      -1.066  -0.159   0.163  1.00  0.00     0.000 A 
HETATM    6  C6  UNL     1      -1.079  -1.284  -0.837  1.00  0.00     0.000 A 
HETATM    7  C7  UNL     1      -0.945  -2.614  -0.075  1.00  0.00     0.000 C 
HETATM    8  C8  UNL     1      -0.199  -3.692  -0.886  1.00  0.00     0.000 C 
HETATM    9  C15 UNL     1      -1.825  -1.010  -2.166  1.00  0.00     0.000 C 
ENDROOT
BRANCH   7  10
HETATM   10  C9  UNL     1      -2.259  -3.235   0.525  1.00  0.00     0.005 C 
BRANCH  10  11
HETATM   11  C10 UNL     1      -3.248  -3.695  -0.578  1.00  0.00     0.025 C 
BRANCH  11  12
HETATM   12  C11 UNL     1      -4.023  -4.917  -0.157  1.00  0.00    -0.030 C 
HETATM   13  C12 UNL     1      -5.355  -4.933  -0.074  1.00  0.00     0.017 C 
BRANCH  13  14
HETATM   14  C13 UNL     1      -6.170  -3.700  -0.336  1.00  0.00     0.207 C 
HETATM   15  O1  UNL     1      -7.552  -4.004  -0.113  1.00  0.00    -0.216 OA
ENDBRANCH  13  14
BRANCH  13  16
HETATM   16  C14 UNL     1      -6.047  -6.217   0.273  1.00  0.00     0.207 C 
HETATM   17  O2  UNL     1      -5.091  -7.282   0.265  1.00  0.00    -0.216 OA
ENDBRANCH  13  16
ENDBRANCH  11  12
ENDBRANCH  10  11
ENDBRANCH   7  10
TORSDOF 5
