REMARK  3 active torsions:
REMARK  status: ('A' for Active; 'I' for Inactive)
REMARK    1  A    between atoms: C1_1  and  C18_25 
REMARK    2  A    between atoms: C19_26  and  C20_27 
REMARK    3  A    between atoms: C20_27  and  C21_28 
ROOT
HETATM    1  C1  UNL     1       2.687   0.277   0.117  1.00  0.00     0.100 A 
HETATM    2  O1  UNL     1       1.822   1.313  -0.002  1.00  0.00    -0.305 OA
HETATM    3  C2  UNL     1       0.576   1.053  -0.463  1.00  0.00     0.118 A 
HETATM    4  C3  UNL     1       0.133  -0.164  -0.844  1.00  0.00     0.007 A 
HETATM    5  C4  UNL     1       1.062  -1.307  -0.803  1.00  0.00     0.013 A 
HETATM    6  C5  UNL     1       2.391  -0.990  -0.242  1.00  0.00     0.025 A 
HETATM    7  C6  UNL     1       0.703  -2.537  -1.248  1.00  0.00     0.095 C 
HETATM    8  C7  UNL     1      -0.629  -2.752  -1.867  1.00  0.00     0.211 C 
HETATM    9  C8  UNL     1      -1.457  -1.541  -2.252  1.00  0.00     0.184 C 
HETATM   10  C9  UNL     1      -1.301  -0.359  -1.305  1.00  0.00     0.073 C 
HETATM   11  C10 UNL     1      -2.346  -0.641  -0.186  1.00  0.00     0.134 C 
HETATM   12  C11 UNL     1      -2.979   0.674   0.252  1.00  0.00     0.276 C 
HETATM   13  O2  UNL     1      -4.152   1.102  -0.238  1.00  0.00    -0.304 OA
HETATM   14  C12 UNL     1      -4.758   0.357  -1.297  1.00  0.00     0.129 C 
HETATM   15  C13 UNL     1      -4.799  -1.135  -0.914  1.00  0.00     0.083 C 
HETATM   16  C14 UNL     1      -3.340  -1.639  -0.871  1.00  0.00     0.230 C 
HETATM   17  O3  UNL     1      -3.346  -2.920  -0.258  1.00  0.00    -0.195 OA
HETATM   18  O4  UNL     1      -2.844  -1.787  -2.190  1.00  0.00    -0.326 OA
HETATM   19  C15 UNL     1      -5.684  -1.967  -1.861  1.00  0.00     0.008 C 
HETATM   20  C16 UNL     1      -6.153   0.941  -1.537  1.00  0.00     0.033 C 
HETATM   21  O5  UNL     1      -2.391   1.344   1.072  1.00  0.00    -0.264 OA
HETATM   22  C17 UNL     1      -1.654  -1.273   1.037  1.00  0.00     0.015 C 
HETATM   23  O6  UNL     1      -1.043  -3.871  -2.068  1.00  0.00    -0.288 OA
HETATM   24 CL1  UNL     1       1.771  -3.906  -1.131  1.00  0.00    -0.079 Cl
ENDROOT
BRANCH   1  25
HETATM   25  C18 UNL     1       4.018   0.570   0.670  1.00  0.00     0.020 C 
HETATM   26  C19 UNL     1       4.348   1.820   1.037  1.00  0.00    -0.024 C 
BRANCH  26  27
HETATM   27  C20 UNL     1       5.723   2.064   1.598  1.00  0.00     0.022 C 
HETATM   28  C23 UNL     1       6.539   3.029   0.736  1.00  0.00     0.005 C 
BRANCH  27  29
HETATM   29  C21 UNL     1       5.688   2.475   3.070  1.00  0.00     0.004 C 
HETATM   30  C22 UNL     1       5.029   1.420   3.961  1.00  0.00     0.000 C 
ENDBRANCH  27  29
ENDBRANCH  26  27
ENDBRANCH   1  25
TORSDOF 3
