REMARK  15 active torsions:
REMARK  status: ('A' for Active; 'I' for Inactive)
REMARK    1  A    between atoms: C4_4  and  O3_9 
REMARK    2  A    between atoms: C5_6  and  C6_7 
REMARK    3  A    between atoms: O3_9  and  C7_10 
REMARK    4  A    between atoms: C7_10  and  C8_11 
REMARK    5  A    between atoms: C12_15  and  O5_17 
REMARK    6  A    between atoms: O5_17  and  C13_18 
REMARK    7  A    between atoms: C13_18  and  C14_19 
REMARK    8  A    between atoms: C18_23  and  C19_25 
REMARK    9  A    between atoms: C19_25  and  O7_26 
REMARK   10  A    between atoms: O7_26  and  C20_27 
REMARK   11  A    between atoms: C24_31  and  O9_33 
REMARK   12  A    between atoms: O9_33  and  O10_34 
REMARK   13  A    between atoms: O10_34  and  C25_35 
REMARK   14  A    between atoms: C25_35  and  C31_44 
REMARK   15  A    between atoms: C28_38  and  C30_40 
ROOT
HETATM    1  C14 UNL     1      -2.115   1.118   0.629  1.00  0.00     0.178 C 
HETATM    2  C15 UNL     1      -2.202   2.622   0.969  1.00  0.00     0.214 C 
HETATM    3  C16 UNL     1      -3.227   3.343   0.064  1.00  0.00     0.217 C 
HETATM    4  C17 UNL     1      -2.932   3.015  -1.417  1.00  0.00     0.214 C 
HETATM    5  C18 UNL     1      -2.805   1.491  -1.639  1.00  0.00     0.178 C 
HETATM    6  O6  UNL     1      -1.826   0.963  -0.755  1.00  0.00    -0.349 OA
HETATM    7  O18 UNL     1      -3.979   3.507  -2.235  1.00  0.00    -0.218 OA
HETATM    8  O19 UNL     1      -3.151   4.745   0.271  1.00  0.00    -0.218 OA
HETATM    9  O20 UNL     1      -2.580   2.762   2.329  1.00  0.00    -0.218 OA
ENDROOT
BRANCH   1  10
HETATM   10  C13 UNL     1      -1.007   0.395   1.400  1.00  0.00     0.177 C 
BRANCH  10  11
HETATM   11  O5  UNL     1      -1.123  -0.987   1.145  1.00  0.00    -0.326 OA
BRANCH  11  12
HETATM   12  C12 UNL     1      -0.118  -1.756   1.776  1.00  0.00     0.270 C 
HETATM   13  C11 UNL     1      -0.173  -3.226   1.286  1.00  0.00     0.241 C 
HETATM   14  C10 UNL     1       0.812  -4.112   2.081  1.00  0.00     0.220 C 
HETATM   15  O21 UNL     1       0.160  -3.274  -0.092  1.00  0.00    -0.215 OA
HETATM   16  C9  UNL     1       0.609  -3.898   3.598  1.00  0.00     0.215 C 
HETATM   17  O22 UNL     1       0.602  -5.477   1.756  1.00  0.00    -0.218 OA
HETATM   18  C8  UNL     1       0.636  -2.395   3.961  1.00  0.00     0.180 C 
HETATM   19  O23 UNL     1       1.635  -4.558   4.317  1.00  0.00    -0.218 OA
HETATM   20  O4  UNL     1      -0.331  -1.706   3.182  1.00  0.00    -0.326 OA
BRANCH  18  21
HETATM   21  C7  UNL     1       0.292  -2.130   5.429  1.00  0.00     0.177 C 
BRANCH  21  22
HETATM   22  O3  UNL     1       0.558  -0.774   5.708  1.00  0.00    -0.326 OA
BRANCH  22  23
HETATM   23  C4  UNL     1       0.234  -0.404   7.032  1.00  0.00     0.270 C 
HETATM   24  C3  UNL     1       0.344   1.133   7.206  1.00  0.00     0.241 C 
HETATM   25  C2  UNL     1       0.148   1.540   8.685  1.00  0.00     0.220 C 
HETATM   26  O24 UNL     1      -0.644   1.768   6.410  1.00  0.00    -0.215 OA
HETATM   27  C1  UNL     1       1.066   0.687   9.591  1.00  0.00     0.215 C 
HETATM   28  O25 UNL     1       0.450   2.916   8.851  1.00  0.00    -0.218 OA
HETATM   29  C5  UNL     1       0.903  -0.820   9.296  1.00  0.00     0.184 C 
HETATM   30  O26 UNL     1       0.748   0.923  10.952  1.00  0.00    -0.218 OA
HETATM   31  O1  UNL     1       1.136  -1.057   7.915  1.00  0.00    -0.326 OA
BRANCH  29  32
HETATM   32  C6  UNL     1       1.902  -1.690  10.068  1.00  0.00     0.214 C 
HETATM   33  O2  UNL     1       1.563  -3.041   9.858  1.00  0.00    -0.218 OA
ENDBRANCH  29  32
ENDBRANCH  22  23
ENDBRANCH  21  22
ENDBRANCH  18  21
ENDBRANCH  11  12
ENDBRANCH  10  11
ENDBRANCH   1  10
BRANCH   5  34
HETATM   34  C19 UNL     1      -2.357   1.134  -3.061  1.00  0.00     0.177 C 
BRANCH  34  35
HETATM   35  O7  UNL     1      -2.428  -0.267  -3.206  1.00  0.00    -0.326 OA
BRANCH  35  36
HETATM   36  C20 UNL     1      -2.084  -0.712  -4.503  1.00  0.00     0.272 C 
HETATM   37  C21 UNL     1      -2.399  -2.220  -4.658  1.00  0.00     0.241 C 
HETATM   38  C22 UNL     1      -1.883  -2.760  -6.012  1.00  0.00     0.223 C 
HETATM   39  O17 UNL     1      -3.800  -2.420  -4.577  1.00  0.00    -0.215 OA
HETATM   40  C23 UNL     1      -0.405  -2.357  -6.220  1.00  0.00     0.244 C 
HETATM   41  O16 UNL     1      -2.006  -4.174  -6.046  1.00  0.00    -0.218 OA
HETATM   42  C24 UNL     1      -0.202  -0.840  -5.983  1.00  0.00     0.304 C 
HETATM   43  O15 UNL     1      -0.011  -2.683  -7.544  1.00  0.00    -0.215 OA
HETATM   44  O8  UNL     1      -0.696  -0.485  -4.699  1.00  0.00    -0.300 OA
BRANCH  42  45
HETATM   45  O9  UNL     1       1.171  -0.508  -6.042  1.00  0.00    -0.190 OA
BRANCH  45  46
HETATM   46  O10 UNL     1       1.281   0.930  -6.060  1.00  0.00    -0.218 OA
BRANCH  46  47
HETATM   47  C25 UNL     1       2.658   1.261  -6.118  1.00  0.00     0.188 C 
HETATM   48  C26 UNL     1       2.803   2.803  -6.208  1.00  0.00     0.213 C 
HETATM   49  C27 UNL     1       3.316   3.248  -4.823  1.00  0.00     0.188 C 
HETATM   50  O13 UNL     1       3.744   3.183  -7.196  1.00  0.00    -0.218 OA
HETATM   51  C28 UNL     1       2.952   2.097  -3.884  1.00  0.00     0.069 C 
HETATM   52  O12 UNL     1       2.687   4.445  -4.408  1.00  0.00    -0.221 OA
HETATM   53  C29 UNL     1       3.304   0.908  -4.773  1.00  0.00     0.041 C 
BRANCH  51  54
HETATM   54  C30 UNL     1       3.763   2.102  -2.591  1.00  0.00     0.185 C 
HETATM   55  O11 UNL     1       3.340   1.016  -1.799  1.00  0.00    -0.221 OA
ENDBRANCH  51  54
BRANCH  47  56
HETATM   56  C31 UNL     1       3.260   0.417  -7.242  1.00  0.00     0.215 C 
HETATM   57  O14 UNL     1       3.627  -0.834  -6.706  1.00  0.00    -0.218 OA
ENDBRANCH  47  56
ENDBRANCH  46  47
ENDBRANCH  45  46
ENDBRANCH  42  45
ENDBRANCH  35  36
ENDBRANCH  34  35
ENDBRANCH   5  34
TORSDOF 15
