REMARK  20 active torsions:
REMARK  status: ('A' for Active; 'I' for Inactive)
REMARK    1  A    between atoms: C2_2  and  O1_30 
REMARK    2  A    between atoms: C15_15  and  C18_18 
REMARK    3  A    between atoms: C18_18  and  C19_19 
REMARK    4  A    between atoms: C19_19  and  C20_20 
REMARK    5  A    between atoms: C20_20  and  C21_21 
REMARK    6  A    between atoms: C21_21  and  C22_22 
REMARK    7  A    between atoms: O1_30  and  C30_31 
REMARK    8  A    between atoms: C30_31  and  C31_33 
REMARK    9  A    between atoms: C31_33  and  C32_34 
REMARK   10  A    between atoms: C32_34  and  C33_35 
REMARK   11  A    between atoms: C33_35  and  C34_36 
REMARK   12  A    between atoms: C34_36  and  C35_37 
REMARK   13  A    between atoms: C35_37  and  C36_38 
REMARK   14  A    between atoms: C36_38  and  C37_39 
REMARK   15  A    between atoms: C37_39  and  C38_40 
REMARK   16  A    between atoms: C39_41  and  C40_42 
REMARK   17  A    between atoms: C41_43  and  C42_44 
REMARK   18  A    between atoms: C42_44  and  C43_45 
REMARK   19  A    between atoms: C43_45  and  C44_46 
REMARK   20  A    between atoms: C45_47  and  C46_48 
ROOT
HETATM    1  C1  UNL     1       0.850   2.479   0.498  1.00  0.00     0.030 C 
HETATM    2  C2  UNL     1       1.383   3.367  -0.643  1.00  0.00     0.124 C 
HETATM    3  C3  UNL     1       1.149   4.887  -0.430  1.00  0.00     0.026 C 
HETATM    4  C4  UNL     1      -0.178   5.086   0.344  1.00  0.00     0.002 C 
HETATM    5  C5  UNL     1      -0.072   4.471   1.754  1.00  0.00     0.000 A 
HETATM    6  C6  UNL     1       0.787   3.197   1.850  1.00  0.00     0.003 C 
HETATM    7  C7  UNL     1      -1.332   4.666   2.598  1.00  0.00     0.000 A 
HETATM    8  C8  UNL     1      -2.457   5.553   2.045  1.00  0.00     0.000 C 
HETATM    9  C9  UNL     1      -1.926   6.785   1.273  1.00  0.00     0.000 C 
HETATM   10  C10 UNL     1      -0.699   6.539   0.363  1.00  0.00     0.000 C 
HETATM   11  C11 UNL     1      -3.572   4.736   1.340  1.00  0.00     0.000 C 
HETATM   12  C12 UNL     1      -3.604   3.190   1.551  1.00  0.00     0.000 C 
HETATM   13  C13 UNL     1      -2.525   2.543   2.455  1.00  0.00     0.000 C 
HETATM   14  C14 UNL     1      -1.885   3.524   3.443  1.00  0.00     0.000 C 
HETATM   15  C15 UNL     1      -3.443   2.649   0.117  1.00  0.00     0.000 C 
HETATM   16  C16 UNL     1      -4.256   3.629  -0.719  1.00  0.00     0.000 C 
HETATM   17  C17 UNL     1      -3.732   4.949  -0.176  1.00  0.00     0.000 C 
HETATM   18  C26 UNL     1      -5.000   2.820   2.066  1.00  0.00     0.000 C 
HETATM   19  C27 UNL     1      -0.031   5.328   3.012  1.00  0.00     0.000 A 
HETATM   20  C28 UNL     1       2.309   5.533   0.348  1.00  0.00     0.002 C 
HETATM   21  C29 UNL     1       1.078   5.565  -1.805  1.00  0.00     0.002 C 
ENDROOT
BRANCH   2  22
HETATM   22  O1  UNL     1       2.770   3.108  -0.834  1.00  0.00    -0.304 OA
BRANCH  22  23
HETATM   23  C30 UNL     1       2.988   1.918  -1.389  1.00  0.00     0.272 C 
HETATM   24  O2  UNL     1       2.111   1.152  -1.709  1.00  0.00    -0.264 OA
BRANCH  23  25
HETATM   25  C31 UNL     1       4.438   1.568  -1.600  1.00  0.00     0.096 C 
BRANCH  25  26
HETATM   26  C32 UNL     1       5.100   1.031  -0.330  1.00  0.00     0.010 C 
BRANCH  26  27
HETATM   27  C33 UNL     1       4.463  -0.268   0.162  1.00  0.00     0.001 C 
BRANCH  27  28
HETATM   28  C34 UNL     1       5.154  -0.828   1.406  1.00  0.00     0.000 C 
BRANCH  28  29
HETATM   29  C35 UNL     1       4.551  -2.154   1.869  1.00  0.00     0.000 C 
BRANCH  29  30
HETATM   30  C36 UNL     1       5.443  -3.354   1.547  1.00  0.00     0.005 C 
BRANCH  30  31
HETATM   31  C37 UNL     1       5.561  -3.615   0.045  1.00  0.00     0.026 C 
BRANCH  31  32
HETATM   32  C38 UNL     1       4.266  -4.086  -0.559  1.00  0.00    -0.026 C 
HETATM   33  C39 UNL     1       4.182  -5.356  -0.984  1.00  0.00    -0.005 C 
BRANCH  33  34
HETATM   34  C40 UNL     1       2.940  -5.865  -1.582  1.00  0.00    -0.002 C 
HETATM   35  C41 UNL     1       2.861  -7.129  -2.025  1.00  0.00     0.006 C 
BRANCH  35  36
HETATM   36  C42 UNL     1       1.566  -7.602  -2.629  1.00  0.00     0.178 C 
HETATM   37  O3  UNL     1       1.801  -8.076  -3.936  1.00  0.00    -0.218 OA
BRANCH  36  38
HETATM   38  C43 UNL     1       0.922  -8.727  -1.818  1.00  0.00     0.063 C 
BRANCH  38  39
HETATM   39  C44 UNL     1      -0.434  -9.113  -2.350  1.00  0.00    -0.028 C 
HETATM   40  C45 UNL     1      -1.518  -8.500  -1.846  1.00  0.00    -0.031 C 
BRANCH  40  41
HETATM   41  C46 UNL     1      -1.322  -7.459  -0.775  1.00  0.00     0.026 C 
HETATM   42  C47 UNL     1      -2.611  -6.703  -0.455  1.00  0.00     0.005 C 
ENDBRANCH  40  41
ENDBRANCH  38  39
ENDBRANCH  36  38
ENDBRANCH  35  36
ENDBRANCH  33  34
ENDBRANCH  31  32
ENDBRANCH  30  31
ENDBRANCH  29  30
ENDBRANCH  28  29
ENDBRANCH  27  28
ENDBRANCH  26  27
ENDBRANCH  25  26
ENDBRANCH  23  25
ENDBRANCH  22  23
ENDBRANCH   2  22
BRANCH  15  43
HETATM   43  C18 UNL     1      -3.914   1.211  -0.082  1.00  0.00     0.000 C 
BRANCH  43  44
HETATM   44  C19 UNL     1      -3.449   0.707  -1.449  1.00  0.00     0.004 C 
BRANCH  44  45
HETATM   45  C20 UNL     1      -3.896  -0.728  -1.733  1.00  0.00     0.022 C 
BRANCH  45  46
HETATM   46  C21 UNL     1      -3.348  -1.707  -0.731  1.00  0.00    -0.045 C 
HETATM   47  C25 UNL     1      -4.211  -2.383   0.045  1.00  0.00    -0.009 C 
BRANCH  46  48
HETATM   48  C22 UNL     1      -1.875  -1.965  -0.557  1.00  0.00     0.018 C 
HETATM   49  C23 UNL     1      -1.543  -2.549   0.816  1.00  0.00     0.004 C 
HETATM   50  C24 UNL     1      -1.287  -2.787  -1.705  1.00  0.00     0.004 C 
ENDBRANCH  46  48
ENDBRANCH  45  46
ENDBRANCH  44  45
ENDBRANCH  43  44
ENDBRANCH  15  43
TORSDOF 20
