REMARK  4 active torsions:
REMARK  status: ('A' for Active; 'I' for Inactive)
REMARK    1  A    between atoms: C2_2  and  C3_3 
REMARK    2  A    between atoms: C3_3  and  C5_5 
REMARK    3  A    between atoms: C8_9  and  C10_13 
REMARK    4  A    between atoms: C10_13  and  C11_14 
ROOT
HETATM    1  C5  UNL     1       1.488   0.447   0.623  1.00  0.00     0.163 C 
HETATM    2  C6  UNL     1       0.529  -0.539   1.254  1.00  0.00     0.173 C 
HETATM    3  O1  UNL     1       0.896  -1.324   2.100  1.00  0.00    -0.294 OA
HETATM    4  C7  UNL     1      -0.904  -0.496   0.793  1.00  0.00     0.076 C 
HETATM    5  C8  UNL     1      -1.441   0.941   0.861  1.00  0.00     0.098 C 
HETATM    6  C9  UNL     1      -0.502   1.947   0.219  1.00  0.00     0.252 C 
HETATM    7  N1  UNL     1       0.850   1.693   0.127  1.00  0.00    -0.233 NA
HETATM    8  O2  UNL     1      -0.938   2.986  -0.219  1.00  0.00    -0.271 OA
ENDROOT
BRANCH   1   9
HETATM    9  C3  UNL     1       2.256  -0.227  -0.518  1.00  0.00     0.030 C 
HETATM   10  C4  UNL     1       3.240  -1.285  -0.021  1.00  0.00     0.002 C 
BRANCH   9  11
HETATM   11  C2  UNL     1       1.334  -0.748  -1.619  1.00  0.00     0.002 C 
HETATM   12  C1  UNL     1       2.084  -1.072  -2.912  1.00  0.00     0.000 C 
ENDBRANCH   9  11
ENDBRANCH   1   9
BRANCH   5  13
HETATM   13  C10 UNL     1      -2.846   1.018   0.252  1.00  0.00     0.101 C 
BRANCH  13  14
HETATM   14  C11 UNL     1      -3.828   0.121   0.961  1.00  0.00     0.274 C 
HETATM   15  O3  UNL     1      -4.246  -0.883   0.434  1.00  0.00    -0.269 OA
HETATM   16  N2  UNL     1      -4.240   0.463   2.217  1.00  0.00    -0.107 N 
ENDBRANCH  13  14
ENDBRANCH   5  13
TORSDOF 4
