REMARK  10 active torsions:
REMARK  status: ('A' for Active; 'I' for Inactive)
REMARK    1  A    between atoms: C3_3  and  O2_18 
REMARK    2  A    between atoms: C5_5  and  C7_7 
REMARK    3  A    between atoms: C7_7  and  C8_8 
REMARK    4  A    between atoms: C8_8  and  C9_9 
REMARK    5  A    between atoms: C9_9  and  C10_10 
REMARK    6  A    between atoms: C10_10  and  C11_11 
REMARK    7  A    between atoms: C11_11  and  C12_12 
REMARK    8  A    between atoms: C12_12  and  C13_13 
REMARK    9  A    between atoms: C13_13  and  C14_14 
REMARK   10  A    between atoms: C14_14  and  C15_15 
ROOT
HETATM    1  C7  UNL     1      -0.318  -1.996   0.463  1.00  0.00     0.029 C 
ENDROOT
BRANCH   1   2
HETATM    2  C5  UNL     1      -1.014  -3.310   0.463  1.00  0.00    -0.020 A 
HETATM    3  C4  UNL     1      -2.418  -3.363   0.463  1.00  0.00     0.022 A 
HETATM    4  C3  UNL     1      -3.080  -4.603   0.463  1.00  0.00     0.119 A 
HETATM    5  C2  UNL     1      -2.332  -5.797   0.463  1.00  0.00     0.153 A 
HETATM    6  C1  UNL     1      -0.928  -5.742   0.463  1.00  0.00     0.029 A 
HETATM    7  O3  UNL     1      -2.943  -6.965   0.463  1.00  0.00    -0.188 OA
HETATM    8  C6  UNL     1      -0.268  -4.502   0.463  1.00  0.00    -0.002 A 
BRANCH   4   9
HETATM    9  O2  UNL     1      -4.397  -4.646   0.463  1.00  0.00    -0.326 OA
HETATM   10  C17 UNL     1      -5.104  -3.414   0.426  1.00  0.00     0.181 C 
ENDBRANCH   4   9
ENDBRANCH   1   2
BRANCH   1  11
HETATM   11  C8  UNL     1      -0.189  -1.428  -0.951  1.00  0.00     0.038 C 
BRANCH  11  12
HETATM   12  C9  UNL     1       0.365  -0.004  -0.965  1.00  0.00     0.152 C 
HETATM   13  O1  UNL     1       0.186   0.527  -2.260  1.00  0.00    -0.224 OA
BRANCH  12  14
HETATM   14  C10 UNL     1       1.855   0.055  -0.627  1.00  0.00     0.033 C 
BRANCH  14  15
HETATM   15  C11 UNL     1       2.373   1.486  -0.486  1.00  0.00     0.003 C 
BRANCH  15  16
HETATM   16  C12 UNL     1       1.934   2.147   0.820  1.00  0.00     0.000 C 
BRANCH  16  17
HETATM   17  C13 UNL     1       2.467   3.572   0.969  1.00  0.00     0.000 C 
BRANCH  17  18
HETATM   18  C14 UNL     1       1.760   4.565   0.045  1.00  0.00     0.000 C 
BRANCH  18  19
HETATM   19  C15 UNL     1       2.240   6.004   0.246  1.00  0.00     0.000 C 
HETATM   20  C16 UNL     1       1.529   6.996  -0.674  1.00  0.00     0.000 C 
ENDBRANCH  18  19
ENDBRANCH  17  18
ENDBRANCH  16  17
ENDBRANCH  15  16
ENDBRANCH  14  15
ENDBRANCH  12  14
ENDBRANCH  11  12
ENDBRANCH   1  11
TORSDOF 10
