REMARK  6 active torsions:
REMARK  status: ('A' for Active; 'I' for Inactive)
REMARK    1  A    between atoms: C1_1  and  O2_4 
REMARK    2  A    between atoms: O2_4  and  C3_5 
REMARK    3  A    between atoms: C3_5  and  C4_6 
REMARK    4  A    between atoms: C4_6  and  C5_7 
REMARK    5  A    between atoms: C5_7  and  C6_8 
REMARK    6  A    between atoms: C6_8  and  C7_9 
ROOT
HETATM    1  C3  UNL     1      -0.267  -0.365   1.690  1.00  0.00     0.152 C 
ENDROOT
BRANCH   1   2
HETATM    2  O2  UNL     1       0.248   0.342   2.809  1.00  0.00    -0.302 OA
BRANCH   2   3
HETATM    3  C1  UNL     1      -0.138  -0.189   3.965  1.00  0.00     0.272 C 
HETATM    4  C2  UNL     1       0.373   0.514   5.195  1.00  0.00     0.106 C 
HETATM    5  O1  UNL     1      -0.847  -1.162   4.055  1.00  0.00    -0.264 OA
ENDBRANCH   2   3
ENDBRANCH   1   2
BRANCH   1   6
HETATM    6  C4  UNL     1       0.217   0.299   0.400  1.00  0.00     0.033 C 
BRANCH   6   7
HETATM    7  C5  UNL     1      -0.297  -0.406  -0.855  1.00  0.00     0.003 C 
BRANCH   7   8
HETATM    8  C6  UNL     1       0.188   0.258  -2.144  1.00  0.00     0.000 C 
BRANCH   8   9
HETATM    9  C7  UNL     1      -0.326  -0.447  -3.400  1.00  0.00     0.000 C 
HETATM   10  C8  UNL     1       0.158   0.217  -4.689  1.00  0.00     0.000 C 
ENDBRANCH   8   9
ENDBRANCH   7   8
ENDBRANCH   6   7
ENDBRANCH   1   6
TORSDOF 6
