REMARK  17 active torsions:
REMARK  status: ('A' for Active; 'I' for Inactive)
REMARK    1  A    between atoms: C7_7  and  C20_21 
REMARK    2  A    between atoms: C20_21  and  O2_22 
REMARK    3  A    between atoms: O2_22  and  C21_23 
REMARK    4  A    between atoms: C21_23  and  C22_25 
REMARK    5  A    between atoms: C22_25  and  C23_26 
REMARK    6  A    between atoms: C23_26  and  C24_27 
REMARK    7  A    between atoms: C24_27  and  C25_28 
REMARK    8  A    between atoms: C25_28  and  C26_29 
REMARK    9  A    between atoms: C26_29  and  C27_30 
REMARK   10  A    between atoms: C27_30  and  C28_31 
REMARK   11  A    between atoms: C28_31  and  C29_32 
REMARK   12  A    between atoms: C29_32  and  C30_33 
REMARK   13  A    between atoms: C30_33  and  C31_34 
REMARK   14  A    between atoms: C31_34  and  C32_35 
REMARK   15  A    between atoms: C32_35  and  C33_36 
REMARK   16  A    between atoms: C33_36  and  C34_37 
REMARK   17  A    between atoms: C34_37  and  C35_38 
ROOT
HETATM    1  C1  UNL     1       1.205   8.277   0.848  1.00  0.00     0.101 C 
HETATM    2  C2  UNL     1       2.197   8.898   1.818  1.00  0.00    -0.023 C 
HETATM    3  C3  UNL     1       3.336   8.207   1.881  1.00  0.00    -0.015 C 
HETATM    4  C4  UNL     1       3.291   7.031   0.953  1.00  0.00     0.202 C 
HETATM    5  C5  UNL     1       2.176   7.416  -0.076  1.00  0.00     0.199 C 
HETATM    6  C6  UNL     1       1.756   6.105  -0.826  1.00  0.00     0.204 C 
HETATM    7  C7  UNL     1       1.180   4.967   0.012  1.00  0.00     0.014 C 
HETATM    8  C8  UNL     1       0.094   5.111   0.799  1.00  0.00    -0.023 C 
HETATM    9  C9  UNL     1      -0.596   6.447   0.889  1.00  0.00     0.079 C 
HETATM   10  C10 UNL     1       0.287   7.385   1.664  1.00  0.00     0.160 C 
HETATM   11  O1  UNL     1       0.246   7.412   2.873  1.00  0.00    -0.295 OA
HETATM   12  C11 UNL     1      -2.025   6.469   1.398  1.00  0.00     0.011 A 
HETATM   13  C12 UNL     1      -2.744   7.805   1.387  1.00  0.00     0.001 A 
HETATM   14  C13 UNL     1      -2.172   9.135   0.842  1.00  0.00     0.000 C 
HETATM   15  C14 UNL     1      -1.102   9.291  -0.289  1.00  0.00     0.001 C 
HETATM   16  C15 UNL     1       0.365   9.436   0.215  1.00  0.00     0.014 C 
HETATM   17  C16 UNL     1      -1.443  10.543  -1.111  1.00  0.00     0.000 C 
HETATM   18  C17 UNL     1      -3.227   6.680   0.480  1.00  0.00     0.001 A 
HETATM   19  C18 UNL     1      -4.522   5.982   0.873  1.00  0.00     0.000 C 
HETATM   20  C19 UNL     1      -3.029   6.787  -1.027  1.00  0.00     0.000 C 
HETATM   21  O4  UNL     1       0.885   6.379  -1.914  1.00  0.00    -0.216 OA
HETATM   22  O5  UNL     1       2.750   8.293  -1.047  1.00  0.00    -0.219 OA
HETATM   23  O6  UNL     1       4.553   6.758   0.367  1.00  0.00    -0.216 OA
HETATM   24  C37 UNL     1       4.512   8.555   2.760  1.00  0.00     0.029 C 
ENDROOT
BRANCH   7  25
HETATM   25  C20 UNL     1       1.869   3.627  -0.055  1.00  0.00     0.176 C 
BRANCH  25  26
HETATM   26  O2  UNL     1       0.896   2.600  -0.176  1.00  0.00    -0.297 OA
BRANCH  26  27
HETATM   27  C21 UNL     1       1.443   1.389  -0.238  1.00  0.00     0.272 C 
HETATM   28  O3  UNL     1       2.633   1.185  -0.197  1.00  0.00    -0.264 OA
BRANCH  27  29
HETATM   29  C22 UNL     1       0.465   0.250  -0.367  1.00  0.00     0.096 C 
BRANCH  29  30
HETATM   30  C23 UNL     1       1.150  -1.115  -0.311  1.00  0.00     0.010 C 
BRANCH  30  31
HETATM   31  C24 UNL     1       0.162  -2.276  -0.424  1.00  0.00     0.001 C 
BRANCH  31  32
HETATM   32  C25 UNL     1       0.846  -3.643  -0.367  1.00  0.00     0.000 C 
BRANCH  32  33
HETATM   33  C26 UNL     1      -0.143  -4.803  -0.480  1.00  0.00     0.000 C 
BRANCH  33  34
HETATM   34  C27 UNL     1       0.543  -6.168  -0.426  1.00  0.00     0.000 C 
BRANCH  34  35
HETATM   35  C28 UNL     1      -0.445  -7.330  -0.539  1.00  0.00     0.000 C 
BRANCH  35  36
HETATM   36  C29 UNL     1       0.238  -8.696  -0.484  1.00  0.00     0.000 C 
BRANCH  36  37
HETATM   37  C30 UNL     1      -0.750  -9.856  -0.598  1.00  0.00     0.000 C 
BRANCH  37  38
HETATM   38  C31 UNL     1      -0.064 -11.223  -0.543  1.00  0.00     0.000 C 
BRANCH  38  39
HETATM   39  C32 UNL     1      -1.053 -12.383  -0.656  1.00  0.00     0.000 C 
BRANCH  39  40
HETATM   40  C33 UNL     1      -0.369 -13.748  -0.602  1.00  0.00     0.000 C 
BRANCH  40  41
HETATM   41  C34 UNL     1      -1.357 -14.910  -0.715  1.00  0.00     0.000 C 
BRANCH  41  42
HETATM   42  C35 UNL     1      -0.672 -16.276  -0.660  1.00  0.00     0.000 C 
HETATM   43  C36 UNL     1      -1.662 -17.436  -0.773  1.00  0.00     0.000 C 
ENDBRANCH  41  42
ENDBRANCH  40  41
ENDBRANCH  39  40
ENDBRANCH  38  39
ENDBRANCH  37  38
ENDBRANCH  36  37
ENDBRANCH  35  36
ENDBRANCH  34  35
ENDBRANCH  33  34
ENDBRANCH  32  33
ENDBRANCH  31  32
ENDBRANCH  30  31
ENDBRANCH  29  30
ENDBRANCH  27  29
ENDBRANCH  26  27
ENDBRANCH  25  26
ENDBRANCH   7  25
TORSDOF 17
