REMARK  7 active torsions:
REMARK  status: ('A' for Active; 'I' for Inactive)
REMARK    1  A    between atoms: O1_1  and  C1_2 
REMARK    2  A    between atoms: O1_1  and  C6_11 
REMARK    3  A    between atoms: C3_5  and  C5_9 
REMARK    4  A    between atoms: C6_11  and  C7_12 
REMARK    5  A    between atoms: C11_16  and  O7_18 
REMARK    6  A    between atoms: O7_18  and  C12_19 
REMARK    7  A    between atoms: C12_19  and  C13_20 
ROOT
HETATM    1  C7  UNL     1      -0.182   2.143   0.100  1.00  0.00     0.180 C 
HETATM    2  C8  UNL     1       0.086   3.563  -0.449  1.00  0.00     0.215 C 
HETATM    3  C9  UNL     1       1.510   4.045  -0.092  1.00  0.00     0.220 C 
HETATM    4  C10 UNL     1       2.547   2.973  -0.496  1.00  0.00     0.241 C 
HETATM    5  C11 UNL     1       2.147   1.576   0.047  1.00  0.00     0.270 C 
HETATM    6  O6  UNL     1       0.826   1.258  -0.367  1.00  0.00    -0.326 OA
HETATM    7  O8  UNL     1       3.818   3.330   0.020  1.00  0.00    -0.215 OA
HETATM    8  O9  UNL     1       1.789   5.262  -0.764  1.00  0.00    -0.218 OA
HETATM    9  O10 UNL     1      -0.873   4.449   0.098  1.00  0.00    -0.218 OA
ENDROOT
BRANCH   1  10
HETATM   10  C6  UNL     1      -1.523   1.566  -0.363  1.00  0.00     0.177 C 
BRANCH  10  11
HETATM   11  O1  UNL     1      -1.744   0.355   0.322  1.00  0.00    -0.326 OA
BRANCH  11  12
HETATM   12  C1  UNL     1      -2.945  -0.285  -0.053  1.00  0.00     0.270 C 
HETATM   13  O2  UNL     1      -4.072   0.416   0.408  1.00  0.00    -0.326 OA
HETATM   14  C2  UNL     1      -5.205  -0.418   0.355  1.00  0.00     0.181 C 
HETATM   15  C3  UNL     1      -4.656  -1.838   0.604  1.00  0.00     0.217 C 
HETATM   16  C4  UNL     1      -3.115  -1.635   0.650  1.00  0.00     0.241 C 
HETATM   17  O4  UNL     1      -5.082  -2.688  -0.449  1.00  0.00    -0.218 OA
HETATM   18  O3  UNL     1      -2.363  -2.650   0.002  1.00  0.00    -0.215 OA
BRANCH  15  19
HETATM   19  C5  UNL     1      -5.174  -2.430   1.912  1.00  0.00     0.218 C 
HETATM   20  O5  UNL     1      -6.584  -2.424   1.871  1.00  0.00    -0.218 OA
ENDBRANCH  15  19
ENDBRANCH  11  12
ENDBRANCH  10  11
ENDBRANCH   1  10
BRANCH   5  21
HETATM   21  O7  UNL     1       3.022   0.584  -0.449  1.00  0.00    -0.324 OA
BRANCH  21  22
HETATM   22  C12 UNL     1       2.865  -0.664   0.189  1.00  0.00     0.172 C 
BRANCH  22  23
HETATM   23  C13 UNL     1       3.871  -1.621  -0.340  1.00  0.00     0.007 A 
HETATM   24  C14 UNL     1       3.912  -2.940   0.146  1.00  0.00    -0.002 A 
HETATM   25  C15 UNL     1       4.863  -3.846  -0.354  1.00  0.00    -0.000 A 
HETATM   26  C16 UNL     1       5.775  -3.434  -1.340  1.00  0.00    -0.000 A 
HETATM   27  C17 UNL     1       5.736  -2.115  -1.828  1.00  0.00    -0.000 A 
HETATM   28  C18 UNL     1       4.783  -1.209  -1.328  1.00  0.00    -0.002 A 
ENDBRANCH  22  23
ENDBRANCH  21  22
ENDBRANCH   5  21
TORSDOF 7
