REMARK  6 active torsions:
REMARK  status: ('A' for Active; 'I' for Inactive)
REMARK    1  A    between atoms: C15_16  and  C18_19 
REMARK    2  A    between atoms: C18_19  and  C19_20 
REMARK    3  A    between atoms: C19_20  and  C20_21 
REMARK    4  A    between atoms: C20_21  and  C21_22 
REMARK    5  A    between atoms: C21_22  and  C22_23 
REMARK    6  A    between atoms: C21_22  and  C25_26 
ROOT
HETATM    1  C1  UNL     1       6.537  -1.285  -2.279  1.00  0.00     0.070 C 
HETATM    2  C2  UNL     1       6.930   0.168  -2.293  1.00  0.00     0.172 C 
HETATM    3  C3  UNL     1       6.043   1.131  -1.623  1.00  0.00     0.031 C 
HETATM    4  C4  UNL     1       4.844   0.791  -1.096  1.00  0.00    -0.012 C 
HETATM    5  C5  UNL     1       4.285  -0.631  -1.201  1.00  0.00     0.018 C 
HETATM    6  C6  UNL     1       5.012  -1.428  -2.318  1.00  0.00     0.012 C 
HETATM    7  C7  UNL     1       2.756  -0.611  -1.500  1.00  0.00     0.004 C 
HETATM    8  C8  UNL     1       1.975   0.346  -0.576  1.00  0.00     0.003 C 
HETATM    9  C9  UNL     1       2.529   1.777  -0.672  1.00  0.00     0.037 C 
HETATM   10  C10 UNL     1       4.031   1.850  -0.373  1.00  0.00     0.171 C 
HETATM   11  O1  UNL     1       4.230   1.717   1.021  1.00  0.00    -0.219 OA
HETATM   12  C11 UNL     1       0.459   0.365  -0.861  1.00  0.00     0.000 C 
HETATM   13  C12 UNL     1      -0.201  -1.021  -1.004  1.00  0.00     0.000 C 
HETATM   14  C13 UNL     1       0.643  -1.963  -1.885  1.00  0.00     0.000 C 
HETATM   15  C14 UNL     1       2.107  -2.010  -1.445  1.00  0.00     0.000 C 
HETATM   16  C15 UNL     1      -1.533  -0.729  -1.742  1.00  0.00     0.000 C 
HETATM   17  C16 UNL     1      -1.482   0.756  -2.113  1.00  0.00     0.000 C 
HETATM   18  C17 UNL     1       0.004   1.074  -2.135  1.00  0.00     0.000 C 
HETATM   19  C28 UNL     1      -0.389  -1.598   0.400  1.00  0.00     0.000 C 
HETATM   20  C29 UNL     1       4.555  -1.309   0.150  1.00  0.00     0.004 C 
HETATM   21  O2  UNL     1       7.943   0.539  -2.840  1.00  0.00    -0.291 OA
ENDROOT
BRANCH  16  22
HETATM   22  C18 UNL     1      -2.811  -1.014  -0.953  1.00  0.00     0.000 C 
HETATM   23  C27 UNL     1      -4.008  -1.023  -1.904  1.00  0.00     0.000 C 
BRANCH  22  24
HETATM   24  C19 UNL     1      -2.957   0.018   0.168  1.00  0.00     0.000 C 
BRANCH  24  25
HETATM   25  C20 UNL     1      -3.553  -0.578   1.443  1.00  0.00     0.000 C 
BRANCH  25  26
HETATM   26  C21 UNL     1      -3.736   0.461   2.549  1.00  0.00     0.000 C 
BRANCH  26  27
HETATM   27  C22 UNL     1      -5.184   0.939   2.676  1.00  0.00     0.000 C 
HETATM   28  C23 UNL     1      -5.377   1.949   3.807  1.00  0.00     0.000 C 
HETATM   29  C24 UNL     1      -5.764   1.424   1.346  1.00  0.00     0.000 C 
ENDBRANCH  26  27
BRANCH  26  30
HETATM   30  C25 UNL     1      -3.147   0.014   3.887  1.00  0.00     0.000 C 
HETATM   31  C26 UNL     1      -2.328   1.111   4.568  1.00  0.00     0.000 C 
ENDBRANCH  26  30
ENDBRANCH  25  26
ENDBRANCH  24  25
ENDBRANCH  22  24
ENDBRANCH  16  22
TORSDOF 6
