REMARK  2 active torsions:
REMARK  status: ('A' for Active; 'I' for Inactive)
REMARK    1  A    between atoms: C1_2  and  C2_3 
REMARK    2  A    between atoms: C2_3  and  C3_4 
ROOT
HETATM    1  C3  UNL     1      -1.103  -0.936   0.984  1.00  0.00     0.032 C 
HETATM    2  C4  UNL     1       0.340  -0.361   0.900  1.00  0.00     0.026 C 
HETATM    3  C5  UNL     1       0.328   1.176   1.019  1.00  0.00     0.005 C 
HETATM    4  C6  UNL     1      -0.500   1.859  -0.106  1.00  0.00     0.000 C 
HETATM    5  C7  UNL     1      -1.568   0.924  -0.707  1.00  0.00     0.000 C 
HETATM    6  C8  UNL     1      -2.166  -0.012   0.346  1.00  0.00     0.005 C 
HETATM    7  C9  UNL     1      -1.121   3.168   0.396  1.00  0.00     0.000 C 
HETATM    8  C10 UNL     1       1.777   1.685   1.074  1.00  0.00     0.005 C 
HETATM    9  C11 UNL     1       2.572   1.293  -0.182  1.00  0.00     0.022 C 
HETATM   10  C12 UNL     1       2.184  -0.045  -0.781  1.00  0.00    -0.048 C 
HETATM   11  C13 UNL     1       1.162  -0.789  -0.307  1.00  0.00    -0.035 C 
HETATM   12  C14 UNL     1       2.986  -0.535  -1.959  1.00  0.00     0.026 C 
ENDROOT
BRANCH   1  13
HETATM   13  C2  UNL     1      -1.213  -2.358   0.486  1.00  0.00     0.042 C 
HETATM   14  C15 UNL     1      -0.779  -3.352   1.281  1.00  0.00     0.002 C 
BRANCH  13  15
HETATM   15  C1  UNL     1      -1.781  -2.651  -0.834  1.00  0.00     0.207 C 
HETATM   16  O1  UNL     1      -2.736  -3.576  -0.861  1.00  0.00    -0.644 OA
HETATM   17  O2  UNL     1      -1.385  -2.067  -1.815  1.00  0.00    -0.644 OA
ENDBRANCH  13  15
ENDBRANCH   1  13
TORSDOF 2
