REMARK  1 active torsions:
REMARK  status: ('A' for Active; 'I' for Inactive)
REMARK    1  A    between atoms: C7_7  and  C12_12 
ROOT
HETATM    1  C1  UNL     1      -1.289  -1.906   0.238  1.00  0.00     0.037 C 
HETATM    2  C2  UNL     1      -2.674  -1.248   0.319  1.00  0.00     0.157 C 
HETATM    3  C3  UNL     1      -2.643   0.191  -0.222  1.00  0.00     0.054 C 
HETATM    4  C4  UNL     1      -1.367   0.953   0.088  1.00  0.00    -0.049 C 
HETATM    5  C5  UNL     1      -0.273   0.357   0.623  1.00  0.00    -0.052 C 
HETATM    6  C6  UNL     1       1.047   1.082   0.797  1.00  0.00     0.025 C 
HETATM    7  C7  UNL     1       2.143   0.434  -0.078  1.00  0.00     0.022 C 
HETATM    8  C8  UNL     1       1.939  -1.092  -0.244  1.00  0.00     0.005 C 
HETATM    9  C9  UNL     1       1.156  -1.699   0.930  1.00  0.00     0.004 C 
HETATM   10  C10 UNL     1      -0.270  -1.100   1.069  1.00  0.00     0.017 C 
HETATM   11  C11 UNL     1      -0.676  -1.141   2.549  1.00  0.00     0.004 C 
HETATM   12  C15 UNL     1      -1.373   2.422  -0.258  1.00  0.00     0.026 C 
HETATM   13  O1  UNL     1      -3.606  -2.014  -0.422  1.00  0.00    -0.223 OA
ENDROOT
BRANCH   7  14
HETATM   14  C12 UNL     1       2.256   1.109  -1.424  1.00  0.00    -0.044 C 
HETATM   15  C13 UNL     1       3.406   1.726  -1.736  1.00  0.00    -0.009 C 
HETATM   16  C14 UNL     1       1.139   1.119  -2.431  1.00  0.00     0.026 C 
ENDBRANCH   7  14
TORSDOF 1
