REMARK  2 active torsions:
REMARK  status: ('A' for Active; 'I' for Inactive)
REMARK    1  A    between atoms: C8_9  and  C11_13 
REMARK    2  A    between atoms: C14_16  and  O3_19 
ROOT
HETATM    1  C1  UNL     1      -3.940   0.621   0.479  1.00  0.00     0.127 A 
HETATM    2  C2  UNL     1      -3.824   1.914   1.045  1.00  0.00     0.029 A 
HETATM    3  C3  UNL     1      -2.549   2.508   1.207  1.00  0.00     0.134 A 
HETATM    4  C4  UNL     1      -1.385   1.805   0.799  1.00  0.00     0.082 A 
HETATM    5  C5  UNL     1      -1.496   0.492   0.262  1.00  0.00     0.097 A 
HETATM    6  C6  UNL     1      -2.778  -0.088   0.088  1.00  0.00     0.026 A 
HETATM    7  C7  UNL     1      -2.899  -1.436  -0.498  1.00  0.00     0.035 C 
HETATM    8  O1  UNL     1      -0.399  -0.215  -0.084  1.00  0.00    -0.329 OA
HETATM    9  C8  UNL     1       0.889   0.139   0.436  1.00  0.00     0.151 C 
HETATM   10  C9  UNL     1       1.115   1.656   0.320  1.00  0.00     0.104 C 
HETATM   11  C10 UNL     1      -0.039   2.437   0.914  1.00  0.00     0.180 C 
HETATM   12  O2  UNL     1       0.223   3.504   1.426  1.00  0.00    -0.291 OA
HETATM   13  O4  UNL     1      -2.453   3.736   1.738  1.00  0.00    -0.190 OA
HETATM   14  C18 UNL     1      -5.035   2.643   1.465  1.00  0.00     0.035 C 
HETATM   15  O5  UNL     1      -5.149   0.066   0.315  1.00  0.00    -0.191 OA
ENDROOT
BRANCH   9  16
HETATM   16  C11 UNL     1       1.932  -0.645  -0.275  1.00  0.00     0.006 A 
HETATM   17  C12 UNL     1       1.955  -0.672  -1.682  1.00  0.00     0.000 A 
HETATM   18  C13 UNL     1       2.941  -1.414  -2.353  1.00  0.00     0.024 A 
HETATM   19  C14 UNL     1       3.908  -2.131  -1.623  1.00  0.00     0.094 A 
HETATM   20  C15 UNL     1       3.883  -2.102  -0.219  1.00  0.00     0.024 A 
HETATM   21  C16 UNL     1       2.896  -1.359   0.455  1.00  0.00     0.000 A 
BRANCH  19  22
HETATM   22  O3  UNL     1       4.834  -2.824  -2.256  1.00  0.00    -0.328 OA
HETATM   23  C17 UNL     1       5.826  -3.475  -1.474  1.00  0.00     0.181 C 
ENDBRANCH  19  22
ENDBRANCH   9  16
TORSDOF 2
