REMARK  2 active torsions:
REMARK  status: ('A' for Active; 'I' for Inactive)
REMARK    1  A    between atoms: C2_2  and  C9_15 
REMARK    2  A    between atoms: C5_8  and  C8_13 
ROOT
HETATM    1  C1  UNL     1       1.725   0.660   0.959  1.00  0.00     0.179 C 
HETATM    2  C2  UNL     1       1.273   0.113  -0.426  1.00  0.00     0.168 C 
HETATM    3  O1  UNL     1      -0.039  -0.449  -0.357  1.00  0.00    -0.344 OA
HETATM    4  C3  UNL     1      -0.865   0.049   0.697  1.00  0.00     0.205 C 
HETATM    5  C4  UNL     1      -0.512   1.539   0.932  1.00  0.00     0.267 C 
HETATM    6  O2  UNL     1       0.805   1.629   1.465  1.00  0.00    -0.326 OA
HETATM    7  O3  UNL     1      -1.488   2.102   1.791  1.00  0.00    -0.326 OA
HETATM    8  C5  UNL     1      -2.787   2.254   1.213  1.00  0.00     0.184 C 
HETATM    9  C6  UNL     1      -3.125   1.147   0.164  1.00  0.00     0.215 C 
HETATM   10  C7  UNL     1      -2.371  -0.186   0.387  1.00  0.00     0.217 C 
HETATM   11  O4  UNL     1      -2.975  -0.838   1.488  1.00  0.00    -0.218 OA
HETATM   12  O5  UNL     1      -2.805   1.619  -1.133  1.00  0.00    -0.218 OA
ENDROOT
BRANCH   2  13
HETATM   13  C9  UNL     1       2.211  -0.904  -0.971  1.00  0.00     0.009 A 
HETATM   14  C10 UNL     1       2.867  -0.672  -2.191  1.00  0.00     0.028 A 
HETATM   15  C11 UNL     1       3.754  -1.631  -2.711  1.00  0.00     0.156 A 
HETATM   16  C12 UNL     1       3.986  -2.828  -2.006  1.00  0.00     0.156 A 
HETATM   17  O8  UNL     1       4.367  -1.408  -3.855  1.00  0.00    -0.188 OA
HETATM   18  C13 UNL     1       3.328  -3.059  -0.783  1.00  0.00     0.029 A 
HETATM   19  O7  UNL     1       4.816  -3.732  -2.484  1.00  0.00    -0.188 OA
HETATM   20  C14 UNL     1       2.441  -2.098  -0.266  1.00  0.00     0.000 A 
ENDBRANCH   2  13
BRANCH   8  21
HETATM   21  C8  UNL     1      -3.772   2.260   2.385  1.00  0.00     0.214 C 
HETATM   22  O6  UNL     1      -5.026   2.691   1.906  1.00  0.00    -0.218 OA
ENDBRANCH   8  21
TORSDOF 2
