REMARK  0 active torsions:
REMARK  status: ('A' for Active; 'I' for Inactive)
ROOT
HETATM    1  C1  UNL     1       0.508   0.818   0.580  1.00  0.00     0.021 C 
HETATM    2  C2  UNL     1       0.670  -0.260   1.682  1.00  0.00     0.004 C 
HETATM    3  C3  UNL     1       0.383  -1.277   0.545  1.00  0.00     0.004 C 
HETATM    4  C4  UNL     1      -1.121  -1.424   0.240  1.00  0.00     0.037 C 
HETATM    5  C5  UNL     1      -1.910  -0.092   0.359  1.00  0.00     0.171 C 
HETATM    6  C6  UNL     1      -0.973   1.103   0.307  1.00  0.00    -0.015 C 
HETATM    7  C7  UNL     1      -1.416   2.348   0.041  1.00  0.00    -0.007 C 
HETATM    8  O1  UNL     1      -2.897  -0.039  -0.654  1.00  0.00    -0.219 OA
HETATM    9  C8  UNL     1       1.115  -0.252  -0.373  1.00  0.00     0.004 C 
HETATM   10  C9  UNL     1       0.625  -0.193  -1.819  1.00  0.00     0.000 C 
HETATM   11  C10 UNL     1       2.643  -0.346  -0.338  1.00  0.00     0.000 C 
ENDROOT
TORSDOF 0
