REMARK  0 active torsions:
REMARK  status: ('A' for Active; 'I' for Inactive)
ROOT
HETATM    1  N1  UNL     1       1.021  -0.275   1.483  1.00  0.00     0.340 N 
HETATM    2  C1  UNL     1       0.957   0.928   0.664  1.00  0.00     0.289 C 
HETATM    3  C2  UNL     1      -0.529   1.330   0.533  1.00  0.00     0.219 C 
HETATM    4  C3  UNL     1      -1.385   0.215  -0.139  1.00  0.00     0.217 C 
HETATM    5  C4  UNL     1      -0.951  -1.184   0.399  1.00  0.00     0.219 C 
HETATM    6  C5  UNL     1       0.584  -1.301   0.545  1.00  0.00     0.289 C 
HETATM    7  C6  UNL     1       1.357  -0.992  -0.746  1.00  0.00     0.041 C 
HETATM    8  C7  UNL     1       1.613   0.521  -0.664  1.00  0.00     0.041 C 
HETATM    9  O1  UNL     1      -1.457  -2.250  -0.387  1.00  0.00    -0.218 OA
HETATM   10  O2  UNL     1      -1.293   0.275  -1.557  1.00  0.00    -0.218 OA
HETATM   11  O3  UNL     1      -0.649   2.580  -0.127  1.00  0.00    -0.218 OA
ENDROOT
TORSDOF 0
