REMARK  2 active torsions:
REMARK  status: ('A' for Active; 'I' for Inactive)
REMARK    1  A    between atoms: C2_2  and  C9_13 
REMARK    2  A    between atoms: C5_7  and  C8_11 
ROOT
HETATM    1  C1  UNL     1       0.820   0.916  -0.810  1.00  0.00     0.076 C 
HETATM    2  C2  UNL     1       0.346  -0.361  -0.111  1.00  0.00     0.152 C 
HETATM    3  O1  UNL     1       1.203  -1.361  -0.643  1.00  0.00    -0.300 OA
HETATM    4  C3  UNL     1       2.394  -0.746  -0.730  1.00  0.00     0.272 C 
HETATM    5  C4  UNL     1       2.307   0.754  -0.519  1.00  0.00     0.102 C 
HETATM    6  O2  UNL     1       3.441  -1.303  -0.967  1.00  0.00    -0.264 OA
HETATM    7  C5  UNL     1      -1.115  -0.311  -0.447  1.00  0.00     0.014 C 
HETATM    8  C6  UNL     1      -1.500   0.971  -0.594  1.00  0.00     0.003 C 
HETATM    9  C7  UNL     1      -0.309   1.906  -0.484  1.00  0.00     0.177 C 
HETATM   10  O3  UNL     1      -0.178   2.449   0.815  1.00  0.00    -0.218 OA
ENDROOT
BRANCH   2  11
HETATM   11  C9  UNL     1       0.486  -0.375   1.420  1.00  0.00     0.214 C 
HETATM   12  O5  UNL     1       0.207  -1.678   1.877  1.00  0.00    -0.218 OA
ENDBRANCH   2  11
BRANCH   7  13
HETATM   13  C8  UNL     1      -2.000  -1.522  -0.582  1.00  0.00     0.207 C 
HETATM   14  O4  UNL     1      -2.715  -1.717   0.615  1.00  0.00    -0.216 OA
ENDBRANCH   7  13
TORSDOF 2
