REMARK  3 active torsions:
REMARK  status: ('A' for Active; 'I' for Inactive)
REMARK    1  A    between atoms: C7_8  and  C25_33 
REMARK    2  A    between atoms: C9_10  and  C10_11 
REMARK    3  A    between atoms: C16_19  and  C19_23 
ROOT
HETATM    1  C1  UNL     1       5.104   1.211  -2.051  1.00  0.00     0.135 A 
HETATM    2  C2  UNL     1       3.861   0.877  -2.629  1.00  0.00     0.055 A 
HETATM    3  C3  UNL     1       2.840   0.297  -1.840  1.00  0.00     0.131 A 
HETATM    4  C4  UNL     1       3.043   0.068  -0.443  1.00  0.00     0.032 A 
HETATM    5  C5  UNL     1       4.322   0.375   0.117  1.00  0.00     0.095 A 
HETATM    6  C6  UNL     1       5.332   0.957  -0.682  1.00  0.00     0.051 A 
HETATM    7  O1  UNL     1       4.623   0.131   1.412  1.00  0.00    -0.326 OA
HETATM    8  C7  UNL     1       3.793  -0.713   2.217  1.00  0.00     0.174 C 
HETATM    9  C8  UNL     1       2.315  -0.363   1.943  1.00  0.00     0.192 C 
HETATM   10  C9  UNL     1       1.961  -0.492   0.436  1.00  0.00     0.086 C 
HETATM   11  O8  UNL     1       1.461  -1.172   2.736  1.00  0.00    -0.220 OA
HETATM   12  O11 UNL     1       1.682  -0.025  -2.436  1.00  0.00    -0.190 OA
HETATM   13  O12 UNL     1       6.067   1.768  -2.799  1.00  0.00    -0.190 OA
ENDROOT
BRANCH  10  14
HETATM   14  C10 UNL     1       0.660   0.147   0.174  1.00  0.00     0.035 A 
HETATM   15  C11 UNL     1      -0.482  -0.648  -0.090  1.00  0.00     0.127 A 
HETATM   16  C12 UNL     1      -1.738  -0.037  -0.338  1.00  0.00     0.028 A 
HETATM   17  O7  UNL     1      -0.375  -1.986  -0.105  1.00  0.00    -0.191 OA
HETATM   18  C13 UNL     1      -1.844   1.385  -0.334  1.00  0.00     0.095 A 
HETATM   19  C18 UNL     1      -2.943  -0.871  -0.598  1.00  0.00     0.066 C 
HETATM   20  C14 UNL     1      -0.701   2.172  -0.066  1.00  0.00     0.051 A 
HETATM   21  O3  UNL     1      -3.018   2.010  -0.572  1.00  0.00    -0.327 OA
HETATM   22  C15 UNL     1       0.547   1.559   0.188  1.00  0.00     0.131 A 
HETATM   23  O2  UNL     1       1.619   2.322   0.441  1.00  0.00    -0.190 OA
HETATM   24  C16 UNL     1      -4.143   1.293  -1.096  1.00  0.00     0.174 C 
HETATM   25  C17 UNL     1      -4.262  -0.092  -0.416  1.00  0.00     0.188 C 
HETATM   26  O4  UNL     1      -4.529   0.051   0.971  1.00  0.00    -0.220 OA
BRANCH  24  27
HETATM   27  C19 UNL     1      -5.369   2.133  -0.977  1.00  0.00     0.010 A 
HETATM   28  C20 UNL     1      -5.523   3.002   0.115  1.00  0.00     0.000 A 
HETATM   29  C21 UNL     1      -6.680   3.793   0.225  1.00  0.00     0.029 A 
HETATM   30  C22 UNL     1      -7.684   3.717  -0.758  1.00  0.00     0.156 A 
HETATM   31  C23 UNL     1      -7.529   2.846  -1.852  1.00  0.00     0.156 A 
HETATM   32  O6  UNL     1      -8.766   4.463  -0.648  1.00  0.00    -0.188 OA
HETATM   33  C24 UNL     1      -6.371   2.055  -1.959  1.00  0.00     0.028 A 
HETATM   34  O5  UNL     1      -8.467   2.768  -2.775  1.00  0.00    -0.188 OA
ENDBRANCH  24  27
ENDBRANCH  10  14
BRANCH   8  35
HETATM   35  C25 UNL     1       4.139  -2.144   1.955  1.00  0.00     0.010 A 
HETATM   36  C26 UNL     1       4.897  -2.492   0.824  1.00  0.00     0.000 A 
HETATM   37  C27 UNL     1       5.221  -3.838   0.582  1.00  0.00     0.029 A 
HETATM   38  C28 UNL     1       4.787  -4.840   1.467  1.00  0.00     0.156 A 
HETATM   39  C29 UNL     1       4.025  -4.494   2.600  1.00  0.00     0.156 A 
HETATM   40  O10 UNL     1       5.094  -6.100   1.232  1.00  0.00    -0.188 OA
HETATM   41  C30 UNL     1       3.703  -3.146   2.842  1.00  0.00     0.028 A 
HETATM   42  O9  UNL     1       3.615  -5.428   3.436  1.00  0.00    -0.188 OA
ENDBRANCH   8  35
TORSDOF 3
