REMARK  11 active torsions:
REMARK  status: ('A' for Active; 'I' for Inactive)
REMARK    1  A    between atoms: C5_5  and  C7_7 
REMARK    2  A    between atoms: C7_7  and  C8_8 
REMARK    3  A    between atoms: C8_8  and  O1_9 
REMARK    4  A    between atoms: O1_9  and  C9_10 
REMARK    5  A    between atoms: C9_10  and  C10_12 
REMARK    6  A    between atoms: C10_12  and  C11_13 
REMARK    7  A    between atoms: C13_15  and  O5_23 
REMARK    8  A    between atoms: C16_18  and  C17_19 
REMARK    9  A    between atoms: C17_19  and  O4_21 
REMARK   10  A    between atoms: O5_23  and  C19_24 
REMARK   11  A    between atoms: C20_26  and  C24_33 
ROOT
HETATM    1  C11 UNL     1       1.215   0.422   1.643  1.00  0.00     0.057 C 
HETATM    2  C12 UNL     1       1.416  -1.082   1.537  1.00  0.00    -0.017 C 
HETATM    3  C13 UNL     1       2.758  -1.594   1.053  1.00  0.00     0.141 C 
HETATM    4  C14 UNL     1       3.904  -0.848   1.748  1.00  0.00     0.060 C 
HETATM    5  C15 UNL     1       3.723   0.652   1.752  1.00  0.00    -0.022 C 
HETATM    6  C16 UNL     1       2.504   1.231   1.715  1.00  0.00     0.041 C 
HETATM    7  C25 UNL     1       0.406  -1.912   1.877  1.00  0.00    -0.032 C 
HETATM    8  C26 UNL     1       0.518  -3.412   1.781  1.00  0.00     0.030 C 
ENDROOT
BRANCH   1   9
HETATM    9  C10 UNL     1       0.350   0.897   0.465  1.00  0.00     0.104 C 
BRANCH   9  10
HETATM   10  C9  UNL     1      -0.502   2.086   0.822  1.00  0.00     0.273 C 
HETATM   11  O2  UNL     1      -1.135   2.111   1.852  1.00  0.00    -0.264 OA
BRANCH  10  12
HETATM   12  O1  UNL     1      -0.496   3.074  -0.068  1.00  0.00    -0.301 OA
BRANCH  12  13
HETATM   13  C8  UNL     1      -1.703   3.822  -0.053  1.00  0.00     0.157 C 
BRANCH  13  14
HETATM   14  C7  UNL     1      -2.854   2.945  -0.547  1.00  0.00     0.059 C 
BRANCH  14  15
HETATM   15  C5  UNL     1      -4.174   3.492  -0.135  1.00  0.00    -0.017 A 
HETATM   16  C4  UNL     1      -4.395   4.879  -0.144  1.00  0.00    -0.002 A 
HETATM   17  C3  UNL     1      -5.643   5.393   0.244  1.00  0.00     0.029 A 
HETATM   18  C2  UNL     1      -6.674   4.524   0.643  1.00  0.00     0.156 A 
HETATM   19  C1  UNL     1      -6.453   3.133   0.652  1.00  0.00     0.156 A 
HETATM   20  O11 UNL     1      -7.842   5.012   1.006  1.00  0.00    -0.188 OA
HETATM   21  C6  UNL     1      -5.201   2.621   0.262  1.00  0.00     0.025 A 
HETATM   22  O12 UNL     1      -7.412   2.311   1.024  1.00  0.00    -0.188 OA
ENDBRANCH  14  15
ENDBRANCH  13  14
ENDBRANCH  12  13
ENDBRANCH  10  12
ENDBRANCH   9  10
ENDBRANCH   1   9
BRANCH   6  23
HETATM   23  C17 UNL     1       2.394   2.699   1.746  1.00  0.00     0.292 C 
HETATM   24  O3  UNL     1       2.125   3.315   0.742  1.00  0.00    -0.260 OA
BRANCH  23  25
HETATM   25  O4  UNL     1       2.607   3.268   2.930  1.00  0.00    -0.296 OA
HETATM   26  C18 UNL     1       2.031   2.529   3.996  1.00  0.00     0.185 C 
ENDBRANCH  23  25
ENDBRANCH   6  23
BRANCH   3  27
HETATM   27  O5  UNL     1       2.855  -1.412  -0.346  1.00  0.00    -0.327 OA
BRANCH  27  28
HETATM   28  C19 UNL     1       1.975  -2.242  -1.076  1.00  0.00     0.270 C 
HETATM   29  O6  UNL     1       2.426  -3.590  -0.945  1.00  0.00    -0.326 OA
HETATM   30  C20 UNL     1       2.094  -4.504  -1.994  1.00  0.00     0.184 C 
HETATM   31  C21 UNL     1       0.799  -4.117  -2.750  1.00  0.00     0.215 C 
HETATM   32  C22 UNL     1       0.867  -2.680  -3.332  1.00  0.00     0.220 C 
HETATM   33  O9  UNL     1      -0.301  -4.219  -1.863  1.00  0.00    -0.218 OA
HETATM   34  C23 UNL     1       1.889  -1.803  -2.561  1.00  0.00     0.241 C 
HETATM   35  O8  UNL     1       1.258  -2.744  -4.691  1.00  0.00    -0.218 OA
HETATM   36  O7  UNL     1       1.486  -0.447  -2.656  1.00  0.00    -0.215 OA
BRANCH  30  37
HETATM   37  C24 UNL     1       3.305  -4.580  -2.930  1.00  0.00     0.214 C 
HETATM   38  O10 UNL     1       4.178  -5.572  -2.441  1.00  0.00    -0.218 OA
ENDBRANCH  30  37
ENDBRANCH  27  28
ENDBRANCH   3  27
TORSDOF 11
