REMARK  8 active torsions:
REMARK  status: ('A' for Active; 'I' for Inactive)
REMARK    1  A    between atoms: C3_3  and  O2_18 
REMARK    2  A    between atoms: C5_5  and  C7_7 
REMARK    3  A    between atoms: C7_7  and  C8_8 
REMARK    4  A    between atoms: C9_9  and  C10_10 
REMARK    5  A    between atoms: C11_11  and  C12_12 
REMARK    6  A    between atoms: C12_12  and  C13_13 
REMARK    7  A    between atoms: C13_13  and  C14_14 
REMARK    8  A    between atoms: C14_14  and  C15_15 
ROOT
HETATM    1  C7  UNL     1      -1.656   0.049   2.123  1.00  0.00     0.052 C 
ENDROOT
BRANCH   1   2
HETATM    2  C5  UNL     1      -2.352  -1.266   2.123  1.00  0.00    -0.016 A 
HETATM    3  C4  UNL     1      -3.756  -1.319   2.123  1.00  0.00     0.022 A 
HETATM    4  C3  UNL     1      -4.418  -2.561   2.123  1.00  0.00     0.119 A 
HETATM    5  C2  UNL     1      -3.670  -3.752   2.123  1.00  0.00     0.153 A 
HETATM    6  C1  UNL     1      -2.266  -3.698   2.123  1.00  0.00     0.029 A 
HETATM    7  O3  UNL     1      -4.281  -4.920   2.123  1.00  0.00    -0.188 OA
HETATM    8  C6  UNL     1      -1.605  -2.457   2.123  1.00  0.00    -0.002 A 
BRANCH   4   9
HETATM    9  O2  UNL     1      -5.734  -2.602   2.123  1.00  0.00    -0.326 OA
HETATM   10  C17 UNL     1      -6.369  -3.602   1.340  1.00  0.00     0.181 C 
ENDBRANCH   4   9
ENDBRANCH   1   2
BRANCH   1  11
HETATM   11  C8  UNL     1      -0.682   0.174   0.984  1.00  0.00    -0.021 C 
HETATM   12  C9  UNL     1      -0.119   1.371   0.750  1.00  0.00    -0.004 C 
BRANCH  12  13
HETATM   13  C10 UNL     1       0.838   1.547  -0.350  1.00  0.00     0.003 C 
HETATM   14  C11 UNL     1       1.781   0.621  -0.590  1.00  0.00     0.037 C 
BRANCH  14  15
HETATM   15  C12 UNL     1       2.738   0.795  -1.690  1.00  0.00     0.173 C 
HETATM   16  O1  UNL     1       3.111  -0.156  -2.334  1.00  0.00    -0.291 OA
BRANCH  15  17
HETATM   17  C13 UNL     1       3.242   2.181  -1.992  1.00  0.00     0.069 C 
BRANCH  17  18
HETATM   18  C14 UNL     1       4.754   2.219  -2.211  1.00  0.00     0.008 C 
BRANCH  18  19
HETATM   19  C15 UNL     1       5.287   3.639  -2.408  1.00  0.00     0.001 C 
HETATM   20  C16 UNL     1       4.969   4.201  -3.793  1.00  0.00     0.000 C 
ENDBRANCH  18  19
ENDBRANCH  17  18
ENDBRANCH  15  17
ENDBRANCH  14  15
ENDBRANCH  12  13
ENDBRANCH   1  11
TORSDOF 8
