REMARK  4 active torsions:
REMARK  status: ('A' for Active; 'I' for Inactive)
REMARK    1  A    between atoms: C1_1  and  C40_55 
REMARK    2  A    between atoms: C3_4  and  C31_44 
REMARK    3  A    between atoms: C31_44  and  C32_45 
REMARK    4  A    between atoms: C35_48  and  O8_51 
ROOT
HETATM    1  C1  UNL     1      -0.813   4.154  -1.703  1.00  0.00     0.184 C 
HETATM    2  C2  UNL     1      -1.836   3.303  -0.959  1.00  0.00     0.256 C 
HETATM    3  N1  UNL     1      -2.674   2.391  -1.578  1.00  0.00    -0.310 N 
HETATM    4  C3  UNL     1      -3.604   1.553  -0.772  1.00  0.00     0.169 C 
HETATM    5  C4  UNL     1      -2.863   0.439  -0.053  1.00  0.00     0.273 C 
HETATM    6  O1  UNL     1      -2.815   0.441   1.158  1.00  0.00    -0.269 OA
HETATM    7  N2  UNL     1      -2.256  -0.572  -0.768  1.00  0.00    -0.229 NA
HETATM    8  C5  UNL     1      -1.549  -1.693  -0.094  1.00  0.00     0.185 C 
HETATM    9  C6  UNL     1      -0.877  -2.639  -1.080  1.00  0.00     0.256 C 
HETATM   10  N3  UNL     1       0.416  -3.111  -0.918  1.00  0.00    -0.310 N 
HETATM   11  C7  UNL     1       1.303  -2.742   0.234  1.00  0.00     0.167 C 
HETATM   12  C8  UNL     1       2.758  -3.184   0.008  1.00  0.00     0.255 C 
HETATM   13  N4  UNL     1       3.809  -2.348  -0.361  1.00  0.00    -0.310 N 
HETATM   14  C9  UNL     1       3.695  -0.869  -0.633  1.00  0.00     0.169 C 
HETATM   15  C10 UNL     1       3.188  -0.617  -2.049  1.00  0.00     0.273 C 
HETATM   16  N5  UNL     1       2.598   0.563  -2.469  1.00  0.00    -0.229 NA
HETATM   17  C11 UNL     1       2.316   1.830  -1.719  1.00  0.00     0.186 C 
HETATM   18  C12 UNL     1       0.885   2.301  -1.920  1.00  0.00     0.274 C 
HETATM   19  N6  UNL     1       0.557   3.596  -1.586  1.00  0.00    -0.229 NA
HETATM   20  O2  UNL     1       0.043   1.551  -2.363  1.00  0.00    -0.268 OA
HETATM   21  C13 UNL     1       2.615   1.803  -0.217  1.00  0.00     0.037 C 
HETATM   22  O3  UNL     1       3.301  -1.496  -2.875  1.00  0.00    -0.269 OA
HETATM   23  C14 UNL     1       5.053  -0.088  -0.410  1.00  0.00     0.058 C 
HETATM   24  C15 UNL     1       5.535   0.119   1.010  1.00  0.00    -0.018 A 
HETATM   25  C16 UNL     1       6.721   0.832   1.275  1.00  0.00    -0.002 A 
HETATM   26  C17 UNL     1       7.152   1.029   2.602  1.00  0.00     0.029 A 
HETATM   27  C18 UNL     1       6.412   0.516   3.686  1.00  0.00     0.154 A 
HETATM   28  C19 UNL     1       5.229  -0.211   3.453  1.00  0.00     0.125 A 
HETATM   29  C20 UNL     1       4.818  -0.385   2.100  1.00  0.00     0.023 A 
HETATM   30  O4  UNL     1       4.529  -0.711   4.490  1.00  0.00    -0.305 OA
HETATM   31  C21 UNL     1       3.463  -1.455   4.225  1.00  0.00     0.100 C 
HETATM   32  C22 UNL     1       2.209  -0.848   4.023  1.00  0.00     0.024 C 
HETATM   33  C23 UNL     1       1.252  -1.518   3.244  1.00  0.00    -0.002 C 
HETATM   34  C24 UNL     1       1.555  -2.789   2.723  1.00  0.00    -0.020 C 
HETATM   35  C25 UNL     1       2.650  -3.510   3.240  1.00  0.00    -0.002 C 
HETATM   36  C26 UNL     1       3.611  -2.840   4.012  1.00  0.00     0.024 C 
HETATM   37  C27 UNL     1       0.760  -3.338   1.580  1.00  0.00     0.058 C 
HETATM   38  O5  UNL     1       6.834   0.713   4.918  1.00  0.00    -0.188 OA
HETATM   39  C28 UNL     1       5.145  -2.963  -0.518  1.00  0.00     0.129 C 
HETATM   40  O6  UNL     1       2.998  -4.361   0.172  1.00  0.00    -0.270 OA
HETATM   41  C29 UNL     1       0.943  -4.035  -1.947  1.00  0.00     0.129 C 
HETATM   42  O7  UNL     1      -1.512  -2.998  -2.049  1.00  0.00    -0.270 OA
HETATM   43  C30 UNL     1      -2.551  -2.486   0.752  1.00  0.00     0.037 C 
HETATM   44  C39 UNL     1      -2.654   2.199  -3.043  1.00  0.00     0.129 C 
HETATM   45  O9  UNL     1      -1.902   3.438   0.242  1.00  0.00    -0.270 OA
ENDROOT
BRANCH   4  46
HETATM   46  C31 UNL     1      -4.772   1.012  -1.609  1.00  0.00     0.058 C 
BRANCH  46  47
HETATM   47  C32 UNL     1      -5.883   0.527  -0.750  1.00  0.00    -0.020 A 
HETATM   48  C33 UNL     1      -6.772   1.447  -0.164  1.00  0.00    -0.002 A 
HETATM   49  C34 UNL     1      -7.822   0.988   0.648  1.00  0.00     0.024 A 
HETATM   50  C35 UNL     1      -7.990  -0.389   0.879  1.00  0.00     0.094 A 
HETATM   51  C36 UNL     1      -7.100  -1.305   0.293  1.00  0.00     0.024 A 
HETATM   52  C37 UNL     1      -6.049  -0.850  -0.522  1.00  0.00    -0.002 A 
BRANCH  50  53
HETATM   53  O8  UNL     1      -8.977  -0.816   1.641  1.00  0.00    -0.328 OA
HETATM   54  C38 UNL     1      -9.848   0.150   2.211  1.00  0.00     0.181 C 
ENDBRANCH  50  53
ENDBRANCH  46  47
ENDBRANCH   4  46
BRANCH   1  55
HETATM   55  C40 UNL     1      -1.125   4.518  -3.162  1.00  0.00     0.034 C 
HETATM   56  C41 UNL     1      -0.543   5.871  -3.570  1.00  0.00     0.003 C 
ENDBRANCH   1  55
TORSDOF 4
