REMARK  5 active torsions:
REMARK  status: ('A' for Active; 'I' for Inactive)
REMARK    1  A    between atoms: C3_3  and  C25_38 
REMARK    2  A    between atoms: C4_5  and  C6_8 
REMARK    3  A    between atoms: C16_21  and  O7_25 
REMARK    4  A    between atoms: O7_25  and  C19_26 
REMARK    5  A    between atoms: C20_28  and  C24_35 
ROOT
HETATM    1  C6  UNL     1       3.520   0.914   1.141  1.00  0.00     0.058 A 
HETATM    2  C7  UNL     1       2.313   0.180   1.262  1.00  0.00     0.136 A 
HETATM    3  C8  UNL     1       1.090   0.740   0.797  1.00  0.00     0.087 A 
HETATM    4  C9  UNL     1       1.090   2.037   0.209  1.00  0.00     0.107 A 
HETATM    5  C10 UNL     1       2.299   2.762   0.094  1.00  0.00     0.052 A 
HETATM    6  C11 UNL     1       3.510   2.203   0.559  1.00  0.00     0.133 A 
HETATM    7  O3  UNL     1       4.649   2.904   0.441  1.00  0.00    -0.190 OA
HETATM    8  O4  UNL     1      -0.055   2.592  -0.242  1.00  0.00    -0.307 OA
HETATM    9  C12 UNL     1      -1.262   1.994  -0.180  1.00  0.00     0.105 A 
HETATM   10  C13 UNL     1      -1.400   0.697   0.391  1.00  0.00     0.064 A 
HETATM   11  C14 UNL     1      -0.199  -0.025   0.922  1.00  0.00     0.201 A 
HETATM   12  O5  UNL     1      -0.267  -1.131   1.410  1.00  0.00    -0.286 OA
HETATM   13  C15 UNL     1      -2.682   0.090   0.453  1.00  0.00     0.032 A 
HETATM   14  C16 UNL     1      -3.814   0.768  -0.053  1.00  0.00     0.122 A 
HETATM   15  C17 UNL     1      -3.674   2.055  -0.623  1.00  0.00     0.155 A 
HETATM   16  C18 UNL     1      -2.400   2.666  -0.686  1.00  0.00     0.054 A 
HETATM   17  O6  UNL     1      -4.746   2.699  -1.105  1.00  0.00    -0.188 OA
HETATM   18  O13 UNL     1       2.338  -1.041   1.816  1.00  0.00    -0.190 OA
ENDROOT
BRANCH  14  19
HETATM   19  O7  UNL     1      -5.021   0.188   0.012  1.00  0.00    -0.301 OA
BRANCH  19  20
HETATM   20  C19 UNL     1      -5.576  -0.332  -1.189  1.00  0.00     0.274 C 
HETATM   21  O8  UNL     1      -4.826  -1.480  -1.576  1.00  0.00    -0.326 OA
HETATM   22  C20 UNL     1      -5.258  -2.129  -2.773  1.00  0.00     0.184 C 
HETATM   23  C21 UNL     1      -6.732  -2.588  -2.641  1.00  0.00     0.215 C 
HETATM   24  C22 UNL     1      -7.641  -1.412  -2.209  1.00  0.00     0.220 C 
HETATM   25  O11 UNL     1      -6.793  -3.650  -1.699  1.00  0.00    -0.218 OA
HETATM   26  C23 UNL     1      -7.057  -0.713  -0.963  1.00  0.00     0.241 C 
HETATM   27  O10 UNL     1      -8.967  -1.857  -1.973  1.00  0.00    -0.218 OA
HETATM   28  O9  UNL     1      -7.787   0.467  -0.680  1.00  0.00    -0.215 OA
BRANCH  22  29
HETATM   29  C24 UNL     1      -5.037  -1.187  -3.963  1.00  0.00     0.214 C 
HETATM   30  O12 UNL     1      -3.668  -0.857  -4.016  1.00  0.00    -0.218 OA
ENDBRANCH  22  29
ENDBRANCH  19  20
ENDBRANCH  14  19
BRANCH   1  31
HETATM   31  C4  UNL     1       4.785   0.332   1.621  1.00  0.00     0.175 C 
HETATM   32  O1  UNL     1       5.754   0.494   0.586  1.00  0.00    -0.347 OA
HETATM   33  C3  UNL     1       7.043  -0.058   0.840  1.00  0.00     0.181 C 
HETATM   34  C2  UNL     1       7.637   0.594   2.111  1.00  0.00     0.214 C 
HETATM   35  C1  UNL     1       6.699   0.483   3.336  1.00  0.00     0.218 C 
HETATM   36  O15 UNL     1       8.918   0.055   2.385  1.00  0.00    -0.218 OA
HETATM   37  C5  UNL     1       5.301   1.002   2.928  1.00  0.00     0.216 C 
HETATM   38  O16 UNL     1       6.621  -0.865   3.781  1.00  0.00    -0.218 OA
HETATM   39  O2  UNL     1       4.373   0.815   3.984  1.00  0.00    -0.218 OA
BRANCH  33  40
HETATM   40  C25 UNL     1       6.930  -1.592   0.889  1.00  0.00     0.214 C 
HETATM   41  O14 UNL     1       6.531  -2.045  -0.385  1.00  0.00    -0.218 OA
ENDBRANCH  33  40
ENDBRANCH   1  31
TORSDOF 5
