REMARK  1 active torsions:
REMARK  status: ('A' for Active; 'I' for Inactive)
REMARK    1  A    between atoms: C4_4  and  C12_12 
ROOT
HETATM    1  C1  UNL     1      -1.049  -1.733  -0.686  1.00  0.00     0.022 C 
HETATM    2  C2  UNL     1      -2.299  -1.252   0.072  1.00  0.00     0.004 C 
HETATM    3  C3  UNL     1      -2.338   0.277   0.256  1.00  0.00     0.004 C 
HETATM    4  C4  UNL     1      -0.959   0.990   0.271  1.00  0.00     0.022 C 
HETATM    5  C5  UNL     1       0.199   0.084   0.506  1.00  0.00    -0.027 A 
HETATM    6  C6  UNL     1       1.334   0.557   1.211  1.00  0.00    -0.009 A 
HETATM    7  C7  UNL     1       2.455  -0.281   1.406  1.00  0.00    -0.022 A 
HETATM    8  C8  UNL     1       2.449  -1.598   0.895  1.00  0.00    -0.004 A 
HETATM    9  C9  UNL     1       1.317  -2.084   0.201  1.00  0.00    -0.005 A 
HETATM   10  C10 UNL     1       0.178  -1.254   0.014  1.00  0.00    -0.026 A 
HETATM   11  C11 UNL     1       3.629   0.219   2.141  1.00  0.00     0.031 C 
HETATM   12  C15 UNL     1      -1.105  -3.256  -0.877  1.00  0.00     0.004 C 
ENDROOT
BRANCH   4  13
HETATM   13  C12 UNL     1      -0.725   1.775  -1.025  1.00  0.00     0.004 C 
HETATM   14  C13 UNL     1      -1.664   2.973  -1.168  1.00  0.00     0.000 C 
HETATM   15  C14 UNL     1       0.742   2.148  -1.232  1.00  0.00     0.000 C 
ENDBRANCH   4  13
TORSDOF 1
