REMARK  0 active torsions:
REMARK  status: ('A' for Active; 'I' for Inactive)
ROOT
HETATM    1  C1  UNL     1      -2.424   0.514  -0.963  1.00  0.00     0.001 C 
HETATM    2  C2  UNL     1      -1.170   1.248  -0.434  1.00  0.00     0.003 C 
HETATM    3  C3  UNL     1      -0.039   0.238  -0.031  1.00  0.00     0.019 C 
HETATM    4  C4  UNL     1      -0.643  -0.791   0.928  1.00  0.00    -0.044 C 
HETATM    5  C5  UNL     1      -1.902  -1.504   0.486  1.00  0.00     0.022 C 
HETATM    6  C6  UNL     1      -2.975  -0.506   0.045  1.00  0.00     0.004 C 
HETATM    7  C7  UNL     1      -0.104  -1.072   2.131  1.00  0.00    -0.009 C 
HETATM    8  C8  UNL     1       1.162   1.002   0.602  1.00  0.00     0.029 C 
HETATM    9  C9  UNL     1       2.436   0.195   0.746  1.00  0.00    -0.034 C 
HETATM   10  C10 UNL     1       2.656  -0.937   0.049  1.00  0.00    -0.048 C 
HETATM   11  C11 UNL     1       1.631  -1.502  -0.908  1.00  0.00     0.022 C 
HETATM   12  C12 UNL     1       0.514  -0.510  -1.271  1.00  0.00     0.008 C 
HETATM   13  C13 UNL     1       3.955  -1.685   0.209  1.00  0.00     0.026 C 
HETATM   14  C14 UNL     1      -0.686   2.215  -1.523  1.00  0.00     0.000 C 
HETATM   15  C15 UNL     1      -1.580   2.096   0.779  1.00  0.00     0.000 C 
ENDROOT
TORSDOF 0
