REMARK  4 active torsions:
REMARK  status: ('A' for Active; 'I' for Inactive)
REMARK    1  A    between atoms: C1_1  and  C2_2 
REMARK    2  A    between atoms: C1_1  and  C8_8 
REMARK    3  A    between atoms: C2_2  and  C3_3 
REMARK    4  A    between atoms: C3_3  and  C4_4 
ROOT
HETATM    1  C2  UNL     1      -1.084  -0.498   0.529  1.00  0.00     0.009 C 
ENDROOT
BRANCH   1   2
HETATM    2  C1  UNL     1      -1.488  -1.329  -0.689  1.00  0.00     0.019 C 
HETATM    3  C10 UNL     1      -2.692  -2.230  -0.416  1.00  0.00     0.004 C 
HETATM    4  C11 UNL     1      -1.658  -0.482  -1.951  1.00  0.00     0.004 C 
BRANCH   2   5
HETATM    5  C8  UNL     1      -0.188  -2.088  -0.679  1.00  0.00    -0.027 C 
HETATM    6  C9  UNL     1       0.530  -2.144  -1.812  1.00  0.00    -0.005 C 
ENDBRANCH   2   5
ENDBRANCH   1   2
BRANCH   1   7
HETATM    7  C3  UNL     1      -0.018   0.549   0.203  1.00  0.00     0.026 C 
BRANCH   7   8
HETATM    8  C4  UNL     1       0.493   1.251   1.432  1.00  0.00    -0.034 C 
HETATM    9  C5  UNL     1       1.650   1.927   1.349  1.00  0.00    -0.048 C 
HETATM   10  C6  UNL     1       2.162   2.629   2.579  1.00  0.00     0.026 C 
HETATM   11  C7  UNL     1       2.376   1.950   0.031  1.00  0.00     0.026 C 
ENDBRANCH   7   8
ENDBRANCH   1   7
TORSDOF 4
