REMARK  7 active torsions:
REMARK  status: ('A' for Active; 'I' for Inactive)
REMARK    1  A    between atoms: C1_1  and  O7_25 
REMARK    2  A    between atoms: C7_8  and  C10_12 
REMARK    3  A    between atoms: C12_14  and  O5_22 
REMARK    4  A    between atoms: C13_15  and  O4_20 
REMARK    5  A    between atoms: C14_16  and  O3_18 
REMARK    6  A    between atoms: O7_25  and  C19_26 
REMARK    7  A    between atoms: C23_33  and  C24_35 
ROOT
HETATM    1  C1  UNL     1      -2.053  -0.352   0.256  1.00  0.00     0.101 A 
HETATM    2  C2  UNL     1      -1.898  -1.660   0.773  1.00  0.00     0.052 A 
HETATM    3  C3  UNL     1      -0.605  -2.195   0.980  1.00  0.00     0.138 A 
HETATM    4  C4  UNL     1       0.535  -1.414   0.666  1.00  0.00     0.087 A 
HETATM    5  C5  UNL     1       0.383  -0.100   0.148  1.00  0.00     0.107 A 
HETATM    6  C6  UNL     1      -0.912   0.428  -0.057  1.00  0.00     0.049 A 
HETATM    7  O1  UNL     1       1.471   0.647  -0.150  1.00  0.00    -0.307 OA
HETATM    8  C7  UNL     1       2.738   0.217   0.018  1.00  0.00     0.103 A 
HETATM    9  C8  UNL     1       3.006  -1.018   0.502  1.00  0.00     0.067 A 
HETATM   10  C9  UNL     1       1.912  -1.943   0.869  1.00  0.00     0.202 A 
HETATM   11  O2  UNL     1       2.231  -3.031   1.295  1.00  0.00    -0.286 OA
HETATM   12  O6  UNL     1      -0.479  -3.437   1.471  1.00  0.00    -0.190 OA
ENDROOT
BRANCH   1  13
HETATM   13  O7  UNL     1      -3.279   0.152   0.061  1.00  0.00    -0.303 OA
BRANCH  13  14
HETATM   14  C19 UNL     1      -4.361  -0.762  -0.082  1.00  0.00     0.274 C 
HETATM   15  C20 UNL     1      -5.451  -0.178  -1.008  1.00  0.00     0.241 C 
HETATM   16  O8  UNL     1      -5.959   1.024  -0.449  1.00  0.00    -0.215 OA
HETATM   17  C21 UNL     1      -6.608  -1.191  -1.211  1.00  0.00     0.220 C 
HETATM   18  O9  UNL     1      -6.406  -1.887  -2.428  1.00  0.00    -0.218 OA
HETATM   19  C22 UNL     1      -6.658  -2.227  -0.055  1.00  0.00     0.215 C 
HETATM   20  O10 UNL     1      -7.979  -2.719   0.076  1.00  0.00    -0.218 OA
HETATM   21  C23 UNL     1      -6.209  -1.586   1.279  1.00  0.00     0.184 C 
HETATM   22  O11 UNL     1      -4.859  -1.121   1.209  1.00  0.00    -0.326 OA
BRANCH  21  23
HETATM   23  C24 UNL     1      -6.285  -2.533   2.481  1.00  0.00     0.214 C 
HETATM   24  O12 UNL     1      -6.065  -1.779   3.652  1.00  0.00    -0.218 OA
ENDBRANCH  21  23
ENDBRANCH  13  14
ENDBRANCH   1  13
BRANCH   8  25
HETATM   25  C10 UNL     1       3.879   1.113  -0.338  1.00  0.00     0.027 A 
HETATM   26  C11 UNL     1       5.123   0.563  -0.699  1.00  0.00     0.028 A 
HETATM   27  C12 UNL     1       6.197   1.404  -1.033  1.00  0.00     0.118 A 
HETATM   28  C13 UNL     1       6.029   2.801  -1.006  1.00  0.00     0.138 A 
HETATM   29  C14 UNL     1       4.787   3.354  -0.646  1.00  0.00     0.118 A 
HETATM   30  C15 UNL     1       3.715   2.510  -0.313  1.00  0.00     0.028 A 
BRANCH  27  31
HETATM   31  O5  UNL     1       7.359   0.883  -1.369  1.00  0.00    -0.326 OA
HETATM   32  C18 UNL     1       7.477  -0.533  -1.385  1.00  0.00     0.181 C 
ENDBRANCH  27  31
BRANCH  28  33
HETATM   33  O4  UNL     1       7.037   3.592  -1.320  1.00  0.00    -0.324 OA
HETATM   34  C17 UNL     1       8.326   3.260  -0.824  1.00  0.00     0.182 C 
ENDBRANCH  28  33
BRANCH  29  35
HETATM   35  O3  UNL     1       4.625   4.662  -0.619  1.00  0.00    -0.326 OA
HETATM   36  C16 UNL     1       3.348   5.168  -0.262  1.00  0.00     0.181 C 
ENDBRANCH  29  35
ENDBRANCH   8  25
TORSDOF 7
