REMARK  2 active torsions:
REMARK  status: ('A' for Active; 'I' for Inactive)
REMARK    1  A    between atoms: C2_2  and  C10_14 
REMARK    2  A    between atoms: C10_14  and  C11_15 
ROOT
HETATM    1  C1  UNL     1      -0.633  -1.428   2.250  1.00  0.00     0.157 C 
HETATM    2  C2  UNL     1      -0.965  -0.369   1.186  1.00  0.00     0.097 C 
HETATM    3  C3  UNL     1       0.205   0.572   0.973  1.00  0.00     0.179 C 
HETATM    4  C4  UNL     1       1.565  -0.016   1.150  1.00  0.00     0.083 A 
HETATM    5  C5  UNL     1       2.727   0.744   0.852  1.00  0.00     0.138 A 
HETATM    6  C6  UNL     1       4.006   0.152   0.979  1.00  0.00     0.055 A 
HETATM    7  C7  UNL     1       4.129  -1.191   1.400  1.00  0.00     0.135 A 
HETATM    8  C8  UNL     1       2.973  -1.943   1.715  1.00  0.00     0.052 A 
HETATM    9  C9  UNL     1       1.692  -1.356   1.611  1.00  0.00     0.101 A 
HETATM   10  O1  UNL     1       0.608  -2.080   1.955  1.00  0.00    -0.330 OA
HETATM   11  O2  UNL     1       5.342  -1.752   1.504  1.00  0.00    -0.190 OA
HETATM   12  O3  UNL     1       2.633   2.018   0.441  1.00  0.00    -0.190 OA
HETATM   13  O4  UNL     1      -0.056   1.715   0.674  1.00  0.00    -0.291 OA
ENDROOT
BRANCH   2  14
HETATM   14  C10 UNL     1      -1.365  -1.018  -0.143  1.00  0.00     0.039 C 
BRANCH  14  15
HETATM   15  C11 UNL     1      -1.877  -0.012  -1.111  1.00  0.00     0.004 A 
HETATM   16  C12 UNL     1      -3.187   0.490  -0.992  1.00  0.00     0.129 A 
HETATM   17  C13 UNL     1      -3.656   1.441  -1.916  1.00  0.00     0.054 A 
HETATM   18  O6  UNL     1      -3.976   0.076  -0.020  1.00  0.00    -0.190 OA
HETATM   19  C14 UNL     1      -2.824   1.893  -2.957  1.00  0.00     0.133 A 
HETATM   20  C15 UNL     1      -1.517   1.389  -3.072  1.00  0.00     0.027 A 
HETATM   21  O5  UNL     1      -3.269   2.783  -3.820  1.00  0.00    -0.190 OA
HETATM   22  C16 UNL     1      -1.045   0.437  -2.152  1.00  0.00    -0.000 A 
ENDBRANCH  14  15
ENDBRANCH   2  14
TORSDOF 2
