REMARK  4 active torsions:
REMARK  status: ('A' for Active; 'I' for Inactive)
REMARK    1  A    between atoms: C3_3  and  O2_7 
REMARK    2  A    between atoms: O2_7  and  C6_8 
REMARK    3  A    between atoms: C7_10  and  C11_17 
REMARK    4  A    between atoms: C12_19  and  C15_23 
ROOT
HETATM    1  C1  UNL     1       2.457  -1.926   1.977  1.00  0.00     0.067 C 
HETATM    2  C2  UNL     1       1.607  -0.637   1.979  1.00  0.00     0.084 C 
HETATM    3  C3  UNL     1       0.420  -0.830   1.018  1.00  0.00     0.246 C 
HETATM    4  O1  UNL     1      -0.344  -1.990   1.357  1.00  0.00    -0.304 OA
HETATM    5  C4  UNL     1       0.332  -3.139   1.533  1.00  0.00     0.115 C 
HETATM    6  C5  UNL     1       1.652  -3.193   1.799  1.00  0.00     0.003 C 
HETATM    7  C12 UNL     1       2.586   0.402   1.496  1.00  0.00    -0.008 C 
HETATM    8  C13 UNL     1       3.631  -0.150   0.869  1.00  0.00     0.001 C 
HETATM    9  C14 UNL     1       3.490  -1.647   0.863  1.00  0.00     0.178 C 
HETATM   10  O8  UNL     1       4.721  -2.279   1.145  1.00  0.00    -0.218 OA
ENDROOT
BRANCH   3  11
HETATM   11  O2  UNL     1      -0.422   0.303   1.057  1.00  0.00    -0.304 OA
BRANCH  11  12
HETATM   12  C6  UNL     1      -1.498   0.228   0.143  1.00  0.00     0.272 C 
HETATM   13  O3  UNL     1      -0.973   0.314  -1.176  1.00  0.00    -0.326 OA
HETATM   14  C7  UNL     1      -1.939   0.228  -2.221  1.00  0.00     0.184 C 
HETATM   15  C8  UNL     1      -2.979   1.375  -2.100  1.00  0.00     0.215 C 
HETATM   16  O4  UNL     1      -2.361   2.625  -2.365  1.00  0.00    -0.218 OA
HETATM   17  C9  UNL     1      -3.609   1.428  -0.691  1.00  0.00     0.220 C 
HETATM   18  C10 UNL     1      -2.498   1.389   0.389  1.00  0.00     0.241 C 
HETATM   19  O6  UNL     1      -4.473   0.309  -0.563  1.00  0.00    -0.218 OA
HETATM   20  O5  UNL     1      -3.070   1.299   1.684  1.00  0.00    -0.215 OA
BRANCH  14  21
HETATM   21  C11 UNL     1      -1.184   0.228  -3.555  1.00  0.00     0.214 C 
HETATM   22  O7  UNL     1      -0.477  -0.986  -3.660  1.00  0.00    -0.218 OA
ENDBRANCH  14  21
ENDBRANCH  11  12
ENDBRANCH   3  11
BRANCH   7  23
HETATM   23  C15 UNL     1       2.395   1.881   1.711  1.00  0.00     0.205 C 
HETATM   24  O9  UNL     1       2.264   2.523   0.463  1.00  0.00    -0.216 OA
ENDBRANCH   7  23
TORSDOF 4
