REMARK  5 active torsions:
REMARK  status: ('A' for Active; 'I' for Inactive)
REMARK    1  A    between atoms: C1_1  and  O9_29 
REMARK    2  A    between atoms: C10_13  and  C13_18 
REMARK    3  A    between atoms: C11_14  and  C12_16 
REMARK    4  A    between atoms: C15_20  and  O8_27 
REMARK    5  A    between atoms: C17_22  and  O6_24 
ROOT
HETATM    1  C1  UNL     1      -0.992   1.726  -1.891  1.00  0.00     0.118 A 
HETATM    2  C2  UNL     1      -0.192   0.623  -1.506  1.00  0.00     0.140 A 
HETATM    3  C3  UNL     1      -0.803  -0.611  -1.150  1.00  0.00     0.141 A 
HETATM    4  C4  UNL     1      -2.205  -0.762  -1.260  1.00  0.00     0.128 A 
HETATM    5  C5  UNL     1      -2.998   0.342  -1.676  1.00  0.00     0.027 A 
HETATM    6  C6  UNL     1      -2.397   1.588  -1.975  1.00  0.00     0.028 A 
HETATM    7  C7  UNL     1      -4.469   0.154  -1.781  1.00  0.00     0.008 A 
HETATM    8  C8  UNL     1      -4.994  -1.051  -1.486  1.00  0.00     0.069 A 
HETATM    9  C9  UNL     1      -4.112  -2.158  -1.060  1.00  0.00     0.300 A 
HETATM   10  O1  UNL     1      -2.783  -1.949  -0.971  1.00  0.00    -0.271 OA
HETATM   11  O2  UNL     1      -4.615  -3.227  -0.803  1.00  0.00    -0.259 OA
HETATM   12  O3  UNL     1      -0.047  -1.639  -0.709  1.00  0.00    -0.322 OA
HETATM   13  C10 UNL     1       1.330  -1.428  -0.365  1.00  0.00     0.174 C 
HETATM   14  C11 UNL     1       1.965  -0.445  -1.377  1.00  0.00     0.186 C 
HETATM   15  O4  UNL     1       1.154   0.736  -1.475  1.00  0.00    -0.324 OA
ENDROOT
BRANCH  13  16
HETATM   16  C13 UNL     1       1.430  -0.938   1.039  1.00  0.00     0.012 A 
HETATM   17  C14 UNL     1       0.266  -0.731   1.799  1.00  0.00     0.025 A 
HETATM   18  C15 UNL     1       0.357  -0.270   3.123  1.00  0.00     0.121 A 
HETATM   19  C16 UNL     1       1.619  -0.012   3.690  1.00  0.00     0.175 A 
HETATM   20  C17 UNL     1       2.787  -0.217   2.932  1.00  0.00     0.121 A 
HETATM   21  O7  UNL     1       1.707   0.422   4.932  1.00  0.00    -0.186 OA
HETATM   22  C18 UNL     1       2.689  -0.680   1.608  1.00  0.00     0.025 A 
BRANCH  18  23
HETATM   23  O8  UNL     1      -0.740  -0.078   3.830  1.00  0.00    -0.326 OA
HETATM   24  C20 UNL     1      -1.990  -0.299   3.193  1.00  0.00     0.181 C 
ENDBRANCH  18  23
BRANCH  20  25
HETATM   25  O6  UNL     1       3.971   0.021   3.459  1.00  0.00    -0.326 OA
HETATM   26  C19 UNL     1       5.117  -0.201   2.651  1.00  0.00     0.181 C 
ENDBRANCH  20  25
ENDBRANCH  13  16
BRANCH  14  27
HETATM   27  C12 UNL     1       2.094  -1.074  -2.769  1.00  0.00     0.215 C 
HETATM   28  O5  UNL     1       2.693  -0.131  -3.627  1.00  0.00    -0.218 OA
ENDBRANCH  14  27
BRANCH   1  29
HETATM   29  O9  UNL     1      -0.418   2.904  -2.180  1.00  0.00    -0.326 OA
HETATM   30  C21 UNL     1      -1.262   3.980  -2.562  1.00  0.00     0.181 C 
ENDBRANCH   1  29
TORSDOF 5
