REMARK  6 active torsions:
REMARK  status: ('A' for Active; 'I' for Inactive)
REMARK    1  A    between atoms: C3_3  and  O10_31 
REMARK    2  A    between atoms: C4_4  and  O3_9 
REMARK    3  A    between atoms: C5_6  and  C6_7 
REMARK    4  A    between atoms: O3_9  and  C7_10 
REMARK    5  A    between atoms: C8_11  and  C16_23 
REMARK    6  A    between atoms: O10_31  and  C22_32 
ROOT
HETATM    1  O3  UNL     1       0.916  -0.949  -1.283  1.00  0.00    -0.298 OA
ENDROOT
BRANCH   1   2
HETATM    2  C4  UNL     1       1.609  -0.232  -0.266  1.00  0.00     0.271 C 
HETATM    3  C3  UNL     1       1.516  -0.973   1.088  1.00  0.00     0.207 C 
HETATM    4  C2  UNL     1       2.283  -2.313   1.051  1.00  0.00     0.217 C 
HETATM    5  C1  UNL     1       3.717  -2.070   0.529  1.00  0.00     0.215 C 
HETATM    6  O15 UNL     1       2.332  -2.873   2.354  1.00  0.00    -0.218 OA
HETATM    7  C5  UNL     1       3.713  -1.271  -0.795  1.00  0.00     0.184 C 
HETATM    8  O16 UNL     1       4.365  -3.311   0.309  1.00  0.00    -0.218 OA
HETATM    9  O1  UNL     1       2.975  -0.066  -0.627  1.00  0.00    -0.326 OA
BRANCH   3  10
HETATM   10  O10 UNL     1       0.152  -1.191   1.400  1.00  0.00    -0.324 OA
BRANCH  10  11
HETATM   11  C22 UNL     1      -0.150  -0.969   2.766  1.00  0.00     0.270 C 
HETATM   12  C23 UNL     1      -1.559  -1.527   3.092  1.00  0.00     0.241 C 
HETATM   13  O11 UNL     1      -1.691  -1.598   4.504  1.00  0.00    -0.215 OA
HETATM   14  C24 UNL     1      -2.670  -0.641   2.479  1.00  0.00     0.220 C 
HETATM   15  O12 UNL     1      -3.955  -1.078   2.895  1.00  0.00    -0.218 OA
HETATM   16  C25 UNL     1      -2.438   0.842   2.842  1.00  0.00     0.212 C 
HETATM   17  O13 UNL     1      -3.352   1.660   2.135  1.00  0.00    -0.218 OA
HETATM   18  C26 UNL     1      -1.000   1.283   2.486  1.00  0.00     0.151 C 
HETATM   19  O14 UNL     1      -0.055   0.414   3.108  1.00  0.00    -0.329 OA
HETATM   20  C27 UNL     1      -0.678   2.701   2.967  1.00  0.00     0.035 C 
ENDBRANCH  10  11
ENDBRANCH   3  10
BRANCH   7  21
HETATM   21  C6  UNL     1       5.119  -0.869  -1.248  1.00  0.00     0.214 C 
HETATM   22  O2  UNL     1       5.039  -0.398  -2.576  1.00  0.00    -0.218 OA
ENDBRANCH   7  21
ENDBRANCH   1   2
BRANCH   1  23
HETATM   23  C7  UNL     1      -0.342  -0.531  -1.430  1.00  0.00     0.158 A 
HETATM   24  C8  UNL     1      -0.621   0.699  -1.924  1.00  0.00     0.125 A 
HETATM   25  O4  UNL     1      -1.891   1.133  -2.078  1.00  0.00    -0.305 OA
HETATM   26  C9  UNL     1      -2.977   0.397  -1.756  1.00  0.00     0.107 A 
HETATM   27  C10 UNL     1      -2.822  -0.910  -1.227  1.00  0.00     0.089 A 
HETATM   28  C15 UNL     1      -4.274   0.928  -1.949  1.00  0.00     0.052 A 
HETATM   29  C11 UNL     1      -1.445  -1.441  -1.039  1.00  0.00     0.224 A 
HETATM   30  C12 UNL     1      -3.963  -1.684  -0.889  1.00  0.00     0.138 A 
HETATM   31  O5  UNL     1      -1.137  -2.529  -0.605  1.00  0.00    -0.284 OA
HETATM   32  C13 UNL     1      -5.256  -1.145  -1.082  1.00  0.00     0.055 A 
HETATM   33  O7  UNL     1      -3.834  -2.920  -0.385  1.00  0.00    -0.190 OA
HETATM   34  C14 UNL     1      -5.412   0.158  -1.611  1.00  0.00     0.135 A 
HETATM   35  O6  UNL     1      -6.639   0.666  -1.795  1.00  0.00    -0.190 OA
BRANCH  24  36
HETATM   36  C16 UNL     1       0.502   1.607  -2.312  1.00  0.00     0.027 A 
HETATM   37  C17 UNL     1       0.502   2.949  -1.894  1.00  0.00     0.004 A 
HETATM   38  C18 UNL     1       1.559   3.799  -2.260  1.00  0.00     0.030 A 
HETATM   39  C19 UNL     1       2.619   3.313  -3.045  1.00  0.00     0.156 A 
HETATM   40  C20 UNL     1       2.621   1.969  -3.465  1.00  0.00     0.156 A 
HETATM   41  O9  UNL     1       3.607   4.115  -3.385  1.00  0.00    -0.188 OA
HETATM   42  C21 UNL     1       1.563   1.119  -3.098  1.00  0.00     0.032 A 
HETATM   43  O8  UNL     1       3.611   1.504  -4.201  1.00  0.00    -0.188 OA
ENDBRANCH  24  36
ENDBRANCH   1  23
TORSDOF 6
