REMARK  11 active torsions:
REMARK  status: ('A' for Active; 'I' for Inactive)
REMARK    1  A    between atoms: C1_1  and  C2_2 
REMARK    2  A    between atoms: C1_1  and  C17_21 
REMARK    3  A    between atoms: C2_2  and  C3_3 
REMARK    4  A    between atoms: C3_3  and  C4_4 
REMARK    5  A    between atoms: C4_4  and  C5_5 
REMARK    6  A    between atoms: C5_5  and  C6_6 
REMARK    7  A    between atoms: C5_5  and  O3_17 
REMARK    8  A    between atoms: C6_6  and  C7_7 
REMARK    9  A    between atoms: C7_7  and  C8_8 
REMARK   10  A    between atoms: C10_10  and  O2_15 
REMARK   11  A    between atoms: O3_17  and  C15_18 
ROOT
HETATM    1  C5  UNL     1       0.713   0.666  -1.498  1.00  0.00     0.123 C 
ENDROOT
BRANCH   1   2
HETATM    2  C4  UNL     1      -0.652   1.082  -2.047  1.00  0.00     0.094 C 
BRANCH   2   3
HETATM    3  C3  UNL     1      -1.783   0.684  -1.137  1.00  0.00     0.153 C 
HETATM    4  O4  UNL     1      -2.289   1.484  -0.387  1.00  0.00    -0.296 OA
BRANCH   3   5
HETATM    5  C2  UNL     1      -2.262  -0.742  -1.188  1.00  0.00     0.069 C 
BRANCH   5   6
HETATM    6  C1  UNL     1      -2.633  -1.184  -2.604  1.00  0.00     0.034 C 
BRANCH   6   7
HETATM    7  C17 UNL     1      -3.328  -2.496  -2.604  1.00  0.00    -0.022 A 
HETATM    8  C18 UNL     1      -4.734  -2.549  -2.604  1.00  0.00    -0.004 A 
HETATM    9  C19 UNL     1      -5.391  -3.791  -2.604  1.00  0.00    -0.000 A 
HETATM   10  C20 UNL     1      -4.645  -4.983  -2.604  1.00  0.00    -0.000 A 
HETATM   11  C21 UNL     1      -3.240  -4.932  -2.604  1.00  0.00    -0.000 A 
HETATM   12  C22 UNL     1      -2.582  -3.690  -2.604  1.00  0.00    -0.004 A 
ENDBRANCH   6   7
ENDBRANCH   5   6
ENDBRANCH   3   5
ENDBRANCH   2   3
ENDBRANCH   1   2
BRANCH   1  13
HETATM   13  C6  UNL     1       0.926   1.107  -0.049  1.00  0.00     0.035 C 
BRANCH  13  14
HETATM   14  C7  UNL     1       2.317   1.697   0.189  1.00  0.00     0.029 C 
BRANCH  14  15
HETATM   15  C8  UNL     1       2.516   2.070   1.613  1.00  0.00    -0.020 A 
HETATM   16  C9  UNL     1       1.965   3.264   2.111  1.00  0.00     0.022 A 
HETATM   17  C10 UNL     1       2.150   3.621   3.459  1.00  0.00     0.119 A 
HETATM   18  C11 UNL     1       2.891   2.779   4.312  1.00  0.00     0.153 A 
HETATM   19  C12 UNL     1       3.440   1.586   3.812  1.00  0.00     0.029 A 
HETATM   20  O1  UNL     1       3.068   3.107   5.576  1.00  0.00    -0.188 OA
HETATM   21  C13 UNL     1       3.254   1.230   2.467  1.00  0.00    -0.002 A 
BRANCH  17  22
HETATM   22  O2  UNL     1       1.631   4.742   3.920  1.00  0.00    -0.326 OA
HETATM   23  C14 UNL     1       1.041   4.723   5.211  1.00  0.00     0.181 C 
ENDBRANCH  17  22
ENDBRANCH  14  15
ENDBRANCH  13  14
ENDBRANCH   1  13
BRANCH   1  24
HETATM   24  O3  UNL     1       0.799  -0.740  -1.549  1.00  0.00    -0.356 OA
BRANCH  24  25
HETATM   25  C15 UNL     1       2.090  -1.229  -1.266  1.00  0.00     0.142 C 
HETATM   26  C16 UNL     1       2.100  -2.734  -1.529  1.00  0.00     0.035 C 
ENDBRANCH  24  25
ENDBRANCH   1  24
TORSDOF 11
