REMARK  4 active torsions:
REMARK  status: ('A' for Active; 'I' for Inactive)
REMARK    1  A    between atoms: C1_1  and  O3_12 
REMARK    2  A    between atoms: C6_6  and  O1_7 
REMARK    3  A    between atoms: O1_7  and  C7_8 
REMARK       I    between atoms: C7_8  and  N1_10 
REMARK    4  A    between atoms: O3_12  and  C9_13 
ROOT
HETATM    1  C1  UNL     1      -0.766  -0.650  -0.172  1.00  0.00     0.117 A 
HETATM    2  C2  UNL     1      -1.420  -1.895  -0.172  1.00  0.00     0.026 A 
HETATM    3  C3  UNL     1      -0.676  -3.086  -0.172  1.00  0.00     0.002 A 
HETATM    4  C4  UNL     1       0.729  -3.035  -0.172  1.00  0.00     0.002 A 
HETATM    5  C5  UNL     1       1.385  -1.793  -0.172  1.00  0.00     0.027 A 
HETATM    6  C6  UNL     1       0.643  -0.600  -0.172  1.00  0.00     0.127 A 
ENDROOT
BRANCH   6   7
HETATM    7  O1  UNL     1       1.266   0.562  -0.172  1.00  0.00    -0.256 OA
BRANCH   7   8
HETATM    8  C7  UNL     1       2.340   0.717  -0.941  1.00  0.00     0.388 C 
HETATM    9  O2  UNL     1       2.609  -0.002  -1.875  1.00  0.00    -0.236 OA
HETATM   10  N1  UNL     1       3.156   1.764  -0.617  1.00  0.00    -0.210 NA
HETATM   11  C8  UNL     1       4.367   2.008  -1.414  1.00  0.00     0.158 C 
ENDBRANCH   7   8
ENDBRANCH   6   7
BRANCH   1  12
HETATM   12  O3  UNL     1      -1.471   0.463  -0.172  1.00  0.00    -0.331 OA
BRANCH  12  13
HETATM   13  C9  UNL     1      -2.682   0.484   0.568  1.00  0.00     0.122 C 
HETATM   14  C10 UNL     1      -2.406   0.051   2.010  1.00  0.00     0.033 C 
HETATM   15  C11 UNL     1      -3.309   1.877   0.482  1.00  0.00     0.033 C 
ENDBRANCH  12  13
ENDBRANCH   1  12
TORSDOF 4
