REMARK  4 active torsions:
REMARK  status: ('A' for Active; 'I' for Inactive)
REMARK    1  A    between atoms: C5_5  and  C7_7 
REMARK    2  A    between atoms: C7_7  and  C8_8 
REMARK    3  A    between atoms: C8_8  and  C9_9 
REMARK    4  A    between atoms: C12_12  and  O1_15 
ROOT
HETATM    1  C7  UNL     1       0.023  -0.252   0.697  1.00  0.00     0.031 C 
ENDROOT
BRANCH   1   2
HETATM    2  C5  UNL     1      -0.672  -1.566   0.697  1.00  0.00    -0.018 A 
HETATM    3  C4  UNL     1       0.074  -2.756   0.699  1.00  0.00     0.023 A 
HETATM    4  C3  UNL     1      -0.580  -4.002   0.699  1.00  0.00     0.129 A 
HETATM    5  C2  UNL     1      -1.988  -4.051   0.697  1.00  0.00     0.029 A 
HETATM    6  O2  UNL     1       0.129  -5.113   0.699  1.00  0.00    -0.190 OA
HETATM    7  C1  UNL     1      -2.738  -2.859   0.697  1.00  0.00     0.129 A 
HETATM    8  C16 UNL     1      -2.684  -5.367   0.697  1.00  0.00     0.035 C 
HETATM    9  C6  UNL     1      -2.076  -1.617   0.697  1.00  0.00     0.023 A 
HETATM   10  O3  UNL     1      -4.057  -2.896   0.697  1.00  0.00    -0.190 OA
ENDBRANCH   1   2
BRANCH   1  11
HETATM   11  C8  UNL     1       0.287   0.244  -0.725  1.00  0.00     0.031 C 
BRANCH  11  12
HETATM   12  C9  UNL     1       0.984   1.559  -0.725  1.00  0.00    -0.022 A 
HETATM   13  C10 UNL     1       0.238   2.750  -0.725  1.00  0.00    -0.002 A 
HETATM   14  C11 UNL     1       0.897   3.990  -0.725  1.00  0.00     0.024 A 
HETATM   15  C12 UNL     1       2.303   4.047  -0.725  1.00  0.00     0.094 A 
HETATM   16  C13 UNL     1       3.045   2.852  -0.725  1.00  0.00     0.024 A 
HETATM   17  C14 UNL     1       2.389   1.610  -0.725  1.00  0.00    -0.002 A 
BRANCH  15  18
HETATM   18  O1  UNL     1       2.920   5.211  -0.725  1.00  0.00    -0.328 OA
HETATM   19  C15 UNL     1       2.125   6.387  -0.791  1.00  0.00     0.181 C 
ENDBRANCH  15  18
ENDBRANCH  11  12
ENDBRANCH   1  11
TORSDOF 4
