REMARK  5 active torsions:
REMARK  status: ('A' for Active; 'I' for Inactive)
REMARK    1  A    between atoms: C3_3  and  C12_13 
REMARK    2  A    between atoms: C6_6  and  O1_7 
REMARK    3  A    between atoms: O1_7  and  C7_8 
REMARK    4  A    between atoms: C7_8  and  C8_9 
REMARK    5  A    between atoms: C12_13  and  C13_14 
ROOT
HETATM    1  C1  UNL     1      -0.875   1.721  -1.274  1.00  0.00     0.024 A 
HETATM    2  C2  UNL     1      -1.393   1.259  -2.496  1.00  0.00    -0.002 A 
HETATM    3  C3  UNL     1      -1.452  -0.121  -2.758  1.00  0.00    -0.018 A 
HETATM    4  C4  UNL     1      -0.992  -1.037  -1.795  1.00  0.00    -0.002 A 
HETATM    5  C5  UNL     1      -0.474  -0.572  -0.574  1.00  0.00     0.024 A 
HETATM    6  C6  UNL     1      -0.414   0.808  -0.310  1.00  0.00     0.094 A 
ENDROOT
BRANCH   6   7
HETATM    7  O1  UNL     1       0.071   1.242   0.836  1.00  0.00    -0.326 OA
BRANCH   7   8
HETATM    8  C7  UNL     1       0.524   0.279   1.776  1.00  0.00     0.174 C 
BRANCH   8   9
HETATM    9  C8  UNL     1       1.035   0.981   3.006  1.00  0.00    -0.002 C 
HETATM   10  C9  UNL     1       1.327   0.243   4.090  1.00  0.00    -0.045 C 
HETATM   11  C10 UNL     1       1.838   0.945   5.320  1.00  0.00     0.026 C 
HETATM   12  C11 UNL     1       1.127  -1.247   4.020  1.00  0.00     0.026 C 
ENDBRANCH   8   9
ENDBRANCH   7   8
ENDBRANCH   6   7
BRANCH   3  13
HETATM   13  C12 UNL     1      -1.999  -0.611  -4.049  1.00  0.00     0.052 C 
BRANCH  13  14
HETATM   14  C13 UNL     1      -1.039  -0.398  -5.189  1.00  0.00    -0.021 C 
HETATM   15  C14 UNL     1       0.186  -0.940  -5.105  1.00  0.00    -0.005 C 
ENDBRANCH  13  14
ENDBRANCH   3  13
TORSDOF 5
