REMARK  1 active torsions:
REMARK  status: ('A' for Active; 'I' for Inactive)
REMARK    1  A    between atoms: C3_3  and  C15_16 
ROOT
HETATM    1  C1  UNL     1       0.681  -1.234  -0.928  1.00  0.00     0.037 C 
HETATM    2  C2  UNL     1      -0.313  -2.340  -1.250  1.00  0.00     0.032 C 
HETATM    3  C3  UNL     1      -1.544  -2.206  -0.351  1.00  0.00     0.016 C 
HETATM    4  C4  UNL     1      -2.039  -1.062   0.194  1.00  0.00    -0.027 C 
HETATM    5  C5  UNL     1      -1.578   0.331  -0.060  1.00  0.00     0.022 A 
HETATM    6  C6  UNL     1      -0.368   0.750   0.774  1.00  0.00     0.004 A 
HETATM    7  C7  UNL     1       0.696   1.600   0.053  1.00  0.00     0.003 C 
HETATM    8  C8  UNL     1       2.172   1.113   0.039  1.00  0.00     0.030 C 
HETATM    9  C9  UNL     1       2.810   0.024  -0.847  1.00  0.00     0.118 A 
HETATM   10  C10 UNL     1       2.095  -1.090  -1.422  1.00  0.00     0.140 A 
HETATM   11  O1  UNL     1       2.262  -0.039  -2.347  1.00  0.00    -0.357 OA
HETATM   12  C11 UNL     1       4.328  -0.074  -0.783  1.00  0.00     0.032 C 
HETATM   13  C12 UNL     1      -1.746   1.302   1.088  1.00  0.00     0.004 A 
HETATM   14  C13 UNL     1      -2.082   2.738   0.709  1.00  0.00     0.000 C 
HETATM   15  C14 UNL     1      -2.353   0.859   2.415  1.00  0.00     0.000 C 
ENDROOT
BRANCH   3  16
HETATM   16  C15 UNL     1      -2.286  -3.464  -0.088  1.00  0.00     0.230 C 
HETATM   17  O2  UNL     1      -3.254  -3.564   0.654  1.00  0.00    -0.283 OA
ENDBRANCH   3  16
TORSDOF 1
