REMARK  1 active torsions:
REMARK  status: ('A' for Active; 'I' for Inactive)
REMARK    1  A    between atoms: C12_13  and  C14_15 
ROOT
HETATM    1  C1  UNL     1      -3.528  -0.077  -0.196  1.00  0.00    -0.005 C 
HETATM    2  C2  UNL     1      -3.563  -1.113  -0.757  1.00  0.00    -0.016 C 
HETATM    3  C3  UNL     1      -2.648  -2.138  -0.164  1.00  0.00     0.114 C 
HETATM    4  C4  UNL     1      -1.213  -1.631  -0.220  1.00  0.00     0.056 C 
HETATM    5  C5  UNL     1      -1.213  -0.134  -0.220  1.00  0.00    -0.042 C 
HETATM    6  C6  UNL     1      -2.354   0.563  -0.208  1.00  0.00    -0.009 C 
HETATM    7  C7  UNL     1       0.118   0.551  -0.220  1.00  0.00     0.027 C 
HETATM    8  C8  UNL     1       0.974  -0.003   0.912  1.00  0.00     0.090 C 
HETATM    9  C9  UNL     1       0.950  -1.525   0.869  1.00  0.00     0.011 C 
HETATM   10  C10 UNL     1      -0.447  -2.138   0.995  1.00  0.00     0.007 C 
HETATM   11  C11 UNL     1       0.350   0.431   2.216  1.00  0.00     0.272 C 
HETATM   12  O1  UNL     1       0.608   1.736   2.360  1.00  0.00    -0.300 OA
HETATM   13  C12 UNL     1       0.798   2.528   1.127  1.00  0.00     0.149 C 
HETATM   14  C13 UNL     1      -0.080   2.047  -0.021  1.00  0.00     0.039 C 
HETATM   15  O3  UNL     1      -0.266  -0.268   2.985  1.00  0.00    -0.264 OA
HETATM   16  C18 UNL     1       0.816   0.303  -1.551  1.00  0.00     0.005 C 
HETATM   17  C19 UNL     1      -0.695  -2.138  -1.559  1.00  0.00     0.156 C 
HETATM   18  O4  UNL     1      -1.478  -3.272  -1.819  1.00  0.00    -0.301 OA
HETATM   19  C20 UNL     1      -2.635  -3.367  -1.040  1.00  0.00     0.276 C 
HETATM   20  O5  UNL     1      -3.456  -4.253  -1.063  1.00  0.00    -0.264 OA
ENDROOT
BRANCH  13  21
HETATM   21  C14 UNL     1       2.225   2.369   0.702  1.00  0.00     0.032 A 
HETATM   22  C15 UNL     1       3.196   1.625   1.332  1.00  0.00     0.121 A 
HETATM   23  O2  UNL     1       4.373   1.717   0.659  1.00  0.00    -0.303 OA
HETATM   24  C16 UNL     1       4.153   2.525  -0.410  1.00  0.00     0.122 A 
HETATM   25  C17 UNL     1       2.846   2.953  -0.428  1.00  0.00     0.027 A 
ENDBRANCH  13  21
TORSDOF 1
