REMARK  0 active torsions:
REMARK  status: ('A' for Active; 'I' for Inactive)
ROOT
HETATM    1  C1  UNL     1       0.138   0.810  -0.302  1.00  0.00     0.081 C 
HETATM    2  C2  UNL     1       0.145  -0.715  -0.025  1.00  0.00     0.141 C 
HETATM    3  C3  UNL     1       1.509  -1.363   0.243  1.00  0.00     0.091 C 
HETATM    4  C4  UNL     1       2.566  -0.799  -0.722  1.00  0.00     0.233 C 
HETATM    5  C5  UNL     1       2.423   0.682  -1.123  1.00  0.00     0.162 C 
HETATM    6  C6  UNL     1       1.003   1.079  -1.534  1.00  0.00     0.043 C 
HETATM    7  O1  UNL     1       2.931   1.497  -0.106  1.00  0.00    -0.299 OA
HETATM    8  C7  UNL     1       2.136   2.063   0.830  1.00  0.00     0.303 C 
HETATM    9  C8  UNL     1       0.647   1.825   0.724  1.00  0.00     0.243 C 
HETATM   10  O2  UNL     1       0.159   1.612   2.034  1.00  0.00    -0.212 OA
HETATM   11  O3  UNL     1       2.540   2.714   1.770  1.00  0.00    -0.261 OA
HETATM   12  C9  UNL     1       3.835  -1.043   0.073  1.00  0.00     0.302 C 
HETATM   13  O4  UNL     1       3.551  -1.148   1.395  1.00  0.00    -0.300 OA
HETATM   14  C10 UNL     1       2.162  -1.096   1.604  1.00  0.00     0.157 C 
HETATM   15  O5  UNL     1       4.921  -1.125  -0.455  1.00  0.00    -0.261 OA
HETATM   16  O6  UNL     1       2.695  -1.565  -1.902  1.00  0.00    -0.213 OA
HETATM   17  C11 UNL     1       1.401  -2.910   0.147  1.00  0.00     0.008 C 
HETATM   18  C12 UNL     1      -1.011  -0.954   0.956  1.00  0.00     0.056 C 
HETATM   19  C13 UNL     1      -1.975   0.067   0.404  1.00  0.00    -0.032 C 
HETATM   20  C14 UNL     1      -1.365   0.991  -0.355  1.00  0.00    -0.043 C 
HETATM   21  C15 UNL     1      -2.042   2.119  -1.074  1.00  0.00     0.026 C 
HETATM   22  O7  UNL     1      -0.306  -1.305  -1.233  1.00  0.00    -0.225 OA
ENDROOT
TORSDOF 0
