REMARK  4 active torsions:
REMARK  status: ('A' for Active; 'I' for Inactive)
REMARK    1  A    between atoms: O5_21  and  C17_22 
REMARK    2  A    between atoms: C21_26  and  C23_28 
REMARK    3  A    between atoms: C23_28  and  O6_29 
REMARK    4  A    between atoms: O6_29  and  C24_30 
ROOT
HETATM    1  C1  UNL     1       0.405   4.405  -5.085  1.00  0.00     0.003 A 
HETATM    2  C2  UNL     1      -0.714   4.073  -5.849  1.00  0.00     0.000 A 
HETATM    3  C3  UNL     1      -1.355   2.855  -5.649  1.00  0.00     0.000 A 
HETATM    4  C4  UNL     1      -0.878   1.968  -4.684  1.00  0.00     0.003 A 
HETATM    5  C5  UNL     1       0.240   2.296  -3.901  1.00  0.00     0.042 A 
HETATM    6  C6  UNL     1       0.887   3.525  -4.103  1.00  0.00     0.042 A 
HETATM    7  C7  UNL     1       2.120   3.899  -3.315  1.00  0.00     0.198 C 
HETATM    8  C8  UNL     1       2.354   3.089  -2.062  1.00  0.00     0.068 A 
HETATM    9  C9  UNL     1       1.707   1.859  -1.860  1.00  0.00     0.044 A 
HETATM   10  C10 UNL     1       0.752   1.300  -2.887  1.00  0.00     0.196 C 
HETATM   11  O1  UNL     1       0.420   0.138  -2.898  1.00  0.00    -0.287 OA
HETATM   12  C11 UNL     1       1.984   1.116  -0.701  1.00  0.00     0.004 A 
HETATM   13  C12 UNL     1       2.885   1.593   0.250  1.00  0.00     0.007 A 
HETATM   14  C13 UNL     1       3.526   2.812   0.050  1.00  0.00     0.089 A 
HETATM   15  C14 UNL     1       3.267   3.554  -1.102  1.00  0.00     0.139 A 
HETATM   16  O2  UNL     1       3.902   4.735  -1.297  1.00  0.00    -0.190 OA
HETATM   17  C15 UNL     1       4.399   3.276   0.971  1.00  0.00     0.302 A 
HETATM   18  O3  UNL     1       4.647   2.564   2.076  1.00  0.00    -0.269 OA
HETATM   19  C16 UNL     1       4.002   1.336   2.278  1.00  0.00     0.153 A 
HETATM   20  O4  UNL     1       4.955   4.334   0.796  1.00  0.00    -0.259 OA
HETATM   21  O5  UNL     1       3.135   0.871   1.369  1.00  0.00     0.000 OA
HETATM   22  O14 UNL     1       2.865   4.784  -3.662  1.00  0.00    -0.286 OA
ENDROOT
BRANCH  21  23
HETATM   23  C17 UNL     1       2.489  -0.357   1.570  1.00  0.00     0.036 C 
HETATM   24  C18 UNL     1       2.944  -0.959   2.893  1.00  0.00     0.185 C 
HETATM   25  C19 UNL     1       2.241  -2.292   3.112  1.00  0.00     0.212 C 
HETATM   26  O13 UNL     1       4.330  -1.162   2.861  1.00  0.00    -0.221 OA
HETATM   27  C20 UNL     1       0.734  -2.072   3.146  1.00  0.00     0.187 C 
HETATM   28  O12 UNL     1       2.659  -2.845   4.331  1.00  0.00    -0.218 OA
HETATM   29  C21 UNL     1       0.279  -1.470   1.823  1.00  0.00     0.063 C 
HETATM   30  O11 UNL     1       0.088  -3.300   3.347  1.00  0.00    -0.221 OA
HETATM   31  C22 UNL     1       0.982  -0.137   1.604  1.00  0.00     0.008 C 
BRANCH  29  32
HETATM   32  C23 UNL     1      -1.227  -1.250   1.858  1.00  0.00     0.148 C 
BRANCH  32  33
HETATM   33  O6  UNL     1      -1.832  -1.990   0.832  1.00  0.00    -0.329 OA
BRANCH  33  34
HETATM   34  C24 UNL     1      -3.223  -1.946   0.663  1.00  0.00     0.270 C 
HETATM   35  C25 UNL     1      -3.805  -3.346   0.793  1.00  0.00     0.241 C 
HETATM   36  C26 UNL     1      -5.319  -3.276   0.638  1.00  0.00     0.220 C 
HETATM   37  O10 UNL     1      -3.269  -4.170  -0.206  1.00  0.00    -0.215 OA
HETATM   38  C27 UNL     1      -5.664  -2.491  -0.620  1.00  0.00     0.215 C 
HETATM   39  O9  UNL     1      -5.837  -4.575   0.534  1.00  0.00    -0.218 OA
HETATM   40  C28 UNL     1      -4.903  -1.172  -0.620  1.00  0.00     0.181 C 
HETATM   41  O8  UNL     1      -7.042  -2.234  -0.646  1.00  0.00    -0.218 OA
HETATM   42  O7  UNL     1      -3.534  -1.475  -0.620  1.00  0.00    -0.326 OA
ENDBRANCH  33  34
ENDBRANCH  32  33
ENDBRANCH  29  32
ENDBRANCH  21  23
TORSDOF 4
