REMARK  6 active torsions:
REMARK  status: ('A' for Active; 'I' for Inactive)
REMARK    1  A    between atoms: C5_5  and  C7_7 
REMARK    2  A    between atoms: C7_7  and  O1_8 
REMARK    3  A    between atoms: O1_8  and  C8_9 
REMARK    4  A    between atoms: C11_12  and  O2_15 
REMARK    5  A    between atoms: O2_15  and  C14_16 
REMARK    6  A    between atoms: C14_16  and  C15_17 
ROOT
HETATM    1  C8  UNL     1       1.487   0.077  -0.026  1.00  0.00     0.095 A 
HETATM    2  C9  UNL     1       1.153   1.336  -0.363  1.00  0.00     0.026 A 
HETATM    3  C10 UNL     1      -0.122   1.735  -0.471  1.00  0.00     0.026 A 
HETATM    4  C11 UNL     1      -1.157   0.904  -0.251  1.00  0.00     0.095 A 
HETATM    5  C12 UNL     1      -0.825  -0.357   0.088  1.00  0.00     0.026 A 
HETATM    6  C13 UNL     1       0.453  -0.756   0.196  1.00  0.00     0.026 A 
ENDROOT
BRANCH   1   7
HETATM    7  O1  UNL     1       2.817  -0.251   0.064  1.00  0.00    -0.326 OA
BRANCH   7   8
HETATM    8  C7  UNL     1       3.183  -1.566   0.423  1.00  0.00     0.175 C 
BRANCH   8   9
HETATM    9  C5  UNL     1       4.689  -1.756   0.475  1.00  0.00     0.008 A 
HETATM   10  C4  UNL     1       5.191  -2.962   0.797  1.00  0.00    -0.002 A 
HETATM   11  C3  UNL     1       6.516  -3.171   0.854  1.00  0.00    -0.000 A 
HETATM   12  C2  UNL     1       7.365  -2.168   0.588  1.00  0.00    -0.000 A 
HETATM   13  C1  UNL     1       6.880  -0.960   0.266  1.00  0.00    -0.000 A 
HETATM   14  C6  UNL     1       5.554  -0.759   0.211  1.00  0.00    -0.002 A 
ENDBRANCH   8   9
ENDBRANCH   7   8
ENDBRANCH   1   7
BRANCH   4  15
HETATM   15  O2  UNL     1      -2.433   1.392  -0.381  1.00  0.00    -0.326 OA
BRANCH  15  16
HETATM   16  C14 UNL     1      -3.530   0.534  -0.146  1.00  0.00     0.175 C 
BRANCH  16  17
HETATM   17  C15 UNL     1      -4.864   1.233  -0.335  1.00  0.00     0.008 A 
HETATM   18  C16 UNL     1      -6.003   0.540  -0.152  1.00  0.00    -0.002 A 
HETATM   19  C17 UNL     1      -7.203   1.121  -0.309  1.00  0.00    -0.000 A 
HETATM   20  C18 UNL     1      -7.283   2.414  -0.654  1.00  0.00    -0.000 A 
HETATM   21  C19 UNL     1      -6.157   3.119  -0.840  1.00  0.00    -0.000 A 
HETATM   22  C20 UNL     1      -4.960   2.530  -0.681  1.00  0.00    -0.002 A 
ENDBRANCH  16  17
ENDBRANCH  15  16
ENDBRANCH   4  15
TORSDOF 6
