REMARK  7 active torsions:
REMARK  status: ('A' for Active; 'I' for Inactive)
REMARK    1  A    between atoms: C3_3  and  C7_9 
REMARK    2  A    between atoms: C7_9  and  O3_10 
REMARK    3  A    between atoms: O3_10  and  C8_11 
REMARK    4  A    between atoms: C11_14  and  O6_19 
REMARK    5  A    between atoms: C12_16  and  C13_17 
REMARK    6  A    between atoms: O6_19  and  C14_20 
REMARK    7  A    between atoms: C14_20  and  C15_21 
ROOT
HETATM    1  C8  UNL     1      -1.103  -0.196  -0.281  1.00  0.00     0.187 C 
HETATM    2  C9  UNL     1      -0.342  -1.514  -0.281  1.00  0.00     0.217 C 
HETATM    3  C10 UNL     1       0.708  -1.494   0.822  1.00  0.00     0.241 C 
HETATM    4  C11 UNL     1       1.526  -0.214   0.721  1.00  0.00     0.277 C 
HETATM    5  O4  UNL     1       0.646   0.867   0.893  1.00  0.00    -0.326 OA
HETATM    6  C12 UNL     1      -0.113   0.962  -0.281  1.00  0.00     0.181 C 
HETATM    7  O11 UNL     1       1.556  -2.602   0.680  1.00  0.00    -0.215 OA
HETATM    8  O12 UNL     1      -1.236  -2.570  -0.055  1.00  0.00    -0.218 OA
ENDROOT
BRANCH   1   9
HETATM    9  O3  UNL     1      -1.908  -0.121  -1.427  1.00  0.00    -0.296 OA
BRANCH   9  10
HETATM   10  C7  UNL     1      -3.235   0.001  -1.305  1.00  0.00     0.296 C 
HETATM   11  O13 UNL     1      -3.929   0.065  -2.292  1.00  0.00    -0.259 OA
BRANCH  10  12
HETATM   12  C3  UNL     1      -3.799   0.053  -0.078  1.00  0.00     0.067 A 
HETATM   13  C2  UNL     1      -3.684  -1.034   0.789  1.00  0.00     0.035 A 
HETATM   14  C1  UNL     1      -4.266  -0.980   2.055  1.00  0.00     0.158 A 
HETATM   15  C6  UNL     1      -4.963   0.160   2.454  1.00  0.00     0.181 A 
HETATM   16  O14 UNL     1      -4.154  -2.035   2.898  1.00  0.00    -0.188 OA
HETATM   17  C5  UNL     1      -5.079   1.247   1.587  1.00  0.00     0.158 A 
HETATM   18  O1  UNL     1      -5.529   0.212   3.685  1.00  0.00    -0.186 OA
HETATM   19  C4  UNL     1      -4.497   1.193   0.321  1.00  0.00     0.035 A 
HETATM   20  O2  UNL     1      -5.756   2.354   1.975  1.00  0.00    -0.188 OA
ENDBRANCH  10  12
ENDBRANCH   9  10
ENDBRANCH   1   9
BRANCH   6  21
HETATM   21  C13 UNL     1      -0.864   2.287  -0.309  1.00  0.00     0.214 C 
HETATM   22  O5  UNL     1      -0.487   3.014  -1.447  1.00  0.00    -0.218 OA
ENDBRANCH   6  21
BRANCH   4  23
HETATM   23  O6  UNL     1       2.509  -0.194   1.721  1.00  0.00    -0.270 OA
BRANCH  23  24
HETATM   24  C14 UNL     1       3.801  -0.111   1.387  1.00  0.00     0.298 C 
HETATM   25  O10 UNL     1       4.648  -0.094   2.249  1.00  0.00    -0.259 OA
BRANCH  24  26
HETATM   26  C15 UNL     1       4.161  -0.045   0.087  1.00  0.00     0.068 A 
HETATM   27  C16 UNL     1       5.509   0.042  -0.261  1.00  0.00     0.035 A 
HETATM   28  C17 UNL     1       5.879   0.110  -1.604  1.00  0.00     0.158 A 
HETATM   29  C18 UNL     1       4.902   0.091  -2.599  1.00  0.00     0.181 A 
HETATM   30  O9  UNL     1       7.189   0.195  -1.942  1.00  0.00    -0.188 OA
HETATM   31  C19 UNL     1       3.554   0.004  -2.251  1.00  0.00     0.158 A 
HETATM   32  O8  UNL     1       5.262   0.157  -3.904  1.00  0.00    -0.186 OA
HETATM   33  C20 UNL     1       3.183  -0.064  -0.908  1.00  0.00     0.035 A 
HETATM   34  O7  UNL     1       2.605  -0.015  -3.218  1.00  0.00    -0.188 OA
ENDBRANCH  24  26
ENDBRANCH  23  24
ENDBRANCH   4  23
TORSDOF 7
