REMARK  0 active torsions:
REMARK  status: ('A' for Active; 'I' for Inactive)
ROOT
HETATM    1  C1  UNL     1       0.857   1.899  -0.304  1.00  0.00     0.295 C 
HETATM    2  C2  UNL     1       1.414   0.483  -0.094  1.00  0.00     0.210 C 
HETATM    3  N1  UNL     1       0.195  -0.292  -0.030  1.00  0.00    -0.170 N 
HETATM    4  C3  UNL     1      -0.815   0.584   0.219  1.00  0.00     0.749 C 
HETATM    5  N2  UNL     1      -0.576   1.855   0.117  1.00  0.00    -0.022 NA
HETATM    6  N3  UNL     1      -1.966   0.167   0.543  1.00  0.00     0.060 N 
HETATM    7  C4  UNL     1       0.072  -1.747  -0.201  1.00  0.00     0.145 C 
HETATM    8  O1  UNL     1       1.458   2.859  -0.725  1.00  0.00    -0.267 OA
ENDROOT
TORSDOF 0
