REMARK  2 active torsions:
REMARK  status: ('A' for Active; 'I' for Inactive)
REMARK    1  A    between atoms: C1_1  and  O6_20 
REMARK    2  A    between atoms: C3_3  and  O4_17 
ROOT
HETATM    1  C1  UNL     1      -0.367   2.596  -1.330  1.00  0.00     0.122 A 
HETATM    2  C2  UNL     1      -0.428   2.850   0.048  1.00  0.00     0.177 A 
HETATM    3  C3  UNL     1      -0.403   1.829   1.018  1.00  0.00     0.144 A 
HETATM    4  C4  UNL     1      -0.308   0.484   0.602  1.00  0.00     0.127 A 
HETATM    5  C5  UNL     1      -0.246   0.223  -0.775  1.00  0.00     0.066 A 
HETATM    6  C6  UNL     1      -0.276   1.256  -1.718  1.00  0.00     0.032 A 
HETATM    7  C7  UNL     1      -0.146  -1.179  -1.257  1.00  0.00     0.202 A 
HETATM    8  C8  UNL     1      -0.110  -2.239  -0.218  1.00  0.00     0.087 A 
HETATM    9  C9  UNL     1      -0.180  -1.820   1.123  1.00  0.00     0.105 A 
HETATM   10  O1  UNL     1      -0.281  -0.521   1.520  1.00  0.00    -0.305 OA
HETATM   11  C10 UNL     1      -0.147  -2.803   2.118  1.00  0.00     0.025 A 
HETATM   12  C11 UNL     1      -0.047  -4.157   1.807  1.00  0.00     0.004 A 
HETATM   13  C12 UNL     1       0.022  -4.541   0.470  1.00  0.00     0.028 A 
HETATM   14  C13 UNL     1      -0.006  -3.602  -0.567  1.00  0.00     0.136 A 
HETATM   15  O2  UNL     1       0.063  -4.064  -1.846  1.00  0.00    -0.190 OA
HETATM   16  O3  UNL     1      -0.095  -1.428  -2.458  1.00  0.00    -0.286 OA
HETATM   17  O5  UNL     1      -0.518   4.145   0.468  1.00  0.00    -0.186 OA
ENDROOT
BRANCH   1  18
HETATM   18  O6  UNL     1      -0.403   3.667  -2.190  1.00  0.00    -0.326 OA
HETATM   19  C15 UNL     1      -0.360   3.425  -3.577  1.00  0.00     0.181 C 
ENDBRANCH   1  18
BRANCH   3  20
HETATM   20  O4  UNL     1      -0.473   2.269   2.321  1.00  0.00    -0.324 OA
HETATM   21  C14 UNL     1      -0.437   1.381   3.410  1.00  0.00     0.182 C 
ENDBRANCH   3  20
TORSDOF 2
