REMARK  2 active torsions:
REMARK  status: ('A' for Active; 'I' for Inactive)
REMARK    1  A    between atoms: C3_3  and  O5_19 
REMARK    2  A    between atoms: C11_12  and  O3_16 
ROOT
HETATM    1  C1  UNL     1       0.485   3.600  -2.259  1.00  0.00     0.030 A 
HETATM    2  C2  UNL     1       0.318   3.883  -0.904  1.00  0.00     0.155 A 
HETATM    3  C3  UNL     1       0.241   2.844   0.044  1.00  0.00     0.142 A 
HETATM    4  C4  UNL     1       0.376   1.505  -0.387  1.00  0.00     0.127 A 
HETATM    5  C5  UNL     1       0.544   1.249  -1.760  1.00  0.00     0.064 A 
HETATM    6  C6  UNL     1       0.596   2.286  -2.697  1.00  0.00     0.007 A 
HETATM    7  C7  UNL     1       0.672  -0.146  -2.247  1.00  0.00     0.201 A 
HETATM    8  C8  UNL     1       0.614  -1.212  -1.217  1.00  0.00     0.087 A 
HETATM    9  C9  UNL     1       0.444  -0.809   0.117  1.00  0.00     0.107 A 
HETATM   10  O1  UNL     1       0.318   0.488   0.518  1.00  0.00    -0.305 OA
HETATM   11  C10 UNL     1       0.391  -1.804   1.100  1.00  0.00     0.049 A 
HETATM   12  C11 UNL     1       0.511  -3.173   0.830  1.00  0.00     0.098 A 
HETATM   13  C12 UNL     1       0.659  -3.508  -0.520  1.00  0.00     0.052 A 
HETATM   14  C13 UNL     1       0.726  -2.573  -1.558  1.00  0.00     0.138 A 
HETATM   15  O2  UNL     1       0.869  -3.031  -2.832  1.00  0.00    -0.190 OA
HETATM   16  O4  UNL     1       0.822  -0.386  -3.442  1.00  0.00    -0.286 OA
HETATM   17  O6  UNL     1       0.217   5.177  -0.494  1.00  0.00    -0.188 OA
ENDROOT
BRANCH   3  18
HETATM   18  O5  UNL     1       0.089   3.267   1.347  1.00  0.00    -0.324 OA
HETATM   19  C15 UNL     1       0.291   2.396   2.432  1.00  0.00     0.182 C 
ENDBRANCH   3  18
BRANCH  12  20
HETATM   20  O3  UNL     1       0.438  -4.177   1.763  1.00  0.00    -0.328 OA
HETATM   21  C14 UNL     1       0.087  -3.837   3.085  1.00  0.00     0.181 C 
ENDBRANCH  12  20
TORSDOF 2
