REMARK  2 active torsions:
REMARK  status: ('A' for Active; 'I' for Inactive)
REMARK    1  A    between atoms: C1_1  and  O6_22 
REMARK    2  A    between atoms: C14_16  and  O3_18 
ROOT
HETATM    1  C1  UNL     1      10.530   0.034   0.242  1.00  0.00     0.098 A 
HETATM    2  C2  UNL     1       9.935  -1.233   0.287  1.00  0.00     0.052 A 
HETATM    3  C3  UNL     1       8.557  -1.438   0.218  1.00  0.00     0.137 A 
HETATM    4  C4  UNL     1       7.736  -0.307   0.087  1.00  0.00     0.070 A 
HETATM    5  C5  UNL     1       8.257   0.999   0.045  1.00  0.00     0.100 A 
HETATM    6  C6  UNL     1       9.652   1.120   0.121  1.00  0.00     0.049 A 
HETATM    7  O1  UNL     1       7.506   2.145  -0.070  1.00  0.00    -0.326 OA
HETATM    8  C7  UNL     1       6.093   2.074  -0.179  1.00  0.00     0.177 A 
HETATM    9  C8  UNL     1       5.527   0.695  -0.124  1.00  0.00     0.035 A 
HETATM   10  C9  UNL     1       6.290  -0.424  -0.008  1.00  0.00     0.102 A 
HETATM   11  O2  UNL     1       5.531  -1.572   0.019  1.00  0.00    -0.307 OA
HETATM   12  C10 UNL     1       4.229  -1.151  -0.088  1.00  0.00     0.104 A 
HETATM   13  C11 UNL     1       4.160   0.238  -0.173  1.00  0.00     0.049 A 
HETATM   14  C12 UNL     1       2.926   0.905  -0.271  1.00  0.00     0.135 A 
HETATM   15  C13 UNL     1       1.794   0.097  -0.275  1.00  0.00     0.052 A 
HETATM   16  C14 UNL     1       1.818  -1.323  -0.209  1.00  0.00     0.098 A 
HETATM   17  C15 UNL     1       3.066  -1.933  -0.092  1.00  0.00     0.049 A 
HETATM   18  O4  UNL     1       2.863   2.259  -0.346  1.00  0.00    -0.190 OA
HETATM   19  O5  UNL     1       8.048  -2.699   0.260  1.00  0.00    -0.190 OA
ENDROOT
BRANCH   1  20
HETATM   20  O6  UNL     1      11.899   0.120   0.315  1.00  0.00    -0.328 OA
HETATM   21  C17 UNL     1      12.496   1.393   0.257  1.00  0.00     0.181 C 
ENDBRANCH   1  20
BRANCH  16  22
HETATM   22  O3  UNL     1       0.706  -2.128  -0.190  1.00  0.00    -0.328 OA
HETATM   23  C16 UNL     1      -0.560  -1.527  -0.060  1.00  0.00     0.181 C 
ENDBRANCH  16  22
TORSDOF 2
