REMARK  2 active torsions:
REMARK  status: ('A' for Active; 'I' for Inactive)
REMARK    1  A    between atoms: C1_1  and  O4_18 
REMARK    2  A    between atoms: C13_14  and  O2_15 
ROOT
HETATM    1  C1  UNL     1      -0.325   3.182  -0.413  1.00  0.00     0.094 A 
HETATM    2  C2  UNL     1      -0.196   3.412   0.905  1.00  0.00     0.026 A 
HETATM    3  C3  UNL     1      -0.083   2.413   1.790  1.00  0.00     0.027 A 
HETATM    4  C4  UNL     1      -0.083   1.125   1.405  1.00  0.00     0.103 A 
HETATM    5  C5  UNL     1      -0.202   0.866   0.092  1.00  0.00     0.064 A 
HETATM    6  C6  UNL     1      -0.314   1.886  -0.785  1.00  0.00     0.029 A 
HETATM    7  C7  UNL     1      -0.200  -0.427  -0.344  1.00  0.00     0.201 A 
HETATM    8  C8  UNL     1      -0.079  -1.449   0.557  1.00  0.00     0.084 A 
HETATM    9  C9  UNL     1       0.039  -1.135   1.867  1.00  0.00     0.105 A 
HETATM   10  O1  UNL     1       0.041   0.144   2.338  1.00  0.00    -0.307 OA
HETATM   11  C10 UNL     1       0.151  -2.127   2.769  1.00  0.00     0.025 A 
HETATM   12  C11 UNL     1       0.130  -3.411   2.401  1.00  0.00     0.004 A 
HETATM   13  C12 UNL     1       0.003  -3.701   1.102  1.00  0.00     0.024 A 
HETATM   14  C13 UNL     1      -0.058  -2.747   0.152  1.00  0.00     0.099 A 
HETATM   15  O3  UNL     1      -0.296  -0.627  -1.535  1.00  0.00    -0.286 OA
ENDROOT
BRANCH   1  16
HETATM   16  O4  UNL     1      -0.419   4.260  -1.263  1.00  0.00    -0.328 OA
HETATM   17  C15 UNL     1      -0.343   4.042  -2.653  1.00  0.00     0.181 C 
ENDBRANCH   1  16
BRANCH  14  18
HETATM   18  O2  UNL     1      -0.242  -3.163  -1.146  1.00  0.00    -0.328 OA
HETATM   19  C14 UNL     1       0.957  -3.370  -1.860  1.00  0.00     0.181 C 
ENDBRANCH  14  18
TORSDOF 2
