REMARK  3 active torsions:
REMARK  status: ('A' for Active; 'I' for Inactive)
REMARK    1  A    between atoms: C1_1  and  O7_22 
REMARK    2  A    between atoms: C10_12  and  O5_19 
REMARK    3  A    between atoms: C11_13  and  O4_17 
ROOT
HETATM    1  C1  UNL     1      -0.123   3.392  -1.765  1.00  0.00     0.120 A 
HETATM    2  C2  UNL     1      -0.226   3.675  -0.455  1.00  0.00     0.028 A 
HETATM    3  C3  UNL     1      -0.157   2.709   0.466  1.00  0.00     0.027 A 
HETATM    4  C4  UNL     1      -0.007   1.422   0.120  1.00  0.00     0.105 A 
HETATM    5  C5  UNL     1       0.074   1.114  -1.188  1.00  0.00     0.089 A 
HETATM    6  C6  UNL     1       0.011   2.093  -2.126  1.00  0.00     0.158 A 
HETATM    7  O1  UNL     1       0.113   1.861  -3.470  1.00  0.00    -0.188 OA
HETATM    8  C7  UNL     1       0.196  -0.208  -1.508  1.00  0.00     0.203 A 
HETATM    9  C8  UNL     1       0.227  -1.167  -0.534  1.00  0.00     0.089 A 
HETATM   10  C9  UNL     1       0.152  -0.815   0.768  1.00  0.00     0.129 A 
HETATM   11  O2  UNL     1       0.050   0.496   1.111  1.00  0.00    -0.305 OA
HETATM   12  C10 UNL     1       0.169  -1.759   1.745  1.00  0.00     0.139 A 
HETATM   13  C11 UNL     1       0.275  -3.067   1.411  1.00  0.00     0.120 A 
HETATM   14  C12 UNL     1       0.344  -3.380   0.108  1.00  0.00     0.054 A 
HETATM   15  C13 UNL     1       0.328  -2.470  -0.876  1.00  0.00     0.138 A 
HETATM   16  O3  UNL     1       0.407  -2.929  -2.159  1.00  0.00    -0.190 OA
HETATM   17  O6  UNL     1       0.259  -0.537  -2.670  1.00  0.00    -0.286 OA
ENDROOT
BRANCH   1  18
HETATM   18  O7  UNL     1      -0.205   4.343  -2.758  1.00  0.00    -0.326 OA
HETATM   19  C16 UNL     1      -0.730   5.613  -2.442  1.00  0.00     0.181 C 
ENDBRANCH   1  18
BRANCH  12  20
HETATM   20  O5  UNL     1       0.101  -1.524   3.106  1.00  0.00    -0.324 OA
HETATM   21  C15 UNL     1       0.079  -0.229   3.655  1.00  0.00     0.182 C 
ENDBRANCH  12  20
BRANCH  13  22
HETATM   22  O4  UNL     1       0.279  -3.999   2.426  1.00  0.00    -0.326 OA
HETATM   23  C14 UNL     1       0.228  -5.371   2.108  1.00  0.00     0.181 C 
ENDBRANCH  13  22
TORSDOF 3
