REMARK  2 active torsions:
REMARK  status: ('A' for Active; 'I' for Inactive)
REMARK    1  A    between atoms: C1_1  and  C8_11 
REMARK    2  A    between atoms: C5_5  and  C6_7 
ROOT
HETATM    1  C1  UNL     1      -0.990   0.132  -0.916  1.00  0.00     0.164 C 
HETATM    2  C2  UNL     1      -0.886  -1.394  -0.970  1.00  0.00     0.207 C 
HETATM    3  C3  UNL     1      -0.077  -1.997   0.166  1.00  0.00     0.186 C 
HETATM    4  C4  UNL     1       1.240  -1.258   0.374  1.00  0.00     0.059 C 
HETATM    5  C5  UNL     1       1.035   0.261   0.494  1.00  0.00     0.101 C 
HETATM    6  N1  UNL     1       0.309   0.761  -0.675  1.00  0.00    -0.294 NA
HETATM    7  O1  UNL     1      -0.827  -1.974   1.357  1.00  0.00    -0.221 OA
HETATM    8  O2  UNL     1      -0.284  -1.766  -2.190  1.00  0.00    -0.218 OA
ENDROOT
BRANCH   1   9
HETATM    9  C8  UNL     1      -2.030   0.650   0.077  1.00  0.00     0.209 C 
HETATM   10  O3  UNL     1      -2.001   2.063   0.071  1.00  0.00    -0.218 OA
ENDBRANCH   1   9
BRANCH   5  11
HETATM   11  C6  UNL     1       2.386   0.989   0.628  1.00  0.00     0.024 C 
HETATM   12  C7  UNL     1       2.240   2.496   0.881  1.00  0.00     0.002 C 
ENDBRANCH   5  11
TORSDOF 2
