REMARK  7 active torsions:
REMARK  status: ('A' for Active; 'I' for Inactive)
REMARK    1  A    between atoms: C1_2  and  C15_23 
REMARK    2  A    between atoms: C5_6  and  O2_7 
REMARK    3  A    between atoms: O2_7  and  C6_8 
REMARK    4  A    between atoms: C6_8  and  C7_9 
REMARK    5  A    between atoms: C8_10  and  C9_11 
REMARK    6  A    between atoms: C15_23  and  O9_24 
REMARK    7  A    between atoms: O9_24  and  S1_25 
ROOT
HETATM    1  O1  UNL     1       1.646  -1.357   0.513  1.00  0.00    -0.326 OA
HETATM    2  C1  UNL     1       2.480  -2.190   1.276  1.00  0.00     0.182 C 
HETATM    3  C2  UNL     1       1.878  -3.582   1.442  1.00  0.00     0.215 C 
HETATM    4  C3  UNL     1       0.466  -3.503   1.983  1.00  0.00     0.220 C 
HETATM    5  C4  UNL     1      -0.344  -2.551   1.131  1.00  0.00     0.241 C 
HETATM    6  C5  UNL     1       0.352  -1.211   1.062  1.00  0.00     0.277 C 
HETATM    7  O6  UNL     1      -1.616  -2.403   1.710  1.00  0.00    -0.215 OA
HETATM    8  O7  UNL     1      -0.121  -4.779   1.924  1.00  0.00    -0.218 OA
HETATM    9  O8  UNL     1       1.827  -4.252   0.204  1.00  0.00    -0.218 OA
ENDROOT
BRANCH   6  10
HETATM   10  O2  UNL     1      -0.322  -0.399   0.122  1.00  0.00    -0.270 OA
BRANCH  10  11
HETATM   11  C6  UNL     1      -0.804   0.824   0.487  1.00  0.00     0.298 C 
HETATM   12  O5  UNL     1      -0.649   1.256   1.626  1.00  0.00    -0.259 OA
BRANCH  11  13
HETATM   13  C7  UNL     1      -1.586   1.620  -0.489  1.00  0.00     0.068 C 
HETATM   14  C8  UNL     1      -2.143   2.823  -0.200  1.00  0.00     0.005 C 
BRANCH  14  15
HETATM   15  C9  UNL     1      -2.933   3.643  -1.130  1.00  0.00     0.002 A 
HETATM   16  C10 UNL     1      -3.443   4.872  -0.680  1.00  0.00     0.002 A 
HETATM   17  C11 UNL     1      -4.199   5.682  -1.525  1.00  0.00     0.029 A 
HETATM   18  C12 UNL     1      -4.475   5.297  -2.840  1.00  0.00     0.156 A 
HETATM   19  C13 UNL     1      -3.978   4.075  -3.305  1.00  0.00     0.156 A 
HETATM   20  O4  UNL     1      -5.211   6.075  -3.677  1.00  0.00    -0.188 OA
HETATM   21  C14 UNL     1      -3.219   3.269  -2.452  1.00  0.00     0.029 A 
HETATM   22  O3  UNL     1      -4.237   3.687  -4.581  1.00  0.00    -0.188 OA
ENDBRANCH  14  15
ENDBRANCH  11  13
ENDBRANCH  10  11
ENDBRANCH   6  10
BRANCH   2  23
HETATM   23  C15 UNL     1       3.871  -2.230   0.636  1.00  0.00     0.198 C 
BRANCH  23  24
HETATM   24  O9  UNL     1       4.795  -1.587   1.476  1.00  0.00    -0.235 OA
BRANCH  24  25
HETATM   25  S1  UNL     1       6.386  -1.620   0.983  1.00  0.00     0.252 S 
HETATM   26  O10 UNL     1       6.904  -3.197   0.893  1.00  0.00    -0.572 OA
HETATM   27  O11 UNL     1       6.538  -0.964  -0.303  1.00  0.00    -0.572 OA
HETATM   28  O12 UNL     1       7.257  -1.136   2.042  1.00  0.00    -0.572 OA
ENDBRANCH  24  25
ENDBRANCH  23  24
ENDBRANCH   2  23
TORSDOF 7
