REMARK  5 active torsions:
REMARK  status: ('A' for Active; 'I' for Inactive)
REMARK    1  A    between atoms: C2_2  and  C3_3 
REMARK    2  A    between atoms: C3_3  and  O1_4 
REMARK    3  A    between atoms: C3_3  and  C10_16 
REMARK    4  A    between atoms: O1_4  and  C4_5 
REMARK    5  A    between atoms: C5_7  and  C9_14 
ROOT
HETATM    1  C4  UNL     1       0.321  -0.330   0.322  1.00  0.00     0.270 C 
HETATM    2  O2  UNL     1       1.697  -0.312   0.026  1.00  0.00    -0.326 OA
HETATM    3  C5  UNL     1       2.443  -1.056   0.950  1.00  0.00     0.184 C 
HETATM    4  C6  UNL     1       2.030  -2.520   0.861  1.00  0.00     0.215 C 
HETATM    5  C7  UNL     1       0.538  -2.650   1.104  1.00  0.00     0.220 C 
HETATM    6  C8  UNL     1      -0.197  -1.738   0.144  1.00  0.00     0.241 C 
HETATM    7  O3  UNL     1      -1.573  -1.767   0.428  1.00  0.00    -0.215 OA
HETATM    8  O4  UNL     1       0.139  -3.980   0.896  1.00  0.00    -0.218 OA
HETATM    9  O5  UNL     1       2.701  -3.290   1.827  1.00  0.00    -0.218 OA
ENDROOT
BRANCH   1  10
HETATM   10  O1  UNL     1      -0.283   0.497  -0.646  1.00  0.00    -0.326 OA
BRANCH  10  11
HETATM   11  C3  UNL     1      -0.368   1.857  -0.306  1.00  0.00     0.181 C 
BRANCH  11  12
HETATM   12  C2  UNL     1      -1.308   2.521  -1.317  1.00  0.00     0.182 C 
HETATM   13  C1  UNL     1      -0.839   2.424  -2.767  1.00  0.00     0.038 C 
HETATM   14  O8  UNL     1      -2.587   1.934  -1.213  1.00  0.00    -0.221 OA
ENDBRANCH  11  12
BRANCH  11  15
HETATM   15  C10 UNL     1       0.997   2.542  -0.279  1.00  0.00     0.214 C 
HETATM   16  O7  UNL     1       1.698   2.239   0.914  1.00  0.00    -0.218 OA
ENDBRANCH  11  15
ENDBRANCH  10  11
ENDBRANCH   1  10
BRANCH   3  17
HETATM   17  C9  UNL     1       3.912  -0.822   0.641  1.00  0.00     0.214 C 
HETATM   18  O6  UNL     1       4.172   0.567   0.714  1.00  0.00    -0.218 OA
ENDBRANCH   3  17
TORSDOF 5
