REMARK  6 active torsions:
REMARK  status: ('A' for Active; 'I' for Inactive)
REMARK    1  A    between atoms: C2_2  and  O8_41 
REMARK    2  A    between atoms: C10_11  and  O3_15 
REMARK    3  A    between atoms: O3_15  and  C13_16 
REMARK    4  A    between atoms: C13_16  and  C14_17 
REMARK    5  A    between atoms: C22_26  and  C27_33 
REMARK    6  A    between atoms: O8_41  and  C34_42 
ROOT
HETATM    1  C1  UNL     1      -0.927  -0.118   1.215  1.00  0.00     0.063 C 
HETATM    2  C2  UNL     1      -0.974  -0.502  -0.281  1.00  0.00     0.129 C 
HETATM    3  C3  UNL     1       0.203  -1.432  -0.637  1.00  0.00     0.056 C 
HETATM    4  C4  UNL     1       1.468  -0.789  -0.075  1.00  0.00     0.037 C 
HETATM    5  C5  UNL     1       1.644  -0.498   1.417  1.00  0.00     0.031 C 
HETATM    6  C6  UNL     1       0.421   0.404   1.756  1.00  0.00     0.155 C 
HETATM    7  O1  UNL     1       0.592   1.713   1.260  1.00  0.00    -0.223 OA
HETATM    8  C7  UNL     1       1.529  -1.761   2.301  1.00  0.00     0.003 C 
HETATM    9  C8  UNL     1       3.047   0.220   1.522  1.00  0.00     0.013 C 
HETATM   10  C9  UNL     1       4.259  -0.396   0.725  1.00  0.00     0.045 C 
HETATM   11  C10 UNL     1       3.867  -0.699  -0.754  1.00  0.00     0.155 C 
HETATM   12  C11 UNL     1       2.585  -1.527  -0.775  1.00  0.00     0.143 C 
HETATM   13  O2  UNL     1       2.101  -1.786  -2.065  1.00  0.00    -0.354 OA
HETATM   14  C12 UNL     1       0.709  -1.511  -2.094  1.00  0.00     0.145 C 
HETATM   15  C20 UNL     1       5.436   0.590   0.669  1.00  0.00    -0.023 C 
HETATM   16  C21 UNL     1       6.742   0.354   0.441  1.00  0.00    -0.045 C 
HETATM   17  C22 UNL     1       7.585   1.606   0.513  1.00  0.00     0.045 C 
HETATM   18  C23 UNL     1       6.521   2.712   0.415  1.00  0.00     0.042 C 
HETATM   19  C24 UNL     1       5.200   2.076   0.872  1.00  0.00     0.136 C 
HETATM   20  O5  UNL     1       4.904   2.469   2.192  1.00  0.00    -0.327 OA
HETATM   21  C25 UNL     1       4.741   1.403   3.090  1.00  0.00     0.270 C 
HETATM   22  C26 UNL     1       3.415   0.675   2.952  1.00  0.00     0.065 C 
HETATM   23  O6  UNL     1       4.796   2.147   4.297  1.00  0.00    -0.190 OA
HETATM   24  C31 UNL     1       7.454  -0.947   0.186  1.00  0.00     0.026 C 
HETATM   25  C32 UNL     1       4.731  -1.674   1.458  1.00  0.00     0.007 C 
HETATM   26  C33 UNL     1      -0.111  -2.873  -0.185  1.00  0.00     0.005 C 
ENDROOT
BRANCH  11  27
HETATM   27  O3  UNL     1       3.640   0.505  -1.440  1.00  0.00    -0.298 OA
BRANCH  27  28
HETATM   28  C13 UNL     1       3.960   0.693  -2.753  1.00  0.00     0.296 C 
HETATM   29  O4  UNL     1       3.527   1.692  -3.321  1.00  0.00    -0.259 OA
BRANCH  28  30
HETATM   30  C14 UNL     1       4.861  -0.163  -3.596  1.00  0.00     0.063 A 
HETATM   31  C15 UNL     1       6.145  -0.485  -3.144  1.00  0.00     0.005 A 
HETATM   32  C16 UNL     1       7.000  -1.248  -3.939  1.00  0.00     0.000 A 
HETATM   33  C17 UNL     1       6.587  -1.661  -5.208  1.00  0.00     0.000 A 
HETATM   34  C18 UNL     1       5.323  -1.301  -5.681  1.00  0.00     0.000 A 
HETATM   35  C19 UNL     1       4.462  -0.544  -4.882  1.00  0.00     0.005 A 
ENDBRANCH  28  30
ENDBRANCH  27  28
ENDBRANCH  11  27
BRANCH  17  36
HETATM   36  C27 UNL     1       8.419   1.605   1.761  1.00  0.00     0.008 A 
HETATM   37  C28 UNL     1       9.597   0.938   1.924  1.00  0.00     0.119 A 
HETATM   38  O7  UNL     1      10.108   1.132   3.171  1.00  0.00    -0.303 OA
HETATM   39  C29 UNL     1       9.228   1.948   3.817  1.00  0.00     0.122 A 
HETATM   40  C30 UNL     1       8.182   2.272   3.007  1.00  0.00     0.025 A 
ENDBRANCH  17  36
BRANCH   2  41
HETATM   41  O8  UNL     1      -0.969   0.679  -1.034  1.00  0.00    -0.304 OA
BRANCH  41  42
HETATM   42  C34 UNL     1      -1.671   0.709  -2.200  1.00  0.00     0.272 C 
HETATM   43  C35 UNL     1      -1.496   2.051  -2.880  1.00  0.00     0.106 C 
HETATM   44  O9  UNL     1      -2.322  -0.208  -2.648  1.00  0.00    -0.264 OA
ENDBRANCH  41  42
ENDBRANCH   2  41
TORSDOF 6
