REMARK  2 active torsions:
REMARK  status: ('A' for Active; 'I' for Inactive)
REMARK    1  A    between atoms: C4_4  and  O3_25 
REMARK    2  A    between atoms: C9_9  and  C11_12 
ROOT
HETATM    1  C1  UNL     1      -4.403  -2.293  -0.596  1.00  0.00    -0.004 A 
HETATM    2  C2  UNL     1      -5.284  -2.345   0.411  1.00  0.00    -0.020 A 
HETATM    3  C3  UNL     1      -4.987  -1.652   1.518  1.00  0.00     0.020 A 
HETATM    4  C4  UNL     1      -3.883  -0.889   1.650  1.00  0.00     0.096 A 
HETATM    5  C5  UNL     1      -2.967  -0.898   0.646  1.00  0.00     0.048 A 
HETATM    6  C6  UNL     1      -3.258  -1.598  -0.472  1.00  0.00     0.004 A 
HETATM    7  C7  UNL     1      -2.385  -1.635  -1.490  1.00  0.00     0.000 A 
HETATM    8  C8  UNL     1      -1.218  -0.992  -1.400  1.00  0.00     0.002 A 
HETATM    9  C9  UNL     1      -0.890  -0.285  -0.303  1.00  0.00     0.027 A 
HETATM   10  C10 UNL     1      -1.783  -0.235   0.718  1.00  0.00     0.133 A 
HETATM   11  O1  UNL     1      -1.421   0.408   1.866  1.00  0.00    -0.190 OA
HETATM   12  C23 UNL     1      -6.555  -3.156   0.323  1.00  0.00     0.031 C 
ENDROOT
BRANCH   9  13
HETATM   13  C11 UNL     1       0.297   0.372  -0.271  1.00  0.00     0.027 A 
HETATM   14  C12 UNL     1       1.453  -0.183  -0.709  1.00  0.00     0.129 A 
HETATM   15  C13 UNL     1       2.627   0.486  -0.608  1.00  0.00     0.021 A 
HETATM   16  O2  UNL     1       1.469  -1.466  -1.173  1.00  0.00    -0.190 OA
HETATM   17  C14 UNL     1       2.634   1.761  -0.172  1.00  0.00    -0.020 A 
HETATM   18  C19 UNL     1       3.936  -0.210  -0.986  1.00  0.00     0.122 C 
HETATM   19  C15 UNL     1       1.487   2.327   0.227  1.00  0.00    -0.004 A 
HETATM   20  C17 UNL     1       3.896   2.586  -0.160  1.00  0.00     0.050 C 
HETATM   21  C16 UNL     1       0.344   1.635   0.195  1.00  0.00     0.002 A 
HETATM   22  C18 UNL     1       4.865   2.061  -1.222  1.00  0.00     0.103 C 
HETATM   23  N1  UNL     1       5.113   0.662  -0.908  1.00  0.00    -0.295 NA
HETATM   24  C21 UNL     1       6.192   2.834  -1.206  1.00  0.00     0.026 C 
HETATM   25  C20 UNL     1       4.262  -1.409  -0.071  1.00  0.00     0.031 C 
ENDBRANCH   9  13
BRANCH   4  26
HETATM   26  O3  UNL     1      -3.702  -0.270   2.865  1.00  0.00    -0.328 OA
HETATM   27  C22 UNL     1      -4.273   1.018   2.938  1.00  0.00     0.181 C 
ENDBRANCH   4  26
TORSDOF 2
