REMARK  14 active torsions:
REMARK  status: ('A' for Active; 'I' for Inactive)
REMARK    1  A    between atoms: C3_3  and  O6_19 
REMARK    2  A    between atoms: C5_6  and  C6_7 
REMARK    3  A    between atoms: C6_7  and  O2_8 
REMARK    4  A    between atoms: O2_8  and  C7_9 
REMARK    5  A    between atoms: C7_9  and  C8_10 
REMARK    6  A    between atoms: C8_10  and  O3_11 
REMARK    7  A    between atoms: C8_10  and  C11_15 
REMARK    8  A    between atoms: O3_11  and  C9_12 
REMARK    9  A    between atoms: O6_19  and  C14_20 
REMARK   10  A    between atoms: C14_20  and  C15_21 
REMARK   11  A    between atoms: C15_21  and  C16_22 
REMARK   12  A    between atoms: C16_22  and  C17_23 
REMARK   13  A    between atoms: C21_28  and  O8_30 
REMARK   14  A    between atoms: O8_30  and  C23_31 
ROOT
HETATM    1  C1  UNL     1       2.913  -0.545  -0.556  1.00  0.00    -0.017 C 
HETATM    2  C2  UNL     1       2.947  -2.033  -0.747  1.00  0.00     0.109 C 
HETATM    3  C3  UNL     1       4.242  -2.484  -1.406  1.00  0.00     0.253 C 
HETATM    4  O1  UNL     1       5.032  -1.448  -1.966  1.00  0.00    -0.303 OA
HETATM    5  C4  UNL     1       5.142  -0.279  -1.264  1.00  0.00     0.117 C 
HETATM    6  C5  UNL     1       4.163   0.219  -0.485  1.00  0.00     0.028 C 
HETATM    7  C20 UNL     1       1.584  -2.189  -1.403  1.00  0.00     0.158 A 
HETATM    8  C21 UNL     1       0.631  -1.056  -1.025  1.00  0.00     0.173 C 
HETATM    9  C22 UNL     1       1.679  -0.027  -0.675  1.00  0.00     0.002 C 
HETATM   10  C25 UNL     1       1.150  -3.396  -2.032  1.00  0.00     0.173 A 
HETATM   11  O10 UNL     1       1.647  -2.472  -2.972  1.00  0.00    -0.351 OA
ENDROOT
BRANCH   6  12
HETATM   12  C6  UNL     1       4.274   1.543   0.232  1.00  0.00     0.180 C 
BRANCH  12  13
HETATM   13  O2  UNL     1       5.001   2.484  -0.531  1.00  0.00    -0.295 OA
BRANCH  13  14
HETATM   14  C7  UNL     1       4.986   3.775  -0.105  1.00  0.00     0.300 C 
HETATM   15  O5  UNL     1       4.343   4.171   0.841  1.00  0.00    -0.262 OA
BRANCH  14  16
HETATM   16  C8  UNL     1       5.926   4.648  -0.944  1.00  0.00     0.210 C 
BRANCH  16  17
HETATM   17  O3  UNL     1       6.436   3.936  -2.051  1.00  0.00    -0.294 OA
BRANCH  17  18
HETATM   18  C9  UNL     1       6.831   4.634  -3.149  1.00  0.00     0.273 C 
HETATM   19  C10 UNL     1       7.387   3.687  -4.193  1.00  0.00     0.106 C 
HETATM   20  O4  UNL     1       6.761   5.836  -3.272  1.00  0.00    -0.264 OA
ENDBRANCH  17  18
ENDBRANCH  16  17
BRANCH  16  21
HETATM   21  C11 UNL     1       7.086   5.235  -0.118  1.00  0.00     0.038 C 
HETATM   22  C12 UNL     1       6.620   6.322   0.866  1.00  0.00     0.003 C 
HETATM   23  C13 UNL     1       7.870   4.141   0.627  1.00  0.00     0.003 C 
ENDBRANCH  16  21
ENDBRANCH  14  16
ENDBRANCH  13  14
ENDBRANCH  12  13
ENDBRANCH   6  12
BRANCH   3  24
HETATM   24  O6  UNL     1       5.153  -3.025  -0.469  1.00  0.00    -0.275 OA
BRANCH  24  25
HETATM   25  C14 UNL     1       4.840  -4.207   0.123  1.00  0.00     0.274 C 
HETATM   26  O7  UNL     1       3.827  -4.833  -0.087  1.00  0.00    -0.264 OA
BRANCH  25  27
HETATM   27  C15 UNL     1       5.957  -4.651   1.055  1.00  0.00     0.096 C 
BRANCH  27  28
HETATM   28  C16 UNL     1       6.549  -3.542   1.951  1.00  0.00     0.010 C 
HETATM   29  C19 UNL     1       7.737  -4.106   2.751  1.00  0.00     0.001 C 
BRANCH  28  30
HETATM   30  C17 UNL     1       5.469  -2.938   2.871  1.00  0.00     0.001 C 
HETATM   31  C18 UNL     1       5.928  -1.677   3.614  1.00  0.00     0.000 C 
ENDBRANCH  28  30
ENDBRANCH  27  28
ENDBRANCH  25  27
ENDBRANCH  24  25
ENDBRANCH   3  24
BRANCH   8  32
HETATM   32  O8  UNL     1      -0.152  -1.336   0.118  1.00  0.00    -0.297 OA
BRANCH  32  33
HETATM   33  C23 UNL     1      -1.399  -1.843  -0.075  1.00  0.00     0.273 C 
HETATM   34  C24 UNL     1      -2.106  -2.011   1.254  1.00  0.00     0.106 C 
HETATM   35  O9  UNL     1      -1.881  -2.109  -1.153  1.00  0.00    -0.264 OA
ENDBRANCH  32  33
ENDBRANCH   8  32
TORSDOF 14
