REMARK  2 active torsions:
REMARK  status: ('A' for Active; 'I' for Inactive)
REMARK    1  A    between atoms: C12_13  and  O4_19 
REMARK    2  A    between atoms: C13_14  and  O3_17 
ROOT
HETATM    1  C1  UNL     1      -0.897  -0.971  -0.244  1.00  0.00    -0.022 A 
HETATM    2  C2  UNL     1      -0.516  -2.310  -0.149  1.00  0.00    -0.004 A 
HETATM    3  C3  UNL     1       0.821  -2.662   0.065  1.00  0.00     0.003 A 
HETATM    4  C4  UNL     1       1.799  -1.669   0.185  1.00  0.00     0.042 A 
HETATM    5  C5  UNL     1       1.430  -0.317   0.103  1.00  0.00     0.042 A 
HETATM    6  C6  UNL     1       0.088   0.018  -0.109  1.00  0.00    -0.001 A 
HETATM    7  C7  UNL     1       2.446   0.761   0.223  1.00  0.00     0.198 C 
HETATM    8  C8  UNL     1       3.890   0.383   0.185  1.00  0.00     0.070 A 
HETATM    9  C9  UNL     1       4.231  -0.974   0.283  1.00  0.00     0.046 A 
HETATM   10  C10 UNL     1       3.215  -2.053   0.387  1.00  0.00     0.196 C 
HETATM   11  O1  UNL     1       3.531  -3.224   0.583  1.00  0.00    -0.287 OA
HETATM   12  C11 UNL     1       5.576  -1.327   0.264  1.00  0.00     0.030 A 
HETATM   13  C12 UNL     1       6.615  -0.394   0.132  1.00  0.00     0.118 A 
HETATM   14  C13 UNL     1       6.275   0.973   0.021  1.00  0.00     0.142 A 
HETATM   15  C14 UNL     1       4.905   1.351   0.055  1.00  0.00     0.158 A 
HETATM   16  O2  UNL     1       4.566   2.660  -0.108  1.00  0.00    -0.188 OA
HETATM   17  O5  UNL     1       2.068   1.920   0.365  1.00  0.00    -0.286 OA
HETATM   18  C17 UNL     1      -2.341  -0.614  -0.497  1.00  0.00     0.031 C 
ENDROOT
BRANCH  13  19
HETATM   19  O4  UNL     1       7.878  -0.949   0.133  1.00  0.00    -0.326 OA
HETATM   20  C16 UNL     1       9.044  -0.164   0.135  1.00  0.00     0.181 C 
ENDBRANCH  13  19
BRANCH  14  21
HETATM   21  O3  UNL     1       7.320   1.859  -0.108  1.00  0.00    -0.324 OA
HETATM   22  C15 UNL     1       7.157   3.254  -0.140  1.00  0.00     0.182 C 
ENDBRANCH  14  21
TORSDOF 2
