REMARK  0 active torsions:
REMARK  status: ('A' for Active; 'I' for Inactive)
ROOT
HETATM    1  C1  UNL     1      -2.439   1.073   0.128  1.00  0.00     0.028 A 
HETATM    2  C2  UNL     1      -2.508  -0.323   0.121  1.00  0.00     0.004 A 
HETATM    3  C3  UNL     1      -1.338  -1.071   0.088  1.00  0.00     0.017 A 
HETATM    4  C4  UNL     1      -0.071  -0.446   0.084  1.00  0.00     0.065 A 
HETATM    5  C5  UNL     1      -0.030   0.964   0.059  1.00  0.00     0.080 A 
HETATM    6  C6  UNL     1      -1.215   1.737   0.089  1.00  0.00     0.135 A 
HETATM    7  O1  UNL     1      -1.219   3.098   0.079  1.00  0.00    -0.190 OA
HETATM    8  C7  UNL     1       1.282   1.656   0.009  1.00  0.00     0.200 A 
HETATM    9  C8  UNL     1       2.511   0.838  -0.084  1.00  0.00     0.055 A 
HETATM   10  C9  UNL     1       2.442  -0.567  -0.058  1.00  0.00     0.063 A 
HETATM   11  N1  UNL     1       1.160  -1.145   0.062  1.00  0.00    -0.325 N 
HETATM   12  C10 UNL     1       1.117  -2.620   0.232  1.00  0.00     0.131 C 
HETATM   13  C11 UNL     1       3.649  -1.290  -0.188  1.00  0.00     0.017 A 
HETATM   14  C12 UNL     1       4.874  -0.640  -0.297  1.00  0.00     0.002 A 
HETATM   15  C13 UNL     1       4.932   0.757  -0.290  1.00  0.00     0.000 A 
HETATM   16  C14 UNL     1       3.755   1.491  -0.191  1.00  0.00     0.005 A 
HETATM   17  O2  UNL     1       1.373   2.883   0.020  1.00  0.00    -0.286 OA
ENDROOT
TORSDOF 0
