REMARK  2 active torsions:
REMARK  status: ('A' for Active; 'I' for Inactive)
REMARK    1  A    between atoms: C12_13  and  O4_19 
REMARK    2  A    between atoms: C13_14  and  C15_17 
ROOT
HETATM    1  C1  UNL     1      -2.151  -1.015   0.149  1.00  0.00     0.000 A 
HETATM    2  C2  UNL     1      -1.729  -2.332  -0.015  1.00  0.00     0.000 A 
HETATM    3  C3  UNL     1      -0.362  -2.625  -0.074  1.00  0.00     0.003 A 
HETATM    4  C4  UNL     1       0.586  -1.601   0.030  1.00  0.00     0.042 A 
HETATM    5  C5  UNL     1       0.162  -0.271   0.198  1.00  0.00     0.042 A 
HETATM    6  C6  UNL     1      -1.207   0.013   0.255  1.00  0.00     0.003 A 
HETATM    7  C7  UNL     1       1.141   0.841   0.309  1.00  0.00     0.198 A 
HETATM    8  C8  UNL     1       2.589   0.526   0.160  1.00  0.00     0.067 A 
HETATM    9  C9  UNL     1       2.999  -0.811   0.013  1.00  0.00     0.046 A 
HETATM   10  C10 UNL     1       2.029  -1.935  -0.038  1.00  0.00     0.196 A 
HETATM   11  O1  UNL     1       2.402  -3.102  -0.134  1.00  0.00    -0.287 OA
HETATM   12  C11 UNL     1       4.357  -1.103  -0.117  1.00  0.00     0.027 C 
HETATM   13  C12 UNL     1       5.348  -0.113  -0.050  1.00  0.00     0.095 C 
HETATM   14  C13 UNL     1       4.909   1.218  -0.019  1.00  0.00     0.058 C 
HETATM   15  C14 UNL     1       3.549   1.552   0.148  1.00  0.00     0.135 C 
HETATM   16  O2  UNL     1       3.208   2.871   0.202  1.00  0.00    -0.190 OA
HETATM   17  O5  UNL     1       0.741   1.980   0.532  1.00  0.00    -0.286 OA
ENDROOT
BRANCH  13  18
HETATM   18  O4  UNL     1       6.657  -0.447  -0.284  1.00  0.00    -0.328 OA
HETATM   19  C16 UNL     1       7.367  -0.783   0.886  1.00  0.00     0.181 C 
ENDBRANCH  13  18
BRANCH  14  20
HETATM   20  C15 UNL     1       5.908   2.350  -0.149  1.00  0.00     0.213 C 
HETATM   21  O3  UNL     1       5.834   2.913  -1.454  1.00  0.00    -0.215 OA
ENDBRANCH  14  20
TORSDOF 2
