REMARK  2 active torsions:
REMARK  status: ('A' for Active; 'I' for Inactive)
REMARK    1  A    between atoms: N3_10  and  C7_13 
REMARK    2  A    between atoms: C8_15  and  C11_20 
ROOT
HETATM    1  C1  UNL     1       2.206   0.702   0.890  1.00  0.00     0.159 A 
HETATM    2  C2  UNL     1       1.033   0.300   0.369  1.00  0.00     0.173 A 
HETATM    3  N1  UNL     1       0.090  -0.163   1.067  1.00  0.00    -0.173 NA
HETATM    4  C3  UNL     1       0.225  -0.265   2.324  1.00  0.00     0.353 A 
HETATM    5  N2  UNL     1       1.391   0.138   2.940  1.00  0.00    -0.255 N 
HETATM    6  C4  UNL     1       2.422   0.633   2.211  1.00  0.00     0.219 A 
HETATM    7  O1  UNL     1       3.590   1.023   2.795  1.00  0.00    -0.169 OA
HETATM    8  C5  UNL     1       1.473   0.016   4.397  1.00  0.00     0.137 C 
HETATM    9  O2  UNL     1      -0.684  -0.724   2.983  1.00  0.00    -0.244 OA
HETATM   10  N3  UNL     1       1.206   0.520  -0.865  1.00  0.00    -0.270 N 
HETATM   11  C6  UNL     1       2.350   1.004  -1.103  1.00  0.00     0.182 A 
HETATM   12  N4  UNL     1       2.989   1.121  -0.017  1.00  0.00    -0.219 NA
ENDROOT
BRANCH  10  13
HETATM   13  C7  UNL     1       0.176   0.264  -1.883  1.00  0.00     0.241 C 
HETATM   14  O3  UNL     1      -1.026   0.944  -1.576  1.00  0.00    -0.331 OA
HETATM   15  C8  UNL     1      -2.098   0.102  -1.885  1.00  0.00     0.183 C 
HETATM   16  C9  UNL     1      -1.601  -1.299  -1.591  1.00  0.00     0.216 C 
HETATM   17  C10 UNL     1      -0.156  -1.218  -2.034  1.00  0.00     0.234 C 
HETATM   18  O5  UNL     1      -2.300  -2.265  -2.336  1.00  0.00    -0.218 OA
HETATM   19  O4  UNL     1      -0.085  -1.591  -3.390  1.00  0.00    -0.216 OA
BRANCH  15  20
HETATM   20  C11 UNL     1      -3.318   0.486  -1.069  1.00  0.00     0.214 C 
HETATM   21  O6  UNL     1      -3.757   1.776  -1.443  1.00  0.00    -0.218 OA
ENDBRANCH  15  20
ENDBRANCH  10  13
TORSDOF 2
