REMARK  8 active torsions:
REMARK  status: ('A' for Active; 'I' for Inactive)
REMARK    1  A    between atoms: C3_3  and  O8_37 
REMARK    2  A    between atoms: C6_6  and  C7_7 
REMARK    3  A    between atoms: C8_8  and  C23_31 
REMARK    4  A    between atoms: C9_9  and  C22_28 
REMARK    5  A    between atoms: C10_10  and  O5_24 
REMARK    6  A    between atoms: C15_16  and  O3_21 
REMARK    7  A    between atoms: C17_18  and  O2_19 
REMARK    8  A    between atoms: O5_24  and  C20_25 
ROOT
HETATM    1  C7  UNL     1       3.696   0.729   0.180  1.00  0.00     0.153 A 
HETATM    2  C8  UNL     1       4.886   0.808   1.172  1.00  0.00     0.066 C 
HETATM    3  C9  UNL     1       5.237  -0.654   1.524  1.00  0.00     0.120 C 
HETATM    4  C10 UNL     1       4.848  -1.442   0.265  1.00  0.00     0.168 C 
HETATM    5  C11 UNL     1       3.602  -0.753  -0.283  1.00  0.00     0.202 A 
HETATM    6  C12 UNL     1       2.281  -1.195   0.290  1.00  0.00     0.055 A 
HETATM    7  C13 UNL     1       1.708  -0.144   0.987  1.00  0.00     0.097 A 
HETATM    8  O1  UNL     1       2.513   0.969   0.955  1.00  0.00    -0.329 OA
HETATM    9  C14 UNL     1       0.462  -0.243   1.601  1.00  0.00     0.048 A 
HETATM   10  C15 UNL     1      -0.240  -1.453   1.520  1.00  0.00     0.098 A 
HETATM   11  C16 UNL     1       0.360  -2.484   0.774  1.00  0.00     0.048 A 
HETATM   12  C17 UNL     1       1.616  -2.419   0.147  1.00  0.00     0.096 A 
HETATM   13  O4  UNL     1       3.539  -0.864  -1.685  1.00  0.00    -0.216 OA
ENDROOT
BRANCH   1  14
HETATM   14  C6  UNL     1       3.764   1.749  -0.950  1.00  0.00     0.006 A 
HETATM   15  C1  UNL     1       2.928   2.870  -0.976  1.00  0.00     0.000 A 
HETATM   16  C2  UNL     1       3.010   3.820  -1.995  1.00  0.00     0.024 A 
HETATM   17  C3  UNL     1       3.924   3.718  -3.051  1.00  0.00     0.094 A 
HETATM   18  C4  UNL     1       4.766   2.598  -3.014  1.00  0.00     0.024 A 
HETATM   19  C5  UNL     1       4.690   1.647  -1.994  1.00  0.00     0.000 A 
BRANCH  17  20
HETATM   20  O8  UNL     1       3.942   4.702  -4.007  1.00  0.00    -0.328 OA
HETATM   21  C29 UNL     1       4.888   4.609  -5.046  1.00  0.00     0.181 C 
ENDBRANCH  17  20
ENDBRANCH   1  14
BRANCH   2  22
HETATM   22  C23 UNL     1       6.031   1.677   0.667  1.00  0.00    -0.019 A 
HETATM   23  C24 UNL     1       5.941   3.070   0.804  1.00  0.00    -0.004 A 
HETATM   24  C25 UNL     1       6.941   3.922   0.331  1.00  0.00    -0.000 A 
HETATM   25  C26 UNL     1       8.068   3.392  -0.297  1.00  0.00    -0.000 A 
HETATM   26  C27 UNL     1       8.183   2.009  -0.439  1.00  0.00    -0.000 A 
HETATM   27  C28 UNL     1       7.177   1.167   0.040  1.00  0.00    -0.004 A 
ENDBRANCH   2  22
BRANCH   3  28
HETATM   28  C22 UNL     1       4.525  -1.165   2.774  1.00  0.00     0.276 C 
HETATM   29  N1  UNL     1       5.102  -2.254   3.348  1.00  0.00    -0.107 N 
HETATM   30  O7  UNL     1       3.529  -0.685   3.253  1.00  0.00    -0.269 OA
ENDBRANCH   3  28
BRANCH   4  31
HETATM   31  O5  UNL     1       4.615  -2.800   0.473  1.00  0.00    -0.301 OA
BRANCH  31  32
HETATM   32  C20 UNL     1       5.636  -3.595   0.877  1.00  0.00     0.272 C 
HETATM   33  C21 UNL     1       5.156  -5.027   0.998  1.00  0.00     0.106 C 
HETATM   34  O6  UNL     1       6.753  -3.210   1.138  1.00  0.00    -0.264 OA
ENDBRANCH  31  32
ENDBRANCH   4  31
BRANCH  12  35
HETATM   35  O2  UNL     1       2.173  -3.424  -0.602  1.00  0.00    -0.328 OA
HETATM   36  C18 UNL     1       1.423  -4.592  -0.836  1.00  0.00     0.181 C 
ENDBRANCH  12  35
BRANCH  10  37
HETATM   37  O3  UNL     1      -1.488  -1.672   2.049  1.00  0.00    -0.328 OA
HETATM   38  C19 UNL     1      -2.181  -0.580   2.606  1.00  0.00     0.181 C 
ENDBRANCH  10  37
TORSDOF 8
