REMARK  2 active torsions:
REMARK  status: ('A' for Active; 'I' for Inactive)
REMARK    1  A    between atoms: C15_16  and  O1_17 
REMARK    2  A    between atoms: O1_17  and  C16_18 
ROOT
HETATM    1  C1  UNL     1      -0.725  -0.451   0.844  1.00  0.00     0.119 A 
HETATM    2  C2  UNL     1      -0.625  -1.829   0.976  1.00  0.00     0.119 A 
HETATM    3  C3  UNL     1       0.615  -2.455   1.044  1.00  0.00     0.024 A 
HETATM    4  C4  UNL     1       1.773  -1.667   0.961  1.00  0.00     0.009 A 
HETATM    5  C5  UNL     1       1.669  -0.264   0.803  1.00  0.00    -0.018 A 
HETATM    6  C6  UNL     1       0.408   0.351   0.765  1.00  0.00     0.022 A 
HETATM    7  C7  UNL     1       2.926   0.577   0.683  1.00  0.00     0.088 C 
HETATM    8  C8  UNL     1       4.036  -0.353   0.207  1.00  0.00     0.244 C 
HETATM    9  N1  UNL     1       4.211  -1.445   1.126  1.00  0.00     0.144 N 
HETATM   10  C9  UNL     1       3.116  -2.385   1.011  1.00  0.00     0.277 C 
HETATM   11  C10 UNL     1       5.543  -1.944   0.813  1.00  0.00     0.255 C 
HETATM   12  C11 UNL     1       6.401  -0.673   0.584  1.00  0.00     0.059 C 
HETATM   13  C12 UNL     1       5.357   0.326   0.163  1.00  0.00    -0.013 C 
HETATM   14  C13 UNL     1       5.476   1.627  -0.116  1.00  0.00     0.002 C 
HETATM   15  C14 UNL     1       4.262   2.492  -0.375  1.00  0.00     0.202 C 
HETATM   16  C15 UNL     1       2.904   1.774  -0.280  1.00  0.00     0.165 C 
HETATM   17  O3  UNL     1       4.258   3.567   0.551  1.00  0.00    -0.216 OA
HETATM   18  O4  UNL     1      -1.894  -2.372   1.021  1.00  0.00    -0.300 OA
HETATM   19  C18 UNL     1      -2.832  -1.294   0.911  1.00  0.00     0.304 A 
HETATM   20  O5  UNL     1      -2.058  -0.093   0.809  1.00  0.00    -0.300 OA
ENDROOT
BRANCH  16  21
HETATM   21  O1  UNL     1       2.490   1.312  -1.534  1.00  0.00    -0.301 OA
BRANCH  21  22
HETATM   22  C16 UNL     1       1.913   2.208  -2.379  1.00  0.00     0.272 C 
HETATM   23  C17 UNL     1       1.357   1.490  -3.591  1.00  0.00     0.106 C 
HETATM   24  O2  UNL     1       1.826   3.397  -2.171  1.00  0.00    -0.264 OA
ENDBRANCH  21  22
ENDBRANCH  16  21
TORSDOF 2
