REMARK  6 active torsions:
REMARK  status: ('A' for Active; 'I' for Inactive)
REMARK    1  A    between atoms: C3_3  and  O5_19 
REMARK    2  A    between atoms: C13_15  and  O3_16 
REMARK    3  A    between atoms: O5_19  and  C15_20 
REMARK    4  A    between atoms: C19_24  and  C20_26 
REMARK    5  A    between atoms: C20_26  and  O7_27 
REMARK    6  A    between atoms: O7_27  and  C21_28 
ROOT
HETATM    1  C15 UNL     1       1.496  -3.388   0.629  1.00  0.00     0.274 C 
HETATM    2  C16 UNL     1       0.788  -4.401   1.499  1.00  0.00     0.241 C 
HETATM    3  C17 UNL     1      -0.618  -4.561   0.962  1.00  0.00     0.220 C 
HETATM    4  C18 UNL     1      -1.297  -3.206   0.949  1.00  0.00     0.215 C 
HETATM    5  C19 UNL     1      -0.451  -2.172   0.207  1.00  0.00     0.180 C 
HETATM    6  O6  UNL     1       0.843  -2.143   0.755  1.00  0.00    -0.326 OA
HETATM    7  O12 UNL     1      -2.551  -3.365   0.330  1.00  0.00    -0.218 OA
HETATM    8  O13 UNL     1      -1.343  -5.446   1.777  1.00  0.00    -0.218 OA
HETATM    9  O14 UNL     1       1.456  -5.634   1.431  1.00  0.00    -0.215 OA
ENDROOT
BRANCH   1  10
HETATM   10  O5  UNL     1       2.856  -3.301   1.005  1.00  0.00    -0.303 OA
BRANCH  10  11
HETATM   11  C3  UNL     1       3.323  -2.124   1.537  1.00  0.00     0.104 A 
HETATM   12  C2  UNL     1       3.648  -2.128   2.845  1.00  0.00     0.052 A 
HETATM   13  C1  UNL     1       4.147  -1.065   3.490  1.00  0.00     0.135 A 
HETATM   14  C6  UNL     1       4.347   0.039   2.761  1.00  0.00     0.052 A 
HETATM   15  O15 UNL     1       4.453  -1.116   4.814  1.00  0.00    -0.190 OA
HETATM   16  C5  UNL     1       4.074   0.098   1.446  1.00  0.00     0.107 A 
HETATM   17  C4  UNL     1       3.583  -0.994   0.829  1.00  0.00     0.084 A 
HETATM   18  O1  UNL     1       4.352   1.254   0.789  1.00  0.00    -0.305 OA
HETATM   19  C9  UNL     1       3.326  -0.907  -0.509  1.00  0.00     0.203 C 
HETATM   20  C8  UNL     1       3.445   0.289  -1.159  1.00  0.00     0.089 A 
HETATM   21  O2  UNL     1       2.951  -1.883  -1.118  1.00  0.00    -0.286 OA
HETATM   22  C7  UNL     1       3.945   1.361  -0.503  1.00  0.00     0.127 A 
HETATM   23  C10 UNL     1       3.025   0.391  -2.441  1.00  0.00     0.136 A 
HETATM   24  C13 UNL     1       4.018   2.570  -1.114  1.00  0.00     0.117 A 
HETATM   25  C12 UNL     1       3.595   2.647  -2.388  1.00  0.00     0.028 A 
HETATM   26  C11 UNL     1       3.106   1.588  -3.036  1.00  0.00     0.030 A 
HETATM   27  O4  UNL     1       2.483  -0.632  -3.163  1.00  0.00    -0.190 OA
BRANCH  24  28
HETATM   28  O3  UNL     1       4.524   3.732  -0.572  1.00  0.00    -0.326 OA
HETATM   29  C14 UNL     1       5.514   3.676   0.427  1.00  0.00     0.181 C 
ENDBRANCH  24  28
ENDBRANCH  10  11
ENDBRANCH   1  10
BRANCH   5  30
HETATM   30  C20 UNL     1      -1.063  -0.778   0.299  1.00  0.00     0.177 C 
BRANCH  30  31
HETATM   31  O7  UNL     1      -0.357   0.110  -0.534  1.00  0.00    -0.326 OA
BRANCH  31  32
HETATM   32  C21 UNL     1      -0.930   1.401  -0.578  1.00  0.00     0.270 C 
HETATM   33  C22 UNL     1       0.087   2.348  -1.168  1.00  0.00     0.241 C 
HETATM   34  C23 UNL     1      -0.513   3.724  -1.324  1.00  0.00     0.220 C 
HETATM   35  O11 UNL     1       1.198   2.446  -0.319  1.00  0.00    -0.215 OA
HETATM   36  C24 UNL     1      -1.752   3.599  -2.183  1.00  0.00     0.215 C 
HETATM   37  O10 UNL     1       0.428   4.563  -1.946  1.00  0.00    -0.218 OA
HETATM   38  C25 UNL     1      -2.692   2.561  -1.588  1.00  0.00     0.181 C 
HETATM   39  O9  UNL     1      -2.380   4.856  -2.241  1.00  0.00    -0.218 OA
HETATM   40  O8  UNL     1      -2.043   1.320  -1.443  1.00  0.00    -0.326 OA
ENDBRANCH  31  32
ENDBRANCH  30  31
ENDBRANCH   5  30
TORSDOF 6
