REMARK  0 active torsions:
REMARK  status: ('A' for Active; 'I' for Inactive)
ROOT
HETATM    1  C1  UNL     1      -4.214  -0.231  -0.025  1.00  0.00    -0.000 A 
HETATM    2  C2  UNL     1      -4.402  -1.561  -0.094  1.00  0.00     0.002 A 
HETATM    3  C3  UNL     1      -3.357  -2.407  -0.072  1.00  0.00     0.018 A 
HETATM    4  C4  UNL     1      -2.126  -1.887   0.004  1.00  0.00     0.072 A 
HETATM    5  C5  UNL     1      -1.941  -0.563   0.092  1.00  0.00    -0.001 A 
HETATM    6  C6  UNL     1      -2.978   0.283   0.085  1.00  0.00    -0.003 A 
HETATM    7  C7  UNL     1      -0.496  -0.259   0.347  1.00  0.00     0.073 C 
HETATM    8  C8  UNL     1       0.150  -1.573  -0.136  1.00  0.00     0.097 C 
HETATM    9  N1  UNL     1      -1.010  -2.492   0.015  1.00  0.00    -0.274 NA
HETATM   10  C9  UNL     1       0.545  -1.567  -1.626  1.00  0.00     0.023 C 
HETATM   11  C10 UNL     1       1.455  -0.384  -1.991  1.00  0.00     0.004 C 
HETATM   12  C11 UNL     1       1.668   0.465  -0.727  1.00  0.00     0.020 C 
HETATM   13  C12 UNL     1       0.262   0.922  -0.272  1.00  0.00     0.090 C 
HETATM   14  N2  UNL     1       0.453   1.808   0.850  1.00  0.00    -0.321 N 
HETATM   15  C13 UNL     1       1.116   3.075   0.610  1.00  0.00     0.104 C 
HETATM   16  C14 UNL     1       1.806   3.043  -0.767  1.00  0.00     0.024 C 
HETATM   17  C15 UNL     1       2.552   1.712  -0.988  1.00  0.00     0.004 C 
HETATM   18  C16 UNL     1       0.140   1.294   2.065  1.00  0.00     0.240 C 
HETATM   19  C17 UNL     1      -0.300  -0.146   1.893  1.00  0.00     0.144 C 
HETATM   20  C18 UNL     1       0.787  -1.176   2.139  1.00  0.00     0.161 C 
HETATM   21  C19 UNL     1       1.363  -1.596   0.796  1.00  0.00     0.079 C 
HETATM   22  C20 UNL     1       2.330  -0.489   0.312  1.00  0.00     0.011 C 
HETATM   23  O1  UNL     1       1.143  -1.594   3.216  1.00  0.00    -0.295 OA
HETATM   24  O2  UNL     1       0.242   1.892   3.109  1.00  0.00    -0.272 OA
ENDROOT
TORSDOF 0
