REMARK  8 active torsions:
REMARK  status: ('A' for Active; 'I' for Inactive)
REMARK    1  A    between atoms: C3_3  and  O4_11 
REMARK    2  A    between atoms: C5_6  and  C6_7 
REMARK    3  A    between atoms: C6_7  and  O3_9 
REMARK    4  A    between atoms: O4_11  and  C8_12 
REMARK    5  A    between atoms: C9_14  and  C13_21 
REMARK    6  A    between atoms: C14_23  and  C17_27 
REMARK    7  A    between atoms: C17_27  and  O11_28 
REMARK    8  A    between atoms: O11_28  and  C18_29 
ROOT
HETATM    1  C1  UNL     1       0.534   2.817  -0.911  1.00  0.00     0.055 C 
HETATM    2  C2  UNL     1       0.642   1.315  -0.894  1.00  0.00     0.013 C 
HETATM    3  C3  UNL     1       2.002   0.663  -0.858  1.00  0.00     0.262 C 
HETATM    4  O1  UNL     1       3.076   1.588  -0.698  1.00  0.00    -0.301 OA
HETATM    5  C4  UNL     1       2.841   2.798  -0.115  1.00  0.00     0.120 C 
HETATM    6  C5  UNL     1       1.654   3.424  -0.131  1.00  0.00     0.069 C 
HETATM    7  C14 UNL     1      -0.582   0.764  -0.941  1.00  0.00     0.013 C 
HETATM    8  C15 UNL     1      -1.649   1.831  -0.902  1.00  0.00     0.173 C 
HETATM    9  C16 UNL     1      -0.881   3.033  -0.352  1.00  0.00     0.046 C 
HETATM   10  O10 UNL     1      -2.724   1.492  -0.051  1.00  0.00    -0.219 OA
ENDROOT
BRANCH   3  11
HETATM   11  O4  UNL     1       2.119  -0.178   0.288  1.00  0.00    -0.300 OA
BRANCH  11  12
HETATM   12  C8  UNL     1       3.361  -0.850   0.430  1.00  0.00     0.272 C 
HETATM   13  O5  UNL     1       3.111  -2.234   0.279  1.00  0.00    -0.326 OA
HETATM   14  C9  UNL     1       4.270  -3.013   0.483  1.00  0.00     0.184 C 
HETATM   15  C10 UNL     1       4.794  -2.804   1.900  1.00  0.00     0.215 C 
HETATM   16  C11 UNL     1       5.118  -1.343   2.107  1.00  0.00     0.220 C 
HETATM   17  O8  UNL     1       5.978  -3.529   2.127  1.00  0.00    -0.218 OA
HETATM   18  C12 UNL     1       3.869  -0.546   1.824  1.00  0.00     0.241 C 
HETATM   19  O7  UNL     1       5.528  -1.132   3.433  1.00  0.00    -0.218 OA
HETATM   20  O6  UNL     1       4.184   0.820   1.927  1.00  0.00    -0.215 OA
BRANCH  14  21
HETATM   21  C13 UNL     1       3.963  -4.483   0.232  1.00  0.00     0.214 C 
HETATM   22  O9  UNL     1       3.806  -4.718  -1.153  1.00  0.00    -0.218 OA
ENDBRANCH  14  21
ENDBRANCH  11  12
ENDBRANCH   3  11
BRANCH   7  23
HETATM   23  C17 UNL     1      -1.016  -0.671  -1.042  1.00  0.00     0.176 C 
BRANCH  23  24
HETATM   24  O11 UNL     1       0.031  -1.594  -1.234  1.00  0.00    -0.297 OA
BRANCH  24  25
HETATM   25  C18 UNL     1      -0.371  -2.869  -1.494  1.00  0.00     0.273 C 
HETATM   26  C19 UNL     1       0.818  -3.795  -1.582  1.00  0.00     0.106 C 
HETATM   27  O12 UNL     1      -1.523  -3.221  -1.614  1.00  0.00    -0.264 OA
ENDBRANCH  24  25
ENDBRANCH  23  24
ENDBRANCH   7  23
BRANCH   6  28
HETATM   28  C6  UNL     1       1.550   4.752   0.570  1.00  0.00     0.294 C 
HETATM   29  O2  UNL     1       1.851   4.730   1.760  1.00  0.00    -0.259 OA
BRANCH  28  30
HETATM   30  O3  UNL     1       1.138   5.924   0.007  1.00  0.00    -0.296 OA
HETATM   31  C7  UNL     1       0.931   5.968  -1.385  1.00  0.00     0.185 C 
ENDBRANCH  28  30
ENDBRANCH   6  28
TORSDOF 8
