REMARK  12 active torsions:
REMARK  status: ('A' for Active; 'I' for Inactive)
REMARK    1  A    between atoms: C2_2  and  C3_3 
REMARK    2  A    between atoms: C3_3  and  C4_5 
REMARK    3  A    between atoms: C5_6  and  C6_7 
REMARK    4  A    between atoms: C7_8  and  C8_9 
REMARK    5  A    between atoms: C8_9  and  C9_11 
REMARK    6  A    between atoms: C9_11  and  C10_12 
REMARK    7  A    between atoms: C10_12  and  C11_14 
REMARK    8  A    between atoms: C11_14  and  C12_15 
REMARK    9  A    between atoms: C12_15  and  C13_16 
REMARK   10  A    between atoms: C13_16  and  C14_17 
REMARK   11  A    between atoms: C14_17  and  C15_18 
REMARK   12  A    between atoms: C15_18  and  C16_19 
ROOT
HETATM    1  C9  UNL     1      -0.710   0.458   2.010  1.00  0.00     0.210 C 
HETATM    2  O3  UNL     1       0.287   1.329   2.489  1.00  0.00    -0.218 OA
ENDROOT
BRANCH   1   3
HETATM    3  C8  UNL     1      -2.033   1.216   1.984  1.00  0.00     0.247 C 
HETATM    4  O2  UNL     1      -2.210   1.896   3.216  1.00  0.00    -0.206 OA
BRANCH   3   5
HETATM    5  C7  UNL     1      -2.119   2.179   0.867  1.00  0.00    -0.043 C 
HETATM    6  C6  UNL     1      -2.176   2.940  -0.075  1.00  0.00    -0.011 C 
BRANCH   6   7
HETATM    7  C5  UNL     1      -2.248   3.838  -1.211  1.00  0.00    -0.011 C 
HETATM    8  C4  UNL     1      -2.317   4.579  -2.168  1.00  0.00    -0.041 C 
BRANCH   8   9
HETATM    9  C3  UNL     1      -2.447   5.446  -3.351  1.00  0.00     0.238 C 
HETATM   10  O1  UNL     1      -2.297   4.670  -4.538  1.00  0.00    -0.204 OA
BRANCH   9  11
HETATM   11  C2  UNL     1      -3.759   6.185  -3.324  1.00  0.00     0.019 C 
HETATM   12  C1  UNL     1      -4.909   5.689  -3.803  1.00  0.00    -0.001 C 
ENDBRANCH   9  11
ENDBRANCH   8   9
ENDBRANCH   6   7
ENDBRANCH   3   5
ENDBRANCH   1   3
BRANCH   1  13
HETATM   13  C10 UNL     1      -0.687  -0.816   2.854  1.00  0.00     0.114 C 
HETATM   14 CL1  UNL     1      -0.988  -0.396   4.564  1.00  0.00    -0.112 Cl
BRANCH  13  15
HETATM   15  C11 UNL     1       0.605  -1.636   2.738  1.00  0.00     0.019 C 
BRANCH  15  16
HETATM   16  C12 UNL     1       0.848  -2.238   1.343  1.00  0.00     0.001 C 
BRANCH  16  17
HETATM   17  C13 UNL     1       2.107  -3.120   1.310  1.00  0.00     0.000 C 
BRANCH  17  18
HETATM   18  C14 UNL     1       2.341  -3.739  -0.078  1.00  0.00     0.000 C 
BRANCH  18  19
HETATM   19  C15 UNL     1       3.630  -4.575  -0.124  1.00  0.00     0.000 C 
BRANCH  19  20
HETATM   20  C16 UNL     1       3.854  -5.217  -1.502  1.00  0.00     0.000 C 
HETATM   21  C17 UNL     1       5.158  -6.025  -1.549  1.00  0.00     0.000 C 
ENDBRANCH  19  20
ENDBRANCH  18  19
ENDBRANCH  17  18
ENDBRANCH  16  17
ENDBRANCH  15  16
ENDBRANCH  13  15
ENDBRANCH   1  13
TORSDOF 12
