REMARK  13 active torsions:
REMARK  status: ('A' for Active; 'I' for Inactive)
REMARK    1  A    between atoms: C4_4  and  O10_32 
REMARK    2  A    between atoms: C5_5  and  O8_28 
REMARK    3  A    between atoms: C8_8  and  O1_9 
REMARK    4  A    between atoms: O1_9  and  C9_10 
REMARK    5  A    between atoms: C11_13  and  O6_23 
REMARK    6  A    between atoms: C14_16  and  O3_17 
REMARK    7  A    between atoms: O3_17  and  C15_18 
REMARK    8  A    between atoms: O6_23  and  C18_24 
REMARK    9  A    between atoms: O8_28  and  C21_29 
REMARK   10  A    between atoms: O10_32  and  C23_33 
REMARK   11  A    between atoms: C23_33  and  C24_34 
REMARK   12  A    between atoms: C26_38  and  O13_40 
REMARK   13  A    between atoms: O13_40  and  C28_41 
ROOT
HETATM    1  C1  UNL     1       2.428  -2.021   1.293  1.00  0.00     0.158 C 
HETATM    2  C2  UNL     1       3.077  -1.265   2.478  1.00  0.00     0.045 C 
HETATM    3  C3  UNL     1       3.140   0.213   2.055  1.00  0.00    -0.018 C 
HETATM    4  C4  UNL     1       4.459   0.964   1.813  1.00  0.00     0.170 C 
HETATM    5  C5  UNL     1       4.947   1.135   0.336  1.00  0.00     0.158 C 
HETATM    6  C6  UNL     1       4.900  -0.045  -0.705  1.00  0.00     0.059 C 
HETATM    7  C7  UNL     1       3.476  -0.726  -0.781  1.00  0.00     0.065 C 
HETATM    8  C8  UNL     1       3.321  -2.054   0.019  1.00  0.00     0.155 C 
HETATM    9  C11 UNL     1       2.631  -0.405  -2.060  1.00  0.00     0.156 C 
HETATM   10  C12 UNL     1       3.419  -0.618  -3.365  1.00  0.00     0.146 C 
HETATM   11  C13 UNL     1       4.921  -0.680  -3.170  1.00  0.00     0.062 C 
HETATM   12  C14 UNL     1       5.242   0.426  -2.155  1.00  0.00     0.129 C 
HETATM   13  O5  UNL     1       2.783  -1.849  -3.604  1.00  0.00    -0.351 OA
HETATM   14  C17 UNL     1       1.732  -1.460  -2.733  1.00  0.00     0.172 C 
HETATM   15  C20 UNL     1       6.086  -0.978  -0.320  1.00  0.00     0.005 C 
HETATM   16  C25 UNL     1       1.966   0.795   1.698  1.00  0.00    -0.022 C 
HETATM   17  C26 UNL     1       0.714  -0.026   1.399  1.00  0.00     0.145 C 
HETATM   18  C27 UNL     1       1.003  -1.500   1.057  1.00  0.00     0.068 C 
HETATM   19  C30 UNL     1       1.757   2.276   1.444  1.00  0.00     0.028 C 
HETATM   20  C31 UNL     1       4.364  -1.971   2.978  1.00  0.00     0.007 C 
HETATM   21  C32 UNL     1       2.208  -1.341   3.771  1.00  0.00     0.007 C 
HETATM   22  O15 UNL     1       2.276  -3.370   1.671  1.00  0.00    -0.223 OA
ENDROOT
BRANCH   4  23
HETATM   23  O10 UNL     1       5.539   0.596   2.642  1.00  0.00    -0.296 OA
BRANCH  23  24
HETATM   24  C23 UNL     1       5.493   1.001   3.945  1.00  0.00     0.306 C 
HETATM   25  O12 UNL     1       4.547   1.543   4.471  1.00  0.00    -0.261 OA
BRANCH  24  26
HETATM   26  C24 UNL     1       6.822   0.754   4.637  1.00  0.00     0.277 C 
HETATM   27  O11 UNL     1       7.074  -0.635   4.792  1.00  0.00    -0.209 OA
ENDBRANCH  24  26
ENDBRANCH  23  24
ENDBRANCH   4  23
BRANCH   5  28
HETATM   28  O8  UNL     1       4.342   2.271  -0.226  1.00  0.00    -0.301 OA
BRANCH  28  29
HETATM   29  C21 UNL     1       4.887   3.493   0.041  1.00  0.00     0.272 C 
HETATM   30  C22 UNL     1       4.161   4.575  -0.729  1.00  0.00     0.106 C 
HETATM   31  O9  UNL     1       5.830   3.692   0.774  1.00  0.00    -0.264 OA
ENDBRANCH  28  29
ENDBRANCH   5  28
BRANCH  17  32
HETATM   32  O13 UNL     1      -0.015   0.544   0.329  1.00  0.00    -0.300 OA
BRANCH  32  33
HETATM   33  C28 UNL     1      -1.260   0.054   0.075  1.00  0.00     0.273 C 
HETATM   34  C29 UNL     1      -1.831   0.685  -1.178  1.00  0.00     0.106 C 
HETATM   35  O14 UNL     1      -1.825  -0.786   0.737  1.00  0.00    -0.264 OA
ENDBRANCH  32  33
ENDBRANCH  17  32
BRANCH  12  36
HETATM   36  O3  UNL     1       6.572   0.842  -2.271  1.00  0.00    -0.304 OA
BRANCH  36  37
HETATM   37  C15 UNL     1       6.879   1.763  -3.226  1.00  0.00     0.272 C 
HETATM   38  C16 UNL     1       8.363   2.063  -3.203  1.00  0.00     0.106 C 
HETATM   39  O4  UNL     1       6.085   2.272  -3.985  1.00  0.00    -0.264 OA
ENDBRANCH  36  37
ENDBRANCH  12  36
BRANCH   8  40
HETATM   40  O1  UNL     1       2.912  -3.100  -0.808  1.00  0.00    -0.302 OA
BRANCH  40  41
HETATM   41  C9  UNL     1       3.437  -4.361  -0.842  1.00  0.00     0.272 C 
HETATM   42  O2  UNL     1       2.904  -5.243  -1.481  1.00  0.00    -0.264 OA
HETATM   43  C10 UNL     1       4.735  -4.618  -0.098  1.00  0.00     0.106 C 
ENDBRANCH  40  41
ENDBRANCH   8  40
BRANCH   9  44
HETATM   44  O6  UNL     1       2.063   0.869  -1.959  1.00  0.00    -0.302 OA
BRANCH  44  45
HETATM   45  C18 UNL     1       1.372   1.516  -2.937  1.00  0.00     0.272 C 
HETATM   46  C19 UNL     1       0.983   2.902  -2.462  1.00  0.00     0.106 C 
HETATM   47  O7  UNL     1       1.092   1.095  -4.035  1.00  0.00    -0.264 OA
ENDBRANCH  44  45
ENDBRANCH   9  44
TORSDOF 13
