REMARK  5 active torsions:
REMARK  status: ('A' for Active; 'I' for Inactive)
REMARK    1  A    between atoms: C11_11  and  O1_12 
REMARK    2  A    between atoms: O1_12  and  C12_13 
REMARK    3  A    between atoms: C12_13  and  C13_14 
REMARK    4  A    between atoms: C19_21  and  O5_28 
REMARK    5  A    between atoms: O5_28  and  C24_29 
ROOT
HETATM    1  C1  UNL     1      -0.620   0.838   2.313  1.00  0.00     0.008 C 
HETATM    2  C2  UNL     1      -1.538  -0.211   1.798  1.00  0.00     0.171 C 
HETATM    3  C3  UNL     1      -0.920  -1.402   1.090  1.00  0.00     0.102 C 
HETATM    4  C4  UNL     1       0.620  -1.425   1.022  1.00  0.00     0.162 C 
HETATM    5  C5  UNL     1       1.172  -0.911   2.368  1.00  0.00     0.046 C 
HETATM    6  C6  UNL     1       0.690   0.532   2.478  1.00  0.00    -0.007 C 
HETATM    7  C7  UNL     1       1.713   1.624   2.640  1.00  0.00     0.227 C 
HETATM    8  C8  UNL     1       2.770   1.629   1.545  1.00  0.00     0.186 C 
HETATM    9  C9  UNL     1       2.494   1.587   0.027  1.00  0.00     0.087 C 
HETATM   10  C10 UNL     1       1.217   0.799  -0.418  1.00  0.00     0.070 C 
HETATM   11  C11 UNL     1       1.216  -0.756  -0.254  1.00  0.00     0.156 C 
HETATM   12  C19 UNL     1       0.539   1.278  -1.727  1.00  0.00     0.156 C 
HETATM   13  C20 UNL     1       0.902   2.656  -2.308  1.00  0.00     0.146 C 
HETATM   14  C21 UNL     1       2.143   3.355  -1.773  1.00  0.00     0.066 C 
HETATM   15  C22 UNL     1       2.323   3.089  -0.288  1.00  0.00     0.161 C 
HETATM   16  O3  UNL     1       3.441   3.829   0.164  1.00  0.00    -0.223 OA
HETATM   17  O4  UNL     1       1.173   2.127  -3.587  1.00  0.00    -0.351 OA
HETATM   18  C23 UNL     1       1.074   0.809  -3.089  1.00  0.00     0.172 C 
HETATM   19  C26 UNL     1       3.778   1.053  -0.653  1.00  0.00     0.010 C 
HETATM   20  O7  UNL     1       3.890   1.853   1.952  1.00  0.00    -0.293 OA
HETATM   21  O8  UNL     1       2.353   1.562   3.913  1.00  0.00    -0.211 OA
HETATM   22  C27 UNL     1       0.594  -1.647   3.608  1.00  0.00     0.007 C 
HETATM   23  C28 UNL     1       2.695  -1.174   2.473  1.00  0.00     0.007 C 
HETATM   24  O9  UNL     1       0.969  -2.789   0.927  1.00  0.00    -0.223 OA
HETATM   25  O10 UNL     1      -2.755  -0.067   1.801  1.00  0.00    -0.292 OA
HETATM   26  C29 UNL     1      -1.212   2.216   2.500  1.00  0.00     0.034 C 
ENDROOT
BRANCH  11  27
HETATM   27  O1  UNL     1       0.589  -1.334  -1.370  1.00  0.00    -0.298 OA
BRANCH  27  28
HETATM   28  C12 UNL     1       0.976  -2.528  -1.910  1.00  0.00     0.296 C 
HETATM   29  O2  UNL     1       0.264  -3.043  -2.768  1.00  0.00    -0.259 OA
BRANCH  28  30
HETATM   30  C13 UNL     1       2.237  -3.278  -1.584  1.00  0.00     0.063 A 
HETATM   31  C14 UNL     1       2.157  -4.628  -1.228  1.00  0.00     0.005 A 
HETATM   32  C15 UNL     1       3.322  -5.336  -0.928  1.00  0.00     0.000 A 
HETATM   33  C16 UNL     1       4.565  -4.704  -1.002  1.00  0.00     0.000 A 
HETATM   34  C17 UNL     1       4.646  -3.362  -1.383  1.00  0.00     0.000 A 
HETATM   35  C18 UNL     1       3.484  -2.652  -1.684  1.00  0.00     0.005 A 
ENDBRANCH  28  30
ENDBRANCH  27  28
ENDBRANCH  11  27
BRANCH  12  36
HETATM   36  O5  UNL     1      -0.840   1.105  -1.569  1.00  0.00    -0.302 OA
BRANCH  36  37
HETATM   37  C24 UNL     1      -1.783   1.329  -2.521  1.00  0.00     0.272 C 
HETATM   38  C25 UNL     1      -3.151   0.996  -1.958  1.00  0.00     0.106 C 
HETATM   39  O6  UNL     1      -1.593   1.739  -3.643  1.00  0.00    -0.264 OA
ENDBRANCH  36  37
ENDBRANCH  12  36
TORSDOF 5
