REMARK  7 active torsions:
REMARK  status: ('A' for Active; 'I' for Inactive)
REMARK    1  A    between atoms: C1_1  and  C16_17 
REMARK    2  A    between atoms: C9_9  and  O1_15 
REMARK    3  A    between atoms: C10_10  and  C12_12 
REMARK    4  A    between atoms: C16_17  and  C17_18 
REMARK    5  A    between atoms: C17_18  and  C18_19 
REMARK    6  A    between atoms: C18_19  and  C19_20 
REMARK    7  A    between atoms: C19_20  and  C20_21 
ROOT
HETATM    1  C1  UNL     1       0.221   0.875  -0.606  1.00  0.00     0.004 C 
HETATM    2  C2  UNL     1      -0.296  -0.021  -1.743  1.00  0.00     0.001 C 
HETATM    3  C3  UNL     1      -1.096  -1.240  -1.255  1.00  0.00     0.005 C 
HETATM    4  C4  UNL     1      -0.739  -1.754   0.145  1.00  0.00     0.026 C 
HETATM    5  C5  UNL     1       0.722  -2.079   0.349  1.00  0.00    -0.026 A 
HETATM    6  C6  UNL     1       1.743  -1.123   0.269  1.00  0.00    -0.024 A 
HETATM    7  C7  UNL     1       1.563   0.344  -0.071  1.00  0.00     0.026 C 
HETATM    8  C8  UNL     1       3.051  -1.536   0.556  1.00  0.00     0.019 A 
HETATM    9  C9  UNL     1       3.427  -2.842   0.905  1.00  0.00     0.090 A 
HETATM   10  C10 UNL     1       2.387  -3.783   1.003  1.00  0.00    -0.001 A 
HETATM   11  C11 UNL     1       1.077  -3.382   0.715  1.00  0.00    -0.007 A 
ENDROOT
BRANCH   1  12
HETATM   12  C16 UNL     1       0.400   2.342  -1.065  1.00  0.00     0.000 C 
BRANCH  12  13
HETATM   13  C17 UNL     1      -0.898   3.168  -1.006  1.00  0.00     0.003 C 
BRANCH  13  14
HETATM   14  C18 UNL     1      -0.643   4.649  -1.335  1.00  0.00     0.032 C 
BRANCH  14  15
HETATM   15  C19 UNL     1      -1.826   5.583  -1.100  1.00  0.00     0.151 A 
HETATM   16  C21 UNL     1      -2.552   6.118  -2.216  1.00  0.00     0.172 A 
HETATM   17  O3  UNL     1      -1.557   7.011  -1.778  1.00  0.00    -0.351 OA
BRANCH  15  18
HETATM   18  C20 UNL     1      -2.364   5.729   0.317  1.00  0.00     0.212 C 
HETATM   19  O2  UNL     1      -3.497   6.579   0.445  1.00  0.00    -0.218 OA
ENDBRANCH  15  18
ENDBRANCH  14  15
ENDBRANCH  13  14
ENDBRANCH  12  13
ENDBRANCH   1  12
BRANCH   9  20
HETATM   20  O1  UNL     1       4.712  -3.199   1.231  1.00  0.00    -0.328 OA
HETATM   21  C15 UNL     1       5.657  -2.187   1.489  1.00  0.00     0.181 C 
ENDBRANCH   9  20
BRANCH  10  22
HETATM   22  C12 UNL     1       2.629  -5.221   1.447  1.00  0.00     0.024 C 
HETATM   23  C13 UNL     1       3.670  -5.964   0.593  1.00  0.00     0.005 C 
HETATM   24  C14 UNL     1       2.964  -5.291   2.946  1.00  0.00     0.005 C 
ENDBRANCH  10  22
TORSDOF 7
