REMARK  3 active torsions:
REMARK  status: ('A' for Active; 'I' for Inactive)
REMARK    1  A    between atoms: C7_7  and  C9_10 
REMARK    2  A    between atoms: C9_10  and  C10_11 
REMARK    3  A    between atoms: C10_11  and  N2_12 
ROOT
HETATM    1  C1  UNL     1       2.848   0.923  -1.676  1.00  0.00     0.131 A 
HETATM    2  C2  UNL     1       3.912  -0.024  -1.583  1.00  0.00     0.029 A 
HETATM    3  C3  UNL     1       3.735  -1.295  -1.078  1.00  0.00     0.021 A 
HETATM    4  C4  UNL     1       2.435  -1.645  -0.637  1.00  0.00     0.081 A 
HETATM    5  C5  UNL     1       1.376  -0.735  -0.715  1.00  0.00     0.017 A 
HETATM    6  C6  UNL     1       1.585   0.563  -1.246  1.00  0.00     0.029 A 
HETATM    7  C7  UNL     1       0.211  -1.376  -0.193  1.00  0.00     0.001 A 
HETATM    8  C8  UNL     1       0.590  -2.645   0.178  1.00  0.00     0.095 A 
HETATM    9  N1  UNL     1       1.937  -2.809  -0.091  1.00  0.00    -0.244 NA
HETATM   10  O1  UNL     1       3.069   2.166  -2.180  1.00  0.00    -0.190 OA
ENDROOT
BRANCH   7  11
HETATM   11  C9  UNL     1      -1.166  -0.788  -0.066  1.00  0.00     0.063 C 
BRANCH  11  12
HETATM   12  C10 UNL     1      -1.223   0.282   1.038  1.00  0.00     0.255 C 
BRANCH  12  13
HETATM   13  N2  UNL     1      -2.576   0.701   1.394  1.00  0.00     0.142 N 
HETATM   14  C11 UNL     1      -2.534   1.674   2.478  1.00  0.00     0.285 C 
HETATM   15  C12 UNL     1      -3.310   1.240   0.259  1.00  0.00     0.285 C 
ENDBRANCH  12  13
ENDBRANCH  11  12
ENDBRANCH   7  11
TORSDOF 3
