REMARK  11 active torsions:
REMARK  status: ('A' for Active; 'I' for Inactive)
REMARK    1  A    between atoms: C1_1  and  C2_2 
REMARK    2  A    between atoms: C1_1  and  C16_17 
REMARK    3  A    between atoms: C3_3  and  C4_4 
REMARK    4  A    between atoms: C5_5  and  C6_6 
REMARK    5  A    between atoms: C7_7  and  C8_8 
REMARK    6  A    between atoms: C9_9  and  C10_10 
REMARK    7  A    between atoms: C10_10  and  C11_11 
REMARK    8  A    between atoms: C11_11  and  C12_12 
REMARK    9  A    between atoms: C12_12  and  C13_13 
REMARK   10  A    between atoms: C13_13  and  C14_14 
REMARK   11  A    between atoms: C17_18  and  C18_19 
ROOT
HETATM    1  C6  UNL     1       6.951   0.299  -0.437  1.00  0.00     0.050 C 
HETATM    2  C7  UNL     1       7.706   1.412  -0.504  1.00  0.00     0.009 C 
ENDROOT
BRANCH   1   3
HETATM    3  C5  UNL     1       5.477   0.362  -0.480  1.00  0.00    -0.050 C 
HETATM    4  C4  UNL     1       4.265   0.382  -0.500  1.00  0.00    -0.009 C 
BRANCH   4   5
HETATM    5  C3  UNL     1       2.815   0.381  -0.509  1.00  0.00    -0.013 C 
HETATM    6  C2  UNL     1       1.603   0.372  -0.507  1.00  0.00    -0.073 C 
BRANCH   6   7
HETATM    7  C1  UNL     1       0.130   0.363  -0.481  1.00  0.00     0.102 C 
BRANCH   7   8
HETATM    8  C16 UNL     1      -0.432   1.760  -0.480  1.00  0.00    -0.014 C 
HETATM    9  C17 UNL     1      -1.744   2.042  -0.487  1.00  0.00     0.006 C 
BRANCH   9  10
HETATM   10  C18 UNL     1      -2.828   0.998  -0.495  1.00  0.00     0.208 C 
HETATM   11  O2  UNL     1      -4.119   1.594  -0.464  1.00  0.00    -0.215 OA
ENDBRANCH   9  10
ENDBRANCH   7   8
ENDBRANCH   6   7
ENDBRANCH   4   5
ENDBRANCH   1   3
BRANCH   2  12
HETATM   12  C8  UNL     1       9.173   1.421  -0.428  1.00  0.00    -0.004 C 
HETATM   13  C9  UNL     1       9.959   0.359  -0.693  1.00  0.00    -0.026 C 
BRANCH  13  14
HETATM   14  C10 UNL     1      11.464   0.393  -0.588  1.00  0.00     0.029 C 
BRANCH  14  15
HETATM   15  C11 UNL     1      12.066  -1.022  -0.617  1.00  0.00     0.038 C 
BRANCH  15  16
HETATM   16  C12 UNL     1      13.589  -1.047  -0.489  1.00  0.00     0.152 C 
HETATM   17  O1  UNL     1      14.043  -2.364  -0.702  1.00  0.00    -0.224 OA
BRANCH  16  18
HETATM   18  C13 UNL     1      14.157  -0.518   0.831  1.00  0.00     0.033 C 
BRANCH  18  19
HETATM   19  C14 UNL     1      13.528  -1.043   2.134  1.00  0.00     0.003 C 
HETATM   20  C15 UNL     1      13.672  -2.555   2.349  1.00  0.00     0.000 C 
ENDBRANCH  18  19
ENDBRANCH  16  18
ENDBRANCH  15  16
ENDBRANCH  14  15
ENDBRANCH  13  14
ENDBRANCH   2  12
TORSDOF 11
