REMARK  7 active torsions:
REMARK  status: ('A' for Active; 'I' for Inactive)
REMARK    1  A    between atoms: C4_4  and  C8_10 
REMARK    2  A    between atoms: C8_10  and  C9_11 
REMARK    3  A    between atoms: C10_12  and  C11_13 
REMARK    4  A    between atoms: C11_13  and  C12_14 
REMARK    5  A    between atoms: C14_16  and  O5_24 
REMARK    6  A    between atoms: C15_17  and  O4_22 
REMARK    7  A    between atoms: C16_18  and  O3_20 
ROOT
HETATM    1  C9  UNL     1       3.084   0.228   2.956  1.00  0.00     0.037 C 
HETATM    2  C10 UNL     1       3.820  -0.382   1.750  1.00  0.00     0.037 C 
HETATM    3  C21 UNL     1       5.264  -0.067   2.143  1.00  0.00     0.143 C 
HETATM    4  O6  UNL     1       5.338  -0.100   3.549  1.00  0.00    -0.354 OA
HETATM    5  C22 UNL     1       4.035  -0.262   4.051  1.00  0.00     0.143 C 
ENDROOT
BRANCH   2   6
HETATM    6  C11 UNL     1       3.405   0.148   0.372  1.00  0.00     0.029 C 
BRANCH   6   7
HETATM    7  C12 UNL     1       4.144  -0.406  -0.831  1.00  0.00    -0.018 A 
HETATM    8  C13 UNL     1       4.072   0.253  -2.058  1.00  0.00     0.022 A 
HETATM    9  C14 UNL     1       4.739  -0.175  -3.216  1.00  0.00     0.118 A 
HETATM   10  C15 UNL     1       5.549  -1.336  -3.138  1.00  0.00     0.138 A 
HETATM   11  C16 UNL     1       5.599  -2.062  -1.924  1.00  0.00     0.118 A 
HETATM   12  C17 UNL     1       4.905  -1.570  -0.811  1.00  0.00     0.022 A 
BRANCH   9  13
HETATM   13  O5  UNL     1       4.628   0.508  -4.402  1.00  0.00    -0.326 OA
HETATM   14  C20 UNL     1       3.762   1.614  -4.504  1.00  0.00     0.181 C 
ENDBRANCH   9  13
BRANCH  10  15
HETATM   15  O4  UNL     1       6.234  -1.877  -4.203  1.00  0.00    -0.324 OA
HETATM   16  C19 UNL     1       5.979  -1.509  -5.535  1.00  0.00     0.182 C 
ENDBRANCH  10  15
BRANCH  11  17
HETATM   17  O3  UNL     1       6.346  -3.199  -1.697  1.00  0.00    -0.326 OA
HETATM   18  C18 UNL     1       7.561  -3.398  -2.383  1.00  0.00     0.181 C 
ENDBRANCH  11  17
ENDBRANCH   6   7
ENDBRANCH   2   6
BRANCH   1  19
HETATM   19  C8  UNL     1       1.637  -0.239   3.180  1.00  0.00     0.029 C 
BRANCH  19  20
HETATM   20  C4  UNL     1       0.499   0.657   2.725  1.00  0.00    -0.020 A 
HETATM   21  C3  UNL     1       0.671   1.791   1.913  1.00  0.00    -0.002 A 
HETATM   22  C2  UNL     1      -0.388   2.639   1.563  1.00  0.00     0.026 A 
HETATM   23  C1  UNL     1      -1.649   2.319   2.052  1.00  0.00     0.119 A 
HETATM   24  C6  UNL     1      -1.848   1.189   2.836  1.00  0.00     0.119 A 
HETATM   25  O2  UNL     1      -2.852   2.977   1.887  1.00  0.00    -0.300 OA
HETATM   26  C5  UNL     1      -0.795   0.348   3.182  1.00  0.00     0.022 A 
HETATM   27  O1  UNL     1      -3.183   1.109   3.181  1.00  0.00    -0.300 OA
HETATM   28  C7  UNL     1      -3.848   2.243   2.611  1.00  0.00     0.304 A 
ENDBRANCH  19  20
ENDBRANCH   1  19
TORSDOF 7
