REMARK  4 active torsions:
REMARK  status: ('A' for Active; 'I' for Inactive)
REMARK    1  A    between atoms: C1_1  and  C2_2 
REMARK    2  A    between atoms: C1_1  and  C12_13 
REMARK    3  A    between atoms: C3_3  and  C4_4 
REMARK    4  A    between atoms: C5_6  and  C8_9 
ROOT
HETATM    1  C8  UNL     1       0.060  -1.638  -0.512  1.00  0.00    -0.044 C 
HETATM    2  C9  UNL     1      -1.103  -1.977  -0.515  1.00  0.00    -0.008 C 
HETATM    3  C10 UNL     1      -2.493  -2.390  -0.519  1.00  0.00    -0.001 C 
HETATM    4  C11 UNL     1      -3.653  -2.741  -0.523  1.00  0.00    -0.000 C 
ENDROOT
BRANCH   1   5
HETATM    5  C5  UNL     1       1.466  -1.231  -0.509  1.00  0.00     0.072 A 
HETATM    6  S1  UNL     1       2.079  -0.001   0.515  1.00  0.00    -0.070 SA
HETATM    7  C4  UNL     1       3.667  -0.198  -0.101  1.00  0.00     0.071 A 
HETATM    8  C7  UNL     1       3.717  -1.172  -1.061  1.00  0.00     0.016 A 
HETATM    9  C6  UNL     1       2.448  -1.767  -1.297  1.00  0.00     0.016 A 
BRANCH   7  10
HETATM   10  C3  UNL     1       4.812   0.582   0.369  1.00  0.00    -0.055 C 
HETATM   11  C2  UNL     1       5.767   1.220   0.756  1.00  0.00    -0.052 C 
BRANCH  11  12
HETATM   12  C1  UNL     1       6.944   1.979   1.222  1.00  0.00     0.232 C 
HETATM   13  O1  UNL     1       6.640   3.362   1.290  1.00  0.00    -0.208 OA
BRANCH  12  14
HETATM   14  C12 UNL     1       8.157   1.807   0.319  1.00  0.00     0.141 C 
HETATM   15 CL1  UNL     1       9.532   2.743   0.961  1.00  0.00    -0.110 Cl
ENDBRANCH  12  14
ENDBRANCH  11  12
ENDBRANCH   7  10
ENDBRANCH   1   5
TORSDOF 4
