REMARK  6 active torsions:
REMARK  status: ('A' for Active; 'I' for Inactive)
REMARK    1  A    between atoms: C2_2  and  C13_15 
REMARK    2  A    between atoms: C3_4  and  C5_6 
REMARK    3  A    between atoms: C8_9  and  C9_11 
REMARK    4  A    between atoms: C10_12  and  C11_13 
REMARK    5  A    between atoms: C13_15  and  O1_16 
REMARK    6  A    between atoms: O1_16  and  C14_17 
ROOT
HETATM    1  C1  UNL     1       1.956  -2.482  -2.142  1.00  0.00     0.005 A 
HETATM    2  C2  UNL     1       0.973  -1.914  -1.375  1.00  0.00     0.037 A 
HETATM    3  S1  UNL     1       1.626  -0.660  -0.398  1.00  0.00    -0.088 SA
HETATM    4  C3  UNL     1       3.224  -0.877  -1.007  1.00  0.00     0.035 A 
HETATM    5  C4  UNL     1       3.232  -1.895  -1.933  1.00  0.00     0.007 A 
ENDROOT
BRANCH   4   6
HETATM    6  C5  UNL     1       4.385  -0.085  -0.586  1.00  0.00     0.036 A 
HETATM    7  C6  UNL     1       5.671  -0.235  -1.051  1.00  0.00     0.008 A 
HETATM    8  C7  UNL     1       6.596   0.667  -0.460  1.00  0.00     0.015 A 
HETATM    9  C8  UNL     1       6.007   1.500   0.450  1.00  0.00     0.071 A 
HETATM   10  S2  UNL     1       4.329   1.187   0.580  1.00  0.00    -0.078 SA
BRANCH   9  11
HETATM   11  C9  UNL     1       6.685   2.528   1.238  1.00  0.00    -0.053 C 
HETATM   12  C10 UNL     1       7.246   3.375   1.899  1.00  0.00    -0.058 C 
BRANCH  12  13
HETATM   13  C11 UNL     1       7.931   4.396   2.712  1.00  0.00     0.049 C 
HETATM   14  C12 UNL     1       9.054   4.094   3.376  1.00  0.00     0.009 C 
ENDBRANCH  12  13
ENDBRANCH   9  11
ENDBRANCH   4   6
BRANCH   2  15
HETATM   15  C13 UNL     1      -0.478  -2.323  -1.383  1.00  0.00     0.185 C 
BRANCH  15  16
HETATM   16  O1  UNL     1      -1.242  -1.549  -0.479  1.00  0.00    -0.296 OA
BRANCH  16  17
HETATM   17  C14 UNL     1      -2.568  -1.831  -0.394  1.00  0.00     0.273 C 
HETATM   18  C15 UNL     1      -3.228  -0.915   0.618  1.00  0.00     0.106 C 
HETATM   19  O2  UNL     1      -3.133  -2.689  -1.032  1.00  0.00    -0.264 OA
ENDBRANCH  16  17
ENDBRANCH  15  16
ENDBRANCH   2  15
TORSDOF 6
