REMARK  3 active torsions:
REMARK  status: ('A' for Active; 'I' for Inactive)
REMARK    1  A    between atoms: C2_2  and  C3_3 
REMARK    2  A    between atoms: C3_3  and  N1_5 
REMARK    3  A    between atoms: C5_6  and  C6_7 
ROOT
HETATM    1  C3  UNL     1      -0.948   0.181  -0.143  1.00  0.00     0.103 C 
HETATM    2  C4  UNL     1      -1.041   1.033   1.133  1.00  0.00     0.026 C 
ENDROOT
BRANCH   1   3
HETATM    3  C2  UNL     1      -2.122  -0.811  -0.272  1.00  0.00     0.024 C 
HETATM    4  C1  UNL     1      -3.495  -0.137  -0.407  1.00  0.00     0.002 C 
ENDBRANCH   1   3
BRANCH   1   5
HETATM    5  N1  UNL     1       0.318  -0.602  -0.148  1.00  0.00    -0.270 NA
HETATM    6  C5  UNL     1       1.399   0.047  -0.410  1.00  0.00     0.105 C 
BRANCH   6   7
HETATM    7  C6  UNL     1       2.667  -0.633  -0.418  1.00  0.00     0.085 C 
HETATM    8  S1  UNL     1       4.098  -0.038  -0.688  1.00  0.00    -0.076 SA
ENDBRANCH   6   7
ENDBRANCH   1   5
TORSDOF 3
