REMARK  9 active torsions:
REMARK  status: ('A' for Active; 'I' for Inactive)
REMARK    1  A    between atoms: C3_3  and  C24_30 
REMARK    2  A    between atoms: C5_5  and  C8_9 
REMARK    3  A    between atoms: C6_6  and  O1_7 
REMARK    4  A    between atoms: C8_9  and  C9_10 
REMARK    5  A    between atoms: C11_12  and  C20_23 
REMARK    6  A    between atoms: C13_14  and  C15_17 
REMARK    7  A    between atoms: C15_17  and  C16_18 
REMARK    8  A    between atoms: C20_23  and  C21_24 
REMARK    9  A    between atoms: C21_24  and  C22_25 
ROOT
HETATM    1  C9  UNL     1       0.875   0.898  -0.776  1.00  0.00     0.033 A 
HETATM    2  C10 UNL     1      -0.261   0.758   0.038  1.00  0.00     0.134 A 
HETATM    3  C11 UNL     1      -0.709  -0.531   0.347  1.00  0.00     0.085 A 
HETATM    4  C12 UNL     1      -0.032  -1.676  -0.090  1.00  0.00     0.134 A 
HETATM    5  C13 UNL     1       1.112  -1.513  -0.876  1.00  0.00     0.033 A 
HETATM    6  C14 UNL     1       1.541  -0.234  -1.266  1.00  0.00     0.128 A 
HETATM    7  O2  UNL     1       2.686  -0.099  -1.988  1.00  0.00    -0.191 OA
HETATM    8  O3  UNL     1      -0.391  -2.912   0.347  1.00  0.00    -0.190 OA
HETATM    9  O5  UNL     1      -0.898   1.853   0.534  1.00  0.00    -0.190 OA
ENDROOT
BRANCH   1  10
HETATM   10  C8  UNL     1       1.401   2.286  -1.081  1.00  0.00     0.061 C 
BRANCH  10  11
HETATM   11  C5  UNL     1       2.835   2.622  -0.717  1.00  0.00     0.030 C 
HETATM   12  C4  UNL     1       3.627   1.887   0.112  1.00  0.00     0.133 C 
HETATM   13  C3  UNL     1       5.033   2.287   0.337  1.00  0.00     0.071 C 
HETATM   14  O6  UNL     1       3.160   0.805   0.787  1.00  0.00    -0.190 OA
HETATM   15  C2  UNL     1       5.661   3.280  -0.340  1.00  0.00     0.133 C 
HETATM   16  C1  UNL     1       4.871   4.008  -1.380  1.00  0.00     0.026 C 
HETATM   17  O8  UNL     1       6.962   3.610  -0.116  1.00  0.00    -0.190 OA
HETATM   18  C6  UNL     1       3.366   3.884  -1.344  1.00  0.00     0.090 C 
HETATM   19  C26 UNL     1       5.567   4.523  -2.612  1.00  0.00     0.035 C 
BRANCH  13  20
HETATM   20  C24 UNL     1       5.856   1.477   1.326  1.00  0.00     0.113 C 
HETATM   21  O7  UNL     1       6.602   2.084   2.223  1.00  0.00    -0.195 OA
HETATM   22  C25 UNL     1       5.905  -0.029   1.153  1.00  0.00     0.061 C 
ENDBRANCH  13  20
BRANCH  18  23
HETATM   23  O1  UNL     1       2.520   4.955  -1.459  1.00  0.00    -0.329 OA
HETATM   24  C7  UNL     1       3.082   6.239  -1.332  1.00  0.00     0.181 C 
ENDBRANCH  18  23
ENDBRANCH  10  11
ENDBRANCH   1  10
BRANCH   3  25
HETATM   25  C20 UNL     1      -1.955  -0.683   1.170  1.00  0.00     0.177 C 
HETATM   26  O4  UNL     1      -2.113  -0.017   2.182  1.00  0.00    -0.291 OA
BRANCH  25  27
HETATM   27  C21 UNL     1      -3.075  -1.558   0.627  1.00  0.00     0.069 C 
BRANCH  27  28
HETATM   28  C22 UNL     1      -3.619  -2.566   1.649  1.00  0.00     0.008 C 
HETATM   29  C23 UNL     1      -4.790  -3.373   1.070  1.00  0.00     0.001 C 
ENDBRANCH  27  28
ENDBRANCH  25  27
ENDBRANCH   3  25
BRANCH   5  30
HETATM   30  C15 UNL     1       1.919  -2.733  -1.273  1.00  0.00     0.056 C 
BRANCH  30  31
HETATM   31  C16 UNL     1       2.894  -3.014  -0.159  1.00  0.00    -0.030 C 
HETATM   32  C17 UNL     1       2.931  -4.070   0.673  1.00  0.00    -0.048 C 
HETATM   33  C18 UNL     1       3.986  -4.157   1.754  1.00  0.00     0.026 C 
HETATM   34  C19 UNL     1       1.985  -5.247   0.645  1.00  0.00     0.026 C 
ENDBRANCH  30  31
ENDBRANCH   5  30
TORSDOF 9
