REMARK  6 active torsions:
REMARK  status: ('A' for Active; 'I' for Inactive)
REMARK    1  A    between atoms: C4_4  and  O5_28 
REMARK    2  A    between atoms: C11_13  and  O3_16 
REMARK    3  A    between atoms: O3_16  and  C14_17 
REMARK    4  A    between atoms: C14_17  and  C15_19 
REMARK    5  A    between atoms: C16_20  and  C17_21 
REMARK    6  A    between atoms: O5_28  and  C24_29 
ROOT
HETATM    1  C1  UNL     1       4.573   1.029   0.644  1.00  0.00    -0.011 C 
HETATM    2  C2  UNL     1       4.024  -0.263   1.293  1.00  0.00     0.046 C 
HETATM    3  C3  UNL     1       3.850  -0.969  -0.215  1.00  0.00     0.166 C 
HETATM    4  C4  UNL     1       2.688  -1.913  -0.425  1.00  0.00     0.171 C 
HETATM    5  C5  UNL     1       1.313  -0.938   0.006  1.00  0.00    -0.014 C 
HETATM    6  C6  UNL     1       0.987   0.719  -0.590  1.00  0.00     0.048 C 
HETATM    7  C7  UNL     1       2.248   2.030  -0.652  1.00  0.00     0.190 C 
HETATM    8  C8  UNL     1       3.454   2.376   0.561  1.00  0.00     0.201 C 
HETATM    9  O1  UNL     1       4.141   3.544   0.108  1.00  0.00    -0.216 OA
HETATM   10  O2  UNL     1       1.509   3.224  -0.924  1.00  0.00    -0.220 OA
HETATM   11  C9  UNL     1      -0.192   1.155   0.403  1.00  0.00     0.009 C 
HETATM   12  C10 UNL     1      -1.404   0.085   0.630  1.00  0.00     0.035 C 
HETATM   13  C11 UNL     1      -1.292  -1.210  -0.240  1.00  0.00     0.146 C 
HETATM   14  C12 UNL     1       0.039  -1.764   0.024  1.00  0.00    -0.000 C 
HETATM   15  C13 UNL     1      -0.003  -2.813   0.832  1.00  0.00    -0.003 C 
HETATM   16  C23 UNL     1       0.500   0.757  -2.081  1.00  0.00     0.007 C 
HETATM   17  C26 UNL     1       5.306  -1.520  -0.495  1.00  0.00     0.102 C 
HETATM   18  C27 UNL     1       6.328  -0.351  -0.354  1.00  0.00     0.171 C 
HETATM   19  C28 UNL     1       5.743   0.977  -0.057  1.00  0.00     0.007 C 
HETATM   20  C29 UNL     1       6.408   2.141  -0.747  1.00  0.00     0.033 C 
HETATM   21  O7  UNL     1       7.468  -0.471  -0.797  1.00  0.00    -0.292 OA
HETATM   22  O8  UNL     1       3.585  -0.129  -1.244  1.00  0.00    -0.222 OA
HETATM   23  C30 UNL     1       4.837  -1.247   2.217  1.00  0.00     0.007 C 
HETATM   24  C31 UNL     1       3.022   0.353   2.354  1.00  0.00     0.007 C 
ENDROOT
BRANCH  13  25
HETATM   25  O3  UNL     1      -2.059  -2.364   0.150  1.00  0.00    -0.296 OA
BRANCH  25  26
HETATM   26  C14 UNL     1      -3.419  -2.541   0.116  1.00  0.00     0.296 C 
HETATM   27  O4  UNL     1      -4.215  -1.678  -0.267  1.00  0.00    -0.259 OA
BRANCH  26  28
HETATM   28  C15 UNL     1      -3.773  -3.942   0.513  1.00  0.00     0.068 C 
HETATM   29  C16 UNL     1      -4.909  -4.650   0.546  1.00  0.00     0.005 C 
BRANCH  29  30
HETATM   30  C17 UNL     1      -6.289  -4.282   0.236  1.00  0.00     0.000 A 
HETATM   31  C18 UNL     1      -7.181  -5.272   0.208  1.00  0.00     0.000 A 
HETATM   32  C19 UNL     1      -8.582  -5.002  -0.072  1.00  0.00     0.000 A 
HETATM   33  C20 UNL     1      -8.980  -3.752  -0.290  1.00  0.00     0.000 A 
HETATM   34  C21 UNL     1      -8.006  -2.657  -0.253  1.00  0.00     0.000 A 
HETATM   35  C22 UNL     1      -6.723  -2.912  -0.006  1.00  0.00     0.000 A 
ENDBRANCH  29  30
ENDBRANCH  26  28
ENDBRANCH  25  26
ENDBRANCH  13  25
BRANCH   4  36
HETATM   36  O5  UNL     1       2.952  -3.090   0.403  1.00  0.00    -0.297 OA
BRANCH  36  37
HETATM   37  C24 UNL     1       2.399  -4.299  -0.080  1.00  0.00     0.273 C 
HETATM   38  C25 UNL     1       2.602  -5.565   0.701  1.00  0.00     0.106 C 
HETATM   39  O6  UNL     1       1.744  -4.319  -1.129  1.00  0.00    -0.264 OA
ENDBRANCH  36  37
ENDBRANCH   4  36
TORSDOF 6
