REMARK  5 active torsions:
REMARK  status: ('A' for Active; 'I' for Inactive)
REMARK    1  A    between atoms: C18_20  and  C27_36 
REMARK    2  A    between atoms: C20_23  and  O2_24 
REMARK    3  A    between atoms: O2_24  and  C21_25 
REMARK    4  A    between atoms: C22_27  and  C26_34 
REMARK    5  A    between atoms: C27_36  and  O8_37 
ROOT
HETATM    1  C1  UNL     1      -3.568   0.097   1.638  1.00  0.00     0.000 A 
HETATM    2  C2  UNL     1      -3.387  -1.184   2.236  1.00  0.00     0.002 A 
HETATM    3  C3  UNL     1      -2.140  -1.764   2.325  1.00  0.00     0.019 A 
HETATM    4  C4  UNL     1      -1.042  -1.037   1.801  1.00  0.00     0.081 A 
HETATM    5  C5  UNL     1      -1.217   0.223   1.215  1.00  0.00     0.015 A 
HETATM    6  C6  UNL     1      -2.504   0.810   1.126  1.00  0.00     0.001 A 
HETATM    7  C7  UNL     1       0.063   0.669   0.774  1.00  0.00    -0.003 A 
HETATM    8  C8  UNL     1       0.970  -0.317   1.081  1.00  0.00     0.084 A 
HETATM    9  N1  UNL     1       0.300  -1.347   1.721  1.00  0.00    -0.248 NA
HETATM   10  C9  UNL     1       2.414  -0.170   0.713  1.00  0.00     0.227 C 
HETATM   11  N2  UNL     1       2.507   0.743  -0.417  1.00  0.00     0.139 N 
HETATM   12  C10 UNL     1       1.933   2.057  -0.195  1.00  0.00     0.255 C 
HETATM   13  C11 UNL     1       0.411   1.929   0.034  1.00  0.00     0.063 C 
HETATM   14  C12 UNL     1       3.892   0.678  -0.821  1.00  0.00     0.251 C 
HETATM   15  C13 UNL     1       4.350  -0.750  -0.411  1.00  0.00     0.041 C 
HETATM   16  C14 UNL     1       3.029  -1.410   0.047  1.00  0.00     0.039 C 
HETATM   17  C15 UNL     1       5.359  -0.788   0.765  1.00  0.00     0.063 C 
HETATM   18  C16 UNL     1       4.592  -0.564   2.090  1.00  0.00     0.037 C 
HETATM   19  C17 UNL     1       3.283   0.242   1.934  1.00  0.00     0.042 C 
HETATM   20  C18 UNL     1       5.472  -0.033   3.197  1.00  0.00     0.065 C 
HETATM   21  C19 UNL     1       6.776   0.203   2.994  1.00  0.00     0.120 C 
HETATM   22  O1  UNL     1       7.398   0.105   1.787  1.00  0.00    -0.304 OA
HETATM   23  C20 UNL     1       6.583   0.113   0.634  1.00  0.00     0.242 C 
ENDROOT
BRANCH  23  24
HETATM   24  O2  UNL     1       7.546  -0.335  -0.308  1.00  0.00    -0.304 OA
BRANCH  24  25
HETATM   25  C21 UNL     1       7.238  -0.073  -1.659  1.00  0.00     0.272 C 
HETATM   26  O3  UNL     1       7.056  -1.347  -2.239  1.00  0.00    -0.326 OA
HETATM   27  C22 UNL     1       6.660  -1.271  -3.583  1.00  0.00     0.184 C 
HETATM   28  C23 UNL     1       7.732  -0.551  -4.394  1.00  0.00     0.215 C 
HETATM   29  C24 UNL     1       8.039   0.806  -3.792  1.00  0.00     0.220 C 
HETATM   30  O6  UNL     1       7.302  -0.344  -5.718  1.00  0.00    -0.218 OA
HETATM   31  C25 UNL     1       8.397   0.623  -2.333  1.00  0.00     0.241 C 
HETATM   32  O5  UNL     1       9.113   1.394  -4.479  1.00  0.00    -0.218 OA
HETATM   33  O4  UNL     1       8.598   1.881  -1.743  1.00  0.00    -0.215 OA
BRANCH  27  34
HETATM   34  C26 UNL     1       6.422  -2.686  -4.093  1.00  0.00     0.214 C 
HETATM   35  O7  UNL     1       5.311  -3.252  -3.425  1.00  0.00    -0.218 OA
ENDBRANCH  27  34
ENDBRANCH  24  25
ENDBRANCH  23  24
BRANCH  20  36
HETATM   36  C27 UNL     1       4.906   0.109   4.586  1.00  0.00     0.294 C 
HETATM   37  O9  UNL     1       4.106  -0.762   4.916  1.00  0.00    -0.259 OA
BRANCH  36  38
HETATM   38  O8  UNL     1       5.167   1.116   5.476  1.00  0.00    -0.296 OA
HETATM   39  C28 UNL     1       5.917   2.240   5.082  1.00  0.00     0.185 C 
ENDBRANCH  36  38
ENDBRANCH  20  36
TORSDOF 5
