REMARK  4 active torsions:
REMARK  status: ('A' for Active; 'I' for Inactive)
REMARK    1  A    between atoms: C1_1  and  C2_2 
REMARK    2  A    between atoms: C1_1  and  C5_6 
REMARK    3  A    between atoms: C2_2  and  C3_3 
REMARK    4  A    between atoms: C3_3  and  C4_4 
ROOT
HETATM    1  C2  UNL     1       0.326   0.455   0.001  1.00  0.00     0.004 C 
ENDROOT
BRANCH   1   2
HETATM    2  C1  UNL     1      -1.023  -0.283   0.022  1.00  0.00     0.041 C 
BRANCH   2   3
HETATM    3  C5  UNL     1      -2.208   0.692   0.011  1.00  0.00     0.338 C 
HETATM    4  N2  UNL     1      -3.486  -0.039   0.056  1.00  0.00     0.618 N 
ENDBRANCH   2   3
ENDBRANCH   1   2
BRANCH   1   5
HETATM    5  C3  UNL     1       1.513  -0.521  -0.024  1.00  0.00     0.041 C 
BRANCH   5   6
HETATM    6  C4  UNL     1       2.860   0.216  -0.009  1.00  0.00     0.338 C 
HETATM    7  N1  UNL     1       3.978  -0.740  -0.057  1.00  0.00     0.618 N 
ENDBRANCH   5   6
ENDBRANCH   1   5
TORSDOF 4
