REMARK  1 active torsions:
REMARK  status: ('A' for Active; 'I' for Inactive)
REMARK    1  A    between atoms: C10_10  and  C11_11 
ROOT
HETATM    1  C1  UNL     1       1.521  -0.809   1.033  1.00  0.00     0.000 C 
HETATM    2  C2  UNL     1       1.376   0.703   1.283  1.00  0.00     0.000 C 
HETATM    3  C3  UNL     1       0.311   1.301   0.345  1.00  0.00     0.001 C 
HETATM    4  C4  UNL     1      -1.021   0.539   0.417  1.00  0.00     0.008 C 
HETATM    5  C5  UNL     1      -0.819  -0.945   0.066  1.00  0.00     0.018 C 
HETATM    6  C6  UNL     1       0.180  -1.561   1.064  1.00  0.00     0.004 C 
HETATM    7  C7  UNL     1      -2.138  -1.684  -0.035  1.00  0.00    -0.048 C 
HETATM    8  C8  UNL     1      -3.310  -1.035  -0.143  1.00  0.00    -0.034 C 
HETATM    9  C9  UNL     1      -3.470   0.461  -0.152  1.00  0.00     0.029 C 
HETATM   10  C10 UNL     1      -2.150   1.214  -0.382  1.00  0.00     0.023 C 
HETATM   11  C14 UNL     1      -2.092  -3.192  -0.099  1.00  0.00     0.026 C 
HETATM   12  C15 UNL     1       1.106   1.018   2.764  1.00  0.00     0.000 C 
ENDROOT
BRANCH  10  13
HETATM   13  C11 UNL     1      -1.859   1.496  -1.849  1.00  0.00    -0.044 C 
HETATM   14  C12 UNL     1      -1.555   2.740  -2.259  1.00  0.00    -0.009 C 
HETATM   15  C13 UNL     1      -1.909   0.373  -2.858  1.00  0.00     0.026 C 
ENDBRANCH  10  13
TORSDOF 1
