REMARK  2 active torsions:
REMARK  status: ('A' for Active; 'I' for Inactive)
REMARK    1  A    between atoms: C6_6  and  O1_7 
REMARK    2  A    between atoms: O1_7  and  C7_8 
ROOT
HETATM    1  C1  UNL     1       0.246  -1.034  -2.075  1.00  0.00     0.030 C 
HETATM    2  C2  UNL     1       0.864  -2.417  -1.858  1.00  0.00     0.005 C 
HETATM    3  C3  UNL     1       1.958  -2.397  -0.761  1.00  0.00     0.026 C 
HETATM    4  C4  UNL     1       1.358  -1.839   0.582  1.00  0.00     0.131 C 
HETATM    5  C5  UNL     1       0.494  -0.516   0.433  1.00  0.00     0.052 C 
HETATM    6  C6  UNL     1      -0.450  -0.593  -0.793  1.00  0.00     0.126 C 
HETATM    7  C9  UNL     1       1.312   0.823   0.538  1.00  0.00     0.014 C 
HETATM    8  C10 UNL     1       2.470   0.712   1.533  1.00  0.00     0.042 C 
HETATM    9  C11 UNL     1       3.269  -0.561   1.647  1.00  0.00     0.128 C 
HETATM   10  C12 UNL     1       2.352  -1.757   1.778  1.00  0.00     0.061 C 
HETATM   11  O3  UNL     1       4.157  -0.253   2.693  1.00  0.00    -0.304 OA
HETATM   12  C13 UNL     1       4.433   1.103   2.610  1.00  0.00     0.276 C 
HETATM   13  C14 UNL     1       3.694   1.616   1.387  1.00  0.00     0.113 C 
HETATM   14  C15 UNL     1       3.161   2.962   1.073  1.00  0.00     0.008 A 
HETATM   15  C16 UNL     1       2.227   3.062   0.082  1.00  0.00     0.074 A 
HETATM   16  C17 UNL     1       1.648   1.830  -0.591  1.00  0.00     0.051 C 
HETATM   17  O4  UNL     1       1.871   4.369  -0.072  1.00  0.00    -0.310 OA
HETATM   18  C18 UNL     1       2.624   5.081   0.822  1.00  0.00     0.122 A 
HETATM   19  C19 UNL     1       3.442   4.273   1.557  1.00  0.00     0.025 A 
HETATM   20  O5  UNL     1       5.147   1.732   3.358  1.00  0.00    -0.264 OA
HETATM   21  C20 UNL     1      -0.502  -0.456   1.655  1.00  0.00     0.005 C 
HETATM   22  O6  UNL     1       0.459  -2.850   0.990  1.00  0.00    -0.226 OA
HETATM   23  C21 UNL     1       2.450  -3.866  -0.629  1.00  0.00     0.002 C 
HETATM   24  C22 UNL     1       3.165  -1.634  -1.352  1.00  0.00     0.002 C 
ENDROOT
BRANCH   6  25
HETATM   25  O1  UNL     1      -1.104   0.625  -1.001  1.00  0.00    -0.304 OA
BRANCH  25  26
HETATM   26  C7  UNL     1      -2.309   0.625  -1.631  1.00  0.00     0.272 C 
HETATM   27  C8  UNL     1      -2.784   2.050  -1.834  1.00  0.00     0.106 C 
HETATM   28  O2  UNL     1      -2.909  -0.358  -2.003  1.00  0.00    -0.264 OA
ENDBRANCH  25  26
ENDBRANCH   6  25
TORSDOF 2
