REMARK  0 active torsions:
REMARK  status: ('A' for Active; 'I' for Inactive)
ROOT
HETATM    1  N1  UNL     1      -2.615   0.434   0.001  1.00  0.00    -0.246 N 
HETATM    2  C1  UNL     1      -2.560  -0.958   0.015  1.00  0.00     0.335 A 
HETATM    3  N2  UNL     1      -1.332  -1.587   0.035  1.00  0.00    -0.263 N 
HETATM    4  C2  UNL     1      -0.192  -0.870   0.041  1.00  0.00     0.170 A 
HETATM    5  C3  UNL     1      -0.237   0.513   0.017  1.00  0.00     0.153 A 
HETATM    6  C4  UNL     1      -1.502   1.260  -0.011  1.00  0.00     0.283 A 
HETATM    7  O1  UNL     1      -1.566   2.485  -0.037  1.00  0.00    -0.265 OA
HETATM    8  N3  UNL     1       1.088   0.881   0.024  1.00  0.00    -0.302 N 
HETATM    9  C5  UNL     1       1.866  -0.215   0.059  1.00  0.00     0.180 A 
HETATM   10  N4  UNL     1       1.097  -1.302   0.070  1.00  0.00    -0.206 NA
HETATM   11  C6  UNL     1       1.615   2.244  -0.001  1.00  0.00     0.132 C 
HETATM   12  C7  UNL     1      -1.253  -3.049   0.039  1.00  0.00     0.137 C 
HETATM   13  O2  UNL     1      -3.587  -1.600   0.009  1.00  0.00    -0.246 OA
HETATM   14  C8  UNL     1      -3.945   1.052  -0.006  1.00  0.00     0.139 C 
ENDROOT
TORSDOF 0
