REMARK  0 active torsions:
REMARK  status: ('A' for Active; 'I' for Inactive)
ROOT
HETATM    1  C1  UNL     1       0.968  -0.593   0.549  1.00  0.00    -0.003 A 
HETATM    2  C2  UNL     1      -0.455  -0.671   0.572  1.00  0.00     0.015 A 
HETATM    3  C3  UNL     1      -0.940   0.355  -0.247  1.00  0.00     0.081 A 
HETATM    4  N1  UNL     1       0.155   1.029  -0.749  1.00  0.00    -0.248 NA
HETATM    5  C4  UNL     1       1.324   0.459  -0.261  1.00  0.00     0.086 A 
HETATM    6  C5  UNL     1       2.759   0.830  -0.525  1.00  0.00     0.261 C 
HETATM    7  N2  UNL     1       3.641   0.144   0.432  1.00  0.00     0.341 N 
HETATM    8  C6  UNL     1       3.346  -1.278   0.628  1.00  0.00     0.295 C 
HETATM    9  C7  UNL     1       1.957  -1.463   1.258  1.00  0.00     0.066 C 
HETATM   10  C8  UNL     1       2.936   2.348  -0.337  1.00  0.00     0.042 C 
HETATM   11  C9  UNL     1       3.112   0.448  -1.974  1.00  0.00     0.042 C 
HETATM   12  C10 UNL     1      -2.331   0.554  -0.437  1.00  0.00     0.019 A 
HETATM   13  C11 UNL     1      -3.189  -0.302   0.221  1.00  0.00     0.002 A 
HETATM   14  C12 UNL     1      -2.699  -1.347   1.056  1.00  0.00     0.000 A 
HETATM   15  C13 UNL     1      -1.347  -1.546   1.242  1.00  0.00     0.001 A 
ENDROOT
TORSDOF 0
