REMARK  4 active torsions:
REMARK  status: ('A' for Active; 'I' for Inactive)
REMARK    1  A    between atoms: C1_1  and  C22_26 
REMARK    2  A    between atoms: C6_6  and  O1_7 
REMARK    3  A    between atoms: C13_15  and  C16_20 
REMARK    4  A    between atoms: C22_26  and  C23_28 
ROOT
HETATM    1  C1  UNL     1       0.395   0.219  -0.289  1.00  0.00     0.084 A 
HETATM    2  C2  UNL     1       1.316  -0.849  -0.320  1.00  0.00     0.110 A 
HETATM    3  C3  UNL     1       2.667  -0.601  -0.005  1.00  0.00     0.046 A 
HETATM    4  C4  UNL     1       3.094   0.670   0.433  1.00  0.00     0.098 A 
HETATM    5  C5  UNL     1       2.130   1.686   0.503  1.00  0.00     0.045 A 
HETATM    6  C6  UNL     1       0.776   1.506   0.142  1.00  0.00     0.101 A 
HETATM    7  C8  UNL     1       2.598   2.986   1.013  1.00  0.00     0.002 C 
HETATM    8  C9  UNL     1       3.918   3.230   1.057  1.00  0.00     0.001 C 
HETATM    9  C10 UNL     1       4.894   2.217   0.518  1.00  0.00     0.117 C 
HETATM   10  O2  UNL     1       4.413   0.915   0.717  1.00  0.00    -0.332 OA
HETATM   11  C11 UNL     1       6.242   2.326   1.240  1.00  0.00     0.035 C 
HETATM   12  C12 UNL     1       5.093   2.465  -0.983  1.00  0.00     0.035 C 
HETATM   13  C13 UNL     1       3.629  -1.709  -0.154  1.00  0.00     0.009 C 
HETATM   14  C14 UNL     1       3.174  -2.951  -0.420  1.00  0.00     0.069 C 
HETATM   15  C15 UNL     1       1.728  -3.139  -0.626  1.00  0.00     0.300 C 
HETATM   16  O3  UNL     1       0.889  -2.077  -0.730  1.00  0.00    -0.273 OA
HETATM   17  O4  UNL     1       1.298  -4.282  -0.758  1.00  0.00    -0.259 OA
ENDROOT
BRANCH   1  18
HETATM   18  C22 UNL     1      -0.977   0.035  -0.925  1.00  0.00     0.195 C 
HETATM   19  O5  UNL     1      -1.241   0.747  -1.883  1.00  0.00    -0.287 OA
BRANCH  18  20
HETATM   20  C23 UNL     1      -2.023  -0.969  -0.472  1.00  0.00     0.013 C 
HETATM   21  C24 UNL     1      -1.842  -2.458  -0.627  1.00  0.00     0.034 C 
HETATM   22  C25 UNL     1      -3.224  -0.455  -0.136  1.00  0.00    -0.027 C 
HETATM   23  C26 UNL     1      -4.468  -1.209   0.261  1.00  0.00     0.030 C 
ENDBRANCH  18  20
ENDBRANCH   1  18
BRANCH   6  24
HETATM   24  O1  UNL     1      -0.047   2.599   0.292  1.00  0.00    -0.328 OA
HETATM   25  C7  UNL     1      -1.375   2.428   0.718  1.00  0.00     0.181 C 
ENDBRANCH   6  24
BRANCH  13  26
HETATM   26  C16 UNL     1       5.124  -1.567  -0.107  1.00  0.00     0.000 A 
HETATM   27  C17 UNL     1       5.790  -1.050  -1.222  1.00  0.00     0.000 A 
HETATM   28  C18 UNL     1       7.183  -0.957  -1.231  1.00  0.00     0.000 A 
HETATM   29  C19 UNL     1       7.917  -1.398  -0.128  1.00  0.00     0.000 A 
HETATM   30  C20 UNL     1       7.255  -1.934   0.979  1.00  0.00     0.000 A 
HETATM   31  C21 UNL     1       5.861  -2.022   0.989  1.00  0.00     0.000 A 
ENDBRANCH  13  26
TORSDOF 4
