REMARK  0 active torsions:
REMARK  status: ('A' for Active; 'I' for Inactive)
ROOT
HETATM    1  C1  UNL     1      -0.320   0.155   0.246  1.00  0.00     0.003 C 
HETATM    2  C2  UNL     1      -0.622  -1.337   0.457  1.00  0.00     0.010 C 
HETATM    3  C3  UNL     1       0.653  -2.204   0.511  1.00  0.00     0.080 C 
HETATM    4  C4  UNL     1       1.880  -1.335   0.823  1.00  0.00     0.035 C 
HETATM    5  C5  UNL     1       2.054  -0.626  -0.531  1.00  0.00     0.102 C 
HETATM    6  C6  UNL     1       0.948   0.459  -0.581  1.00  0.00     0.028 C 
HETATM    7  C7  UNL     1       3.524  -0.156  -0.851  1.00  0.00     0.030 C 
HETATM    8  C8  UNL     1       4.296   0.115   0.477  1.00  0.00     0.056 C 
HETATM    9  C9  UNL     1       4.312  -1.095   1.432  1.00  0.00     0.007 C 
HETATM   10  C10 UNL     1       3.141  -2.077   1.264  1.00  0.00     0.003 C 
HETATM   11  C11 UNL     1       5.739   0.617   0.236  1.00  0.00     0.038 C 
HETATM   12  C12 UNL     1       5.498   2.016  -0.329  1.00  0.00     0.134 C 
HETATM   13  C13 UNL     1       4.911   1.878  -1.734  1.00  0.00     0.031 C 
HETATM   14  C14 UNL     1       3.573   1.114  -1.751  1.00  0.00     0.005 C 
HETATM   15  C15 UNL     1       4.569   2.601   0.737  1.00  0.00     0.086 C 
HETATM   16  C16 UNL     1       3.740   1.387   1.134  1.00  0.00     0.152 C 
HETATM   17  O1  UNL     1       2.797   1.450   1.887  1.00  0.00    -0.296 OA
HETATM   18  C17 UNL     1       3.788   3.866   0.377  1.00  0.00     0.010 C 
HETATM   19  O2  UNL     1       6.699   2.735  -0.383  1.00  0.00    -0.226 OA
HETATM   20  C18 UNL     1       4.297  -1.224  -1.687  1.00  0.00     0.003 C 
HETATM   21  O3  UNL     1       1.681  -1.593  -1.470  1.00  0.00    -0.307 OA
HETATM   22  C19 UNL     1       0.944  -2.585  -0.926  1.00  0.00     0.271 C 
HETATM   23  O4  UNL     1       0.557  -3.570  -1.514  1.00  0.00    -0.264 OA
HETATM   24  C20 UNL     1       0.464  -3.444   1.391  1.00  0.00     0.010 C 
ENDROOT
TORSDOF 0
