REMARK  5 active torsions:
REMARK  status: ('A' for Active; 'I' for Inactive)
REMARK    1  A    between atoms: C2_2  and  C3_3 
REMARK    2  A    between atoms: C3_3  and  C4_4 
REMARK    3  A    between atoms: C4_4  and  C5_5 
REMARK    4  A    between atoms: C5_5  and  C6_6 
REMARK    5  A    between atoms: C5_5  and  O1_9 
ROOT
HETATM    1  C1  UNL     1       2.159   2.211   0.422  1.00  0.00     0.000 C 
HETATM    2  C2  UNL     1       2.054   0.674   0.340  1.00  0.00     0.000 C 
HETATM    3  C9  UNL     1       2.179  -0.007   1.708  1.00  0.00     0.000 A 
HETATM    4  C10 UNL     1       2.858  -1.349   1.564  1.00  0.00     0.000 A 
HETATM    5  C11 UNL     1       3.231  -1.496   0.092  1.00  0.00     0.000 C 
HETATM    6  C12 UNL     1       3.379   0.023  -0.193  1.00  0.00     0.000 C 
HETATM    7  C13 UNL     1       4.447   0.365   0.875  1.00  0.00     0.000 C 
HETATM    8  C14 UNL     1       3.645  -0.154   2.064  1.00  0.00     0.000 A 
HETATM    9  C15 UNL     1       1.209   0.224   2.846  1.00  0.00     0.000 C 
ENDROOT
BRANCH   2  10
HETATM   10  C3  UNL     1       0.864   0.301  -0.579  1.00  0.00     0.003 C 
BRANCH  10  11
HETATM   11  C4  UNL     1      -0.557   0.652  -0.101  1.00  0.00     0.037 C 
BRANCH  11  12
HETATM   12  C5  UNL     1      -1.623   0.409  -1.180  1.00  0.00     0.174 C 
BRANCH  12  13
HETATM   13  C6  UNL     1      -1.561  -1.004  -1.738  1.00  0.00    -0.014 C 
HETATM   14  C7  UNL     1      -1.149  -1.245  -2.993  1.00  0.00    -0.007 C 
HETATM   15  C8  UNL     1      -1.966  -2.131  -0.818  1.00  0.00     0.029 C 
ENDBRANCH  12  13
BRANCH  12  16
HETATM   16  O1  UNL     1      -2.922   0.640  -0.663  1.00  0.00    -0.188 OA
HETATM   17  O2  UNL     1      -3.042   2.100  -0.520  1.00  0.00    -0.034 OA
ENDBRANCH  12  16
ENDBRANCH  11  12
ENDBRANCH  10  11
ENDBRANCH   2  10
TORSDOF 5
