REMARK  3 active torsions:
REMARK  status: ('A' for Active; 'I' for Inactive)
REMARK    1  A    between atoms: N1_9  and  C8_10 
REMARK    2  A    between atoms: C15_17  and  O3_25 
REMARK    3  A    between atoms: O3_25  and  C22_26 
ROOT
HETATM    1  C1  UNL     1      -2.019  -0.175  -0.226  1.00  0.00     0.030 C 
HETATM    2  C2  UNL     1      -2.313  -0.688   1.197  1.00  0.00     0.007 C 
HETATM    3  C3  UNL     1      -0.938  -1.028   1.839  1.00  0.00     0.056 C 
HETATM    4  C4  UNL     1      -0.103   0.334   1.635  1.00  0.00     0.009 C 
HETATM    5  C5  UNL     1       0.479  -0.151   0.308  1.00  0.00     0.057 C 
HETATM    6  C6  UNL     1      -0.641  -0.743  -0.583  1.00  0.00     0.119 C 
HETATM    7  O1  UNL     1      -0.749  -2.114  -0.355  1.00  0.00    -0.331 OA
HETATM    8  C7  UNL     1      -0.355  -2.305   0.980  1.00  0.00     0.336 C 
HETATM    9  N1  UNL     1       1.134  -2.434   0.882  1.00  0.00     0.160 N 
HETATM   10  C10 UNL     1       1.330  -1.079   1.240  1.00  0.00     0.224 C 
HETATM   11  C11 UNL     1       2.409  -0.090   1.640  1.00  0.00     0.034 C 
HETATM   12  C12 UNL     1       1.250   0.727   2.366  1.00  0.00     0.002 C 
HETATM   13  C13 UNL     1       2.834   0.515   0.295  1.00  0.00     0.036 C 
HETATM   14  C14 UNL     1       1.468   0.829  -0.355  1.00  0.00     0.035 C 
HETATM   15  C15 UNL     1       1.666   0.864  -1.874  1.00  0.00     0.128 C 
HETATM   16  C16 UNL     1       3.127   1.262  -2.159  1.00  0.00     0.049 C 
HETATM   17  C17 UNL     1       3.602   2.305  -1.163  1.00  0.00    -0.012 C 
HETATM   18  C18 UNL     1       3.694   1.784   0.257  1.00  0.00     0.171 C 
HETATM   19  O2  UNL     1       3.250   2.772   1.163  1.00  0.00    -0.219 OA
HETATM   20  C19 UNL     1       3.929   3.556  -1.516  1.00  0.00    -0.007 C 
HETATM   21  C20 UNL     1       4.005   0.023  -1.903  1.00  0.00     0.007 C 
HETATM   22  C21 UNL     1       3.603  -0.549  -0.532  1.00  0.00     0.003 C 
HETATM   23  C24 UNL     1      -1.165  -1.367   3.323  1.00  0.00     0.004 C 
ENDROOT
BRANCH  15  24
HETATM   24  O3  UNL     1       0.773   1.791  -2.422  1.00  0.00    -0.304 OA
BRANCH  24  25
HETATM   25  C22 UNL     1       0.217   1.522  -3.633  1.00  0.00     0.272 C 
HETATM   26  C23 UNL     1      -0.832   2.565  -3.965  1.00  0.00     0.106 C 
HETATM   27  O4  UNL     1       0.490   0.576  -4.336  1.00  0.00    -0.264 OA
ENDBRANCH  24  25
ENDBRANCH  15  24
BRANCH   9  28
HETATM   28  C8  UNL     1       1.705  -3.483   1.712  1.00  0.00     0.253 C 
HETATM   29  C9  UNL     1       3.237  -3.515   1.645  1.00  0.00     0.037 C 
ENDBRANCH   9  28
TORSDOF 3
