REMARK  5 active torsions:
REMARK  status: ('A' for Active; 'I' for Inactive)
REMARK    1  A    between atoms: C15_15  and  C16_16 
REMARK    2  A    between atoms: C16_16  and  C18_18 
REMARK    3  A    between atoms: C18_18  and  C19_19 
REMARK    4  A    between atoms: C19_19  and  C20_21 
REMARK    5  A    between atoms: C20_21  and  C21_22 
ROOT
HETATM    1  C1  UNL     1      -2.586  -1.052  -3.872  1.00  0.00     0.065 C 
HETATM    2  C2  UNL     1      -1.951  -2.174  -4.670  1.00  0.00     0.150 C 
HETATM    3  C3  UNL     1      -1.240  -3.290  -3.898  1.00  0.00     0.051 C 
HETATM    4  C4  UNL     1      -0.394  -2.649  -2.757  1.00  0.00     0.006 C 
HETATM    5  C5  UNL     1      -1.015  -1.539  -1.861  1.00  0.00     0.001 C 
HETATM    6  C6  UNL     1      -1.643  -0.484  -2.805  1.00  0.00     0.008 C 
HETATM    7  C7  UNL     1       0.044  -0.888  -0.882  1.00  0.00     0.001 C 
HETATM    8  C8  UNL     1       1.446  -1.564  -0.789  1.00  0.00     0.003 C 
HETATM    9  C9  UNL     1       1.176  -3.082  -0.736  1.00  0.00     0.000 C 
HETATM   10  C10 UNL     1       0.480  -3.652  -1.980  1.00  0.00     0.000 C 
HETATM   11  C11 UNL     1       2.194  -1.108   0.518  1.00  0.00     0.015 A 
HETATM   12  C12 UNL     1       2.248   0.407   0.494  1.00  0.00    -0.053 A 
HETATM   13  C13 UNL     1       0.952   1.155   0.345  1.00  0.00     0.021 C 
HETATM   14  C14 UNL     1       0.182   0.650  -0.885  1.00  0.00     0.004 C 
HETATM   15  C15 UNL     1       3.494   0.900   0.552  1.00  0.00    -0.052 A 
HETATM   16  C24 UNL     1       4.524  -0.197   0.585  1.00  0.00     0.022 A 
HETATM   17  C25 UNL     1       3.699  -1.498   0.559  1.00  0.00     0.008 A 
HETATM   18  C26 UNL     1       1.572  -1.554   1.862  1.00  0.00     0.004 C 
HETATM   19  C27 UNL     1       2.330  -1.190  -2.011  1.00  0.00     0.000 C 
HETATM   20  C28 UNL     1      -2.150  -2.109  -0.969  1.00  0.00     0.000 C 
HETATM   21  C29 UNL     1      -0.311  -4.041  -4.890  1.00  0.00     0.007 C 
HETATM   22  C30 UNL     1      -2.313  -4.312  -3.471  1.00  0.00     0.007 C 
HETATM   23  O4  UNL     1      -2.064  -2.191  -5.875  1.00  0.00    -0.296 OA
ENDROOT
BRANCH  15  24
HETATM   24  C16 UNL     1       3.911   2.352   0.492  1.00  0.00     0.020 C 
HETATM   25  C17 UNL     1       4.631   2.636  -0.838  1.00  0.00     0.004 C 
BRANCH  24  26
HETATM   26  C18 UNL     1       4.778   2.778   1.691  1.00  0.00     0.040 C 
BRANCH  26  27
HETATM   27  C19 UNL     1       4.112   2.693   3.070  1.00  0.00     0.185 C 
HETATM   28  O1  UNL     1       3.793   1.352   3.361  1.00  0.00    -0.221 OA
BRANCH  27  29
HETATM   29  C20 UNL     1       2.847   3.533   3.217  1.00  0.00     0.210 C 
HETATM   30  O3  UNL     1       1.748   2.712   2.901  1.00  0.00    -0.218 OA
BRANCH  29  31
HETATM   31  C21 UNL     1       2.625   4.186   4.583  1.00  0.00     0.157 C 
HETATM   32  C22 UNL     1       2.682   3.199   5.750  1.00  0.00     0.036 C 
HETATM   33  C23 UNL     1       1.297   4.951   4.611  1.00  0.00     0.036 C 
HETATM   34  O2  UNL     1       3.645   5.135   4.768  1.00  0.00    -0.223 OA
ENDBRANCH  29  31
ENDBRANCH  27  29
ENDBRANCH  26  27
ENDBRANCH  24  26
ENDBRANCH  15  24
TORSDOF 5
