REMARK  1 active torsions:
REMARK  status: ('A' for Active; 'I' for Inactive)
REMARK    1  A    between atoms: C12_13  and  C15_17 
ROOT
HETATM    1  C1  UNL     1       0.316   3.126  -0.047  1.00  0.00     0.000 C 
HETATM    2  C2  UNL     1      -0.962   2.328  -0.300  1.00  0.00     0.000 C 
HETATM    3  C3  UNL     1      -1.017   1.022   0.520  1.00  0.00     0.001 C 
HETATM    4  C4  UNL     1       0.316   0.233   0.329  1.00  0.00     0.011 C 
HETATM    5  C5  UNL     1       1.677   0.980   0.484  1.00  0.00     0.021 C 
HETATM    6  C6  UNL     1       1.558   2.280  -0.354  1.00  0.00     0.004 C 
HETATM    7  C7  UNL     1       2.817   0.057  -0.008  1.00  0.00     0.005 A 
HETATM    8  C8  UNL     1       2.672  -1.348   0.034  1.00  0.00     0.032 A 
HETATM    9  C9  UNL     1       1.461  -1.989   0.601  1.00  0.00     0.173 C 
HETATM   10  C10 UNL     1       0.334  -1.103   1.079  1.00  0.00     0.070 C 
HETATM   11  O1  UNL     1       1.349  -3.206   0.711  1.00  0.00    -0.291 OA
HETATM   12  C11 UNL     1       3.675  -2.212  -0.429  1.00  0.00    -0.002 A 
HETATM   13  C12 UNL     1       4.886  -1.724  -0.919  1.00  0.00    -0.020 A 
HETATM   14  C13 UNL     1       5.060  -0.343  -0.872  1.00  0.00     0.023 A 
HETATM   15  C14 UNL     1       4.066   0.545  -0.439  1.00  0.00     0.127 A 
HETATM   16  O2  UNL     1       4.415   1.857  -0.366  1.00  0.00    -0.191 OA
HETATM   17  C18 UNL     1       2.066   1.321   1.939  1.00  0.00     0.004 C 
HETATM   18  C19 UNL     1      -2.220   0.215  -0.043  1.00  0.00     0.000 C 
HETATM   19  C20 UNL     1      -1.373   1.331   1.991  1.00  0.00     0.000 C 
ENDROOT
BRANCH  13  20
HETATM   20  C15 UNL     1       5.990  -2.661  -1.374  1.00  0.00     0.022 C 
HETATM   21  C16 UNL     1       7.122  -2.691  -0.335  1.00  0.00     0.005 C 
HETATM   22  C17 UNL     1       6.522  -2.293  -2.768  1.00  0.00     0.005 C 
ENDBRANCH  13  20
TORSDOF 1
