REMARK  3 active torsions:
REMARK  status: ('A' for Active; 'I' for Inactive)
REMARK    1  A    between atoms: C19_19  and  C27_29 
REMARK    2  A    between atoms: C20_20  and  O1_25 
REMARK    3  A    between atoms: O1_25  and  C25_26 
ROOT
HETATM    1  C1  UNL     1      -2.517  -0.751  -0.263  1.00  0.00     0.059 C 
HETATM    2  C2  UNL     1      -2.509  -2.122  -0.918  1.00  0.00     0.219 C 
HETATM    3  C3  UNL     1      -1.647  -3.161  -0.194  1.00  0.00     0.050 C 
HETATM    4  C4  UNL     1      -0.274  -2.465   0.007  1.00  0.00     0.007 C 
HETATM    5  C5  UNL     1      -0.142  -1.238  -0.930  1.00  0.00     0.028 C 
HETATM    6  C6  UNL     1      -1.112  -0.145  -0.417  1.00  0.00     0.007 C 
HETATM    7  C7  UNL     1       1.348  -0.792  -1.097  1.00  0.00     0.007 C 
HETATM    8  C8  UNL     1       2.362  -1.160   0.022  1.00  0.00     0.004 C 
HETATM    9  C9  UNL     1       2.225  -2.663   0.396  1.00  0.00     0.000 C 
HETATM   10  C10 UNL     1       0.955  -3.369  -0.099  1.00  0.00     0.000 C 
HETATM   11  C11 UNL     1       3.834  -0.833  -0.469  1.00  0.00     0.015 C 
HETATM   12  C12 UNL     1       3.948   0.664  -0.748  1.00  0.00    -0.049 C 
HETATM   13  C13 UNL     1       2.896   1.268  -1.332  1.00  0.00    -0.035 C 
HETATM   14  C14 UNL     1       1.523   0.677  -1.518  1.00  0.00     0.025 C 
HETATM   15  C15 UNL     1       5.296   1.376  -0.622  1.00  0.00     0.019 C 
HETATM   16  C16 UNL     1       6.209   0.798   0.481  1.00  0.00     0.016 C 
HETATM   17  C17 UNL     1       6.283  -0.730   0.371  1.00  0.00     0.001 C 
HETATM   18  C18 UNL     1       4.883  -1.319   0.562  1.00  0.00     0.004 C 
HETATM   19  C19 UNL     1       7.620   1.421   0.427  1.00  0.00     0.116 C 
HETATM   20  C20 UNL     1       7.574   2.945   0.598  1.00  0.00     0.134 C 
HETATM   21  C21 UNL     1       6.612   3.595  -0.405  1.00  0.00     0.029 C 
HETATM   22  C22 UNL     1       5.219   2.918  -0.456  1.00  0.00     0.006 C 
HETATM   23  C23 UNL     1       4.322   3.351   0.725  1.00  0.00     0.000 C 
HETATM   24  C24 UNL     1       7.253   3.681  -1.806  1.00  0.00     0.003 C 
HETATM   25  C28 UNL     1       4.194  -1.505  -1.826  1.00  0.00     0.004 C 
HETATM   26  C29 UNL     1       2.029  -0.316   1.286  1.00  0.00     0.000 C 
HETATM   27  C30 UNL     1      -0.719  -1.630  -2.309  1.00  0.00     0.145 C 
HETATM   28  O5  UNL     1      -2.085  -1.964  -2.241  1.00  0.00    -0.333 OA
HETATM   29  C31 UNL     1      -1.581  -4.483  -0.997  1.00  0.00     0.005 C 
HETATM   30  C32 UNL     1      -2.247  -3.538   1.183  1.00  0.00     0.005 C 
HETATM   31  O6  UNL     1      -3.827  -2.585  -1.111  1.00  0.00    -0.196 OA
ENDROOT
BRANCH  20  32
HETATM   32  O1  UNL     1       7.198   3.235   1.913  1.00  0.00    -0.304 OA
BRANCH  32  33
HETATM   33  C25 UNL     1       7.533   4.444   2.441  1.00  0.00     0.272 C 
HETATM   34  C26 UNL     1       7.037   4.540   3.869  1.00  0.00     0.106 C 
HETATM   35  O2  UNL     1       8.138   5.315   1.858  1.00  0.00    -0.264 OA
ENDBRANCH  32  33
ENDBRANCH  20  32
BRANCH  19  36
HETATM   36  C27 UNL     1       8.627   0.782   1.379  1.00  0.00     0.187 C 
HETATM   37  O3  UNL     1       9.701   0.335   1.043  1.00  0.00    -0.647 OA
HETATM   38  O4  UNL     1       8.171   0.765   2.649  1.00  0.00    -0.647 OA
ENDBRANCH  19  36
TORSDOF 3
