REMARK  5 active torsions:
REMARK  status: ('A' for Active; 'I' for Inactive)
REMARK    1  A    between atoms: C15_15  and  C18_18 
REMARK    2  A    between atoms: C18_18  and  C19_19 
REMARK    3  A    between atoms: C19_19  and  C20_20 
REMARK    4  A    between atoms: C20_20  and  C21_21 
REMARK    5  A    between atoms: C21_21  and  C23_23 
ROOT
HETATM    1  C1  UNL     1      -3.409   0.063  -0.172  1.00  0.00     0.034 C 
HETATM    2  C2  UNL     1      -3.260  -1.449  -0.362  1.00  0.00     0.156 C 
HETATM    3  C3  UNL     1      -2.217  -1.805  -1.424  1.00  0.00     0.055 C 
HETATM    4  C4  UNL     1      -0.952  -1.111  -0.977  1.00  0.00    -0.042 C 
HETATM    5  C5  UNL     1      -0.989   0.412  -0.955  1.00  0.00     0.019 C 
HETATM    6  C6  UNL     1      -2.063   0.767   0.095  1.00  0.00     0.007 C 
HETATM    7  C7  UNL     1       0.422   0.946  -0.593  1.00  0.00     0.022 C 
HETATM    8  C8  UNL     1       1.042   0.199   0.564  1.00  0.00    -0.045 C 
HETATM    9  C9  UNL     1       0.903  -1.140   0.611  1.00  0.00    -0.009 C 
HETATM   10  C10 UNL     1      -0.020  -1.815  -0.298  1.00  0.00    -0.009 C 
HETATM   11  C11 UNL     1       1.756   1.024   1.614  1.00  0.00     0.018 C 
HETATM   12  C12 UNL     1       2.705   2.053   0.970  1.00  0.00     0.004 C 
HETATM   13  C13 UNL     1       2.049   2.819  -0.193  1.00  0.00     0.001 C 
HETATM   14  C14 UNL     1       0.565   2.462  -0.384  1.00  0.00     0.004 C 
HETATM   15  C15 UNL     1       3.977   1.236   0.625  1.00  0.00     0.000 C 
HETATM   16  C16 UNL     1       3.950   0.068   1.641  1.00  0.00     0.000 C 
HETATM   17  C17 UNL     1       2.724   0.277   2.536  1.00  0.00     0.004 C 
HETATM   18  C27 UNL     1      -1.372   0.977  -2.343  1.00  0.00     0.004 C 
HETATM   19  O1  UNL     1      -4.502  -2.007  -0.721  1.00  0.00    -0.223 OA
ENDROOT
BRANCH  15  20
HETATM   20  C18 UNL     1       5.322   2.003   0.616  1.00  0.00     0.000 C 
HETATM   21  C26 UNL     1       5.185   3.449   0.093  1.00  0.00     0.000 C 
BRANCH  20  22
HETATM   22  C19 UNL     1       6.418   1.308  -0.231  1.00  0.00     0.000 C 
BRANCH  22  23
HETATM   23  C20 UNL     1       6.968  -0.047   0.261  1.00  0.00     0.000 C 
BRANCH  23  24
HETATM   24  C21 UNL     1       6.499  -1.289  -0.528  1.00  0.00     0.000 C 
HETATM   25  C22 UNL     1       7.104  -1.302  -1.948  1.00  0.00     0.000 C 
BRANCH  24  26
HETATM   26  C23 UNL     1       6.813  -2.634   0.184  1.00  0.00     0.000 C 
HETATM   27  C24 UNL     1       5.778  -2.991   1.266  1.00  0.00     0.000 C 
HETATM   28  C25 UNL     1       8.229  -2.708   0.780  1.00  0.00     0.000 C 
ENDBRANCH  24  26
ENDBRANCH  23  24
ENDBRANCH  22  23
ENDBRANCH  20  22
ENDBRANCH  15  20
TORSDOF 5
