REMARK  2 active torsions:
REMARK  status: ('A' for Active; 'I' for Inactive)
REMARK    1  A    between atoms: C3_3  and  C19_24 
REMARK    2  A    between atoms: C9_9  and  C10_10 
ROOT
HETATM    1  C1  UNL     1      -2.696   1.670   0.754  1.00  0.00     0.004 C 
HETATM    2  C2  UNL     1      -3.332   0.278   0.969  1.00  0.00     0.020 C 
HETATM    3  C3  UNL     1      -2.410  -0.912   0.595  1.00  0.00     0.158 C 
HETATM    4  C4  UNL     1      -0.956  -0.431   0.574  1.00  0.00     0.054 C 
HETATM    5  C5  UNL     1      -1.014   0.421  -0.701  1.00  0.00     0.103 C 
HETATM    6  C6  UNL     1      -1.655   1.774  -0.382  1.00  0.00     0.028 C 
HETATM    7  C7  UNL     1       0.406   0.389  -1.284  1.00  0.00     0.027 C 
HETATM    8  C8  UNL     1       1.259  -0.385  -0.250  1.00  0.00     0.018 C 
HETATM    9  C9  UNL     1       0.238  -1.379   0.336  1.00  0.00     0.091 C 
HETATM   10  C11 UNL     1       2.489  -0.925  -0.999  1.00  0.00     0.035 C 
HETATM   11  C12 UNL     1       3.238   0.392  -1.237  1.00  0.00     0.142 C 
HETATM   12  C13 UNL     1       2.523   1.294  -2.251  1.00  0.00     0.035 C 
HETATM   13  C14 UNL     1       1.097   1.662  -1.785  1.00  0.00     0.005 C 
HETATM   14  C15 UNL     1       3.162   1.025   0.128  1.00  0.00    -0.017 C 
HETATM   15  C16 UNL     1       1.915   0.529   0.815  1.00  0.00     0.025 C 
HETATM   16  C17 UNL     1       4.023   1.911   0.641  1.00  0.00    -0.007 C 
HETATM   17  O3  UNL     1       4.562   0.135  -1.638  1.00  0.00    -0.222 OA
HETATM   18  O4  UNL     1      -1.873  -0.266  -1.567  1.00  0.00    -0.306 OA
HETATM   19  C18 UNL     1      -2.656  -1.133  -0.888  1.00  0.00     0.281 C 
HETATM   20  O5  UNL     1      -3.453  -1.901  -1.379  1.00  0.00    -0.264 OA
ENDROOT
BRANCH   3  21
HETATM   21  C19 UNL     1      -2.673  -2.150   1.443  1.00  0.00     0.194 C 
HETATM   22  O6  UNL     1      -2.031  -3.233   0.972  1.00  0.00    -0.647 OA
HETATM   23  O7  UNL     1      -3.390  -2.228   2.412  1.00  0.00    -0.647 OA
ENDBRANCH   3  21
BRANCH   9  24
HETATM   24  C10 UNL     1       0.760  -2.176   1.517  1.00  0.00     0.185 C 
HETATM   25  O1  UNL     1       1.640  -3.003   1.483  1.00  0.00    -0.647 OA
HETATM   26  O2  UNL     1       0.139  -1.870   2.669  1.00  0.00    -0.647 OA
ENDBRANCH   9  24
TORSDOF 2
