REMARK  5 active torsions:
REMARK  status: ('A' for Active; 'I' for Inactive)
REMARK       I    between atoms: C1_1  and  N1_2 
REMARK    1  A    between atoms: N1_2  and  O1_3 
REMARK    2  A    between atoms: O1_3  and  C2_4 
REMARK    3  A    between atoms: C2_4  and  C3_5 
REMARK    4  A    between atoms: C3_5  and  C4_6 
REMARK    5  A    between atoms: C4_6  and  C5_7 
ROOT
HETATM    1  C2  UNL     1      -0.067  -0.148   0.240  1.00  0.00     0.179 C 
ENDROOT
BRANCH   1   2
HETATM    2  O1  UNL     1      -1.339  -0.727   0.391  1.00  0.00    -0.234 OA
BRANCH   2   3
HETATM    3  N1  UNL     1      -1.293  -2.043   0.402  1.00  0.00    -0.097 NA
HETATM    4  C1  UNL     1      -2.446  -2.815   0.364  1.00  0.00     0.254 C 
HETATM    5  N3  UNL     1      -2.245  -4.175   0.223  1.00  0.00    -0.058 NA
HETATM    6  N4  UNL     1      -3.658  -2.328   0.448  1.00  0.00    -0.268 NA
HETATM    7  H1  UNL     1      -4.358  -3.070   0.395  1.00  0.00     0.190 HD
ENDBRANCH   2   3
ENDBRANCH   1   2
BRANCH   1   8
HETATM    8  C3  UNL     1      -0.219   1.369   0.120  1.00  0.00     0.086 C 
BRANCH   8   9
HETATM    9  C4  UNL     1       1.124   2.117   0.075  1.00  0.00     0.390 C 
HETATM   10  N2  UNL     1       0.879   3.568   0.126  1.00  0.00     0.628 N 
BRANCH   9  11
HETATM   11  C5  UNL     1       1.971   1.813  -1.146  1.00  0.00     0.224 C 
HETATM   12  O2  UNL     1       3.190   2.377  -1.042  1.00  0.00    -0.646 OA
HETATM   13  O3  UNL     1       1.663   1.165  -2.117  1.00  0.00    -0.646 OA
ENDBRANCH   9  11
ENDBRANCH   8   9
ENDBRANCH   1   8
TORSDOF 5
