REMARK  12 active torsions:
REMARK  status: ('A' for Active; 'I' for Inactive)
REMARK    1  A    between atoms: C5_5  and  O3_17 
REMARK    2  A    between atoms: C7_7  and  C9_9 
REMARK    3  A    between atoms: C9_9  and  O1_10 
REMARK    4  A    between atoms: O1_10  and  C10_11 
REMARK    5  A    between atoms: C10_11  and  C11_12 
REMARK    6  A    between atoms: C11_12  and  C13_14 
REMARK    7  A    between atoms: O3_17  and  C15_18 
REMARK    8  A    between atoms: C15_18  and  C16_19 
REMARK    9  A    between atoms: C16_19  and  C17_20 
REMARK   10  A    between atoms: C24_28  and  C32_38 
REMARK   11  A    between atoms: C32_38  and  O7_39 
REMARK   12  A    between atoms: O7_39  and  C33_40 
ROOT
HETATM    1  C1  UNL     1       0.478   0.051   1.707  1.00  0.00     0.031 C 
HETATM    2  C2  UNL     1       0.480  -0.614   0.320  1.00  0.00     0.137 C 
HETATM    3  C3  UNL     1       1.813  -1.378   0.140  1.00  0.00     0.052 C 
HETATM    4  C4  UNL     1       3.077  -0.527   0.279  1.00  0.00     0.037 A 
HETATM    5  C5  UNL     1       2.987   0.680   1.181  1.00  0.00     0.104 A 
HETATM    6  C6  UNL     1       1.662   1.035   1.829  1.00  0.00     0.030 C 
HETATM    7  C7  UNL     1       3.868  -0.477   1.586  1.00  0.00     0.054 A 
HETATM    8  C8  UNL     1       3.470  -1.290   2.811  1.00  0.00     0.005 C 
HETATM    9  C23 UNL     1       1.786  -2.104  -1.190  1.00  0.00    -0.030 C 
HETATM   10  C24 UNL     1       1.065  -3.206  -1.474  1.00  0.00    -0.015 C 
HETATM   11  C25 UNL     1       0.166  -3.910  -0.468  1.00  0.00     0.063 C 
HETATM   12  C26 UNL     1      -0.606  -2.994   0.489  1.00  0.00     0.191 C 
HETATM   13  C27 UNL     1      -0.698  -1.545  -0.020  1.00  0.00     0.086 C 
HETATM   14  C28 UNL     1      -2.120  -1.145   0.261  1.00  0.00    -0.022 C 
HETATM   15  C29 UNL     1      -2.898  -2.178   0.626  1.00  0.00     0.011 C 
HETATM   16  C30 UNL     1      -2.066  -3.394   0.692  1.00  0.00     0.197 C 
HETATM   17  O5  UNL     1      -2.418  -4.524   0.994  1.00  0.00    -0.289 OA
HETATM   18  C31 UNL     1      -4.366  -2.128   0.917  1.00  0.00     0.034 C 
HETATM   19  O6  UNL     1      -0.061  -3.084   1.787  1.00  0.00    -0.217 OA
HETATM   20  O9  UNL     1       0.471   0.409  -0.645  1.00  0.00    -0.225 OA
HETATM   21  C35 UNL     1      -0.804   0.804   2.111  1.00  0.00     0.003 C 
ENDROOT
BRANCH   5  22
HETATM   22  O3  UNL     1       3.649   1.760   0.551  1.00  0.00    -0.306 OA
BRANCH  22  23
HETATM   23  C15 UNL     1       3.772   2.883   1.310  1.00  0.00     0.276 C 
HETATM   24  O4  UNL     1       4.233   2.896   2.430  1.00  0.00    -0.264 OA
BRANCH  23  25
HETATM   25  C16 UNL     1       3.250   4.103   0.564  1.00  0.00     0.122 C 
BRANCH  25  26
HETATM   26  C17 UNL     1       2.892   5.247   1.483  1.00  0.00    -0.012 A 
HETATM   27  C18 UNL     1       3.502   6.500   1.354  1.00  0.00    -0.004 A 
HETATM   28  C19 UNL     1       3.154   7.557   2.198  1.00  0.00    -0.000 A 
HETATM   29  C20 UNL     1       2.189   7.373   3.189  1.00  0.00    -0.000 A 
HETATM   30  C21 UNL     1       1.571   6.129   3.328  1.00  0.00    -0.000 A 
HETATM   31  C22 UNL     1       1.920   5.078   2.477  1.00  0.00    -0.004 A 
ENDBRANCH  25  26
ENDBRANCH  23  25
ENDBRANCH  22  23
ENDBRANCH   5  22
BRANCH   7  32
HETATM   32  C9  UNL     1       5.389  -0.294   1.503  1.00  0.00     0.154 C 
BRANCH  32  33
HETATM   33  O1  UNL     1       5.912  -0.367   0.196  1.00  0.00    -0.302 OA
BRANCH  33  34
HETATM   34  C10 UNL     1       7.269  -0.324   0.086  1.00  0.00     0.271 C 
HETATM   35  O2  UNL     1       8.027  -0.136   1.011  1.00  0.00    -0.264 OA
BRANCH  34  36
HETATM   36  C11 UNL     1       7.705  -0.626  -1.345  1.00  0.00     0.086 C 
HETATM   37  C12 UNL     1       9.167  -1.106  -1.371  1.00  0.00     0.010 C 
BRANCH  36  38
HETATM   38  C13 UNL     1       7.474   0.603  -2.243  1.00  0.00     0.010 C 
HETATM   39  C14 UNL     1       7.752   0.340  -3.729  1.00  0.00     0.001 C 
ENDBRANCH  36  38
ENDBRANCH  34  36
ENDBRANCH  33  34
ENDBRANCH  32  33
ENDBRANCH   7  32
BRANCH  10  40
HETATM   40  C32 UNL     1       1.116  -3.827  -2.860  1.00  0.00     0.174 C 
BRANCH  40  41
HETATM   41  O7  UNL     1       1.461  -2.878  -3.851  1.00  0.00    -0.297 OA
BRANCH  41  42
HETATM   42  C33 UNL     1       1.356  -3.271  -5.149  1.00  0.00     0.273 C 
HETATM   43  C34 UNL     1       1.696  -2.117  -6.071  1.00  0.00     0.106 C 
HETATM   44  O8  UNL     1       1.023  -4.376  -5.513  1.00  0.00    -0.264 OA
ENDBRANCH  41  42
ENDBRANCH  40  41
ENDBRANCH  10  40
TORSDOF 12
