REMARK  2 active torsions:
REMARK  status: ('A' for Active; 'I' for Inactive)
REMARK    1  A    between atoms: C4_4  and  C29_31 
REMARK    2  A    between atoms: C21_21  and  C24_24 
ROOT
HETATM    1  C1  UNL     1      -2.881  -0.234  -0.353  1.00  0.00     0.198 C 
HETATM    2  C2  UNL     1      -3.083  -1.701  -0.471  1.00  0.00     0.158 C 
HETATM    3  C3  UNL     1      -2.105  -2.557  -0.101  1.00  0.00    -0.009 C 
HETATM    4  C4  UNL     1      -0.731  -2.108   0.404  1.00  0.00     0.076 C 
HETATM    5  C5  UNL     1      -0.449  -0.601   0.193  1.00  0.00     0.018 C 
HETATM    6  C6  UNL     1      -1.702   0.241   0.470  1.00  0.00     0.072 C 
HETATM    7  C7  UNL     1       0.887  -0.075   0.834  1.00  0.00     0.001 C 
HETATM    8  C8  UNL     1       2.011  -1.144   0.602  1.00  0.00     0.000 C 
HETATM    9  C9  UNL     1       1.694  -2.134  -0.539  1.00  0.00     0.001 C 
HETATM   10  C10 UNL     1       0.373  -2.902  -0.334  1.00  0.00     0.011 C 
HETATM   11  C11 UNL     1       3.485  -0.606   0.694  1.00  0.00     0.000 C 
HETATM   12  C12 UNL     1       3.702   0.635  -0.248  1.00  0.00     0.000 C 
HETATM   13  C13 UNL     1       2.736   1.737   0.250  1.00  0.00     0.000 C 
HETATM   14  C14 UNL     1       1.250   1.313   0.226  1.00  0.00     0.000 C 
HETATM   15  C15 UNL     1       5.214   1.048  -0.428  1.00  0.00     0.001 C 
HETATM   16  C16 UNL     1       6.284   0.411   0.486  1.00  0.00     0.000 C 
HETATM   17  C17 UNL     1       6.031  -1.125   0.566  1.00  0.00     0.000 C 
HETATM   18  C18 UNL     1       4.586  -1.623   0.311  1.00  0.00     0.000 C 
HETATM   19  C19 UNL     1       7.681   0.636  -0.167  1.00  0.00     0.001 C 
HETATM   20  C20 UNL     1       7.999   2.101  -0.520  1.00  0.00     0.010 C 
HETATM   21  C21 UNL     1       6.880   2.796  -1.325  1.00  0.00     0.078 C 
HETATM   22  C22 UNL     1       5.505   2.544  -0.659  1.00  0.00     0.010 C 
HETATM   23  C23 UNL     1       7.165   4.312  -1.379  1.00  0.00     0.011 C 
HETATM   24  C25 UNL     1       6.355   1.102   1.871  1.00  0.00     0.000 C 
HETATM   25  C26 UNL     1       3.265   0.392  -1.734  1.00  0.00     0.000 C 
HETATM   26  C27 UNL     1       3.713  -0.405   2.229  1.00  0.00     0.000 C 
HETATM   27  C28 UNL     1       0.674   0.210   2.348  1.00  0.00     0.000 C 
HETATM   28  C30 UNL     1      -2.334  -4.057  -0.131  1.00  0.00     0.029 C 
HETATM   29  O4  UNL     1      -4.303  -2.105  -0.919  1.00  0.00    -0.188 OA
HETATM   30  O5  UNL     1      -3.677   0.569  -0.826  1.00  0.00    -0.289 OA
ENDROOT
BRANCH  21  31
HETATM   31  C24 UNL     1       6.908   2.288  -2.769  1.00  0.00     0.184 C 
HETATM   32  O1  UNL     1       5.829   2.669  -3.478  1.00  0.00    -0.647 OA
HETATM   33  O2  UNL     1       7.785   1.645  -3.296  1.00  0.00    -0.647 OA
ENDBRANCH  21  31
BRANCH   4  34
HETATM   34  C29 UNL     1      -0.748  -2.456   1.891  1.00  0.00     0.210 C 
HETATM   35  O3  UNL     1      -1.647  -2.100   2.617  1.00  0.00    -0.288 OA
ENDBRANCH   4  34
TORSDOF 2
