REMARK  8 active torsions:
REMARK  status: ('A' for Active; 'I' for Inactive)
REMARK    1  A    between atoms: C1_1  and  C16_20 
REMARK    2  A    between atoms: C7_8  and  C11_15 
REMARK    3  A    between atoms: C8_9  and  C10_12 
REMARK    4  A    between atoms: C11_15  and  C12_16 
REMARK    5  A    between atoms: C12_16  and  C13_17 
REMARK    6  A    between atoms: C13_17  and  C14_18 
REMARK    7  A    between atoms: C16_20  and  C17_21 
REMARK    8  A    between atoms: C17_21  and  C18_22 
ROOT
HETATM    1  C1  UNL     1       0.957   2.164   1.413  1.00  0.00     0.117 C 
HETATM    2  C2  UNL     1       2.237   2.620   2.079  1.00  0.00     0.001 C 
HETATM    3  C3  UNL     1       3.312   1.817   2.163  1.00  0.00     0.002 C 
HETATM    4  C4  UNL     1       3.245   0.496   1.531  1.00  0.00     0.048 A 
HETATM    5  C5  UNL     1       2.184   0.285   0.644  1.00  0.00     0.096 A 
HETATM    6  O1  UNL     1       1.202   1.210   0.414  1.00  0.00    -0.332 OA
HETATM    7  C6  UNL     1       2.115  -0.974   0.038  1.00  0.00     0.020 A 
HETATM    8  C7  UNL     1       3.070  -1.977   0.215  1.00  0.00    -0.012 A 
HETATM    9  C8  UNL     1       4.156  -1.705   1.083  1.00  0.00     0.086 A 
HETATM   10  C9  UNL     1       4.247  -0.468   1.750  1.00  0.00     0.138 A 
HETATM   11  O2  UNL     1       5.299  -0.135   2.550  1.00  0.00    -0.190 OA
HETATM   12  C22 UNL     1       0.058   1.540   2.487  1.00  0.00     0.035 C 
ENDROOT
BRANCH   1  13
HETATM   13  C16 UNL     1       0.279   3.371   0.742  1.00  0.00     0.037 C 
BRANCH  13  14
HETATM   14  C17 UNL     1      -0.956   3.036  -0.112  1.00  0.00     0.028 C 
BRANCH  14  15
HETATM   15  C18 UNL     1      -1.409   4.250  -0.885  1.00  0.00    -0.035 C 
HETATM   16  C19 UNL     1      -2.416   5.086  -0.577  1.00  0.00    -0.048 C 
HETATM   17  C20 UNL     1      -2.753   6.255  -1.474  1.00  0.00     0.026 C 
HETATM   18  C21 UNL     1      -3.295   4.959   0.644  1.00  0.00     0.026 C 
ENDBRANCH  14  15
ENDBRANCH  13  14
ENDBRANCH   1  13
BRANCH   8  19
HETATM   19  C11 UNL     1       2.897  -3.316  -0.484  1.00  0.00     0.027 C 
BRANCH  19  20
HETATM   20  C12 UNL     1       1.578  -3.583  -1.232  1.00  0.00     0.005 C 
BRANCH  20  21
HETATM   21  C13 UNL     1       1.548  -4.996  -1.845  1.00  0.00     0.000 C 
BRANCH  21  22
HETATM   22  C14 UNL     1       0.240  -5.273  -2.603  1.00  0.00     0.000 C 
HETATM   23  C15 UNL     1       0.233  -6.670  -3.240  1.00  0.00     0.000 C 
ENDBRANCH  21  22
ENDBRANCH  20  21
ENDBRANCH  19  20
ENDBRANCH   8  19
BRANCH   9  24
HETATM   24  C10 UNL     1       5.234  -2.722   1.300  1.00  0.00     0.213 C 
HETATM   25  O3  UNL     1       5.513  -3.741   0.461  1.00  0.00    -0.644 OA
HETATM   26  O4  UNL     1       5.949  -2.672   2.292  1.00  0.00    -0.644 OA
ENDBRANCH   9  24
TORSDOF 8
