REMARK  5 active torsions:
REMARK  status: ('A' for Active; 'I' for Inactive)
REMARK    1  A    between atoms: C12_13  and  C20_21 
REMARK    2  A    between atoms: C13_14  and  C15_16 
REMARK    3  A    between atoms: C15_16  and  C16_17 
REMARK    4  A    between atoms: C16_17  and  C17_18 
REMARK    5  A    between atoms: C17_18  and  C18_19 
ROOT
HETATM    1  C1  UNL     1      -1.094  -1.647   0.609  1.00  0.00     0.003 C 
HETATM    2  C2  UNL     1      -0.158  -2.814   0.347  1.00  0.00     0.117 C 
HETATM    3  O1  UNL     1       1.129  -2.551   0.847  1.00  0.00    -0.332 OA
HETATM    4  C3  UNL     1       1.662  -1.332   0.534  1.00  0.00     0.096 A 
HETATM    5  C4  UNL     1       0.869  -0.189   0.352  1.00  0.00     0.048 A 
HETATM    6  C5  UNL     1      -0.570  -0.345   0.641  1.00  0.00     0.002 C 
HETATM    7  C6  UNL     1      -1.405   0.714   1.030  1.00  0.00    -0.004 C 
HETATM    8  C7  UNL     1      -2.778   0.546   1.215  1.00  0.00    -0.022 C 
HETATM    9  C8  UNL     1      -3.311  -0.734   1.043  1.00  0.00    -0.004 C 
HETATM   10  C9  UNL     1      -2.475  -1.815   0.760  1.00  0.00    -0.002 C 
HETATM   11  C10 UNL     1      -3.671   1.706   1.576  1.00  0.00     0.031 C 
HETATM   12  C11 UNL     1       1.447   1.013  -0.090  1.00  0.00     0.139 A 
HETATM   13  C12 UNL     1       2.829   1.075  -0.318  1.00  0.00     0.089 A 
HETATM   14  C13 UNL     1       3.668  -0.031  -0.114  1.00  0.00     0.006 A 
HETATM   15  C14 UNL     1       3.031  -1.216   0.286  1.00  0.00     0.024 A 
HETATM   16  O4  UNL     1       0.663   2.074  -0.423  1.00  0.00    -0.190 OA
HETATM   17  C21 UNL     1      -0.612  -4.100   1.056  1.00  0.00     0.035 C 
HETATM   18  C22 UNL     1      -0.073  -3.071  -1.162  1.00  0.00     0.035 C 
ENDROOT
BRANCH  14  19
HETATM   19  C15 UNL     1       5.179  -0.127  -0.253  1.00  0.00    -0.026 C 
BRANCH  19  20
HETATM   20  C16 UNL     1       6.040   1.073  -0.664  1.00  0.00     0.026 C 
BRANCH  20  21
HETATM   21  C17 UNL     1       7.546   0.752  -0.629  1.00  0.00     0.005 C 
BRANCH  21  22
HETATM   22  C18 UNL     1       8.403   1.971  -1.015  1.00  0.00     0.000 C 
HETATM   23  C19 UNL     1       9.891   1.611  -1.125  1.00  0.00     0.000 C 
ENDBRANCH  21  22
ENDBRANCH  20  21
ENDBRANCH  19  20
ENDBRANCH  14  19
BRANCH  13  24
HETATM   24  C20 UNL     1       3.319   2.421  -0.793  1.00  0.00     0.213 C 
HETATM   25  O2  UNL     1       3.025   3.557  -0.127  1.00  0.00    -0.644 OA
HETATM   26  O3  UNL     1       3.845   2.544  -1.885  1.00  0.00    -0.644 OA
ENDBRANCH  13  24
TORSDOF 5
