REMARK  10 active torsions:
REMARK  status: ('A' for Active; 'I' for Inactive)
REMARK    1  A    between atoms: C5_5  and  C8_8 
REMARK    2  A    between atoms: C9_9  and  C10_10 
REMARK    3  A    between atoms: C11_11  and  C12_12 
REMARK    4  A    between atoms: C13_13  and  C14_14 
REMARK    5  A    between atoms: C15_15  and  C16_16 
REMARK    6  A    between atoms: C17_17  and  C18_18 
REMARK    7  A    between atoms: C19_19  and  C20_20 
REMARK    8  A    between atoms: C21_21  and  C22_22 
REMARK    9  A    between atoms: C23_23  and  C24_24 
REMARK   10  A    between atoms: C25_25  and  C26_26 
ROOT
HETATM    1  C16 UNL     1       6.824  -0.641  -0.034  1.00  0.00    -0.000 C 
HETATM    2  C17 UNL     1       6.945   0.709  -0.104  1.00  0.00    -0.000 C 
ENDROOT
BRANCH   1   3
HETATM    3  C15 UNL     1       5.535  -1.278   0.247  1.00  0.00    -0.004 C 
HETATM    4  C14 UNL     1       5.286  -2.617   0.245  1.00  0.00    -0.022 C 
HETATM    5  C36 UNL     1       6.349  -3.611  -0.159  1.00  0.00     0.031 C 
BRANCH   4   6
HETATM    6  C13 UNL     1       3.897  -3.035   0.512  1.00  0.00    -0.004 C 
HETATM    7  C12 UNL     1       3.407  -4.235   0.912  1.00  0.00    -0.001 C 
BRANCH   7   8
HETATM    8  C11 UNL     1       4.154  -5.423   1.330  1.00  0.00    -0.004 C 
HETATM    9  C10 UNL     1       3.602  -6.596   1.741  1.00  0.00    -0.022 C 
HETATM   10  C37 UNL     1       4.506  -7.707   2.231  1.00  0.00     0.031 C 
BRANCH   9  11
HETATM   11  C9  UNL     1       2.146  -6.828   1.680  1.00  0.00    -0.005 C 
HETATM   12  C8  UNL     1       1.489  -7.628   2.549  1.00  0.00    -0.005 C 
BRANCH  12  13
HETATM   13  C5  UNL     1       0.020  -7.845   2.517  1.00  0.00    -0.024 C 
HETATM   14  C4  UNL     1      -0.487  -9.285   2.565  1.00  0.00     0.019 C 
HETATM   15  C3  UNL     1      -1.919  -9.325   3.131  1.00  0.00     0.012 C 
HETATM   16  C38 UNL     1       0.381 -10.192   3.468  1.00  0.00     0.004 C 
HETATM   17  C39 UNL     1      -0.439  -9.853   1.132  1.00  0.00     0.004 C 
HETATM   18  C2  UNL     1      -2.865  -8.393   2.376  1.00  0.00     0.069 C 
HETATM   19  C1  UNL     1      -2.294  -6.996   2.269  1.00  0.00     0.169 C 
HETATM   20  C6  UNL     1      -0.829  -6.788   2.413  1.00  0.00     0.009 C 
HETATM   21  O2  UNL     1      -3.054  -6.055   2.067  1.00  0.00    -0.292 OA
HETATM   22  C7  UNL     1      -0.395  -5.338   2.479  1.00  0.00     0.034 C 
ENDBRANCH  12  13
ENDBRANCH   9  11
ENDBRANCH   7   8
ENDBRANCH   4   6
ENDBRANCH   1   3
BRANCH   2  23
HETATM   23  C18 UNL     1       8.222   1.367  -0.395  1.00  0.00    -0.004 C 
HETATM   24  C19 UNL     1       8.444   2.710  -0.491  1.00  0.00    -0.022 C 
HETATM   25  C35 UNL     1       7.343   3.711  -0.225  1.00  0.00     0.031 C 
BRANCH  24  26
HETATM   26  C20 UNL     1       9.825   3.126  -0.803  1.00  0.00    -0.004 C 
HETATM   27  C21 UNL     1      10.354   4.330  -1.149  1.00  0.00    -0.001 C 
BRANCH  27  28
HETATM   28  C22 UNL     1       9.673   5.607  -1.365  1.00  0.00    -0.004 C 
HETATM   29  C23 UNL     1      10.239   6.810  -1.662  1.00  0.00    -0.022 C 
HETATM   30  C34 UNL     1       9.328   8.013  -1.816  1.00  0.00     0.031 C 
BRANCH  29  31
HETATM   31  C24 UNL     1      11.691   6.990  -1.843  1.00  0.00    -0.009 C 
HETATM   32  C25 UNL     1      12.269   8.172  -2.143  1.00  0.00    -0.022 C 
BRANCH  32  33
HETATM   33  C26 UNL     1      13.754   8.372  -2.357  1.00  0.00     0.044 C 
HETATM   34  C27 UNL     1      14.018   8.852  -3.795  1.00  0.00     0.016 C 
HETATM   35  C28 UNL     1      13.655   7.775  -4.831  1.00  0.00     0.001 C 
HETATM   36  C29 UNL     1      15.481   9.286  -3.949  1.00  0.00     0.070 C 
HETATM   37  C30 UNL     1      15.894  10.315  -2.914  1.00  0.00     0.169 C 
HETATM   38  C31 UNL     1      15.239  10.271  -1.582  1.00  0.00     0.009 C 
HETATM   39  O1  UNL     1      16.770  11.133  -3.166  1.00  0.00    -0.292 OA
HETATM   40  C32 UNL     1      14.265   9.370  -1.348  1.00  0.00    -0.024 C 
HETATM   41  C33 UNL     1      15.702  11.236  -0.519  1.00  0.00     0.034 C 
ENDBRANCH  32  33
ENDBRANCH  29  31
ENDBRANCH  27  28
ENDBRANCH  24  26
ENDBRANCH   2  23
TORSDOF 10
