REMARK  2 active torsions:
REMARK  status: ('A' for Active; 'I' for Inactive)
REMARK    1  A    between atoms: C1_1  and  C10_12 
REMARK    2  A    between atoms: C10_12  and  O3_14 
ROOT
HETATM    1  C1  UNL     1      -1.498  -1.073   0.024  1.00  0.00     0.078 A 
HETATM    2  C2  UNL     1      -2.726  -0.423   0.239  1.00  0.00     0.104 A 
HETATM    3  N1  UNL     1      -2.919   0.904   0.262  1.00  0.00    -0.243 NA
HETATM    4  C3  UNL     1      -1.852   1.690   0.079  1.00  0.00     0.094 A 
HETATM    5  C4  UNL     1      -0.576   1.162  -0.113  1.00  0.00    -0.004 A 
HETATM    6  C5  UNL     1      -0.390  -0.218  -0.132  1.00  0.00    -0.015 A 
HETATM    7  C6  UNL     1       1.069  -0.530  -0.339  1.00  0.00     0.059 C 
HETATM    8  C7  UNL     1       1.729   0.808   0.031  1.00  0.00     0.161 C 
HETATM    9  C8  UNL     1       0.714   1.911  -0.310  1.00  0.00     0.054 C 
HETATM   10  C9  UNL     1       0.849   3.197   0.510  1.00  0.00     0.007 C 
HETATM   11  O1  UNL     1       1.968   0.804   1.421  1.00  0.00    -0.223 OA
ENDROOT
BRANCH   1  12
HETATM   12  C10 UNL     1      -1.344  -2.562  -0.020  1.00  0.00     0.297 C 
HETATM   13  O2  UNL     1      -0.213  -2.981   0.223  1.00  0.00    -0.259 OA
BRANCH  12  14
HETATM   14  O3  UNL     1      -2.289  -3.517  -0.285  1.00  0.00    -0.296 OA
HETATM   15  C11 UNL     1      -3.595  -3.203  -0.694  1.00  0.00     0.185 C 
ENDBRANCH  12  14
ENDBRANCH   1  12
TORSDOF 2
