REMARK  11 active torsions:
REMARK  status: ('A' for Active; 'I' for Inactive)
REMARK    1  A    between atoms: C4_4  and  O3_15 
REMARK    2  A    between atoms: O3_15  and  C13_16 
REMARK    3  A    between atoms: C13_16  and  C14_17 
REMARK    4  A    between atoms: C20_25  and  O11_47 
REMARK    5  A    between atoms: C23_28  and  O7_33 
REMARK    6  A    between atoms: O7_33  and  C27_34 
REMARK    7  A    between atoms: C27_34  and  C28_36 
REMARK    8  A    between atoms: C32_40  and  C33_41 
REMARK    9  A    between atoms: C33_41  and  C34_42 
REMARK   10  A    between atoms: O11_47  and  C37_48 
REMARK   11  A    between atoms: C37_48  and  C38_50 
ROOT
HETATM    1  C1  UNL     1      -0.176  -0.699   1.119  1.00  0.00     0.041 C 
HETATM    2  C2  UNL     1      -0.266  -0.955  -0.418  1.00  0.00     0.109 C 
HETATM    3  C3  UNL     1      -1.615  -0.627  -1.049  1.00  0.00     0.182 C 
HETATM    4  C4  UNL     1      -2.875  -1.025  -0.311  1.00  0.00     0.182 C 
HETATM    5  C5  UNL     1      -2.658  -1.330   1.187  1.00  0.00     0.047 C 
HETATM    6  C6  UNL     1      -1.570  -0.418   1.795  1.00  0.00     0.029 C 
HETATM    7  C7  UNL     1      -1.848   1.045   1.357  1.00  0.00     0.003 C 
HETATM    8  C8  UNL     1      -1.705  -0.440   3.348  1.00  0.00     0.101 C 
HETATM    9  O1  UNL     1      -2.934   0.219   3.684  1.00  0.00    -0.307 OA
HETATM   10  C9  UNL     1      -4.047  -0.209   3.061  1.00  0.00     0.272 C 
HETATM   11  C10 UNL     1      -3.986  -1.281   1.986  1.00  0.00     0.099 C 
HETATM   12  O2  UNL     1      -5.129   0.256   3.336  1.00  0.00    -0.264 OA
HETATM   13  C11 UNL     1      -0.566   0.340   4.016  1.00  0.00     0.030 C 
HETATM   14  C12 UNL     1      -1.803  -1.838   3.980  1.00  0.00     0.030 C 
HETATM   15  O5  UNL     1      -1.697  -0.057  -2.113  1.00  0.00    -0.293 OA
HETATM   16  C20 UNL     1       0.883  -0.225  -1.172  1.00  0.00     0.136 C 
HETATM   17  C21 UNL     1       2.352  -0.586  -0.830  1.00  0.00     0.059 C 
HETATM   18  C22 UNL     1       2.846  -0.342   0.609  1.00  0.00     0.157 C 
HETATM   19  C23 UNL     1       2.272  -1.275   1.721  1.00  0.00     0.177 C 
HETATM   20  C24 UNL     1       0.826  -1.818   1.549  1.00  0.00     0.121 C 
HETATM   21  C25 UNL     1       0.451  -2.637   2.771  1.00  0.00     0.032 C 
HETATM   22  O6  UNL     1       0.852  -2.772   0.506  1.00  0.00    -0.356 OA
HETATM   23  C26 UNL     1      -0.066  -2.469  -0.502  1.00  0.00     0.152 C 
HETATM   24  C30 UNL     1       4.359  -0.512   0.385  1.00  0.00     0.033 C 
HETATM   25  C31 UNL     1       4.688   0.223  -0.914  1.00  0.00     0.003 C 
HETATM   26  C32 UNL     1       3.416   0.037  -1.766  1.00  0.00     0.012 C 
HETATM   27  C36 UNL     1       5.051   1.676  -0.600  1.00  0.00     0.000 C 
HETATM   28  O10 UNL     1       2.625   1.012   0.986  1.00  0.00    -0.223 OA
ENDROOT
BRANCH   4  29
HETATM   29  O3  UNL     1      -3.445  -2.162  -0.947  1.00  0.00    -0.293 OA
BRANCH  29  30
HETATM   30  C13 UNL     1      -4.621  -1.891  -1.508  1.00  0.00     0.296 C 
HETATM   31  O4  UNL     1      -5.682  -2.250  -1.055  1.00  0.00    -0.259 OA
BRANCH  30  32
HETATM   32  C14 UNL     1      -4.555  -1.094  -2.770  1.00  0.00     0.063 A 
HETATM   33  C15 UNL     1      -3.582  -1.391  -3.742  1.00  0.00     0.005 A 
HETATM   34  C16 UNL     1      -3.520  -0.641  -4.928  1.00  0.00     0.000 A 
HETATM   35  C17 UNL     1      -4.430   0.410  -5.145  1.00  0.00     0.000 A 
HETATM   36  C18 UNL     1      -5.400   0.709  -4.174  1.00  0.00     0.000 A 
HETATM   37  C19 UNL     1      -5.463  -0.043  -2.986  1.00  0.00     0.005 A 
ENDBRANCH  30  32
ENDBRANCH  29  30
ENDBRANCH   4  29
BRANCH  16  38
HETATM   38  O11 UNL     1       0.686   1.176  -1.023  1.00  0.00    -0.300 OA
BRANCH  38  39
HETATM   39  C37 UNL     1      -0.088   1.684  -1.979  1.00  0.00     0.296 C 
HETATM   40  O12 UNL     1      -0.111   1.271  -3.115  1.00  0.00    -0.259 OA
BRANCH  39  41
HETATM   41  C38 UNL     1      -0.953   2.826  -1.557  1.00  0.00     0.063 A 
HETATM   42  C39 UNL     1      -0.764   3.426  -0.299  1.00  0.00     0.005 A 
HETATM   43  C40 UNL     1      -1.578   4.502   0.096  1.00  0.00     0.000 A 
HETATM   44  C41 UNL     1      -2.582   4.979  -0.766  1.00  0.00     0.000 A 
HETATM   45  C42 UNL     1      -2.771   4.379  -2.022  1.00  0.00     0.000 A 
HETATM   46  C43 UNL     1      -1.957   3.303  -2.418  1.00  0.00     0.005 A 
ENDBRANCH  39  41
ENDBRANCH  38  39
ENDBRANCH  16  38
BRANCH  19  47
HETATM   47  O7  UNL     1       3.143  -2.391   1.910  1.00  0.00    -0.299 OA
BRANCH  47  48
HETATM   48  C27 UNL     1       3.176  -2.799   3.174  1.00  0.00     0.272 C 
HETATM   49  O8  UNL     1       2.856  -3.908   3.531  1.00  0.00    -0.264 OA
BRANCH  48  50
HETATM   50  C28 UNL     1       3.645  -1.772   4.168  1.00  0.00     0.096 C 
HETATM   51  C29 UNL     1       4.631  -0.775   3.555  1.00  0.00     0.011 C 
ENDBRANCH  48  50
ENDBRANCH  47  48
ENDBRANCH  19  47
BRANCH  26  52
HETATM   52  C33 UNL     1       3.006   1.326  -2.481  1.00  0.00     0.065 C 
BRANCH  52  53
HETATM   53  C34 UNL     1       3.930   1.672  -3.615  1.00  0.00     0.151 C 
HETATM   54  C35 UNL     1       3.758   0.939  -4.918  1.00  0.00     0.072 C 
HETATM   55  O9  UNL     1       4.787   2.516  -3.484  1.00  0.00    -0.296 OA
ENDBRANCH  52  53
ENDBRANCH  26  52
TORSDOF 11
