REMARK  4 active torsions:
REMARK  status: ('A' for Active; 'I' for Inactive)
REMARK    1  A    between atoms: C5_5  and  C7_7 
REMARK    2  A    between atoms: C7_7  and  C8_8 
REMARK    3  A    between atoms: C9_9  and  C10_10 
REMARK    4  A    between atoms: C10_10  and  C11_11 
ROOT
HETATM    1  C7  UNL     1       0.280  -1.992   0.028  1.00  0.00     0.102 C 
ENDROOT
BRANCH   1   2
HETATM    2  C5  UNL     1       1.778  -2.188   0.101  1.00  0.00    -0.009 A 
HETATM    3  C4  UNL     1       2.285  -3.450   0.436  1.00  0.00    -0.003 A 
HETATM    4  C3  UNL     1       3.659  -3.684   0.513  1.00  0.00    -0.000 A 
HETATM    5  C2  UNL     1       4.558  -2.648   0.252  1.00  0.00    -0.000 A 
HETATM    6  C1  UNL     1       4.070  -1.383  -0.081  1.00  0.00    -0.000 A 
HETATM    7  C6  UNL     1       2.693  -1.159  -0.154  1.00  0.00    -0.003 A 
ENDBRANCH   1   2
BRANCH   1   8
HETATM    8  C8  UNL     1      -0.146  -0.634  -0.354  1.00  0.00    -0.086 C 
HETATM    9  C9  UNL     1      -0.448   0.502  -0.654  1.00  0.00    -0.088 C 
BRANCH   9  10
HETATM   10  C10 UNL     1      -0.735   1.907  -0.995  1.00  0.00     0.109 C 
BRANCH  10  11
HETATM   11  C11 UNL     1      -1.481   2.618   0.133  1.00  0.00     0.165 C 
HETATM   12  O1  UNL     1      -0.685   2.624   1.295  1.00  0.00    -0.222 OA
HETATM   13  C12 UNL     1      -1.820   4.061  -0.233  1.00  0.00     0.037 C 
ENDBRANCH  10  11
ENDBRANCH   9  10
ENDBRANCH   1   8
TORSDOF 4
