REMARK  6 active torsions:
REMARK  status: ('A' for Active; 'I' for Inactive)
REMARK    1  A    between atoms: C7_7  and  C10_13 
REMARK    2  A    between atoms: C7_7  and  C14_18 
REMARK    3  A    between atoms: N1_9  and  O1_10 
REMARK    4  A    between atoms: C17_21  and  C20_25 
REMARK    5  A    between atoms: C20_25  and  O4_26 
REMARK    6  A    between atoms: O4_26  and  C21_27 
ROOT
HETATM    1  C1  UNL     1      -3.704   1.517  -2.875  1.00  0.00    -0.000 A 
HETATM    2  C2  UNL     1      -3.495   2.972  -2.732  1.00  0.00     0.002 A 
HETATM    3  C3  UNL     1      -2.423   3.431  -2.084  1.00  0.00     0.019 A 
HETATM    4  C4  UNL     1      -1.536   2.438  -1.495  1.00  0.00     0.087 A 
HETATM    5  C5  UNL     1      -1.660   1.162  -1.645  1.00  0.00     0.006 A 
HETATM    6  C6  UNL     1      -2.825   0.628  -2.370  1.00  0.00    -0.002 A 
HETATM    7  C7  UNL     1      -0.741   0.365  -0.654  1.00  0.00     0.120 C 
HETATM    8  C8  UNL     1      -0.029   1.725  -0.150  1.00  0.00     0.266 C 
HETATM    9  N1  UNL     1      -0.539   2.828  -0.691  1.00  0.00    -0.185 N 
HETATM   10  O2  UNL     1       1.017   1.798   0.505  1.00  0.00    -0.269 OA
ENDROOT
BRANCH   7  11
HETATM   11  C10 UNL     1       0.572  -0.330  -0.724  1.00  0.00     0.050 C 
HETATM   12  C11 UNL     1       0.875  -1.693  -1.344  1.00  0.00     0.223 C 
HETATM   13  C12 UNL     1       0.081  -2.776  -0.558  1.00  0.00     0.061 C 
HETATM   14  N2  UNL     1       2.332  -1.746  -0.908  1.00  0.00     0.137 N 
HETATM   15  C13 UNL     1      -1.351  -2.995  -1.007  1.00  0.00     0.144 C 
HETATM   16  C16 UNL     1       0.045  -2.167   0.899  1.00  0.00     0.011 C 
HETATM   17  O3  UNL     1      -2.155  -1.758  -1.000  1.00  0.00    -0.356 OA
HETATM   18  C14 UNL     1      -1.770  -0.709  -0.025  1.00  0.00     0.128 C 
HETATM   19  C15 UNL     1      -1.306  -1.495   1.137  1.00  0.00     0.031 C 
HETATM   20  C17 UNL     1       0.993  -0.951   0.835  1.00  0.00     0.060 C 
HETATM   21  C18 UNL     1       2.420  -1.402   0.531  1.00  0.00     0.253 C 
HETATM   22  C19 UNL     1       3.123  -2.950  -1.270  1.00  0.00     0.285 C 
BRANCH  20  23
HETATM   23  C20 UNL     1       0.888  -0.074   2.376  1.00  0.00     0.126 C 
HETATM   24  C23 UNL     1       1.510  -0.986   3.443  1.00  0.00     0.033 C 
BRANCH  23  25
HETATM   25  O4  UNL     1      -0.523   0.332   3.071  1.00  0.00    -0.304 OA
BRANCH  25  26
HETATM   26  C21 UNL     1      -1.643   1.300   2.709  1.00  0.00     0.272 C 
HETATM   27  C22 UNL     1      -2.873   1.337   3.574  1.00  0.00     0.106 C 
HETATM   28  O5  UNL     1      -1.672   2.022   1.721  1.00  0.00    -0.264 OA
ENDBRANCH  25  26
ENDBRANCH  23  25
ENDBRANCH  20  23
ENDBRANCH   7  11
BRANCH   9  29
HETATM   29  O1  UNL     1      -0.147   4.145  -0.553  1.00  0.00    -0.248 OA
HETATM   30  C9  UNL     1       0.983   4.463   0.306  1.00  0.00     0.209 C 
ENDBRANCH   9  29
TORSDOF 6
