REMARK  3 active torsions:
REMARK  status: ('A' for Active; 'I' for Inactive)
REMARK    1  A    between atoms: C10_12  and  C11_13 
REMARK    2  A    between atoms: C11_13  and  C12_14 
REMARK    3  A    between atoms: C12_14  and  C13_15 
ROOT
HETATM    1  C1  UNL     1       1.602   0.548  -0.361  1.00  0.00     0.002 A 
HETATM    2  C2  UNL     1       1.428   0.338   1.131  1.00  0.00     0.001 A 
HETATM    3  C3  UNL     1       0.023  -0.135   1.492  1.00  0.00     0.007 C 
HETATM    4  C4  UNL     1      -1.033   0.790   0.867  1.00  0.00     0.055 A 
HETATM    5  C5  UNL     1      -0.869   0.942  -0.665  1.00  0.00     0.129 A 
HETATM    6  C6  UNL     1       0.369   0.211  -1.195  1.00  0.00     0.031 C 
HETATM    7  O1  UNL     1      -2.021   0.468  -1.320  1.00  0.00    -0.301 OA
HETATM    8  C7  UNL     1      -2.915   0.078  -0.377  1.00  0.00     0.292 A 
HETATM    9  C8  UNL     1      -2.426   0.249   0.998  1.00  0.00     0.043 A 
HETATM   10  C9  UNL     1      -3.116  -0.039   2.115  1.00  0.00     0.001 C 
HETATM   11  O2  UNL     1      -4.021  -0.377  -0.655  1.00  0.00    -0.260 OA
HETATM   12  C10 UNL     1       2.320  -0.592   0.334  1.00  0.00     0.001 A 
HETATM   13  C15 UNL     1       2.346   1.804  -0.793  1.00  0.00     0.000 C 
ENDROOT
BRANCH  12  14
HETATM   14  C11 UNL     1       3.821  -0.521   0.596  1.00  0.00     0.008 C 
BRANCH  14  15
HETATM   15  C12 UNL     1       4.648  -0.974  -0.617  1.00  0.00     0.065 C 
BRANCH  15  16
HETATM   16  C13 UNL     1       6.154  -0.891  -0.419  1.00  0.00     0.151 C 
HETATM   17  C14 UNL     1       7.014  -1.480  -1.522  1.00  0.00     0.072 C 
HETATM   18  O3  UNL     1       6.649  -0.383   0.560  1.00  0.00    -0.296 OA
ENDBRANCH  15  16
ENDBRANCH  14  15
ENDBRANCH  12  14
TORSDOF 3
