REMARK  0 active torsions:
REMARK  status: ('A' for Active; 'I' for Inactive)
ROOT
HETATM    1  C1  UNL     1      -2.162   0.311   1.063  1.00  0.00     0.030 C 
HETATM    2  C2  UNL     1      -2.279  -0.999   0.270  1.00  0.00     0.003 C 
HETATM    3  C3  UNL     1      -0.990  -1.827   0.369  1.00  0.00     0.000 C 
HETATM    4  C4  UNL     1       0.355  -1.111   0.400  1.00  0.00     0.003 A 
HETATM    5  C5  UNL     1       0.337   0.400   0.537  1.00  0.00     0.030 A 
HETATM    6  C6  UNL     1      -1.003   1.129   0.487  1.00  0.00     0.152 C 
HETATM    7  O1  UNL     1      -0.898   2.346   1.210  1.00  0.00    -0.224 OA
HETATM    8  C7  UNL     1       0.892  -0.247  -0.719  1.00  0.00     0.002 A 
HETATM    9  C8  UNL     1       2.408  -0.167  -0.870  1.00  0.00     0.000 C 
HETATM   10  C9  UNL     1       0.163  -0.192  -2.052  1.00  0.00     0.000 C 
HETATM   11  C10 UNL     1      -3.492   1.083   1.016  1.00  0.00     0.003 C 
ENDROOT
TORSDOF 0
