REMARK  0 active torsions:
REMARK  status: ('A' for Active; 'I' for Inactive)
ROOT
HETATM    1  C1  UNL     1      -1.611   0.034   0.539  1.00  0.00     0.119 A 
HETATM    2  C2  UNL     1      -1.560  -1.351   0.455  1.00  0.00     0.119 A 
HETATM    3  C3  UNL     1      -0.343  -2.014   0.372  1.00  0.00     0.024 A 
HETATM    4  C4  UNL     1       0.838  -1.253   0.372  1.00  0.00     0.009 A 
HETATM    5  C5  UNL     1       0.792   0.150   0.458  1.00  0.00    -0.018 A 
HETATM    6  C6  UNL     1      -0.451   0.799   0.556  1.00  0.00     0.022 A 
HETATM    7  C7  UNL     1       2.097   0.922   0.463  1.00  0.00     0.088 C 
HETATM    8  C8  UNL     1       3.189   0.098  -0.253  1.00  0.00     0.244 C 
HETATM    9  N1  UNL     1       3.327  -1.177   0.440  1.00  0.00     0.143 N 
HETATM   10  C9  UNL     1       2.144  -2.006   0.236  1.00  0.00     0.277 C 
HETATM   11  C10 UNL     1       4.527  -1.947   0.112  1.00  0.00     0.251 C 
HETATM   12  C11 UNL     1       5.418  -1.330  -0.973  1.00  0.00     0.040 C 
HETATM   13  C12 UNL     1       5.761   0.098  -0.556  1.00  0.00     0.026 C 
HETATM   14  C13 UNL     1       4.488   0.871  -0.337  1.00  0.00    -0.017 C 
HETATM   15  C14 UNL     1       4.522   2.212  -0.286  1.00  0.00    -0.030 C 
HETATM   16  C15 UNL     1       3.316   3.082  -0.088  1.00  0.00     0.059 C 
HETATM   17  C16 UNL     1       1.997   2.320  -0.147  1.00  0.00     0.163 C 
HETATM   18  O1  UNL     1       1.551   2.186  -1.475  1.00  0.00    -0.223 OA
HETATM   19  O2  UNL     1      -2.846  -1.856   0.465  1.00  0.00    -0.300 OA
HETATM   20  C17 UNL     1      -3.746  -0.744   0.548  1.00  0.00     0.304 A 
HETATM   21  O3  UNL     1      -2.932   0.434   0.609  1.00  0.00    -0.300 OA
ENDROOT
TORSDOF 0
