REMARK  5 active torsions:
REMARK  status: ('A' for Active; 'I' for Inactive)
REMARK    1  A    between atoms: C1_1  and  O6_12 
REMARK    2  A    between atoms: C2_3  and  C6_10 
REMARK    3  A    between atoms: O6_12  and  C7_13 
REMARK    4  A    between atoms: C7_13  and  C8_14 
REMARK    5  A    between atoms: C8_14  and  C9_15 
ROOT
HETATM    1  C7  UNL     1      -1.676   1.684  -0.257  1.00  0.00     0.229 C 
HETATM    2  C11 UNL     1      -2.381   2.065   0.991  1.00  0.00     0.108 C 
HETATM    3  N1  UNL     1      -2.921   2.369   1.970  1.00  0.00    -0.193 NA
ENDROOT
BRANCH   1   4
HETATM    4  O6  UNL     1      -1.694   0.273  -0.430  1.00  0.00    -0.312 OA
BRANCH   4   5
HETATM    5  C1  UNL     1      -0.877  -0.439   0.475  1.00  0.00     0.271 C 
HETATM    6  O1  UNL     1       0.432  -0.347  -0.045  1.00  0.00    -0.326 OA
HETATM    7  C2  UNL     1       1.371  -1.045   0.730  1.00  0.00     0.184 C 
HETATM    8  C3  UNL     1       1.009  -2.525   0.778  1.00  0.00     0.215 C 
HETATM    9  C4  UNL     1      -0.393  -2.699   1.324  1.00  0.00     0.220 C 
HETATM   10  O4  UNL     1       1.888  -3.235   1.616  1.00  0.00    -0.218 OA
HETATM   11  C5  UNL     1      -1.338  -1.879   0.476  1.00  0.00     0.241 C 
HETATM   12  O3  UNL     1      -0.756  -4.054   1.268  1.00  0.00    -0.218 OA
HETATM   13  O2  UNL     1      -2.629  -1.963   1.025  1.00  0.00    -0.215 OA
BRANCH   7  14
HETATM   14  C6  UNL     1       2.751  -0.831   0.125  1.00  0.00     0.214 C 
HETATM   15  O5  UNL     1       3.090   0.541   0.182  1.00  0.00    -0.218 OA
ENDBRANCH   7  14
ENDBRANCH   4   5
ENDBRANCH   1   4
BRANCH   1  16
HETATM   16  C8  UNL     1      -2.333   2.405  -1.424  1.00  0.00     0.030 C 
HETATM   17  C10 UNL     1      -2.835   1.750  -2.484  1.00  0.00    -0.003 C 
BRANCH  16  18
HETATM   18  C9  UNL     1      -2.379   3.916  -1.322  1.00  0.00     0.208 C 
HETATM   19  O7  UNL     1      -2.938   4.546  -2.468  1.00  0.00    -0.216 OA
ENDBRANCH  16  18
ENDBRANCH   1  16
TORSDOF 5
