REMARK  5 active torsions:
REMARK  status: ('A' for Active; 'I' for Inactive)
REMARK    1  A    between atoms: C1_1  and  O9_37 
REMARK    2  A    between atoms: C6_6  and  O1_7 
REMARK    3  A    between atoms: O1_7  and  C7_8 
REMARK    4  A    between atoms: C9_11  and  C12_15 
REMARK    5  A    between atoms: O9_37  and  C29_38 
ROOT
HETATM    1  C1  UNL     1       1.317   0.618   0.754  1.00  0.00     0.152 C 
HETATM    2  C2  UNL     1       1.421  -0.568  -0.257  1.00  0.00     0.044 C 
HETATM    3  C3  UNL     1       2.855  -1.169  -0.359  1.00  0.00     0.079 C 
HETATM    4  C4  UNL     1       3.890  -0.027  -0.482  1.00  0.00     0.126 A 
HETATM    5  C5  UNL     1       3.482   1.452  -0.382  1.00  0.00     0.057 C 
HETATM    6  C6  UNL     1       2.530   1.580   0.815  1.00  0.00     0.154 C 
HETATM    7  C9  UNL     1       4.859   2.155  -0.158  1.00  0.00     0.032 C 
HETATM    8  C10 UNL     1       5.794   1.329  -1.069  1.00  0.00     0.037 C 
HETATM    9  C11 UNL     1       5.244  -0.090  -0.969  1.00  0.00     0.141 A 
HETATM   10  O3  UNL     1       5.189  -0.440   0.387  1.00  0.00    -0.356 OA
HETATM   11  C16 UNL     1       2.860   2.037  -1.675  1.00  0.00     0.005 C 
HETATM   12  C17 UNL     1       2.953  -2.046  -1.611  1.00  0.00     0.152 C 
HETATM   13  C18 UNL     1       1.738  -2.159  -2.508  1.00  0.00     0.067 C 
HETATM   14  C19 UNL     1       0.460  -2.477  -1.720  1.00  0.00     0.038 C 
HETATM   15  C20 UNL     1       0.186  -1.505  -0.532  1.00  0.00     0.063 C 
HETATM   16  C21 UNL     1      -0.349  -2.505   0.495  1.00  0.00     0.271 C 
HETATM   17  O5  UNL     1       0.089  -3.803   0.186  1.00  0.00    -0.332 OA
HETATM   18  C22 UNL     1       0.318  -3.914  -1.179  1.00  0.00     0.096 C 
HETATM   19  C23 UNL     1      -0.883  -4.642  -1.814  1.00  0.00     0.030 C 
HETATM   20  C24 UNL     1       1.523  -4.847  -1.361  1.00  0.00     0.030 C 
HETATM   21  C25 UNL     1      -1.870  -2.408   0.491  1.00  0.00     0.204 C 
HETATM   22  C26 UNL     1      -2.333  -1.456  -0.583  1.00  0.00     0.070 C 
HETATM   23  C27 UNL     1      -1.067  -0.643  -0.878  1.00  0.00     0.013 C 
HETATM   24  O6  UNL     1      -2.588  -3.036   1.235  1.00  0.00    -0.291 OA
HETATM   25  O7  UNL     1       0.139  -2.348   1.808  1.00  0.00    -0.188 OA
HETATM   26  O8  UNL     1       3.967  -2.638  -1.906  1.00  0.00    -0.296 OA
HETATM   27  C28 UNL     1       3.120  -2.093   0.849  1.00  0.00     0.010 C 
ENDROOT
BRANCH   7  28
HETATM   28  C12 UNL     1       4.955   3.644  -0.319  1.00  0.00     0.004 A 
HETATM   29  C13 UNL     1       4.822   4.612   0.731  1.00  0.00     0.025 A 
HETATM   30  C14 UNL     1       4.990   5.832   0.151  1.00  0.00     0.122 A 
HETATM   31  O4  UNL     1       5.228   5.702  -1.185  1.00  0.00    -0.303 OA
HETATM   32  C15 UNL     1       5.212   4.364  -1.448  1.00  0.00     0.118 A 
ENDBRANCH   7  28
BRANCH   6  33
HETATM   33  O1  UNL     1       2.117   2.917   0.891  1.00  0.00    -0.302 OA
BRANCH  33  34
HETATM   34  C7  UNL     1       1.686   3.417   2.079  1.00  0.00     0.272 C 
HETATM   35  C8  UNL     1       1.252   4.859   1.908  1.00  0.00     0.106 C 
HETATM   36  O2  UNL     1       1.651   2.806   3.122  1.00  0.00    -0.264 OA
ENDBRANCH  33  34
ENDBRANCH   6  33
BRANCH   1  37
HETATM   37  O9  UNL     1       1.083   0.160   2.057  1.00  0.00    -0.302 OA
BRANCH  37  38
HETATM   38  C29 UNL     1      -0.117   0.400   2.656  1.00  0.00     0.272 C 
HETATM   39  C30 UNL     1      -0.119  -0.120   4.080  1.00  0.00     0.106 C 
HETATM   40  O10 UNL     1      -1.058   0.957   2.140  1.00  0.00    -0.264 OA
ENDBRANCH  37  38
ENDBRANCH   1  37
TORSDOF 5
