REMARK  5 active torsions:
REMARK  status: ('A' for Active; 'I' for Inactive)
REMARK    1  A    between atoms: C1_1  and  O8_36 
REMARK    2  A    between atoms: C6_6  and  O1_7 
REMARK    3  A    between atoms: O1_7  and  C7_8 
REMARK    4  A    between atoms: C9_11  and  C12_15 
REMARK    5  A    between atoms: O8_36  and  C29_37 
ROOT
HETATM    1  C1  UNL     1       0.933   0.420   0.840  1.00  0.00     0.152 C 
HETATM    2  C2  UNL     1       0.919  -0.743  -0.181  1.00  0.00     0.042 C 
HETATM    3  C3  UNL     1       2.296  -1.444  -0.423  1.00  0.00     0.079 C 
HETATM    4  C4  UNL     1       3.349  -0.331  -0.668  1.00  0.00     0.126 A 
HETATM    5  C5  UNL     1       3.004   1.168  -0.509  1.00  0.00     0.057 C 
HETATM    6  C6  UNL     1       2.191   1.317   0.789  1.00  0.00     0.154 C 
HETATM    7  C9  UNL     1       4.423   1.820  -0.428  1.00  0.00     0.032 C 
HETATM    8  C10 UNL     1       5.237   0.962  -1.420  1.00  0.00     0.037 C 
HETATM    9  C11 UNL     1       4.655  -0.438  -1.267  1.00  0.00     0.141 A 
HETATM   10  O3  UNL     1       4.707  -0.780   0.090  1.00  0.00    -0.356 OA
HETATM   11  C16 UNL     1       2.272   1.799  -1.720  1.00  0.00     0.005 C 
HETATM   12  C17 UNL     1       2.159  -2.393  -1.634  1.00  0.00     0.152 C 
HETATM   13  C18 UNL     1       0.927  -3.293  -1.731  1.00  0.00     0.067 C 
HETATM   14  C19 UNL     1      -0.288  -2.387  -1.584  1.00  0.00     0.035 C 
HETATM   15  C20 UNL     1      -0.330  -1.673  -0.220  1.00  0.00     0.038 C 
HETATM   16  C21 UNL     1      -1.727  -1.056  -0.414  1.00  0.00     0.123 C 
HETATM   17  O5  UNL     1      -2.514  -1.998  -1.109  1.00  0.00    -0.361 OA
HETATM   18  C22 UNL     1      -1.713  -2.843  -1.878  1.00  0.00     0.093 C 
HETATM   19  C23 UNL     1      -2.079  -2.651  -3.360  1.00  0.00     0.030 C 
HETATM   20  C24 UNL     1      -2.020  -4.300  -1.515  1.00  0.00     0.030 C 
HETATM   21  C25 UNL     1      -2.361  -0.879   0.963  1.00  0.00     0.094 C 
HETATM   22  C26 UNL     1      -1.797  -2.060   1.720  1.00  0.00     0.153 C 
HETATM   23  C27 UNL     1      -0.525  -2.539   1.046  1.00  0.00     0.067 C 
HETATM   24  O6  UNL     1      -2.261  -2.528   2.734  1.00  0.00    -0.296 OA
HETATM   25  O7  UNL     1       2.990  -2.438  -2.512  1.00  0.00    -0.296 OA
HETATM   26  C28 UNL     1       2.683  -2.375   0.750  1.00  0.00     0.010 C 
ENDROOT
BRANCH   7  27
HETATM   27  C12 UNL     1       4.577   3.302  -0.619  1.00  0.00     0.004 A 
HETATM   28  C13 UNL     1       4.710   4.276   0.425  1.00  0.00     0.025 A 
HETATM   29  C14 UNL     1       4.852   5.481  -0.190  1.00  0.00     0.122 A 
HETATM   30  O4  UNL     1       4.828   5.337  -1.545  1.00  0.00    -0.303 OA
HETATM   31  C15 UNL     1       4.673   4.004  -1.784  1.00  0.00     0.118 A 
ENDBRANCH   7  27
BRANCH   6  32
HETATM   32  O1  UNL     1       1.835   2.663   0.952  1.00  0.00    -0.302 OA
BRANCH  32  33
HETATM   33  C7  UNL     1       2.034   3.269   2.153  1.00  0.00     0.272 C 
HETATM   34  C8  UNL     1       1.510   4.690   2.105  1.00  0.00     0.106 C 
HETATM   35  O2  UNL     1       2.550   2.752   3.119  1.00  0.00    -0.264 OA
ENDBRANCH  32  33
ENDBRANCH   6  32
BRANCH   1  36
HETATM   36  O8  UNL     1       0.775  -0.074   2.139  1.00  0.00    -0.302 OA
BRANCH  36  37
HETATM   37  C29 UNL     1       0.137   0.691   3.066  1.00  0.00     0.272 C 
HETATM   38  C30 UNL     1       0.177   0.012   4.419  1.00  0.00     0.106 C 
HETATM   39  O9  UNL     1      -0.389   1.758   2.840  1.00  0.00    -0.264 OA
ENDBRANCH  36  37
ENDBRANCH   1  36
TORSDOF 5
