REMARK  0 active torsions:
REMARK  status: ('A' for Active; 'I' for Inactive)
ROOT
HETATM    1  C1  UNL     1      -2.996   0.736   0.670  1.00  0.00     0.037 C 
HETATM    2  C2  UNL     1      -2.502  -0.054   1.946  1.00  0.00     0.025 C 
HETATM    3  C3  UNL     1      -1.292  -0.813   1.496  1.00  0.00    -0.042 C 
HETATM    4  C4  UNL     1      -0.587  -0.314   0.274  1.00  0.00     0.043 C 
HETATM    5  C5  UNL     1      -0.587   1.209   0.274  1.00  0.00     0.034 C 
HETATM    6  C6  UNL     1      -2.006   1.716   0.055  1.00  0.00     0.153 C 
HETATM    7  O1  UNL     1      -2.152   2.971   0.663  1.00  0.00    -0.223 OA
HETATM    8  C7  UNL     1       0.312   1.716  -0.846  1.00  0.00     0.003 C 
HETATM    9  C8  UNL     1       1.877   1.090  -0.941  1.00  0.00     0.003 C 
HETATM   10  C9  UNL     1       1.539  -0.394  -1.015  1.00  0.00     0.038 C 
HETATM   11  C10 UNL     1       0.849  -0.822   0.274  1.00  0.00     0.128 C 
HETATM   12  O2  UNL     1       0.802  -2.220   0.184  1.00  0.00    -0.304 OA
HETATM   13  C11 UNL     1       1.981  -2.550  -0.355  1.00  0.00     0.271 C 
HETATM   14  C12 UNL     1       2.826  -1.207  -1.032  1.00  0.00     0.089 C 
HETATM   15  C13 UNL     1       3.384  -1.461  -2.426  1.00  0.00     0.011 C 
HETATM   16  O3  UNL     1       2.412  -3.679  -0.367  1.00  0.00    -0.264 OA
HETATM   17  C14 UNL     1      -0.067   1.716   1.612  1.00  0.00     0.003 C 
HETATM   18  C15 UNL     1      -1.305  -0.822  -0.970  1.00  0.00     0.007 C 
HETATM   19  C16 UNL     1      -0.861  -1.892   2.158  1.00  0.00    -0.009 C 
ENDROOT
TORSDOF 0
