REMARK  0 active torsions:
REMARK  status: ('A' for Active; 'I' for Inactive)
ROOT
HETATM    1  C1  UNL     1      -2.027   0.195   0.572  1.00  0.00     0.003 C 
HETATM    2  C2  UNL     1      -2.245  -1.258   0.168  1.00  0.00     0.000 C 
HETATM    3  C3  UNL     1      -0.966  -2.051   0.168  1.00  0.00     0.002 A 
HETATM    4  C4  UNL     1       0.305  -1.317   0.168  1.00  0.00     0.026 A 
HETATM    5  C5  UNL     1       0.258   0.187   0.158  1.00  0.00     0.086 A 
HETATM    6  C6  UNL     1       1.626   0.809  -0.086  1.00  0.00     0.033 A 
HETATM    7  C7  UNL     1       1.739   1.231  -1.545  1.00  0.00     0.003 A 
HETATM    8  C8  UNL     1       0.493   0.783  -2.296  1.00  0.00     0.006 A 
HETATM    9  C9  UNL     1      -0.458   0.136  -1.338  1.00  0.00     0.042 A 
HETATM   10  C10 UNL     1      -1.077   0.842  -0.386  1.00  0.00     0.030 A 
HETATM   11  C11 UNL     1      -0.722  -1.333  -1.448  1.00  0.00    -0.029 C 
HETATM   12  C12 UNL     1       1.632   2.046   0.803  1.00  0.00     0.089 C 
HETATM   13  C13 UNL     1       0.243   1.963   1.386  1.00  0.00     0.271 C 
HETATM   14  O1  UNL     1      -0.117   0.675   1.418  1.00  0.00    -0.308 OA
HETATM   15  O2  UNL     1      -0.427   2.897   1.759  1.00  0.00    -0.264 OA
HETATM   16  C14 UNL     1       2.703   1.959   1.883  1.00  0.00     0.011 C 
HETATM   17  O3  UNL     1      -0.193  -1.955  -1.037  1.00  0.00     0.000 OA
HETATM   18  C15 UNL     1      -1.528  -3.158   1.018  1.00  0.00     0.000 C 
ENDROOT
TORSDOF 0
