REMARK  0 active torsions:
REMARK  status: ('A' for Active; 'I' for Inactive)
ROOT
HETATM    1  C1  UNL     1      -2.801   1.876   0.313  1.00  0.00     0.005 C 
HETATM    2  C2  UNL     1      -3.138   0.700  -0.595  1.00  0.00     0.021 C 
HETATM    3  C3  UNL     1      -2.000  -0.272  -0.595  1.00  0.00    -0.050 C 
HETATM    4  C4  UNL     1      -0.930  -0.093   0.187  1.00  0.00    -0.025 C 
HETATM    5  C5  UNL     1       0.208  -1.066   0.187  1.00  0.00     0.142 C 
HETATM    6  C6  UNL     1       1.527  -0.304   0.187  1.00  0.00     0.041 C 
HETATM    7  C7  UNL     1       1.842   0.165   1.601  1.00  0.00     0.004 C 
HETATM    8  C8  UNL     1       0.444   0.805   2.115  1.00  0.00     0.004 C 
HETATM    9  C9  UNL     1      -0.532   1.246   1.070  1.00  0.00     0.017 C 
HETATM   10  C10 UNL     1      -0.052   1.481  -0.329  1.00  0.00     0.004 C 
HETATM   11  C11 UNL     1      -1.824   1.435   1.359  1.00  0.00     0.004 C 
HETATM   12  C12 UNL     1       2.553  -1.345  -0.243  1.00  0.00     0.089 C 
HETATM   13  C13 UNL     1       1.480  -2.216  -1.126  1.00  0.00     0.272 C 
HETATM   14  O1  UNL     1       0.222  -1.769  -1.026  1.00  0.00    -0.300 OA
HETATM   15  O2  UNL     1       1.794  -3.167  -1.801  1.00  0.00    -0.264 OA
HETATM   16  C14 UNL     1       3.681  -0.759  -1.082  1.00  0.00     0.011 C 
HETATM   17  C15 UNL     1      -2.061  -1.471  -1.489  1.00  0.00     0.026 C 
ENDROOT
TORSDOF 0
