REMARK  3 active torsions:
REMARK  status: ('A' for Active; 'I' for Inactive)
REMARK    1  A    between atoms: C9_9  and  O3_14 
REMARK    2  A    between atoms: O3_14  and  C12_15 
REMARK    3  A    between atoms: C13_17  and  C17_24 
ROOT
HETATM    1  C1  UNL     1      -0.797  -1.615  -1.846  1.00  0.00     0.015 A 
HETATM    2  C2  UNL     1       0.352  -2.613  -1.753  1.00  0.00     0.071 A 
HETATM    3  C3  UNL     1       1.411  -2.077  -0.788  1.00  0.00     0.135 C 
HETATM    4  C4  UNL     1       2.331  -1.012  -1.376  1.00  0.00     0.063 C 
HETATM    5  C5  UNL     1       1.669   0.318  -1.742  1.00  0.00     0.010 C 
HETATM    6  C6  UNL     1       0.620   0.171  -2.854  1.00  0.00     0.022 C 
HETATM    7  C7  UNL     1      -0.695  -0.353  -2.317  1.00  0.00    -0.044 C 
HETATM    8  C8  UNL     1      -1.806   0.671  -2.337  1.00  0.00     0.026 C 
HETATM    9  C9  UNL     1       3.491  -1.034  -0.371  1.00  0.00     0.175 C 
HETATM   10  C10 UNL     1       3.545  -2.557  -0.176  1.00  0.00     0.296 C 
HETATM   11  O1  UNL     1       2.299  -3.071  -0.370  1.00  0.00    -0.302 OA
HETATM   12  O2  UNL     1       4.519  -3.211   0.128  1.00  0.00    -0.262 OA
HETATM   13  C11 UNL     1       4.825  -0.531  -0.919  1.00  0.00     0.040 C 
HETATM   14  C18 UNL     1      -0.372  -3.841  -1.237  1.00  0.00    -0.035 A 
HETATM   15  C19 UNL     1      -1.669  -3.622  -0.964  1.00  0.00     0.034 A 
HETATM   16  C20 UNL     1      -2.027  -2.226  -1.284  1.00  0.00     0.191 A 
HETATM   17  O9  UNL     1      -3.139  -1.746  -1.101  1.00  0.00    -0.287 OA
HETATM   18  C21 UNL     1       0.304  -5.173  -1.076  1.00  0.00     0.027 C 
ENDROOT
BRANCH   9  19
HETATM   19  O3  UNL     1       3.148  -0.500   0.885  1.00  0.00    -0.324 OA
BRANCH  19  20
HETATM   20  C12 UNL     1       3.238   0.895   1.059  1.00  0.00     0.270 C 
HETATM   21  O4  UNL     1       4.538   1.165   1.540  1.00  0.00    -0.326 OA
HETATM   22  C13 UNL     1       4.757   2.538   1.742  1.00  0.00     0.184 C 
HETATM   23  C14 UNL     1       3.769   3.080   2.771  1.00  0.00     0.215 C 
HETATM   24  C15 UNL     1       2.344   2.780   2.353  1.00  0.00     0.220 C 
HETATM   25  O7  UNL     1       3.892   4.475   2.905  1.00  0.00    -0.218 OA
HETATM   26  C16 UNL     1       2.231   1.292   2.116  1.00  0.00     0.241 C 
HETATM   27  O6  UNL     1       1.459   3.163   3.374  1.00  0.00    -0.218 OA
HETATM   28  O5  UNL     1       0.926   0.997   1.688  1.00  0.00    -0.215 OA
BRANCH  22  29
HETATM   29  C17 UNL     1       6.208   2.744   2.168  1.00  0.00     0.214 C 
HETATM   30  O8  UNL     1       6.824   3.706   1.335  1.00  0.00    -0.218 OA
ENDBRANCH  22  29
ENDBRANCH  19  20
ENDBRANCH   9  19
TORSDOF 3
