REMARK  1 active torsions:
REMARK  status: ('A' for Active; 'I' for Inactive)
REMARK    1  A    between atoms: C16_18  and  O3_20 
ROOT
HETATM    1  C3  UNL     1      -2.270   1.368  -0.780  1.00  0.00     0.175 C 
HETATM    2  C4  UNL     1      -2.110  -0.128  -0.599  1.00  0.00     0.072 C 
HETATM    3  C5  UNL     1      -0.675  -0.514  -0.226  1.00  0.00     0.047 C 
HETATM    4  C6  UNL     1       0.364   0.129  -1.147  1.00  0.00     0.192 C 
HETATM    5  C7  UNL     1       0.184   1.635  -1.153  1.00  0.00     0.104 C 
HETATM    6  C8  UNL     1      -1.044   2.172  -1.002  1.00  0.00     0.060 C 
HETATM    7  O1  UNL     1       1.271   2.428  -1.386  1.00  0.00    -0.332 OA
HETATM    8  C9  UNL     1       2.365   2.129  -0.569  1.00  0.00     0.155 C 
HETATM    9  C10 UNL     1       2.893   0.747  -0.917  1.00  0.00     0.085 C 
HETATM   10  C11 UNL     1       1.793  -0.338  -0.823  1.00  0.00     0.161 C 
HETATM   11  O2  UNL     1       1.935  -0.954   0.462  1.00  0.00    -0.330 OA
HETATM   12  C12 UNL     1       3.207  -0.701   0.936  1.00  0.00     0.092 A 
HETATM   13  C13 UNL     1       3.823   0.273   0.163  1.00  0.00     0.005 A 
HETATM   14  C14 UNL     1       5.099   0.711   0.493  1.00  0.00    -0.000 A 
HETATM   15  C15 UNL     1       5.742   0.098   1.573  1.00  0.00     0.024 A 
HETATM   16  C16 UNL     1       5.158  -0.918   2.352  1.00  0.00     0.096 A 
HETATM   17  C17 UNL     1       3.850  -1.306   2.015  1.00  0.00     0.048 A 
HETATM   18  O4  UNL     1       0.081  -0.276  -2.473  1.00  0.00    -0.217 OA
HETATM   19  O5  UNL     1      -3.372   1.899  -0.725  1.00  0.00    -0.291 OA
ENDROOT
BRANCH  16  20
HETATM   20  O3  UNL     1       5.894  -1.458   3.378  1.00  0.00    -0.328 OA
HETATM   21  C18 UNL     1       5.325  -2.504   4.131  1.00  0.00     0.181 C 
ENDBRANCH  16  20
TORSDOF 1
