REMARK  0 active torsions:
REMARK  status: ('A' for Active; 'I' for Inactive)
ROOT
HETATM    1  C3  UNL     1      -2.291   1.117  -0.716  1.00  0.00     0.175 C 
HETATM    2  C4  UNL     1      -2.153  -0.361  -0.414  1.00  0.00     0.072 C 
HETATM    3  C5  UNL     1      -0.720  -0.745  -0.027  1.00  0.00     0.047 C 
HETATM    4  C6  UNL     1       0.319  -0.179  -1.000  1.00  0.00     0.192 C 
HETATM    5  C7  UNL     1       0.170   1.327  -1.085  1.00  0.00     0.104 C 
HETATM    6  C8  UNL     1      -1.052   1.890  -0.974  1.00  0.00     0.060 C 
HETATM    7  O1  UNL     1       1.272   2.091  -1.343  1.00  0.00    -0.332 OA
HETATM    8  C9  UNL     1       2.363   1.796  -0.521  1.00  0.00     0.155 C 
HETATM    9  C10 UNL     1       2.864   0.395  -0.830  1.00  0.00     0.085 C 
HETATM   10  C11 UNL     1       1.744  -0.660  -0.675  1.00  0.00     0.161 C 
HETATM   11  O2  UNL     1       1.894  -1.220   0.634  1.00  0.00    -0.330 OA
HETATM   12  C12 UNL     1       3.182  -0.982   1.075  1.00  0.00     0.092 A 
HETATM   13  C13 UNL     1       3.814  -0.056   0.246  1.00  0.00     0.007 A 
HETATM   14  C14 UNL     1       5.118   0.381   0.489  1.00  0.00     0.024 A 
HETATM   15  C15 UNL     1       5.750  -0.197   1.590  1.00  0.00     0.119 A 
HETATM   16  C16 UNL     1       5.123  -1.145   2.401  1.00  0.00     0.121 A 
HETATM   17  C17 UNL     1       3.813  -1.566   2.178  1.00  0.00     0.050 A 
HETATM   18  O3  UNL     1       5.999  -1.536   3.395  1.00  0.00    -0.299 OA
HETATM   19  C18 UNL     1       7.223  -0.815   3.211  1.00  0.00     0.304 A 
HETATM   20  O4  UNL     1       7.027   0.031   2.071  1.00  0.00    -0.300 OA
HETATM   21  O5  UNL     1      -0.001  -0.653  -2.294  1.00  0.00    -0.217 OA
HETATM   22  O6  UNL     1      -3.387   1.664  -0.720  1.00  0.00    -0.291 OA
ENDROOT
TORSDOF 0
