REMARK  2 active torsions:
REMARK  status: ('A' for Active; 'I' for Inactive)
REMARK    1  A    between atoms: C15_17  and  O5_22 
REMARK    2  A    between atoms: O5_22  and  C18_23 
ROOT
HETATM    1  C1  UNL     1      -2.205  -0.046  -1.003  1.00  0.00     0.203 C 
HETATM    2  C2  UNL     1      -2.532  -1.432  -0.607  1.00  0.00     0.032 C 
HETATM    3  C3  UNL     1      -1.576  -2.262  -0.145  1.00  0.00    -0.041 C 
HETATM    4  C4  UNL     1      -0.124  -1.825  -0.057  1.00  0.00     0.024 C 
HETATM    5  C5  UNL     1       0.032  -0.319   0.249  1.00  0.00     0.044 C 
HETATM    6  C6  UNL     1      -0.774   0.427  -0.840  1.00  0.00     0.213 C 
HETATM    7  O1  UNL     1      -0.835   1.823  -0.603  1.00  0.00    -0.215 OA
HETATM    8  C7  UNL     1       1.534   0.127   0.229  1.00  0.00     0.067 C 
HETATM    9  C8  UNL     1       2.513  -0.792  -0.544  1.00  0.00     0.087 C 
HETATM   10  C9  UNL     1       1.890  -1.548  -1.709  1.00  0.00     0.129 C 
HETATM   11  C10 UNL     1       0.599  -2.293  -1.335  1.00  0.00     0.035 C 
HETATM   12  O2  UNL     1       1.651  -0.759  -2.839  1.00  0.00    -0.302 OA
HETATM   13  C11 UNL     1       2.142   0.490  -3.040  1.00  0.00     0.305 C 
HETATM   14  C12 UNL     1       3.271   0.973  -2.135  1.00  0.00     0.265 C 
HETATM   15  C13 UNL     1       3.733   0.014  -1.048  1.00  0.00     0.171 C 
HETATM   16  C14 UNL     1       4.515   0.653   0.121  1.00  0.00     0.064 C 
HETATM   17  C15 UNL     1       3.618   1.146   1.272  1.00  0.00     0.180 C 
HETATM   18  C16 UNL     1       2.418   0.224   1.476  1.00  0.00     0.245 C 
HETATM   19  O3  UNL     1       1.773   0.613   2.661  1.00  0.00    -0.193 OA
HETATM   20  O4  UNL     1       2.845  -1.071   1.779  1.00  0.00    -0.331 OA
HETATM   21  C17 UNL     1       2.959  -1.762   0.564  1.00  0.00     0.150 C 
HETATM   22  C20 UNL     1       5.587   1.686  -0.271  1.00  0.00     0.005 C 
HETATM   23  O7  UNL     1       4.614  -0.864  -1.708  1.00  0.00    -0.223 OA
HETATM   24  O8  UNL     1       4.389   1.306  -2.949  1.00  0.00    -0.210 OA
HETATM   25  O9  UNL     1       1.733   1.181  -3.952  1.00  0.00    -0.261 OA
HETATM   26  C21 UNL     1      -0.673  -0.026   1.597  1.00  0.00     0.004 C 
HETATM   27  C22 UNL     1      -1.887  -3.683   0.259  1.00  0.00     0.026 C 
HETATM   28  O10 UNL     1      -3.019   0.765  -1.426  1.00  0.00    -0.289 OA
ENDROOT
BRANCH  17  29
HETATM   29  O5  UNL     1       3.164   2.447   1.016  1.00  0.00    -0.299 OA
BRANCH  29  30
HETATM   30  C18 UNL     1       3.259   3.492   1.888  1.00  0.00     0.273 C 
HETATM   31  O6  UNL     1       2.836   4.595   1.611  1.00  0.00    -0.264 OA
HETATM   32  C19 UNL     1       3.942   3.238   3.221  1.00  0.00     0.106 C 
ENDBRANCH  29  30
ENDBRANCH  17  29
TORSDOF 2
