REMARK  3 active torsions:
REMARK  status: ('A' for Active; 'I' for Inactive)
REMARK    1  A    between atoms: C3_3  and  C18_21 
REMARK    2  A    between atoms: C12_13  and  C14_15 
REMARK    3  A    between atoms: C18_21  and  O5_23 
ROOT
HETATM    1  C1  UNL     1      -1.049   0.194  -3.447  1.00  0.00     0.026 C 
HETATM    2  C2  UNL     1      -2.259   0.839  -2.824  1.00  0.00    -0.025 C 
HETATM    3  C3  UNL     1      -2.548   0.759  -1.517  1.00  0.00     0.036 C 
HETATM    4  C4  UNL     1      -1.706  -0.021  -0.538  1.00  0.00     0.027 C 
HETATM    5  C5  UNL     1      -0.275  -0.215  -1.073  1.00  0.00     0.005 C 
HETATM    6  C6  UNL     1      -0.342  -0.786  -2.500  1.00  0.00     0.005 C 
HETATM    7  C7  UNL     1       0.595  -1.064  -0.117  1.00  0.00     0.013 C 
HETATM    8  C8  UNL     1      -0.192  -1.582   1.098  1.00  0.00     0.087 C 
HETATM    9  C9  UNL     1      -1.449  -2.313   0.603  1.00  0.00     0.010 C 
HETATM   10  C10 UNL     1      -2.389  -1.339  -0.130  1.00  0.00     0.005 C 
HETATM   11  C11 UNL     1       0.733  -2.420   1.969  1.00  0.00     0.272 C 
HETATM   12  O1  UNL     1       1.853  -1.747   2.360  1.00  0.00    -0.300 OA
HETATM   13  C12 UNL     1       2.064  -0.444   1.874  1.00  0.00     0.148 C 
HETATM   14  C13 UNL     1       1.895  -0.385   0.356  1.00  0.00     0.035 C 
HETATM   15  O3  UNL     1       0.493  -3.556   2.311  1.00  0.00    -0.264 OA
ENDROOT
BRANCH  13  16
HETATM   16  C14 UNL     1       3.412   0.078   2.295  1.00  0.00     0.032 A 
HETATM   17  C15 UNL     1       4.633  -0.435   1.977  1.00  0.00     0.121 A 
HETATM   18  O2  UNL     1       5.634   0.320   2.513  1.00  0.00    -0.303 OA
HETATM   19  C16 UNL     1       5.026   1.336   3.189  1.00  0.00     0.122 A 
HETATM   20  C17 UNL     1       3.671   1.242   3.090  1.00  0.00     0.027 A 
ENDBRANCH  13  16
BRANCH   3  21
HETATM   21  C18 UNL     1      -3.767   1.503  -0.997  1.00  0.00     0.291 C 
HETATM   22  O4  UNL     1      -4.744   0.823  -0.709  1.00  0.00    -0.260 OA
BRANCH  21  23
HETATM   23  O5  UNL     1      -3.792   2.854  -0.803  1.00  0.00    -0.296 OA
HETATM   24  C19 UNL     1      -2.607   3.563  -1.086  1.00  0.00     0.185 C 
ENDBRANCH  21  23
ENDBRANCH   3  21
TORSDOF 3
