REMARK  0 active torsions:
REMARK  status: ('A' for Active; 'I' for Inactive)
ROOT
HETATM    1  C1  UNL     1      -2.462   2.912   1.182  1.00  0.00     0.000 C 
HETATM    2  C2  UNL     1      -2.939   1.511   0.765  1.00  0.00     0.000 C 
HETATM    3  C3  UNL     1      -2.535   1.066  -0.651  1.00  0.00     0.001 C 
HETATM    4  C4  UNL     1      -3.185   1.881  -1.781  1.00  0.00     0.010 C 
HETATM    5  C5  UNL     1      -2.590   1.607  -3.172  1.00  0.00     0.096 C 
HETATM    6  C6  UNL     1      -2.800   0.201  -3.711  1.00  0.00     0.272 C 
HETATM    7  O1  UNL     1      -1.947  -0.675  -3.117  1.00  0.00    -0.302 OA
HETATM    8  C7  UNL     1      -1.787  -1.949  -3.675  1.00  0.00     0.158 C 
HETATM    9  C8  UNL     1      -1.461  -2.950  -2.561  1.00  0.00     0.284 C 
HETATM   10  N1  UNL     1      -0.244  -2.520  -1.872  1.00  0.00     0.337 N 
HETATM   11  C9  UNL     1       0.939  -2.473  -2.736  1.00  0.00     0.257 C 
HETATM   12  C10 UNL     1       0.689  -1.560  -3.949  1.00  0.00     0.038 C 
HETATM   13  C11 UNL     1      -0.622  -1.916  -4.667  1.00  0.00     0.034 C 
HETATM   14  C12 UNL     1       2.149  -1.975  -1.920  1.00  0.00     0.036 C 
HETATM   15  C13 UNL     1       2.525  -2.912  -0.760  1.00  0.00     0.002 C 
HETATM   16  C14 UNL     1       3.593  -2.324   0.178  1.00  0.00     0.000 C 
HETATM   17  C15 UNL     1       4.996  -2.241  -0.438  1.00  0.00     0.000 C 
HETATM   18  C16 UNL     1       6.013  -1.447   0.402  1.00  0.00     0.001 C 
HETATM   19  C17 UNL     1       6.276  -1.984   1.821  1.00  0.00     0.010 C 
HETATM   20  C18 UNL     1       5.351  -1.430   2.918  1.00  0.00     0.096 C 
HETATM   21  C19 UNL     1       5.422   0.083   3.030  1.00  0.00     0.272 C 
HETATM   22  O2  UNL     1       4.269   0.660   2.590  1.00  0.00    -0.302 OA
HETATM   23  C20 UNL     1       4.181   2.058   2.581  1.00  0.00     0.158 C 
HETATM   24  C21 UNL     1       3.622   2.513   1.230  1.00  0.00     0.034 C 
HETATM   25  C22 UNL     1       2.146   2.119   1.073  1.00  0.00     0.038 C 
HETATM   26  C23 UNL     1       1.326   2.651   2.259  1.00  0.00     0.257 C 
HETATM   27  C24 UNL     1      -0.168   2.280   2.172  1.00  0.00     0.036 C 
HETATM   28  C25 UNL     1      -0.939   3.130   1.146  1.00  0.00     0.002 C 
HETATM   29  N2  UNL     1       1.896   2.123   3.503  1.00  0.00     0.337 N 
HETATM   30  C26 UNL     1       3.282   2.541   3.726  1.00  0.00     0.284 C 
HETATM   31  C27 UNL     1       3.748   2.042   5.104  1.00  0.00     0.041 C 
HETATM   32  O3  UNL     1       6.394   0.676   3.441  1.00  0.00    -0.264 OA
HETATM   33  C28 UNL     1      -2.599  -3.105  -1.541  1.00  0.00     0.041 C 
HETATM   34  O4  UNL     1      -3.552  -0.069  -4.621  1.00  0.00    -0.264 OA
ENDROOT
TORSDOF 0
