REMARK  0 active torsions:
REMARK  status: ('A' for Active; 'I' for Inactive)
ROOT
HETATM    1  C1  UNL     1      -1.916   0.305  -1.117  1.00  0.00     0.129 C 
HETATM    2  C2  UNL     1      -2.043  -1.218  -1.071  1.00  0.00     0.038 C 
HETATM    3  C3  UNL     1      -0.847  -1.964  -0.461  1.00  0.00     0.003 C 
HETATM    4  C4  UNL     1      -0.427  -1.677   0.986  1.00  0.00     0.001 C 
HETATM    5  C5  UNL     1      -0.404  -0.213   1.460  1.00  0.00     0.008 C 
HETATM    6  C6  UNL     1       0.206   0.748   0.420  1.00  0.00     0.068 A 
HETATM    7  C7  UNL     1      -0.509   0.887  -0.959  1.00  0.00     0.053 A 
HETATM    8  C8  UNL     1      -0.517   2.382  -1.206  1.00  0.00    -0.039 A 
HETATM    9  C9  UNL     1      -0.034   3.088  -0.173  1.00  0.00     0.029 A 
HETATM   10  C10 UNL     1       0.407   2.185   0.905  1.00  0.00     0.172 A 
HETATM   11  O1  UNL     1       0.905   2.562   1.955  1.00  0.00    -0.291 OA
HETATM   12  C11 UNL     1      -1.002   2.989  -2.492  1.00  0.00     0.026 C 
HETATM   13  C12 UNL     1       0.317  -0.175   2.825  1.00  0.00     0.001 C 
HETATM   14  C13 UNL     1      -3.433  -1.391  -0.446  1.00  0.00     0.089 C 
HETATM   15  C14 UNL     1      -3.647  -0.099   0.314  1.00  0.00     0.271 C 
HETATM   16  O2  UNL     1      -2.808   0.845  -0.186  1.00  0.00    -0.304 OA
HETATM   17  O3  UNL     1      -4.455   0.088   1.196  1.00  0.00    -0.264 OA
HETATM   18  C15 UNL     1      -3.713  -2.670   0.346  1.00  0.00     0.011 C 
ENDROOT
TORSDOF 0
