REMARK  9 active torsions:
REMARK  status: ('A' for Active; 'I' for Inactive)
REMARK    1  A    between atoms: C2_2  and  O3_33 
REMARK    2  A    between atoms: C15_16  and  C18_19 
REMARK    3  A    between atoms: C18_19  and  C19_20 
REMARK    4  A    between atoms: C19_20  and  C20_22 
REMARK    5  A    between atoms: C20_22  and  C21_23 
REMARK    6  A    between atoms: C21_23  and  C22_24 
REMARK    7  A    between atoms: C21_23  and  C24_26 
REMARK    8  A    between atoms: O3_33  and  C31_34 
REMARK    9  A    between atoms: C31_34  and  C32_36 
ROOT
HETATM    1  C1  UNL     1      -2.946  -2.207   0.552  1.00  0.00     0.030 C 
HETATM    2  C2  UNL     1      -2.486  -3.144   1.663  1.00  0.00     0.125 C 
HETATM    3  C3  UNL     1      -1.432  -4.125   1.105  1.00  0.00     0.035 C 
HETATM    4  C4  UNL     1      -0.527  -3.460   0.030  1.00  0.00     0.065 C 
HETATM    5  C5  UNL     1      -0.385  -1.921   0.170  1.00  0.00     0.011 C 
HETATM    6  C6  UNL     1      -1.798  -1.284   0.109  1.00  0.00     0.003 C 
HETATM    7  C7  UNL     1       0.480  -1.420  -1.023  1.00  0.00     0.019 C 
HETATM    8  C8  UNL     1       1.848  -2.053  -0.981  1.00  0.00    -0.042 C 
HETATM    9  C9  UNL     1       1.984  -3.332  -0.577  1.00  0.00     0.029 C 
HETATM   10  C10 UNL     1       0.829  -4.148  -0.130  1.00  0.00     0.172 C 
HETATM   11  O1  UNL     1       1.001  -5.327   0.151  1.00  0.00    -0.291 OA
HETATM   12  C11 UNL     1       3.064  -1.208  -1.288  1.00  0.00     0.018 C 
HETATM   13  C12 UNL     1       2.919  -0.085  -2.350  1.00  0.00     0.004 C 
HETATM   14  C13 UNL     1       1.460   0.422  -2.431  1.00  0.00     0.001 C 
HETATM   15  C14 UNL     1       0.593   0.102  -1.203  1.00  0.00     0.004 C 
HETATM   16  C15 UNL     1       3.953   0.979  -1.853  1.00  0.00     0.003 C 
HETATM   17  C16 UNL     1       3.801   0.925  -0.325  1.00  0.00     0.000 C 
HETATM   18  C17 UNL     1       3.612  -0.559  -0.003  1.00  0.00     0.004 C 
HETATM   19  C28 UNL     1       3.312  -0.692  -3.720  1.00  0.00     0.000 C 
HETATM   20  C29 UNL     1       0.337  -1.543   1.491  1.00  0.00     0.001 C 
HETATM   21  C30 UNL     1      -2.084  -5.410   0.550  1.00  0.00     0.003 C 
ENDROOT
BRANCH  16  22
HETATM   22  C18 UNL     1       3.951   2.428  -2.407  1.00  0.00     0.030 C 
HETATM   23  C27 UNL     1       4.127   2.473  -3.937  1.00  0.00     0.003 C 
BRANCH  22  24
HETATM   24  C19 UNL     1       4.974   3.391  -1.751  1.00  0.00     0.152 C 
HETATM   25  O2  UNL     1       4.438   3.853  -0.530  1.00  0.00    -0.224 OA
BRANCH  24  26
HETATM   26  C20 UNL     1       6.380   2.822  -1.523  1.00  0.00     0.033 C 
BRANCH  26  27
HETATM   27  C21 UNL     1       7.583   3.796  -1.489  1.00  0.00     0.003 C 
BRANCH  27  28
HETATM   28  C22 UNL     1       7.312   5.114  -0.729  1.00  0.00     0.000 C 
HETATM   29  C23 UNL     1       7.192   4.980   0.795  1.00  0.00     0.000 C 
ENDBRANCH  27  28
BRANCH  27  30
HETATM   30  C24 UNL     1       8.869   3.076  -0.991  1.00  0.00     0.000 C 
HETATM   31  C25 UNL     1       9.140   1.742  -1.715  1.00  0.00     0.000 C 
HETATM   32  C26 UNL     1      10.127   3.958  -1.109  1.00  0.00     0.000 C 
ENDBRANCH  27  30
ENDBRANCH  26  27
ENDBRANCH  24  26
ENDBRANCH  22  24
ENDBRANCH  16  22
BRANCH   2  33
HETATM   33  O3  UNL     1      -3.571  -3.808   2.245  1.00  0.00    -0.301 OA
BRANCH  33  34
HETATM   34  C31 UNL     1      -3.921  -3.572   3.549  1.00  0.00     0.296 C 
HETATM   35  O4  UNL     1      -4.778  -4.286   4.062  1.00  0.00    -0.259 OA
BRANCH  34  36
HETATM   36  C32 UNL     1      -3.358  -2.509   4.457  1.00  0.00     0.063 A 
HETATM   37  C33 UNL     1      -3.228  -1.180   4.035  1.00  0.00     0.005 A 
HETATM   38  C34 UNL     1      -2.670  -0.222   4.886  1.00  0.00     0.000 A 
HETATM   39  C35 UNL     1      -2.256  -0.584   6.169  1.00  0.00     0.000 A 
HETATM   40  C36 UNL     1      -2.417  -1.899   6.607  1.00  0.00     0.000 A 
HETATM   41  C37 UNL     1      -2.971  -2.859   5.755  1.00  0.00     0.005 A 
ENDBRANCH  34  36
ENDBRANCH  33  34
ENDBRANCH   2  33
TORSDOF 9
