REMARK  8 active torsions:
REMARK  status: ('A' for Active; 'I' for Inactive)
REMARK    1  A    between atoms: C2_3  and  O6_19 
REMARK    2  A    between atoms: C5_6  and  C6_7 
REMARK    3  A    between atoms: C6_7  and  O3_9 
REMARK    4  A    between atoms: C10_13  and  C11_14 
REMARK    5  A    between atoms: C11_14  and  O4_15 
REMARK    6  A    between atoms: O4_15  and  C12_16 
REMARK    7  A    between atoms: O6_19  and  C14_20 
REMARK    8  A    between atoms: C15_22  and  C19_29 
ROOT
HETATM    1  C1  UNL     1       2.287   2.016   1.186  1.00  0.00     0.120 C 
HETATM    2  O1  UNL     1       1.965   0.731   0.965  1.00  0.00    -0.303 OA
HETATM    3  C2  UNL     1       0.574   0.416   0.850  1.00  0.00     0.246 C 
HETATM    4  C3  UNL     1      -0.226   0.992   2.029  1.00  0.00     0.082 C 
HETATM    5  C4  UNL     1       0.037   2.512   2.100  1.00  0.00     0.043 C 
HETATM    6  C5  UNL     1       1.432   2.932   1.688  1.00  0.00     0.066 C 
HETATM    7  C8  UNL     1      -1.102   3.100   1.246  1.00  0.00     0.030 C 
HETATM    8  C9  UNL     1      -2.205   2.088   1.369  1.00  0.00    -0.032 C 
HETATM    9  C10 UNL     1      -1.715   0.926   1.811  1.00  0.00    -0.014 C 
ENDROOT
BRANCH   3  10
HETATM   10  O6  UNL     1       0.424  -0.988   0.807  1.00  0.00    -0.304 OA
BRANCH  10  11
HETATM   11  C14 UNL     1       1.063  -1.582  -0.305  1.00  0.00     0.272 C 
HETATM   12  O7  UNL     1       0.357  -1.207  -1.480  1.00  0.00    -0.326 OA
HETATM   13  C15 UNL     1       0.914  -1.689  -2.695  1.00  0.00     0.184 C 
HETATM   14  C16 UNL     1       0.902  -3.234  -2.689  1.00  0.00     0.215 C 
HETATM   15  C17 UNL     1       1.625  -3.797  -1.443  1.00  0.00     0.220 C 
HETATM   16  O10 UNL     1       1.541  -3.699  -3.865  1.00  0.00    -0.218 OA
HETATM   17  C18 UNL     1       1.070  -3.127  -0.166  1.00  0.00     0.241 C 
HETATM   18  O9  UNL     1       1.434  -5.201  -1.371  1.00  0.00    -0.218 OA
HETATM   19  O8  UNL     1       1.875  -3.494   0.943  1.00  0.00    -0.215 OA
BRANCH  13  20
HETATM   20  C19 UNL     1       0.076  -1.090  -3.832  1.00  0.00     0.214 C 
HETATM   21  O11 UNL     1       0.291   0.303  -3.850  1.00  0.00    -0.218 OA
ENDBRANCH  13  20
ENDBRANCH  10  11
ENDBRANCH   3  10
BRANCH   9  22
HETATM   22  C11 UNL     1      -2.533  -0.312   2.070  1.00  0.00     0.174 C 
BRANCH  22  23
HETATM   23  O4  UNL     1      -3.359  -0.578   0.947  1.00  0.00    -0.297 OA
BRANCH  23  24
HETATM   24  C12 UNL     1      -4.109  -1.664   1.115  1.00  0.00     0.273 C 
HETATM   25  C13 UNL     1      -5.010  -2.004  -0.041  1.00  0.00     0.106 C 
HETATM   26  O5  UNL     1      -4.090  -2.346   2.113  1.00  0.00    -0.264 OA
ENDBRANCH  23  24
ENDBRANCH  22  23
ENDBRANCH   9  22
BRANCH   6  27
HETATM   27  C6  UNL     1       1.832   4.336   1.863  1.00  0.00     0.294 C 
HETATM   28  O2  UNL     1       1.160   5.084   2.533  1.00  0.00    -0.259 OA
BRANCH  27  29
HETATM   29  O3  UNL     1       2.955   4.697   1.248  1.00  0.00    -0.296 OA
HETATM   30  C7  UNL     1       3.270   6.067   1.461  1.00  0.00     0.185 C 
ENDBRANCH  27  29
ENDBRANCH   6  27
TORSDOF 8
