REMARK  3 active torsions:
REMARK  status: ('A' for Active; 'I' for Inactive)
REMARK    1  A    between atoms: C1_1  and  O6_21 
REMARK    2  A    between atoms: C7_8  and  C10_12 
REMARK    3  A    between atoms: O6_21  and  C16_22 
ROOT
HETATM    1  C1  UNL     1       1.010  -1.546   1.761  1.00  0.00     0.101 A 
HETATM    2  C2  UNL     1       1.511  -2.756   1.268  1.00  0.00     0.051 A 
HETATM    3  C3  UNL     1       2.497  -2.844   0.283  1.00  0.00     0.131 A 
HETATM    4  C4  UNL     1       3.026  -1.659  -0.246  1.00  0.00     0.028 A 
HETATM    5  C5  UNL     1       2.557  -0.412   0.196  1.00  0.00     0.095 A 
HETATM    6  C6  UNL     1       1.557  -0.396   1.177  1.00  0.00     0.048 A 
HETATM    7  O1  UNL     1       2.999   0.788  -0.294  1.00  0.00    -0.327 OA
HETATM    8  C7  UNL     1       3.860   0.781  -1.406  1.00  0.00     0.174 C 
HETATM    9  C8  UNL     1       4.841  -0.376  -1.350  1.00  0.00     0.188 C 
HETATM   10  C9  UNL     1       4.114  -1.712  -1.290  1.00  0.00     0.066 C 
HETATM   11  O2  UNL     1       5.643  -0.246  -0.198  1.00  0.00    -0.220 OA
HETATM   12  O5  UNL     1       2.936  -4.062  -0.133  1.00  0.00    -0.190 OA
ENDROOT
BRANCH   1  13
HETATM   13  O6  UNL     1       0.044  -1.589   2.735  1.00  0.00    -0.303 OA
BRANCH  13  14
HETATM   14  C16 UNL     1      -0.522  -0.392   3.223  1.00  0.00     0.274 C 
HETATM   15  O7  UNL     1      -0.938  -0.743   4.529  1.00  0.00    -0.326 OA
HETATM   16  C17 UNL     1      -1.518   0.349   5.204  1.00  0.00     0.181 C 
HETATM   17  C18 UNL     1      -2.751   0.839   4.464  1.00  0.00     0.215 C 
HETATM   18  C19 UNL     1      -2.401   1.190   3.033  1.00  0.00     0.220 C 
HETATM   19  O10 UNL     1      -3.271   1.988   5.085  1.00  0.00    -0.218 OA
HETATM   20  C20 UNL     1      -1.726  -0.004   2.393  1.00  0.00     0.241 C 
HETATM   21  O9  UNL     1      -3.573   1.508   2.328  1.00  0.00    -0.218 OA
HETATM   22  O8  UNL     1      -1.337   0.337   1.087  1.00  0.00    -0.215 OA
ENDBRANCH  13  14
ENDBRANCH   1  13
BRANCH   8  23
HETATM   23  C10 UNL     1       3.125   0.869  -2.733  1.00  0.00     0.010 A 
HETATM   24  C11 UNL     1       3.647   1.655  -3.767  1.00  0.00     0.028 A 
HETATM   25  C12 UNL     1       3.013   1.785  -5.006  1.00  0.00     0.156 A 
HETATM   26  C13 UNL     1       1.818   1.097  -5.239  1.00  0.00     0.156 A 
HETATM   27  O4  UNL     1       3.529   2.563  -5.994  1.00  0.00    -0.188 OA
HETATM   28  C14 UNL     1       1.289   0.303  -4.219  1.00  0.00     0.029 A 
HETATM   29  O3  UNL     1       1.195   1.208  -6.440  1.00  0.00    -0.188 OA
HETATM   30  C15 UNL     1       1.925   0.194  -2.982  1.00  0.00     0.000 A 
ENDBRANCH   8  23
TORSDOF 3
