REMARK  4 active torsions:
REMARK  status: ('A' for Active; 'I' for Inactive)
REMARK    1  A    between atoms: C3_3  and  O5_20 
REMARK    2  A    between atoms: C7_8  and  C10_12 
REMARK    3  A    between atoms: O5_20  and  C16_21 
REMARK    4  A    between atoms: C17_23  and  C21_30 
ROOT
HETATM    1  C1  UNL     1      -2.757  -0.393   3.062  1.00  0.00     0.135 A 
HETATM    2  C2  UNL     1      -1.602  -1.163   2.933  1.00  0.00     0.051 A 
HETATM    3  C3  UNL     1      -0.417  -0.680   2.364  1.00  0.00     0.097 A 
HETATM    4  C4  UNL     1      -0.391   0.668   1.954  1.00  0.00     0.025 A 
HETATM    5  C5  UNL     1      -1.512   1.501   2.122  1.00  0.00     0.095 A 
HETATM    6  C6  UNL     1      -2.679   0.936   2.649  1.00  0.00     0.051 A 
HETATM    7  O1  UNL     1      -1.557   2.818   1.748  1.00  0.00    -0.327 OA
HETATM    8  C7  UNL     1      -0.531   3.299   0.918  1.00  0.00     0.174 C 
HETATM    9  C8  UNL     1       0.819   2.788   1.386  1.00  0.00     0.188 C 
HETATM   10  C9  UNL     1       0.857   1.267   1.351  1.00  0.00     0.066 C 
HETATM   11  O2  UNL     1       1.052   3.221   2.707  1.00  0.00    -0.220 OA
HETATM   12  O11 UNL     1      -3.903  -0.894   3.593  1.00  0.00    -0.190 OA
ENDROOT
BRANCH   3  13
HETATM   13  O5  UNL     1       0.664  -1.525   2.322  1.00  0.00    -0.304 OA
BRANCH  13  14
HETATM   14  C16 UNL     1       1.230  -1.848   1.073  1.00  0.00     0.274 C 
HETATM   15  O6  UNL     1       0.200  -1.854   0.113  1.00  0.00    -0.326 OA
HETATM   16  C17 UNL     1       0.685  -2.109  -1.179  1.00  0.00     0.184 C 
HETATM   17  C18 UNL     1       1.335  -3.487  -1.224  1.00  0.00     0.215 C 
HETATM   18  C19 UNL     1       2.435  -3.579  -0.186  1.00  0.00     0.220 C 
HETATM   19  O9  UNL     1       1.912  -3.729  -2.484  1.00  0.00    -0.218 OA
HETATM   20  C20 UNL     1       1.856  -3.220   1.165  1.00  0.00     0.241 C 
HETATM   21  O8  UNL     1       2.948  -4.886  -0.153  1.00  0.00    -0.218 OA
HETATM   22  O7  UNL     1       2.887  -3.206   2.119  1.00  0.00    -0.215 OA
BRANCH  16  23
HETATM   23  C21 UNL     1      -0.475  -1.982  -2.154  1.00  0.00     0.214 C 
HETATM   24  O10 UNL     1      -0.956  -0.653  -2.117  1.00  0.00    -0.218 OA
ENDBRANCH  16  23
ENDBRANCH  13  14
ENDBRANCH   3  13
BRANCH   8  25
HETATM   25  C10 UNL     1      -0.793   3.084  -0.564  1.00  0.00     0.010 A 
HETATM   26  C11 UNL     1      -0.108   3.863  -1.503  1.00  0.00     0.028 A 
HETATM   27  C12 UNL     1      -0.338   3.760  -2.878  1.00  0.00     0.156 A 
HETATM   28  C13 UNL     1      -1.291   2.849  -3.345  1.00  0.00     0.156 A 
HETATM   29  O4  UNL     1       0.324   4.538  -3.773  1.00  0.00    -0.188 OA
HETATM   30  C14 UNL     1      -1.984   2.064  -2.421  1.00  0.00     0.029 A 
HETATM   31  O3  UNL     1      -1.540   2.750  -4.676  1.00  0.00    -0.188 OA
HETATM   32  C15 UNL     1      -1.736   2.172  -1.052  1.00  0.00     0.000 A 
ENDBRANCH   8  25
TORSDOF 4
