REMARK  11 active torsions:
REMARK  status: ('A' for Active; 'I' for Inactive)
REMARK    1  A    between atoms: C1_1  and  C26_34 
REMARK    2  A    between atoms: C2_2  and  O6_32 
REMARK    3  A    between atoms: C10_11  and  O3_27 
REMARK    4  A    between atoms: C11_12  and  O1_23 
REMARK    5  A    between atoms: C12_13  and  C19_21 
REMARK    6  A    between atoms: O1_23  and  C21_24 
REMARK    7  A    between atoms: O3_27  and  C23_28 
REMARK    8  A    between atoms: C26_34  and  C45_57 
REMARK    9  A    between atoms: N4_46  and  C44_55 
REMARK   10  A    between atoms: C38_48  and  C42_53 
REMARK   11  A    between atoms: C45_57  and  O9_58 
ROOT
HETATM    1  C1  UNL     1       0.667  -1.284   0.227  1.00  0.00     0.017 A 
HETATM    2  C2  UNL     1       0.636  -2.700   0.253  1.00  0.00     0.093 A 
HETATM    3  C3  UNL     1       1.863  -3.384   0.260  1.00  0.00     0.041 A 
HETATM    4  C4  UNL     1       3.087  -2.704   0.219  1.00  0.00     0.054 A 
HETATM    5  C5  UNL     1       3.113  -1.314   0.228  1.00  0.00    -0.004 A 
HETATM    6  C6  UNL     1       1.906  -0.625   0.234  1.00  0.00    -0.004 A 
HETATM    7  C7  UNL     1       4.511  -0.737   0.317  1.00  0.00     0.076 A 
HETATM    8  C8  UNL     1       5.340  -2.047   0.239  1.00  0.00     0.144 A 
HETATM    9  N1  UNL     1       4.391  -3.185   0.232  1.00  0.00    -0.343 N 
HETATM   10  C9  UNL     1       4.619  -4.616   0.475  1.00  0.00     0.126 C 
HETATM   11  C10 UNL     1       6.324  -2.032  -0.923  1.00  0.00     0.270 C 
HETATM   12  C11 UNL     1       7.036  -0.680  -0.984  1.00  0.00     0.186 C 
HETATM   13  C12 UNL     1       6.117   0.477  -1.433  1.00  0.00     0.079 C 
HETATM   14  C13 UNL     1       4.716   0.360  -0.757  1.00  0.00     0.231 C 
HETATM   15  N2  UNL     1       4.251   1.561  -0.076  1.00  0.00     0.140 N 
HETATM   16  C14 UNL     1       4.740   1.484   1.288  1.00  0.00     0.251 C 
HETATM   17  C15 UNL     1       4.656   0.001   1.667  1.00  0.00     0.043 C 
HETATM   18  C16 UNL     1       4.582   2.808  -0.734  1.00  0.00     0.276 C 
HETATM   19  C17 UNL     1       6.070   2.913  -0.885  1.00  0.00     0.004 C 
HETATM   20  C18 UNL     1       6.786   1.813  -1.146  1.00  0.00    -0.025 C 
HETATM   21  O5  UNL     1       7.318  -3.018  -0.732  1.00  0.00    -0.190 OA
ENDROOT
BRANCH   1  22
HETATM   22  C26 UNL     1      -0.586  -0.403   0.263  1.00  0.00     0.154 C 
HETATM   23  C27 UNL     1      -0.517   0.685  -0.812  1.00  0.00     0.071 A 
HETATM   24  N3  UNL     1       0.398   0.680  -1.860  1.00  0.00    -0.249 NA
HETATM   25  C34 UNL     1      -1.261   1.855  -0.918  1.00  0.00    -0.004 A 
HETATM   26  C28 UNL     1       0.248   1.793  -2.646  1.00  0.00     0.081 A 
HETATM   27  C29 UNL     1      -0.783   2.546  -2.078  1.00  0.00     0.015 A 
HETATM   28  C33 UNL     1       0.934   2.197  -3.818  1.00  0.00     0.019 A 
HETATM   29  C30 UNL     1      -1.174   3.766  -2.691  1.00  0.00     0.001 A 
HETATM   30  C31 UNL     1      -0.518   4.157  -3.841  1.00  0.00     0.000 A 
HETATM   31  C32 UNL     1       0.533   3.378  -4.405  1.00  0.00     0.002 A 
HETATM   32  C35 UNL     1      -2.437   2.312  -0.079  1.00  0.00     0.052 C 
HETATM   33  C36 UNL     1      -2.184   3.130   1.220  1.00  0.00     0.114 C 
HETATM   34  N4  UNL     1      -3.324   2.918   2.136  1.00  0.00    -0.291 N 
HETATM   35  C37 UNL     1      -3.369   1.999   3.143  1.00  0.00     0.070 C 
HETATM   36  C38 UNL     1      -2.569   1.175   3.858  1.00  0.00    -0.019 C 
HETATM   37  C39 UNL     1      -1.055   1.060   3.883  1.00  0.00     0.092 C 
HETATM   38  C40 UNL     1      -0.514  -0.036   2.964  1.00  0.00     0.174 C 
HETATM   39  C41 UNL     1      -0.510   0.452   1.541  1.00  0.00     0.030 C 
HETATM   40  O7  UNL     1      -0.092  -1.110   3.325  1.00  0.00    -0.291 OA
BRANCH  34  41
HETATM   41  C44 UNL     1      -4.449   3.668   1.856  1.00  0.00     0.317 C 
HETATM   42  O8  UNL     1      -4.500   4.460   0.947  1.00  0.00    -0.262 OA
ENDBRANCH  34  41
BRANCH  36  43
HETATM   43  C42 UNL     1      -3.209   0.208   4.849  1.00  0.00     0.024 C 
HETATM   44  C43 UNL     1      -3.295   0.799   6.261  1.00  0.00     0.005 C 
ENDBRANCH  36  43
BRANCH  22  45
HETATM   45  C45 UNL     1      -1.951  -1.118   0.246  1.00  0.00     0.284 C 
HETATM   46  O10 UNL     1      -2.613  -1.202   1.260  1.00  0.00    -0.263 OA
BRANCH  45  47
HETATM   47  O9  UNL     1      -2.466  -1.526  -0.950  1.00  0.00    -0.298 OA
HETATM   48  C46 UNL     1      -1.725  -1.585  -2.144  1.00  0.00     0.184 C 
ENDBRANCH  45  47
ENDBRANCH  22  45
ENDBRANCH   1  22
BRANCH   2  49
HETATM   49  O6  UNL     1      -0.570  -3.346   0.342  1.00  0.00    -0.328 OA
HETATM   50  C25 UNL     1      -0.603  -4.696   0.738  1.00  0.00     0.181 C 
ENDBRANCH   2  49
BRANCH  11  51
HETATM   51  O3  UNL     1       5.677  -2.268  -2.142  1.00  0.00    -0.273 OA
BRANCH  51  52
HETATM   52  C23 UNL     1       5.531  -3.515  -2.659  1.00  0.00     0.274 C 
HETATM   53  C24 UNL     1       4.706  -3.444  -3.929  1.00  0.00     0.106 C 
HETATM   54  O4  UNL     1       5.979  -4.533  -2.185  1.00  0.00    -0.264 OA
ENDBRANCH  51  52
ENDBRANCH  11  51
BRANCH  13  55
HETATM   55  C19 UNL     1       5.914   0.542  -2.984  1.00  0.00     0.009 C 
HETATM   56  C20 UNL     1       7.177   0.607  -3.859  1.00  0.00     0.001 C 
ENDBRANCH  13  55
BRANCH  12  57
HETATM   57  O1  UNL     1       7.541  -0.401   0.298  1.00  0.00    -0.299 OA
BRANCH  57  58
HETATM   58  C21 UNL     1       8.870  -0.175   0.479  1.00  0.00     0.273 C 
HETATM   59  C22 UNL     1       9.151   0.037   1.953  1.00  0.00     0.106 C 
HETATM   60  O2  UNL     1       9.709  -0.143  -0.392  1.00  0.00    -0.264 OA
ENDBRANCH  57  58
ENDBRANCH  12  57
TORSDOF 11
