REMARK  5 active torsions:
REMARK  status: ('A' for Active; 'I' for Inactive)
REMARK    1  A    between atoms: C13_13  and  O1_15 
REMARK    2  A    between atoms: O1_15  and  C15_16 
REMARK    3  A    between atoms: C15_16  and  C16_17 
REMARK    4  A    between atoms: C17_18  and  C18_19 
REMARK    5  A    between atoms: C22_24  and  C25_27 
ROOT
HETATM    1  C1  UNL     1      -3.781  -1.948   1.358  1.00  0.00     0.034 C 
HETATM    2  C2  UNL     1      -3.773  -3.476   1.429  1.00  0.00     0.156 C 
HETATM    3  C3  UNL     1      -2.839  -4.077   0.383  1.00  0.00     0.055 C 
HETATM    4  C4  UNL     1      -1.467  -3.499   0.626  1.00  0.00    -0.046 C 
HETATM    5  C5  UNL     1      -1.393  -1.995   0.516  1.00  0.00     0.021 C 
HETATM    6  C6  UNL     1      -2.369  -1.357   1.520  1.00  0.00     0.007 C 
HETATM    7  C7  UNL     1       0.074  -1.522   0.539  1.00  0.00     0.037 C 
HETATM    8  C8  UNL     1       0.982  -2.222   1.554  1.00  0.00     0.157 C 
HETATM    9  C9  UNL     1       0.966  -3.730   1.263  1.00  0.00     0.058 C 
HETATM   10  C10 UNL     1      -0.414  -4.260   0.962  1.00  0.00    -0.032 C 
HETATM   11  C11 UNL     1       2.372  -1.527   1.684  1.00  0.00     0.157 C 
HETATM   12  C12 UNL     1       2.799  -0.459   0.612  1.00  0.00     0.086 C 
HETATM   13  C13 UNL     1       1.619   0.344   0.001  1.00  0.00     0.130 C 
HETATM   14  C14 UNL     1       0.261  -0.006   0.613  1.00  0.00     0.033 C 
HETATM   15  C22 UNL     1       3.623  -1.263  -0.450  1.00  0.00     0.182 C 
HETATM   16  C23 UNL     1       4.286  -2.391   0.360  1.00  0.00     0.041 C 
HETATM   17  C24 UNL     1       3.586  -2.469   1.726  1.00  0.00     0.036 C 
HETATM   18  O4  UNL     1       4.639  -0.448  -1.002  1.00  0.00    -0.218 OA
HETATM   19  C27 UNL     1       3.792   0.532   1.308  1.00  0.00     0.008 C 
HETATM   20  O5  UNL     1       2.333  -0.876   2.935  1.00  0.00    -0.223 OA
HETATM   21  O6  UNL     1       0.343  -2.131   2.809  1.00  0.00    -0.223 OA
HETATM   22  O7  UNL     1      -3.326  -3.886   2.700  1.00  0.00    -0.223 OA
ENDROOT
BRANCH  13  23
HETATM   23  O1  UNL     1       1.756   1.740   0.070  1.00  0.00    -0.301 OA
BRANCH  23  24
HETATM   24  C15 UNL     1       2.493   2.367  -0.894  1.00  0.00     0.295 C 
HETATM   25  O2  UNL     1       3.098   1.714  -1.736  1.00  0.00    -0.259 OA
BRANCH  24  26
HETATM   26  C16 UNL     1       2.689   3.846  -0.862  1.00  0.00     0.060 C 
HETATM   27  C17 UNL     1       2.829   4.627  -1.954  1.00  0.00    -0.039 C 
HETATM   28  C21 UNL     1       2.708   4.082  -3.362  1.00  0.00     0.026 C 
BRANCH  27  29
HETATM   29  C18 UNL     1       3.098   6.126  -1.879  1.00  0.00     0.018 C 
HETATM   30  C19 UNL     1       3.090   6.732  -0.464  1.00  0.00     0.004 C 
HETATM   31  C20 UNL     1       4.436   6.466  -2.563  1.00  0.00     0.004 C 
ENDBRANCH  27  29
ENDBRANCH  24  26
ENDBRANCH  23  24
ENDBRANCH  13  23
BRANCH  15  32
HETATM   32  C25 UNL     1       2.866  -1.901  -1.629  1.00  0.00     0.178 C 
HETATM   33  C26 UNL     1       3.009  -1.335  -3.032  1.00  0.00     0.075 C 
HETATM   34  O3  UNL     1       2.198  -2.901  -1.500  1.00  0.00    -0.293 OA
ENDBRANCH  15  32
TORSDOF 5
