REMARK  4 active torsions:
REMARK  status: ('A' for Active; 'I' for Inactive)
REMARK    1  A    between atoms: C5_5  and  C7_7 
REMARK    2  A    between atoms: C7_7  and  C8_8 
REMARK    3  A    between atoms: C7_7  and  O5_18 
REMARK    4  A    between atoms: O5_18  and  C14_19 
ROOT
HETATM    1  C7  UNL     1       0.520  -0.486  -0.529  1.00  0.00     0.176 C 
ENDROOT
BRANCH   1   2
HETATM    2  C5  UNL     1       1.535   0.123   0.367  1.00  0.00     0.008 A 
HETATM    3  C4  UNL     1       1.424  -0.025   1.762  1.00  0.00    -0.002 A 
HETATM    4  C3  UNL     1       2.387   0.551   2.609  1.00  0.00    -0.000 A 
HETATM    5  C2  UNL     1       3.459   1.275   2.064  1.00  0.00    -0.000 A 
HETATM    6  C1  UNL     1       3.572   1.424   0.670  1.00  0.00    -0.000 A 
HETATM    7  C6  UNL     1       2.611   0.848  -0.178  1.00  0.00    -0.002 A 
ENDBRANCH   1   2
BRANCH   1   8
HETATM    8  C8  UNL     1      -0.853   0.148  -0.336  1.00  0.00     0.180 C 
HETATM    9  C9  UNL     1      -0.971   1.647  -0.645  1.00  0.00     0.212 C 
HETATM   10  C10 UNL     1      -2.488   1.768  -0.852  1.00  0.00     0.184 C 
HETATM   11  O4  UNL     1      -0.291   1.988  -1.840  1.00  0.00    -0.218 OA
HETATM   12  C11 UNL     1      -2.922   0.381  -1.367  1.00  0.00     0.156 C 
HETATM   13  O2  UNL     1      -3.117   1.994   0.410  1.00  0.00    -0.299 OA
HETATM   14  O1  UNL     1      -1.777  -0.439  -1.225  1.00  0.00    -0.350 OA
HETATM   15  C12 UNL     1      -4.031  -0.037  -0.404  1.00  0.00     0.128 C 
HETATM   16  C13 UNL     1      -3.971   1.012   0.662  1.00  0.00     0.275 C 
HETATM   17  O3  UNL     1      -4.650   0.940   1.660  1.00  0.00    -0.264 OA
ENDBRANCH   1   8
BRANCH   1  18
HETATM   18  O5  UNL     1       0.436  -1.881  -0.274  1.00  0.00    -0.297 OA
BRANCH  18  19
HETATM   19  C14 UNL     1       1.537  -2.529  -0.643  1.00  0.00     0.273 C 
HETATM   20  C15 UNL     1       1.543  -4.004  -0.340  1.00  0.00     0.106 C 
HETATM   21  O6  UNL     1       2.481  -2.002  -1.182  1.00  0.00    -0.264 OA
ENDBRANCH  18  19
ENDBRANCH   1  18
TORSDOF 4
