REMARK  3 active torsions:
REMARK  status: ('A' for Active; 'I' for Inactive)
REMARK       I    between atoms: N1_1  and  C17_21 
REMARK    1  A    between atoms: C6_8  and  C11_14 
REMARK    2  A    between atoms: C17_21  and  C18_22 
REMARK    3  A    between atoms: C19_23  and  C20_24 
ROOT
HETATM    1  N1  UNL     1       2.043   2.139   1.691  1.00  0.00    -0.317 N 
HETATM    2  C1  UNL     1       2.100   1.395   0.429  1.00  0.00     0.106 C 
HETATM    3  C2  UNL     1       0.909   1.737  -0.484  1.00  0.00     0.051 C 
HETATM    4  C3  UNL     1       0.817   0.826  -1.721  1.00  0.00     0.131 C 
HETATM    5  N2  UNL     1       0.304  -0.511  -1.392  1.00  0.00    -0.238 NA
HETATM    6  C4  UNL     1       0.710  -1.642  -2.053  1.00  0.00     0.254 C 
HETATM    7  C5  UNL     1      -0.127  -2.884  -1.764  1.00  0.00     0.130 C 
HETATM    8  C6  UNL     1       0.036  -3.467  -0.349  1.00  0.00     0.288 C 
HETATM    9  N3  UNL     1      -0.324  -2.461   0.651  1.00  0.00     0.342 N 
HETATM   10  C7  UNL     1       0.784  -2.037   1.505  1.00  0.00     0.291 C 
HETATM   11  C8  UNL     1       0.390  -0.750   2.240  1.00  0.00     0.040 C 
HETATM   12  C9  UNL     1       1.576  -0.076   2.952  1.00  0.00     0.026 C 
HETATM   13  C10 UNL     1       1.517   1.462   2.886  1.00  0.00     0.104 C 
HETATM   14  O1  UNL     1       1.617  -1.646  -2.848  1.00  0.00    -0.271 OA
HETATM   15  C17 UNL     1       2.334   3.482   1.761  1.00  0.00     0.257 C 
HETATM   16  O2  UNL     1       2.055   4.149   2.743  1.00  0.00    -0.267 OA
ENDROOT
BRANCH  15  17
HETATM   17  C18 UNL     1       3.029   4.175   0.617  1.00  0.00     0.060 C 
HETATM   18  C19 UNL     1       4.293   3.849   0.279  1.00  0.00     0.005 C 
BRANCH  18  19
HETATM   19  C20 UNL     1       5.122   4.514  -0.739  1.00  0.00     0.000 A 
HETATM   20  C21 UNL     1       4.775   5.732  -1.344  1.00  0.00     0.000 A 
HETATM   21  C22 UNL     1       5.634   6.350  -2.257  1.00  0.00     0.000 A 
HETATM   22  C23 UNL     1       6.858   5.763  -2.580  1.00  0.00     0.000 A 
HETATM   23  C24 UNL     1       7.224   4.556  -1.979  1.00  0.00     0.000 A 
HETATM   24  C25 UNL     1       6.366   3.945  -1.065  1.00  0.00     0.000 A 
ENDBRANCH  18  19
ENDBRANCH  15  17
BRANCH   8  25
HETATM   25  C11 UNL     1      -0.846  -4.685  -0.161  1.00  0.00     0.012 A 
HETATM   26  C12 UNL     1      -0.293  -5.970  -0.093  1.00  0.00    -0.002 A 
HETATM   27  C13 UNL     1      -1.105  -7.093   0.082  1.00  0.00    -0.000 A 
HETATM   28  C14 UNL     1      -2.489  -6.945   0.193  1.00  0.00    -0.000 A 
HETATM   29  C15 UNL     1      -3.053  -5.670   0.122  1.00  0.00    -0.000 A 
HETATM   30  C16 UNL     1      -2.236  -4.552  -0.055  1.00  0.00    -0.002 A 
ENDBRANCH   8  25
TORSDOF 3
