REMARK  10 active torsions:
REMARK  status: ('A' for Active; 'I' for Inactive)
REMARK    1  A    between atoms: C6_6  and  O1_7 
REMARK    2  A    between atoms: O1_7  and  C7_8 
REMARK    3  A    between atoms: C9_11  and  O9_31 
REMARK    4  A    between atoms: C10_12  and  O7_27 
REMARK    5  A    between atoms: C12_14  and  O3_15 
REMARK    6  A    between atoms: O3_15  and  C13_16 
REMARK    7  A    between atoms: C13_16  and  C14_17 
REMARK    8  A    between atoms: O7_27  and  C21_28 
REMARK    9  A    between atoms: O9_31  and  C23_32 
REMARK   10  A    between atoms: C23_32  and  C24_33 
ROOT
HETATM    1  C1  UNL     1      -3.421   0.079  -0.348  1.00  0.00     0.030 C 
HETATM    2  C2  UNL     1      -3.420  -1.435  -0.152  1.00  0.00     0.005 C 
HETATM    3  C3  UNL     1      -2.103  -2.104  -0.600  1.00  0.00     0.028 C 
HETATM    4  C4  UNL     1      -0.856  -1.463   0.071  1.00  0.00     0.122 C 
HETATM    5  C5  UNL     1      -0.875   0.113  -0.052  1.00  0.00     0.079 C 
HETATM    6  C6  UNL     1      -2.247   0.681   0.419  1.00  0.00     0.129 C 
HETATM    7  C9  UNL     1       0.292   0.743   0.779  1.00  0.00     0.156 C 
HETATM    8  C10 UNL     1       1.585  -0.105   0.769  1.00  0.00     0.157 C 
HETATM    9  C11 UNL     1       1.330  -1.629   0.774  1.00  0.00     0.085 C 
HETATM   10  C12 UNL     1       0.501  -1.952  -0.472  1.00  0.00     0.154 C 
HETATM   11  C18 UNL     1       0.396  -2.167   1.871  1.00  0.00     0.098 C 
HETATM   12  O6  UNL     1      -0.873  -1.758   1.450  1.00  0.00    -0.361 OA
HETATM   13  C19 UNL     1       0.379  -3.706   2.020  1.00  0.00     0.030 C 
HETATM   14  C20 UNL     1       0.722  -1.697   3.299  1.00  0.00     0.030 C 
HETATM   15  C29 UNL     1      -0.679   0.601  -1.521  1.00  0.00     0.007 C 
HETATM   16  C30 UNL     1      -2.339  -3.617  -0.379  1.00  0.00     0.003 C 
ENDROOT
BRANCH   7  17
HETATM   17  O9  UNL     1      -0.087   0.942   2.113  1.00  0.00    -0.309 OA
BRANCH  17  18
HETATM   18  C23 UNL     1      -0.018   2.145   2.748  1.00  0.00     0.230 C 
HETATM   19  O10 UNL     1      -0.384   2.212   4.019  1.00  0.00    -0.163 OA
BRANCH  18  20
HETATM   20  C24 UNL     1       0.443   3.467   2.151  1.00  0.00     0.067 C 
HETATM   21  C25 UNL     1      -0.392   4.534   2.228  1.00  0.00     0.098 C 
HETATM   22  N1  UNL     1      -0.079   5.850   1.699  1.00  0.00    -0.264 NA
HETATM   23  C26 UNL     1       1.266   5.910   0.949  1.00  0.00     0.152 C 
HETATM   24  C27 UNL     1       2.197   4.744   0.991  1.00  0.00     0.000 C 
HETATM   25  C28 UNL     1       1.785   3.586   1.560  1.00  0.00     0.003 C 
ENDBRANCH  18  20
ENDBRANCH  17  18
ENDBRANCH   7  17
BRANCH   8  26
HETATM   26  O7  UNL     1       2.337   0.210  -0.375  1.00  0.00    -0.302 OA
BRANCH  26  27
HETATM   27  C21 UNL     1       3.611   0.672  -0.266  1.00  0.00     0.272 C 
HETATM   28  C22 UNL     1       4.205   0.883  -1.645  1.00  0.00     0.106 C 
HETATM   29  O8  UNL     1       4.199   0.878   0.772  1.00  0.00    -0.264 OA
ENDBRANCH  26  27
ENDBRANCH   8  26
BRANCH   6  30
HETATM   30  O1  UNL     1      -2.262   2.074   0.279  1.00  0.00    -0.304 OA
BRANCH  30  31
HETATM   31  C7  UNL     1      -3.218   2.791   0.929  1.00  0.00     0.272 C 
HETATM   32  C8  UNL     1      -3.238   4.222   0.428  1.00  0.00     0.106 C 
HETATM   33  O2  UNL     1      -3.988   2.346   1.750  1.00  0.00    -0.264 OA
ENDBRANCH  30  31
ENDBRANCH   6  30
BRANCH  10  34
HETATM   34  O3  UNL     1       0.607  -3.313  -0.743  1.00  0.00    -0.298 OA
BRANCH  34  35
HETATM   35  C13 UNL     1       1.145  -3.830  -1.886  1.00  0.00     0.298 C 
HETATM   36  O5  UNL     1       1.391  -5.036  -1.914  1.00  0.00    -0.259 OA
BRANCH  35  37
HETATM   37  C14 UNL     1       1.475  -3.128  -3.155  1.00  0.00     0.090 A 
HETATM   38  C15 UNL     1       2.477  -3.496  -4.010  1.00  0.00     0.128 A 
HETATM   39  O4  UNL     1       2.525  -2.654  -5.075  1.00  0.00    -0.303 OA
HETATM   40  C16 UNL     1       1.512  -1.755  -4.904  1.00  0.00     0.123 A 
HETATM   41  C17 UNL     1       0.830  -1.995  -3.750  1.00  0.00     0.034 A 
ENDBRANCH  35  37
ENDBRANCH  34  35
ENDBRANCH  10  34
TORSDOF 10
