REMARK  1 active torsions:
REMARK  status: ('A' for Active; 'I' for Inactive)
REMARK    1  A    between atoms: C21_21  and  C23_23 
ROOT
HETATM    1  C1  UNL     1      -3.424  -1.036   0.698  1.00  0.00     0.220 A 
HETATM    2  C2  UNL     1      -3.434  -2.333   1.410  1.00  0.00     0.166 A 
HETATM    3  C3  UNL     1      -2.289  -2.817   1.956  1.00  0.00     0.006 A 
HETATM    4  C4  UNL     1      -1.033  -2.057   1.829  1.00  0.00    -0.005 A 
HETATM    5  C5  UNL     1      -0.981  -0.776   1.126  1.00  0.00    -0.016 A 
HETATM    6  C6  UNL     1      -2.145  -0.305   0.615  1.00  0.00     0.040 A 
HETATM    7  C7  UNL     1       0.299   0.069   1.067  1.00  0.00     0.034 C 
HETATM    8  C8  UNL     1       1.554  -0.729   1.431  1.00  0.00    -0.042 C 
HETATM    9  C9  UNL     1       1.411  -1.897   2.098  1.00  0.00    -0.008 C 
HETATM   10  C10 UNL     1       0.133  -2.535   2.346  1.00  0.00    -0.001 C 
HETATM   11  C11 UNL     1       2.960  -0.155   1.122  1.00  0.00     0.015 C 
HETATM   12  C12 UNL     1       3.010   0.239  -0.389  1.00  0.00     0.003 C 
HETATM   13  C13 UNL     1       1.835   1.216  -0.659  1.00  0.00     0.001 C 
HETATM   14  C14 UNL     1       0.453   0.629  -0.361  1.00  0.00     0.008 C 
HETATM   15  C15 UNL     1       4.346   0.930  -0.830  1.00  0.00     0.001 C 
HETATM   16  C16 UNL     1       5.659   0.478  -0.126  1.00  0.00     0.000 C 
HETATM   17  C17 UNL     1       5.503  -0.728   0.842  1.00  0.00     0.000 C 
HETATM   18  C18 UNL     1       4.108  -1.172   1.323  1.00  0.00     0.004 C 
HETATM   19  C19 UNL     1       6.735   0.093  -1.181  1.00  0.00     0.001 C 
HETATM   20  C20 UNL     1       7.023   1.178  -2.232  1.00  0.00     0.010 C 
HETATM   21  C21 UNL     1       5.749   1.696  -2.931  1.00  0.00     0.078 C 
HETATM   22  C22 UNL     1       4.512   0.958  -2.374  1.00  0.00     0.010 C 
HETATM   23  C24 UNL     1       5.565   3.220  -2.775  1.00  0.00     0.011 C 
HETATM   24  C25 UNL     1       6.281   1.671   0.660  1.00  0.00     0.000 C 
HETATM   25  C26 UNL     1       2.772  -1.031  -1.256  1.00  0.00     0.000 C 
HETATM   26  C27 UNL     1       3.226   0.964   2.155  1.00  0.00     0.004 C 
HETATM   27  C28 UNL     1       0.063   1.207   2.085  1.00  0.00     0.008 C 
HETATM   28  C29 UNL     1      -2.293  -4.149   2.679  1.00  0.00     0.033 C 
HETATM   29  O3  UNL     1      -4.634  -2.973   1.467  1.00  0.00    -0.187 OA
HETATM   30  O4  UNL     1      -4.442  -0.560   0.200  1.00  0.00    -0.284 OA
ENDROOT
BRANCH  21  31
HETATM   31  C23 UNL     1       5.864   1.382  -4.430  1.00  0.00     0.184 C 
HETATM   32  O1  UNL     1       6.753   2.174  -5.059  1.00  0.00    -0.647 OA
HETATM   33  O2  UNL     1       5.283   0.516  -5.039  1.00  0.00    -0.647 OA
ENDBRANCH  21  31
TORSDOF 1
