REMARK  17 active torsions:
REMARK  status: ('A' for Active; 'I' for Inactive)
REMARK    1  A    between atoms: C1_1  and  C2_2 
REMARK    2  A    between atoms: C1_1  and  C18_22 
REMARK    3  A    between atoms: C2_2  and  C3_3 
REMARK    4  A    between atoms: C3_3  and  C4_4 
REMARK    5  A    between atoms: C4_4  and  C5_5 
REMARK    6  A    between atoms: C5_5  and  C6_6 
REMARK    7  A    between atoms: C6_6  and  C7_7 
REMARK    8  A    between atoms: C7_7  and  C8_8 
REMARK    9  A    between atoms: C8_8  and  C9_9 
REMARK   10  A    between atoms: C9_9  and  C10_10 
REMARK   11  A    between atoms: C10_10  and  C11_11 
REMARK   12  A    between atoms: C11_11  and  O1_12 
REMARK   13  A    between atoms: C11_11  and  C14_16 
REMARK   14  A    between atoms: O1_12  and  C12_13 
REMARK   15  A    between atoms: C14_16  and  C15_17 
REMARK   16  A    between atoms: C15_17  and  O3_18 
REMARK   17  A    between atoms: O3_18  and  C16_19 
ROOT
HETATM    1  C10 UNL     1       8.541  -1.779  -0.664  1.00  0.00     0.056 C 
ENDROOT
BRANCH   1   2
HETATM    2  C9  UNL     1       7.055  -1.786  -0.669  1.00  0.00    -0.024 C 
BRANCH   2   3
HETATM    3  C8  UNL     1       6.419  -0.614  -0.667  1.00  0.00    -0.004 C 
BRANCH   3   4
HETATM    4  C7  UNL     1       4.997  -0.629  -0.666  1.00  0.00     0.009 C 
BRANCH   4   5
HETATM    5  C6  UNL     1       4.414   0.559  -0.665  1.00  0.00     0.050 C 
BRANCH   5   6
HETATM    6  C5  UNL     1       3.103   0.544  -0.666  1.00  0.00    -0.050 C 
BRANCH   6   7
HETATM    7  C4  UNL     1       1.946   0.542  -0.665  1.00  0.00    -0.009 C 
BRANCH   7   8
HETATM    8  C3  UNL     1       0.528   0.542  -0.666  1.00  0.00    -0.009 C 
BRANCH   8   9
HETATM    9  C2  UNL     1      -0.630   0.541  -0.666  1.00  0.00    -0.051 C 
BRANCH   9  10
HETATM   10  C1  UNL     1      -1.948   0.546  -0.666  1.00  0.00     0.045 C 
BRANCH  10  11
HETATM   11  C18 UNL     1      -2.571  -0.622  -0.666  1.00  0.00    -0.017 C 
HETATM   12  C19 UNL     1      -4.061  -0.621  -0.666  1.00  0.00     0.031 C 
ENDBRANCH  10  11
ENDBRANCH   9  10
ENDBRANCH   8   9
ENDBRANCH   7   8
ENDBRANCH   6   7
ENDBRANCH   5   6
ENDBRANCH   4   5
ENDBRANCH   3   4
ENDBRANCH   2   3
ENDBRANCH   1   2
BRANCH   1  13
HETATM   13  C11 UNL     1       9.049  -1.062   0.580  1.00  0.00     0.131 C 
BRANCH  13  14
HETATM   14  O1  UNL     1       8.575  -1.728   1.709  1.00  0.00    -0.304 OA
BRANCH  14  15
HETATM   15  C12 UNL     1       8.896  -1.269   2.949  1.00  0.00     0.272 C 
HETATM   16  O2  UNL     1       8.499  -1.834   3.936  1.00  0.00    -0.264 OA
HETATM   17  C13 UNL     1       9.750  -0.054   3.120  1.00  0.00     0.106 C 
ENDBRANCH  14  15
ENDBRANCH  13  14
BRANCH  13  18
HETATM   18  C14 UNL     1      10.575  -1.057   0.571  1.00  0.00     0.063 C 
BRANCH  18  19
HETATM   19  C15 UNL     1      11.105   0.380   0.538  1.00  0.00     0.154 C 
BRANCH  19  20
HETATM   20  O3  UNL     1      10.597   1.024  -0.588  1.00  0.00    -0.302 OA
BRANCH  20  21
HETATM   21  C16 UNL     1      10.950   2.325  -0.769  1.00  0.00     0.272 C 
HETATM   22  C17 UNL     1      10.434   3.021  -2.010  1.00  0.00     0.106 C 
HETATM   23  O4  UNL     1      11.643   2.913   0.022  1.00  0.00    -0.264 OA
ENDBRANCH  20  21
ENDBRANCH  19  20
ENDBRANCH  18  19
ENDBRANCH  13  18
ENDBRANCH   1  13
TORSDOF 17
