REMARK  5 active torsions:
REMARK  status: ('A' for Active; 'I' for Inactive)
REMARK    1  A    between atoms: C3_3  and  O2_7 
REMARK    2  A    between atoms: O2_7  and  C6_8 
REMARK    3  A    between atoms: C7_10  and  C11_17 
REMARK    4  A    between atoms: C12_19  and  O9_23 
REMARK    5  A    between atoms: O9_23  and  C15_24 
ROOT
HETATM    1  C1  UNL     1       0.232   2.344   2.254  1.00  0.00     0.182 C 
HETATM    2  C2  UNL     1       0.053   0.842   1.920  1.00  0.00     0.117 C 
HETATM    3  C3  UNL     1       0.861   0.545   0.639  1.00  0.00     0.247 C 
HETATM    4  O1  UNL     1       2.240   0.900   0.791  1.00  0.00    -0.304 OA
HETATM    5  C4  UNL     1       2.525   2.098   1.330  1.00  0.00     0.117 C 
HETATM    6  C5  UNL     1       1.639   2.844   2.018  1.00  0.00     0.032 C 
HETATM    7  C12 UNL     1      -1.482   0.701   1.810  1.00  0.00     0.111 C 
HETATM    8  C13 UNL     1      -1.986   2.027   1.230  1.00  0.00     0.064 C 
HETATM    9  C14 UNL     1      -0.803   2.998   1.324  1.00  0.00     0.186 C 
HETATM   10  O8  UNL     1      -1.221   4.285   1.754  1.00  0.00    -0.220 OA
HETATM   11  C17 UNL     1      -1.981  -0.478   0.976  1.00  0.00     0.031 C 
HETATM   12  O11 UNL     1      -0.078   2.549   3.629  1.00  0.00    -0.218 OA
ENDROOT
BRANCH   3  13
HETATM   13  O2  UNL     1       0.811  -0.832   0.342  1.00  0.00    -0.304 OA
BRANCH  13  14
HETATM   14  C6  UNL     1       1.475  -1.168  -0.861  1.00  0.00     0.272 C 
HETATM   15  O3  UNL     1       0.728  -0.633  -1.947  1.00  0.00    -0.326 OA
HETATM   16  C7  UNL     1       1.301  -0.844  -3.231  1.00  0.00     0.184 C 
HETATM   17  C8  UNL     1       1.393  -2.361  -3.508  1.00  0.00     0.215 C 
HETATM   18  C9  UNL     1       2.168  -3.090  -2.389  1.00  0.00     0.220 C 
HETATM   19  O6  UNL     1       2.047  -2.557  -4.750  1.00  0.00    -0.218 OA
HETATM   20  C10 UNL     1       1.588  -2.705  -1.010  1.00  0.00     0.241 C 
HETATM   21  O5  UNL     1       2.074  -4.494  -2.574  1.00  0.00    -0.218 OA
HETATM   22  O4  UNL     1       2.430  -3.215   0.014  1.00  0.00    -0.215 OA
BRANCH  16  23
HETATM   23  C11 UNL     1       0.410  -0.105  -4.237  1.00  0.00     0.214 C 
HETATM   24  O7  UNL     1       0.537   1.279  -4.006  1.00  0.00    -0.218 OA
ENDBRANCH  16  23
ENDBRANCH  13  14
ENDBRANCH   3  13
BRANCH   7  25
HETATM   25  O9  UNL     1      -2.018   0.553   3.121  1.00  0.00    -0.306 OA
BRANCH  25  26
HETATM   26  C15 UNL     1      -3.311   0.242   3.109  1.00  0.00     0.272 C 
HETATM   27  C16 UNL     1      -3.727  -0.805   4.107  1.00  0.00     0.106 C 
HETATM   28  O10 UNL     1      -4.115   0.744   2.361  1.00  0.00    -0.264 OA
ENDBRANCH  25  26
ENDBRANCH   7  25
TORSDOF 5
