REMARK  1 active torsions:
REMARK  status: ('A' for Active; 'I' for Inactive)
REMARK    1  A    between atoms: C7_8  and  C10_14 
ROOT
HETATM    1  C1  UNL     1       1.030   0.897   1.276  1.00  0.00     0.034 C 
HETATM    2  C2  UNL     1       0.984  -0.321   0.344  1.00  0.00     0.016 C 
HETATM    3  C3  UNL     1       2.356  -1.065   0.241  1.00  0.00     0.077 C 
HETATM    4  C4  UNL     1       3.516  -0.047  -0.019  1.00  0.00     0.138 A 
HETATM    5  C5  UNL     1       3.233   1.466  -0.045  1.00  0.00     0.084 C 
HETATM    6  C6  UNL     1       2.307   1.742   1.163  1.00  0.00     0.157 C 
HETATM    7  O1  UNL     1       1.945   3.102   1.206  1.00  0.00    -0.223 OA
HETATM    8  C7  UNL     1       4.567   2.247   0.136  1.00  0.00     0.153 C 
HETATM    9  O2  UNL     1       5.561   1.769  -0.736  1.00  0.00    -0.298 OA
HETATM   10  C8  UNL     1       5.635   0.469  -1.134  1.00  0.00     0.302 C 
HETATM   11  C9  UNL     1       4.806  -0.525  -0.441  1.00  0.00     0.226 A 
HETATM   12  O3  UNL     1       4.784  -0.319   0.945  1.00  0.00    -0.346 OA
HETATM   13  O4  UNL     1       6.409   0.111  -1.998  1.00  0.00    -0.261 OA
HETATM   14  C14 UNL     1       2.648   1.940  -1.399  1.00  0.00     0.008 C 
HETATM   15  C15 UNL     1       2.200  -2.067  -0.926  1.00  0.00     0.152 C 
HETATM   16  C16 UNL     1       0.963  -2.965  -0.971  1.00  0.00     0.067 C 
HETATM   17  C17 UNL     1      -0.246  -2.038  -0.898  1.00  0.00     0.037 C 
HETATM   18  C18 UNL     1      -0.309  -1.197   0.398  1.00  0.00     0.057 C 
HETATM   19  C19 UNL     1      -1.648  -0.539   0.054  1.00  0.00     0.127 C 
HETATM   20  O6  UNL     1      -2.462  -1.549  -0.499  1.00  0.00    -0.361 OA
HETATM   21  C20 UNL     1      -1.674  -2.494  -1.164  1.00  0.00     0.093 C 
HETATM   22  C21 UNL     1      -2.033  -2.461  -2.658  1.00  0.00     0.030 C 
HETATM   23  C22 UNL     1      -1.979  -3.899  -0.637  1.00  0.00     0.030 C 
HETATM   24  C23 UNL     1      -2.345   0.007   1.290  1.00  0.00     0.125 C 
HETATM   25  C24 UNL     1      -2.698  -1.129   2.222  1.00  0.00     0.274 C 
HETATM   26  O7  UNL     1      -1.757  -2.103   2.283  1.00  0.00    -0.302 OA
HETATM   27  C25 UNL     1      -0.472  -1.960   1.727  1.00  0.00     0.154 C 
HETATM   28  O8  UNL     1      -3.744  -1.179   2.832  1.00  0.00    -0.264 OA
HETATM   29  O9  UNL     1       2.997  -2.118  -1.835  1.00  0.00    -0.296 OA
HETATM   30  C26 UNL     1       2.669  -1.915   1.494  1.00  0.00     0.010 C 
ENDROOT
BRANCH   8  31
HETATM   31  C10 UNL     1       4.501   3.749  -0.024  1.00  0.00     0.032 A 
HETATM   32  C11 UNL     1       4.418   4.683   0.966  1.00  0.00     0.121 A 
HETATM   33  O5  UNL     1       4.422   5.947   0.457  1.00  0.00    -0.303 OA
HETATM   34  C12 UNL     1       4.529   5.810  -0.895  1.00  0.00     0.122 A 
HETATM   35  C13 UNL     1       4.588   4.496  -1.245  1.00  0.00     0.027 A 
ENDBRANCH   8  31
TORSDOF 1
