REMARK  0 active torsions:
REMARK  status: ('A' for Active; 'I' for Inactive)
ROOT
HETATM    1  C1  UNL     1      -1.346  -0.472   1.302  1.00  0.00     0.006 C 
HETATM    2  C2  UNL     1      -2.239  -1.396   0.467  1.00  0.00     0.035 C 
HETATM    3  C3  UNL     1      -1.607  -1.686  -0.905  1.00  0.00     0.250 C 
HETATM    4  N1  UNL     1      -0.234  -1.203  -0.990  1.00  0.00     0.135 N 
HETATM    5  C4  UNL     1      -0.176   0.253  -0.849  1.00  0.00     0.223 C 
HETATM    6  C5  UNL     1      -0.899   0.716   0.437  1.00  0.00     0.054 C 
HETATM    7  C6  UNL     1      -0.059   1.705   1.258  1.00  0.00     0.106 C 
HETATM    8  N2  UNL     1       1.274   1.194   1.564  1.00  0.00    -0.316 N 
HETATM    9  C7  UNL     1       1.963   0.489   0.471  1.00  0.00     0.120 C 
HETATM   10  C8  UNL     1       1.278   0.783  -0.886  1.00  0.00     0.055 C 
HETATM   11  C9  UNL     1       1.958   0.284  -2.172  1.00  0.00     0.006 C 
HETATM   12  C10 UNL     1       1.868  -1.238  -2.287  1.00  0.00     0.035 C 
HETATM   13  C11 UNL     1       0.397  -1.666  -2.219  1.00  0.00     0.250 C 
HETATM   14  C12 UNL     1       3.471   0.775   0.500  1.00  0.00     0.195 C 
HETATM   15  C13 UNL     1       4.016   0.715   1.900  1.00  0.00     0.013 C 
HETATM   16  C14 UNL     1       3.251   0.979   2.971  1.00  0.00     0.058 C 
HETATM   17  C15 UNL     1       1.833   1.368   2.804  1.00  0.00     0.257 C 
HETATM   18  O1  UNL     1       1.217   1.843   3.748  1.00  0.00    -0.267 OA
HETATM   19  O2  UNL     1       4.187  -0.185  -0.258  1.00  0.00    -0.217 OA
ENDROOT
TORSDOF 0
