REMARK  4 active torsions:
REMARK  status: ('A' for Active; 'I' for Inactive)
REMARK    1  A    between atoms: C7_7  and  C12_13 
REMARK    2  A    between atoms: C12_13  and  C13_14 
REMARK    3  A    between atoms: C13_14  and  C14_15 
REMARK    4  A    between atoms: C14_15  and  C15_16 
ROOT
HETATM    1  C1  UNL     1      -1.155  -1.159   2.465  1.00  0.00     0.000 C 
HETATM    2  C2  UNL     1      -0.993  -2.677   2.396  1.00  0.00     0.000 C 
HETATM    3  C3  UNL     1      -0.360  -3.138   1.064  1.00  0.00     0.000 C 
HETATM    4  C4  UNL     1       0.961  -2.345   0.770  1.00  0.00     0.000 C 
HETATM    5  C5  UNL     1       0.983  -0.800   1.011  1.00  0.00     0.002 C 
HETATM    6  C6  UNL     1       0.226  -0.513   2.342  1.00  0.00     0.000 C 
HETATM    7  C7  UNL     1       0.401  -0.036  -0.218  1.00  0.00     0.028 C 
HETATM    8  C8  UNL     1       0.896  -0.532  -1.608  1.00  0.00     0.127 C 
HETATM    9  C9  UNL     1       1.944  -1.650  -1.541  1.00  0.00     0.030 C 
HETATM   10  C10 UNL     1       1.619  -2.775  -0.557  1.00  0.00     0.003 C 
HETATM   11  C11 UNL     1       1.474   0.541  -2.546  1.00  0.00     0.033 C 
HETATM   12  O1  UNL     1      -0.214  -1.065  -2.292  1.00  0.00    -0.226 OA
HETATM   13  C18 UNL     1       2.421  -0.281   1.296  1.00  0.00     0.000 C 
HETATM   14  C19 UNL     1      -0.033  -4.647   1.239  1.00  0.00     0.000 C 
HETATM   15  C20 UNL     1      -1.448  -3.057  -0.034  1.00  0.00     0.000 C 
ENDROOT
BRANCH   7  16
HETATM   16  C12 UNL     1       0.364   1.507  -0.067  1.00  0.00     0.005 C 
BRANCH  16  17
HETATM   17  C13 UNL     1      -0.926   2.140  -0.629  1.00  0.00     0.035 C 
BRANCH  17  18
HETATM   18  C14 UNL     1      -0.963   3.677  -0.611  1.00  0.00     0.145 C 
HETATM   19  C17 UNL     1       0.006   4.282  -1.629  1.00  0.00     0.038 C 
HETATM   20  O2  UNL     1      -0.594   4.119   0.678  1.00  0.00    -0.222 OA
BRANCH  18  21
HETATM   21  C15 UNL     1      -2.364   4.178  -0.903  1.00  0.00     0.003 C 
HETATM   22  C16 UNL     1      -2.765   5.441  -0.705  1.00  0.00    -0.002 C 
ENDBRANCH  18  21
ENDBRANCH  17  18
ENDBRANCH  16  17
ENDBRANCH   7  16
TORSDOF 4
