REMARK  1 active torsions:
REMARK  status: ('A' for Active; 'I' for Inactive)
REMARK    1  A    between atoms: C12_13  and  C14_15 
ROOT
HETATM    1  C1  UNL     1      -2.103  -2.563   0.342  1.00  0.00     0.030 C 
HETATM    2  C2  UNL     1      -0.643  -3.021   0.557  1.00  0.00     0.026 C 
HETATM    3  C3  UNL     1       0.265  -2.162  -0.303  1.00  0.00    -0.048 C 
HETATM    4  C4  UNL     1       0.752  -1.010   0.196  1.00  0.00    -0.030 C 
HETATM    5  C5  UNL     1       1.353   0.119  -0.601  1.00  0.00     0.054 C 
HETATM    6  C6  UNL     1       0.712   1.411  -0.126  1.00  0.00     0.012 C 
HETATM    7  C7  UNL     1      -0.614   1.768  -0.808  1.00  0.00     0.173 C 
HETATM    8  C8  UNL     1      -1.909   1.323  -0.136  1.00  0.00     0.090 C 
HETATM    9  C9  UNL     1      -2.204  -0.129  -0.451  1.00  0.00    -0.041 C 
HETATM   10  C10 UNL     1      -2.152  -1.062   0.520  1.00  0.00    -0.034 C 
HETATM   11  C11 UNL     1      -2.450  -0.406  -1.917  1.00  0.00     0.026 C 
HETATM   12  O1  UNL     1      -0.622   2.401  -1.849  1.00  0.00    -0.291 OA
HETATM   13  C12 UNL     1       1.186   2.250   0.813  1.00  0.00    -0.012 C 
HETATM   14  C13 UNL     1       0.471   3.538   1.183  1.00  0.00     0.029 C 
HETATM   15  C15 UNL     1       0.410  -2.548  -1.753  1.00  0.00     0.026 C 
ENDROOT
BRANCH  13  16
HETATM   16  C14 UNL     1       2.461   2.090   1.625  1.00  0.00     0.204 C 
HETATM   17  O2  UNL     1       3.080   0.815   1.575  1.00  0.00    -0.216 OA
ENDBRANCH  13  16
TORSDOF 1
