REMARK  2 active torsions:
REMARK  status: ('A' for Active; 'I' for Inactive)
REMARK    1  A    between atoms: C12_13  and  C14_15 
REMARK    2  A    between atoms: C14_15  and  C16_17 
ROOT
HETATM    1  C1  UNL     1      -2.267  -0.372  -0.880  1.00  0.00     0.000 C 
HETATM    2  C2  UNL     1      -2.315  -1.848  -1.284  1.00  0.00     0.000 C 
HETATM    3  C3  UNL     1      -0.951  -2.571  -1.172  1.00  0.00     0.000 C 
HETATM    4  C4  UNL     1      -0.321  -2.307   0.232  1.00  0.00     0.005 C 
HETATM    5  C5  UNL     1      -0.333  -0.844   0.766  1.00  0.00     0.004 C 
HETATM    6  C6  UNL     1      -1.740  -0.234   0.552  1.00  0.00     0.000 C 
HETATM    7  C7  UNL     1       0.755   0.018   0.077  1.00  0.00     0.030 C 
HETATM    8  C8  UNL     1       2.056  -0.698  -0.153  1.00  0.00     0.036 C 
HETATM    9  C9  UNL     1       2.196  -2.029   0.006  1.00  0.00    -0.025 C 
HETATM   10  C10 UNL     1       1.073  -2.934   0.430  1.00  0.00     0.026 C 
HETATM   11  C11 UNL     1       3.206   0.140  -0.576  1.00  0.00     0.291 C 
HETATM   12  O1  UNL     1       3.159   1.502  -0.613  1.00  0.00    -0.298 OA
HETATM   13  C12 UNL     1       2.024   2.186  -0.158  1.00  0.00     0.157 C 
HETATM   14  C13 UNL     1       1.148   1.334   0.769  1.00  0.00     0.038 C 
HETATM   15  O3  UNL     1       4.240  -0.421  -0.936  1.00  0.00    -0.260 OA
HETATM   16  C18 UNL     1      -0.082  -0.855   2.297  1.00  0.00     0.000 C 
HETATM   17  C19 UNL     1      -1.259  -4.084  -1.350  1.00  0.00     0.000 C 
HETATM   18  C20 UNL     1      -0.047  -2.183  -2.362  1.00  0.00     0.000 C 
ENDROOT
BRANCH  13  19
HETATM   19  C14 UNL     1       2.470   3.530   0.438  1.00  0.00     0.171 C 
HETATM   20  C15 UNL     1       2.971   4.467  -0.669  1.00  0.00     0.040 C 
HETATM   21  O2  UNL     1       1.367   4.172   1.041  1.00  0.00    -0.219 OA
BRANCH  19  22
HETATM   22  C16 UNL     1       3.556   3.354   1.478  1.00  0.00     0.006 C 
HETATM   23  C17 UNL     1       3.334   3.164   2.786  1.00  0.00    -0.002 C 
ENDBRANCH  19  22
ENDBRANCH  13  19
TORSDOF 2
