REMARK  1 active torsions:
REMARK  status: ('A' for Active; 'I' for Inactive)
REMARK    1  A    between atoms: C3_3  and  C20_21 
ROOT
HETATM    1  C1  UNL     1      -2.318   0.590   0.767  1.00  0.00     0.000 C 
HETATM    2  C2  UNL     1      -2.414  -0.926   0.580  1.00  0.00     0.007 C 
HETATM    3  C3  UNL     1      -1.672  -1.417  -0.685  1.00  0.00     0.058 C 
HETATM    4  C4  UNL     1      -0.208  -0.888  -0.653  1.00  0.00     0.007 C 
HETATM    5  C5  UNL     1      -0.020   0.644  -0.437  1.00  0.00     0.000 C 
HETATM    6  C6  UNL     1      -0.849   1.035   0.814  1.00  0.00     0.000 C 
HETATM    7  C7  UNL     1       1.502   1.024  -0.297  1.00  0.00     0.001 C 
HETATM    8  C8  UNL     1       2.497  -0.165  -0.318  1.00  0.00     0.006 C 
HETATM    9  C9  UNL     1       2.204  -1.101  -1.504  1.00  0.00     0.000 C 
HETATM   10  C10 UNL     1       0.724  -1.435  -1.744  1.00  0.00     0.000 C 
HETATM   11  C11 UNL     1       3.937   0.388  -0.484  1.00  0.00     0.035 C 
HETATM   12  C12 UNL     1       4.164   1.053   0.867  1.00  0.00     0.142 C 
HETATM   13  C13 UNL     1       3.350   2.340   0.940  1.00  0.00     0.034 C 
HETATM   14  C14 UNL     1       1.845   2.036   0.823  1.00  0.00     0.003 C 
HETATM   15  C15 UNL     1       3.623   0.008   1.804  1.00  0.00    -0.017 C 
HETATM   16  C16 UNL     1       2.631  -0.856   1.064  1.00  0.00     0.025 C 
HETATM   17  C17 UNL     1       3.927  -0.113   3.102  1.00  0.00    -0.007 C 
HETATM   18  O1  UNL     1       5.532   1.302   1.079  1.00  0.00    -0.222 OA
HETATM   19  C18 UNL     1      -0.558   1.482  -1.627  1.00  0.00     0.000 C 
HETATM   20  C19 UNL     1      -1.726  -2.965  -0.657  1.00  0.00     0.008 C 
ENDROOT
BRANCH   3  21
HETATM   21  C20 UNL     1      -2.475  -1.038  -1.926  1.00  0.00     0.206 C 
HETATM   22  O2  UNL     1      -1.988  -0.825  -3.011  1.00  0.00    -0.288 OA
ENDBRANCH   3  21
TORSDOF 1
