REMARK  2 active torsions:
REMARK  status: ('A' for Active; 'I' for Inactive)
REMARK    1  A    between atoms: C9_10  and  C11_12 
REMARK    2  A    between atoms: C11_12  and  C12_13 
ROOT
HETATM    1  C1  UNL     1      -2.082   1.007  -1.624  1.00  0.00     0.070 C 
HETATM    2  C2  UNL     1      -2.042  -0.510  -1.462  1.00  0.00     0.155 C 
HETATM    3  C3  UNL     1      -0.599  -1.046  -1.413  1.00  0.00     0.034 C 
HETATM    4  C4  UNL     1       0.199  -0.409  -0.229  1.00  0.00     0.020 C 
HETATM    5  C5  UNL     1       0.095   1.106  -0.361  1.00  0.00    -0.019 C 
HETATM    6  C6  UNL     1      -1.288   1.704  -0.524  1.00  0.00     0.173 C 
HETATM    7  O1  UNL     1      -2.007   1.660   0.696  1.00  0.00    -0.219 OA
HETATM    8  C7  UNL     1       1.170   1.912  -0.339  1.00  0.00    -0.032 C 
HETATM    9  C8  UNL     1       2.590   1.446  -0.173  1.00  0.00     0.030 C 
HETATM   10  C9  UNL     1       2.662   0.072   0.510  1.00  0.00     0.025 C 
HETATM   11  C10 UNL     1       1.686  -0.859  -0.234  1.00  0.00     0.008 C 
HETATM   12  C14 UNL     1      -0.406  -0.891   1.114  1.00  0.00     0.004 C 
HETATM   13  C15 UNL     1       0.086  -0.877  -2.788  1.00  0.00     0.003 C 
HETATM   14  O3  UNL     1      -2.769  -1.108  -2.511  1.00  0.00    -0.223 OA
ENDROOT
BRANCH  10  15
HETATM   15  C11 UNL     1       2.506   0.087   2.022  1.00  0.00    -0.012 C 
HETATM   16  C13 UNL     1       2.036   1.137   2.715  1.00  0.00    -0.007 C 
BRANCH  15  17
HETATM   17  C12 UNL     1       2.923  -1.172   2.752  1.00  0.00     0.205 C 
HETATM   18  O2  UNL     1       4.320  -1.403   2.615  1.00  0.00    -0.216 OA
ENDBRANCH  15  17
ENDBRANCH  10  15
TORSDOF 2
