REMARK  6 active torsions:
REMARK  status: ('A' for Active; 'I' for Inactive)
REMARK    1  A    between atoms: C2_2  and  O4_27 
REMARK    2  A    between atoms: C15_15  and  C18_18 
REMARK    3  A    between atoms: O4_27  and  C24_28 
REMARK    4  A    between atoms: C26_31  and  O8_37 
REMARK    5  A    between atoms: C27_32  and  O7_35 
REMARK    6  A    between atoms: O8_37  and  C30_38 
ROOT
HETATM    1  C1  UNL     1       3.522   1.102   1.978  1.00  0.00     0.030 C 
HETATM    2  C2  UNL     1       3.216   1.834   0.669  1.00  0.00     0.118 C 
HETATM    3  C3  UNL     1       3.883   1.064  -0.475  1.00  0.00     0.030 C 
HETATM    4  C4  UNL     1       3.419  -0.406  -0.557  1.00  0.00     0.002 C 
HETATM    5  C5  UNL     1       3.654  -1.196   0.759  1.00  0.00     0.000 C 
HETATM    6  C6  UNL     1       3.053  -0.358   1.921  1.00  0.00     0.003 C 
HETATM    7  C7  UNL     1       5.176  -1.492   0.935  1.00  0.00     0.002 C 
HETATM    8  C8  UNL     1       5.822  -2.158  -0.302  1.00  0.00     0.028 C 
HETATM    9  C9  UNL     1       5.535  -1.364  -1.590  1.00  0.00     0.002 C 
HETATM   10  C10 UNL     1       4.037  -1.109  -1.777  1.00  0.00     0.000 C 
HETATM   11  C11 UNL     1       7.326  -2.459  -0.151  1.00  0.00     0.127 C 
HETATM   12  C12 UNL     1       7.707  -3.180   1.159  1.00  0.00     0.029 C 
HETATM   13  C13 UNL     1       7.034  -2.482   2.358  1.00  0.00     0.003 C 
HETATM   14  C14 UNL     1       5.519  -2.319   2.189  1.00  0.00     0.000 C 
HETATM   15  C15 UNL     1       9.244  -2.989   1.196  1.00  0.00     0.023 C 
HETATM   16  C16 UNL     1       9.481  -1.566   0.668  1.00  0.00     0.007 C 
HETATM   17  C17 UNL     1       8.252  -1.235  -0.199  1.00  0.00     0.031 C 
HETATM   18  C22 UNL     1       7.344  -4.679   1.160  1.00  0.00     0.003 C 
HETATM   19  O3  UNL     1       7.688  -3.282  -1.236  1.00  0.00    -0.226 OA
HETATM   20  C23 UNL     1       2.832  -2.511   0.729  1.00  0.00     0.000 C 
ENDROOT
BRANCH   2  21
HETATM   21  O4  UNL     1       1.827   1.892   0.505  1.00  0.00    -0.332 OA
BRANCH  21  22
HETATM   22  C24 UNL     1       1.385   2.769  -0.515  1.00  0.00     0.270 C 
HETATM   23  O5  UNL     1       0.775   3.826   0.187  1.00  0.00    -0.329 OA
HETATM   24  C25 UNL     1       0.194   4.790  -0.647  1.00  0.00     0.148 C 
HETATM   25  C26 UNL     1      -0.855   4.188  -1.587  1.00  0.00     0.181 C 
HETATM   26  C32 UNL     1       1.252   5.653  -1.343  1.00  0.00     0.035 C 
HETATM   27  C27 UNL     1      -0.349   2.946  -2.329  1.00  0.00     0.181 C 
HETATM   28  C28 UNL     1       0.388   2.022  -1.369  1.00  0.00     0.237 C 
HETATM   29  O6  UNL     1      -0.526   1.369  -0.518  1.00  0.00    -0.215 OA
BRANCH  25  30
HETATM   30  O8  UNL     1      -2.000   3.870  -0.839  1.00  0.00    -0.299 OA
BRANCH  30  31
HETATM   31  C30 UNL     1      -3.276   4.084  -1.272  1.00  0.00     0.273 C 
HETATM   32  O9  UNL     1      -4.242   3.834  -0.581  1.00  0.00    -0.264 OA
HETATM   33  C31 UNL     1      -3.451   4.641  -2.675  1.00  0.00     0.106 C 
ENDBRANCH  30  31
ENDBRANCH  25  30
BRANCH  27  34
HETATM   34  O7  UNL     1       0.505   3.367  -3.361  1.00  0.00    -0.349 OA
HETATM   35  C29 UNL     1       0.619   2.451  -4.429  1.00  0.00     0.174 C 
ENDBRANCH  27  34
ENDBRANCH  21  22
ENDBRANCH   2  21
BRANCH  15  36
HETATM   36  C18 UNL     1       9.937  -3.337   2.485  1.00  0.00    -0.009 A 
HETATM   37  C19 UNL     1      10.385  -4.559   2.818  1.00  0.00     0.062 A 
HETATM   38  C20 UNL     1      10.951  -4.400   4.170  1.00  0.00     0.296 A 
HETATM   39  O1  UNL     1      10.849  -3.128   4.648  1.00  0.00    -0.294 OA
HETATM   40  O2  UNL     1      11.458  -5.322   4.800  1.00  0.00    -0.259 OA
HETATM   41  C21 UNL     1      10.210  -2.376   3.619  1.00  0.00     0.175 A 
ENDBRANCH  15  36
TORSDOF 6
