REMARK  12 active torsions:
REMARK  status: ('A' for Active; 'I' for Inactive)
REMARK    1  A    between atoms: C2_2  and  O9_45 
REMARK    2  A    between atoms: C3_3  and  C36_43 
REMARK    3  A    between atoms: C16_16  and  C25_25 
REMARK    4  A    between atoms: C25_25  and  O1_26 
REMARK    5  A    between atoms: O1_26  and  C26_27 
REMARK    6  A    between atoms: C27_29  and  C31_36 
REMARK    7  A    between atoms: O9_45  and  C37_46 
REMARK    8  A    between atoms: C39_49  and  O13_54 
REMARK    9  A    between atoms: O13_54  and  C42_55 
REMARK   10  A    between atoms: C44_57  and  C54_74 
REMARK   11  A    between atoms: C47_60  and  O14_61 
REMARK   12  A    between atoms: O14_61  and  C48_62 
ROOT
HETATM    1  C1  UNL     1       5.989  -1.239  -2.186  1.00  0.00     0.030 C 
HETATM    2  C2  UNL     1       6.102  -2.493  -1.307  1.00  0.00     0.120 C 
HETATM    3  C3  UNL     1       7.263  -3.410  -1.784  1.00  0.00     0.056 C 
HETATM    4  C4  UNL     1       8.557  -2.513  -1.800  1.00  0.00     0.005 C 
HETATM    5  C5  UNL     1       8.559  -1.186  -2.614  1.00  0.00     0.001 C 
HETATM    6  C6  UNL     1       7.279  -0.410  -2.209  1.00  0.00     0.003 C 
HETATM    7  C7  UNL     1       9.853  -0.305  -2.380  1.00  0.00     0.005 C 
HETATM    8  C8  UNL     1      11.078  -0.953  -1.677  1.00  0.00     0.004 C 
HETATM    9  C9  UNL     1      11.125  -2.411  -2.176  1.00  0.00     0.000 C 
HETATM   10  C10 UNL     1       9.904  -3.262  -1.809  1.00  0.00     0.000 C 
HETATM   11  C11 UNL     1      12.406  -0.167  -2.054  1.00  0.00     0.015 C 
HETATM   12  C12 UNL     1      12.195   1.345  -1.890  1.00  0.00    -0.049 C 
HETATM   13  C13 UNL     1      10.965   1.878  -1.779  1.00  0.00    -0.035 C 
HETATM   14  C14 UNL     1       9.667   1.116  -1.823  1.00  0.00     0.025 C 
HETATM   15  C15 UNL     1      13.443   2.226  -1.929  1.00  0.00     0.027 C 
HETATM   16  C16 UNL     1      14.477   1.763  -0.879  1.00  0.00     0.082 C 
HETATM   17  C17 UNL     1      14.831   0.292  -1.200  1.00  0.00     0.010 C 
HETATM   18  C18 UNL     1      13.590  -0.610  -1.147  1.00  0.00     0.004 C 
HETATM   19  C19 UNL     1      15.766   2.608  -0.978  1.00  0.00     0.010 C 
HETATM   20  C20 UNL     1      15.491   4.116  -0.934  1.00  0.00     0.001 C 
HETATM   21  C21 UNL     1      14.529   4.584  -2.044  1.00  0.00     0.000 C 
HETATM   22  C22 UNL     1      13.227   3.754  -1.977  1.00  0.00     0.004 C 
HETATM   23  C23 UNL     1      14.187   6.074  -1.808  1.00  0.00     0.000 C 
HETATM   24  C24 UNL     1      15.189   4.476  -3.435  1.00  0.00     0.000 C 
HETATM   25  C32 UNL     1      12.850  -0.430  -3.522  1.00  0.00     0.004 C 
HETATM   26  C33 UNL     1      10.887  -0.918  -0.136  1.00  0.00     0.000 C 
HETATM   27  C34 UNL     1       8.481  -1.473  -4.136  1.00  0.00     0.000 C 
HETATM   28  C35 UNL     1       7.486  -4.546  -0.749  1.00  0.00     0.005 C 
ENDROOT
BRANCH   2  29
HETATM   29  O9  UNL     1       4.836  -3.100  -1.312  1.00  0.00    -0.332 OA
BRANCH  29  30
HETATM   30  C37 UNL     1       4.360  -3.623  -0.082  1.00  0.00     0.270 C 
HETATM   31  O10 UNL     1       3.217  -4.318  -0.557  1.00  0.00    -0.326 OA
HETATM   32  C38 UNL     1       2.509  -4.995   0.452  1.00  0.00     0.177 C 
HETATM   33  C39 UNL     1       2.006  -4.051   1.541  1.00  0.00     0.178 C 
HETATM   34  C40 UNL     1       3.211  -3.291   2.069  1.00  0.00     0.217 C 
HETATM   35  C41 UNL     1       3.919  -2.582   0.926  1.00  0.00     0.241 C 
HETATM   36  O12 UNL     1       2.818  -2.379   3.065  1.00  0.00    -0.218 OA
HETATM   37  O11 UNL     1       4.984  -1.863   1.491  1.00  0.00    -0.215 OA
BRANCH  33  38
HETATM   38  O13 UNL     1       1.066  -3.155   1.002  1.00  0.00    -0.351 OA
BRANCH  38  39
HETATM   39  C42 UNL     1      -0.067  -2.905   1.795  1.00  0.00     0.145 C 
HETATM   40  C43 UNL     1      -1.047  -4.079   1.610  1.00  0.00     0.037 C 
HETATM   41  C44 UNL     1      -2.392  -3.883   2.333  1.00  0.00     0.069 C 
HETATM   42  C45 UNL     1      -3.013  -2.589   1.806  1.00  0.00     0.187 C 
HETATM   43  C46 UNL     1      -2.074  -1.432   2.067  1.00  0.00     0.212 C 
HETATM   44  O20 UNL     1      -4.233  -2.298   2.444  1.00  0.00    -0.221 OA
HETATM   45  C47 UNL     1      -0.726  -1.582   1.369  1.00  0.00     0.178 C 
HETATM   46  O19 UNL     1      -2.689  -0.248   1.618  1.00  0.00    -0.218 OA
BRANCH  41  47
HETATM   47  C54 UNL     1      -3.301  -5.099   2.136  1.00  0.00     0.185 C 
HETATM   48  O21 UNL     1      -4.311  -5.130   3.126  1.00  0.00    -0.221 OA
ENDBRANCH  41  47
BRANCH  45  49
HETATM   49  O14 UNL     1      -0.027  -0.421   1.749  1.00  0.00    -0.326 OA
BRANCH  49  50
HETATM   50  C48 UNL     1       1.131  -0.103   1.010  1.00  0.00     0.270 C 
HETATM   51  O15 UNL     1       2.188  -0.079   1.954  1.00  0.00    -0.329 OA
HETATM   52  C49 UNL     1       2.714   1.190   2.208  1.00  0.00     0.151 C 
HETATM   53  C50 UNL     1       3.308   1.741   0.918  1.00  0.00     0.212 C 
HETATM   54  C53 UNL     1       3.760   1.061   3.317  1.00  0.00     0.035 C 
HETATM   55  C51 UNL     1       2.286   1.730  -0.211  1.00  0.00     0.220 C 
HETATM   56  O18 UNL     1       3.767   3.055   1.122  1.00  0.00    -0.218 OA
HETATM   57  C52 UNL     1       0.947   1.205   0.270  1.00  0.00     0.241 C 
HETATM   58  O17 UNL     1       2.736   0.882  -1.241  1.00  0.00    -0.218 OA
HETATM   59  O16 UNL     1       0.132   0.987  -0.857  1.00  0.00    -0.215 OA
ENDBRANCH  49  50
ENDBRANCH  45  49
ENDBRANCH  38  39
ENDBRANCH  33  38
ENDBRANCH  29  30
ENDBRANCH   2  29
BRANCH   3  60
HETATM   60  C36 UNL     1       6.858  -4.121  -3.091  1.00  0.00     0.184 C 
HETATM   61  O8  UNL     1       7.948  -4.759  -3.719  1.00  0.00    -0.221 OA
ENDBRANCH   3  60
BRANCH  16  62
HETATM   62  C25 UNL     1      14.010   1.828   0.581  1.00  0.00     0.273 C 
HETATM   63  O7  UNL     1      14.588   1.286   1.494  1.00  0.00    -0.264 OA
BRANCH  62  64
HETATM   64  O1  UNL     1      12.942   2.639   0.759  1.00  0.00    -0.273 OA
BRANCH  64  65
HETATM   65  C26 UNL     1      12.528   2.946   2.075  1.00  0.00     0.276 C 
HETATM   66  O2  UNL     1      11.315   3.623   1.788  1.00  0.00    -0.326 OA
HETATM   67  C27 UNL     1      10.669   4.130   2.924  1.00  0.00     0.184 C 
HETATM   68  C28 UNL     1      11.569   5.160   3.594  1.00  0.00     0.215 C 
HETATM   69  C29 UNL     1      12.862   4.492   3.996  1.00  0.00     0.220 C 
HETATM   70  O5  UNL     1      10.976   5.682   4.758  1.00  0.00    -0.218 OA
HETATM   71  C30 UNL     1      13.509   3.867   2.778  1.00  0.00     0.241 C 
HETATM   72  O4  UNL     1      13.731   5.447   4.550  1.00  0.00    -0.218 OA
HETATM   73  O3  UNL     1      14.644   3.180   3.251  1.00  0.00    -0.215 OA
BRANCH  67  74
HETATM   74  C31 UNL     1       9.345   4.750   2.499  1.00  0.00     0.214 C 
HETATM   75  O6  UNL     1       8.500   3.759   1.948  1.00  0.00    -0.218 OA
ENDBRANCH  67  74
ENDBRANCH  64  65
ENDBRANCH  62  64
ENDBRANCH  16  62
TORSDOF 12
