REMARK  3 active torsions:
REMARK  status: ('A' for Active; 'I' for Inactive)
REMARK    1  A    between atoms: C4_4  and  C7_8 
REMARK    2  A    between atoms: C7_8  and  C8_9 
REMARK    3  A    between atoms: C9_10  and  C10_11 
ROOT
HETATM    1  C7  UNL     1       3.403  -1.413   1.204  1.00  0.00     0.200 C 
HETATM    2  O3  UNL     1       3.818  -2.305   1.934  1.00  0.00    -0.286 OA
ENDROOT
BRANCH   1   3
HETATM    3  C4  UNL     1       4.347  -0.353   0.717  1.00  0.00     0.090 A 
HETATM    4  C3  UNL     1       5.629  -0.740   0.294  1.00  0.00     0.138 A 
HETATM    5  C2  UNL     1       6.509   0.263  -0.128  1.00  0.00     0.055 A 
HETATM    6  O4  UNL     1       6.048  -2.034   0.322  1.00  0.00    -0.190 OA
HETATM    7  C1  UNL     1       6.157   1.612  -0.158  1.00  0.00     0.135 A 
HETATM    8  C6  UNL     1       4.878   1.954   0.291  1.00  0.00     0.055 A 
HETATM    9  O5  UNL     1       7.035   2.568  -0.560  1.00  0.00    -0.190 OA
HETATM   10  C5  UNL     1       3.959   0.998   0.725  1.00  0.00     0.138 A 
HETATM   11  O1  UNL     1       2.756   1.409   1.209  1.00  0.00    -0.190 OA
ENDBRANCH   1   3
BRANCH   1  12
HETATM   12  C8  UNL     1       1.953  -1.359   0.865  1.00  0.00     0.042 C 
HETATM   13  C9  UNL     1       1.429  -0.704  -0.192  1.00  0.00     0.003 C 
BRANCH  13  14
HETATM   14  C10 UNL     1      -0.018  -0.587  -0.446  1.00  0.00     0.000 A 
HETATM   15  C11 UNL     1      -0.486   0.486  -1.221  1.00  0.00     0.002 A 
HETATM   16  C12 UNL     1      -1.853   0.683  -1.418  1.00  0.00     0.027 A 
HETATM   17  C13 UNL     1      -2.802  -0.192  -0.879  1.00  0.00     0.131 A 
HETATM   18  C14 UNL     1      -2.328  -1.294  -0.161  1.00  0.00     0.027 A 
HETATM   19  O2  UNL     1      -4.135   0.009  -1.048  1.00  0.00    -0.190 OA
HETATM   20  C15 UNL     1      -0.962  -1.498   0.048  1.00  0.00     0.002 A 
ENDBRANCH  13  14
ENDBRANCH   1  12
TORSDOF 3
