REMARK  2 active torsions:
REMARK  status: ('A' for Active; 'I' for Inactive)
REMARK    1  A    between atoms: C10_12  and  C12_14 
REMARK    2  A    between atoms: C12_14  and  C15_17 
ROOT
HETATM    1  C1  UNL     1       4.955  -1.088  -0.389  1.00  0.00     0.029 A 
HETATM    2  C2  UNL     1       5.855  -0.076  -0.502  1.00  0.00     0.123 A 
HETATM    3  O1  UNL     1       5.250   1.158  -0.526  1.00  0.00    -0.305 OA
HETATM    4  C3  UNL     1       3.905   0.922  -0.424  1.00  0.00     0.102 A 
HETATM    5  C4  UNL     1       3.664  -0.448  -0.338  1.00  0.00     0.025 A 
HETATM    6  C5  UNL     1       2.356  -0.941  -0.224  1.00  0.00     0.004 A 
HETATM    7  C6  UNL     1       1.314  -0.014  -0.201  1.00  0.00     0.023 A 
HETATM    8  C7  UNL     1       1.536   1.387  -0.293  1.00  0.00     0.105 A 
HETATM    9  C8  UNL     1       2.847   1.845  -0.400  1.00  0.00     0.050 A 
HETATM   10  O2  UNL     1       0.513   2.288  -0.272  1.00  0.00    -0.273 OA
HETATM   11  C9  UNL     1      -0.766   1.811  -0.227  1.00  0.00     0.296 A 
HETATM   12  C10 UNL     1      -1.110   0.375  -0.044  1.00  0.00     0.044 A 
HETATM   13  C11 UNL     1      -0.062  -0.484  -0.069  1.00  0.00     0.003 A 
HETATM   14  O3  UNL     1      -1.679   2.624  -0.350  1.00  0.00    -0.259 OA
ENDROOT
BRANCH  12  15
HETATM   15  C12 UNL     1      -2.538  -0.164   0.042  1.00  0.00     0.043 C 
HETATM   16  C13 UNL     1      -2.988  -0.520  -1.390  1.00  0.00     0.009 C 
HETATM   17  C14 UNL     1      -3.569   0.804   0.660  1.00  0.00     0.009 C 
BRANCH  15  18
HETATM   18  C15 UNL     1      -2.559  -1.406   0.920  1.00  0.00    -0.022 C 
HETATM   19  C16 UNL     1      -2.148  -1.426   2.196  1.00  0.00    -0.005 C 
ENDBRANCH  15  18
ENDBRANCH  12  15
TORSDOF 2
