REMARK  3 active torsions:
REMARK  status: ('A' for Active; 'I' for Inactive)
REMARK    1  A    between atoms: C6_6  and  C7_7 
REMARK    2  A    between atoms: C7_7  and  C8_8 
REMARK    3  A    between atoms: C14_16  and  C17_20 
ROOT
HETATM    1  C1  UNL     1      -0.815  -1.617   0.576  1.00  0.00     0.131 A 
HETATM    2  C2  UNL     1      -0.255  -2.787   0.066  1.00  0.00     0.055 A 
HETATM    3  C3  UNL     1       1.050  -2.864  -0.422  1.00  0.00     0.138 A 
HETATM    4  C4  UNL     1       1.800  -1.675  -0.414  1.00  0.00     0.082 A 
HETATM    5  C5  UNL     1       1.289  -0.475   0.123  1.00  0.00     0.097 A 
HETATM    6  C6  UNL     1      -0.018  -0.464   0.646  1.00  0.00     0.030 A 
HETATM    7  O2  UNL     1       1.984   0.705   0.070  1.00  0.00    -0.329 OA
HETATM    8  C14 UNL     1       2.897   0.867  -0.985  1.00  0.00     0.151 C 
HETATM    9  C15 UNL     1       3.866  -0.306  -1.031  1.00  0.00     0.104 C 
HETATM   10  C16 UNL     1       3.175  -1.652  -0.978  1.00  0.00     0.180 C 
HETATM   11  O3  UNL     1       3.766  -2.642  -1.389  1.00  0.00    -0.291 OA
HETATM   12  O4  UNL     1       1.493  -4.050  -0.921  1.00  0.00    -0.190 OA
HETATM   13  O5  UNL     1      -2.094  -1.645   1.035  1.00  0.00    -0.190 OA
ENDROOT
BRANCH   6  14
HETATM   14  C7  UNL     1      -0.553   0.833   1.232  1.00  0.00     0.059 C 
BRANCH  14  15
HETATM   15  C8  UNL     1      -1.468   0.768   2.439  1.00  0.00     0.008 A 
HETATM   16  C9  UNL     1      -2.498   1.710   2.545  1.00  0.00    -0.002 A 
HETATM   17  C10 UNL     1      -3.371   1.720   3.633  1.00  0.00    -0.000 A 
HETATM   18  C11 UNL     1      -3.213   0.775   4.644  1.00  0.00     0.002 A 
HETATM   19  C12 UNL     1      -2.185  -0.163   4.547  1.00  0.00     0.027 A 
HETATM   20  C13 UNL     1      -1.315  -0.195   3.451  1.00  0.00     0.127 A 
HETATM   21  O1  UNL     1      -0.324  -1.124   3.410  1.00  0.00    -0.191 OA
ENDBRANCH  14  15
ENDBRANCH   6  14
BRANCH   8  22
HETATM   22  C17 UNL     1       2.218   1.192  -2.311  1.00  0.00     0.005 A 
HETATM   23  C18 UNL     1       2.467   2.421  -2.941  1.00  0.00    -0.002 A 
HETATM   24  C19 UNL     1       1.866   2.760  -4.155  1.00  0.00    -0.000 A 
HETATM   25  C20 UNL     1       0.989   1.869  -4.775  1.00  0.00    -0.000 A 
HETATM   26  C21 UNL     1       0.731   0.640  -4.171  1.00  0.00    -0.000 A 
HETATM   27  C22 UNL     1       1.344   0.310  -2.960  1.00  0.00    -0.002 A 
ENDBRANCH   8  22
TORSDOF 3
