REMARK  0 active torsions:
REMARK  status: ('A' for Active; 'I' for Inactive)
ROOT
HETATM    1  C1  UNL     1      -3.451  -0.332  -1.235  1.00  0.00     0.203 C 
HETATM    2  C2  UNL     1      -3.638  -1.558  -0.435  1.00  0.00     0.032 C 
HETATM    3  C3  UNL     1      -2.607  -2.117   0.231  1.00  0.00    -0.041 C 
HETATM    4  C4  UNL     1      -1.211  -1.517   0.143  1.00  0.00     0.024 C 
HETATM    5  C5  UNL     1      -1.235   0.037   0.023  1.00  0.00     0.044 C 
HETATM    6  C6  UNL     1      -2.079   0.310  -1.245  1.00  0.00     0.213 C 
HETATM    7  O1  UNL     1      -2.312   1.689  -1.449  1.00  0.00    -0.215 OA
HETATM    8  C7  UNL     1       0.225   0.569  -0.182  1.00  0.00     0.065 C 
HETATM    9  C8  UNL     1       1.329  -0.071   0.690  1.00  0.00     0.059 C 
HETATM   10  C9  UNL     1       1.195  -1.571   0.932  1.00  0.00     0.127 C 
HETATM   11  C10 UNL     1      -0.246  -1.985   1.246  1.00  0.00     0.034 C 
HETATM   12  O2  UNL     1       1.639  -2.398  -0.108  1.00  0.00    -0.304 OA
HETATM   13  C11 UNL     1       2.377  -2.015  -1.179  1.00  0.00     0.272 C 
HETATM   14  C12 UNL     1       2.921  -0.604  -1.184  1.00  0.00     0.096 C 
HETATM   15  C13 UNL     1       2.745   0.176   0.117  1.00  0.00     0.017 C 
HETATM   16  C14 UNL     1       3.093   1.675  -0.008  1.00  0.00     0.036 C 
HETATM   17  C15 UNL     1       1.878   2.499  -0.435  1.00  0.00     0.206 C 
HETATM   18  C16 UNL     1       0.579   2.012   0.185  1.00  0.00     0.247 C 
HETATM   19  O3  UNL     1      -0.392   2.957  -0.197  1.00  0.00    -0.193 OA
HETATM   20  O4  UNL     1       0.699   2.033   1.581  1.00  0.00    -0.331 OA
HETATM   21  C17 UNL     1       1.180   0.766   1.971  1.00  0.00     0.147 C 
HETATM   22  O5  UNL     1       1.712   2.491  -1.833  1.00  0.00    -0.218 OA
HETATM   23  C18 UNL     1       4.352   1.978  -0.835  1.00  0.00     0.003 C 
HETATM   24  O6  UNL     1       2.625  -2.778  -2.088  1.00  0.00    -0.264 OA
HETATM   25  C19 UNL     1      -1.985   0.634   1.241  1.00  0.00     0.004 C 
HETATM   26  C20 UNL     1      -2.813  -3.411   0.980  1.00  0.00     0.026 C 
HETATM   27  O7  UNL     1      -4.333   0.227  -1.874  1.00  0.00    -0.289 OA
ENDROOT
TORSDOF 0
