REMARK  1 active torsions:
REMARK  status: ('A' for Active; 'I' for Inactive)
REMARK    1  A    between atoms: C10_12  and  C11_13 
ROOT
HETATM    1  C1  UNL     1      -3.304   0.259  -0.080  1.00  0.00     0.028 A 
HETATM    2  C2  UNL     1      -3.139  -1.121  -0.244  1.00  0.00     0.002 A 
HETATM    3  C3  UNL     1      -1.889  -1.670  -0.560  1.00  0.00    -0.002 A 
HETATM    4  C4  UNL     1      -0.835  -0.781  -0.723  1.00  0.00     0.010 A 
HETATM    5  C5  UNL     1      -1.006   0.590  -0.521  1.00  0.00     0.059 A 
HETATM    6  C6  UNL     1      -2.236   1.164  -0.200  1.00  0.00     0.134 A 
HETATM    7  O1  UNL     1      -2.409   2.498  -0.029  1.00  0.00    -0.190 OA
HETATM    8  C7  UNL     1       0.306   1.253  -0.702  1.00  0.00     0.182 A 
HETATM    9  C8  UNL     1       1.265   0.164  -1.113  1.00  0.00     0.162 A 
HETATM   10  C9  UNL     1       0.576  -1.002  -1.102  1.00  0.00     0.152 A 
HETATM   11  O2  UNL     1       1.434  -1.696  -0.269  1.00  0.00    -0.320 OA
HETATM   12  C10 UNL     1       2.260  -0.511  -0.184  1.00  0.00     0.425 A 
HETATM   13  N1  UNL     1       3.514  -0.820  -0.874  1.00  0.00     0.653 N 
HETATM   14  O4  UNL     1       0.604   2.430  -0.557  1.00  0.00    -0.291 OA
ENDROOT
BRANCH  12  15
HETATM   15  C11 UNL     1       2.408   0.044   1.228  1.00  0.00     0.212 C 
HETATM   16  C12 UNL     1       3.769   0.421   1.785  1.00  0.00     0.077 C 
HETATM   17  O3  UNL     1       1.417   0.199   1.905  1.00  0.00    -0.291 OA
ENDBRANCH  12  15
TORSDOF 1
