REMARK  3 active torsions:
REMARK  status: ('A' for Active; 'I' for Inactive)
REMARK    1  A    between atoms: C10_10  and  C11_11 
REMARK    2  A    between atoms: C14_14  and  O2_19 
REMARK    3  A    between atoms: C15_15  and  O1_17 
ROOT
HETATM    1  C1  UNL     1      -0.481   3.681   0.663  1.00  0.00     0.119 A 
HETATM    2  C2  UNL     1       0.688   2.954   0.970  1.00  0.00     0.119 A 
HETATM    3  C3  UNL     1       0.785   1.604   0.745  1.00  0.00     0.026 A 
HETATM    4  C4  UNL     1      -0.331   0.931   0.143  1.00  0.00     0.002 A 
HETATM    5  C5  UNL     1      -1.522   1.662  -0.122  1.00  0.00     0.002 A 
HETATM    6  C6  UNL     1      -1.592   3.069   0.139  1.00  0.00     0.026 A 
HETATM    7  C7  UNL     1      -2.678   1.008  -0.657  1.00  0.00    -0.002 A 
HETATM    8  C8  UNL     1      -2.602  -0.334  -0.914  1.00  0.00     0.013 A 
HETATM    9  C9  UNL     1      -1.402  -1.038  -0.684  1.00  0.00     0.062 A 
HETATM   10  C10 UNL     1      -0.257  -0.469  -0.170  1.00  0.00     0.005 A 
HETATM   11  C19 UNL     1      -1.698  -2.402  -1.154  1.00  0.00     0.296 A 
HETATM   12  O3  UNL     1      -2.982  -2.538  -1.616  1.00  0.00    -0.293 OA
HETATM   13  C20 UNL     1      -3.634  -1.272  -1.480  1.00  0.00     0.179 A 
HETATM   14  O4  UNL     1      -0.892  -3.329  -1.164  1.00  0.00    -0.259 OA
HETATM   15  O5  UNL     1       1.621   3.815   1.510  1.00  0.00    -0.300 OA
HETATM   16  C21 UNL     1       1.047   5.128   1.523  1.00  0.00     0.304 A 
HETATM   17  O6  UNL     1      -0.284   5.004   1.003  1.00  0.00    -0.300 OA
ENDROOT
BRANCH  10  18
HETATM   18  C11 UNL     1       0.991  -1.258   0.010  1.00  0.00     0.002 A 
HETATM   19  C12 UNL     1       1.017  -2.401   0.805  1.00  0.00     0.002 A 
HETATM   20  C13 UNL     1       2.211  -3.108   0.934  1.00  0.00     0.026 A 
HETATM   21  C14 UNL     1       3.418  -2.715   0.332  1.00  0.00     0.116 A 
HETATM   22  C15 UNL     1       3.412  -1.508  -0.407  1.00  0.00     0.116 A 
HETATM   23  C16 UNL     1       2.185  -0.852  -0.591  1.00  0.00     0.026 A 
BRANCH  21  24
HETATM   24  O2  UNL     1       4.502  -3.518   0.608  1.00  0.00    -0.326 OA
HETATM   25  C18 UNL     1       5.814  -3.085   0.350  1.00  0.00     0.181 C 
ENDBRANCH  21  24
BRANCH  22  26
HETATM   26  O1  UNL     1       4.539  -0.998  -1.000  1.00  0.00    -0.326 OA
HETATM   27  C17 UNL     1       4.841   0.344  -0.685  1.00  0.00     0.181 C 
ENDBRANCH  22  26
ENDBRANCH  10  18
TORSDOF 3
