REMARK  6 active torsions:
REMARK  status: ('A' for Active; 'I' for Inactive)
REMARK    1  A    between atoms: C1_2  and  C2_3 
REMARK    2  A    between atoms: C2_3  and  C3_4 
REMARK    3  A    between atoms: C3_4  and  C4_5 
REMARK    4  A    between atoms: C4_5  and  N1_6 
REMARK       I    between atoms: N1_6  and  C5_7 
REMARK    5  A    between atoms: C5_7  and  C6_8 
REMARK    6  A    between atoms: C6_8  and  C7_9 
ROOT
HETATM    1  N1  UNL     1       2.042  -0.043   0.000  1.00  0.00    -0.238 NA
HETATM    2  C5  UNL     1       3.204   0.678  -0.000  1.00  0.00     0.251 C 
HETATM    3  O1  UNL     1       3.218   1.887  -0.000  1.00  0.00    -0.271 OA
ENDROOT
BRANCH   1   4
HETATM    4  C4  UNL     1       0.729   0.609  -0.000  1.00  0.00     0.129 C 
BRANCH   4   5
HETATM    5  C3  UNL     1      -0.389  -0.443   0.000  1.00  0.00     0.028 C 
BRANCH   5   6
HETATM    6  C2  UNL     1      -1.780   0.213  -0.000  1.00  0.00     0.020 C 
BRANCH   6   7
HETATM    7  C1  UNL     1      -2.903  -0.825   0.000  1.00  0.00     0.095 C 
HETATM    8 CL1  UNL     1      -4.509  -0.050  -0.000  1.00  0.00    -0.114 Cl
ENDBRANCH   6   7
ENDBRANCH   5   6
ENDBRANCH   4   5
ENDBRANCH   1   4
BRANCH   2   9
HETATM    9  C6  UNL     1       4.466  -0.170   0.000  1.00  0.00     0.090 C 
BRANCH   9  10
HETATM   10  C7  UNL     1       5.758   0.664  -0.000  1.00  0.00     0.010 C 
HETATM   11  C8  UNL     1       7.012  -0.220   0.000  1.00  0.00     0.001 C 
ENDBRANCH   9  10
ENDBRANCH   2   9
TORSDOF 6
