REMARK  6 active torsions:
REMARK  status: ('A' for Active; 'I' for Inactive)
REMARK    1  A    between atoms: C15_15  and  C18_19 
REMARK    2  A    between atoms: C18_19  and  C19_20 
REMARK    3  A    between atoms: C19_20  and  C20_21 
REMARK    4  A    between atoms: C20_21  and  C21_22 
REMARK    5  A    between atoms: C21_22  and  C22_23 
REMARK    6  A    between atoms: C22_23  and  C23_24 
ROOT
HETATM    1  C1  UNL     1      -2.348  -0.570  -0.330  1.00  0.00     0.034 C 
HETATM    2  C2  UNL     1      -3.182  -1.565   0.470  1.00  0.00     0.156 C 
HETATM    3  C3  UNL     1      -2.362  -2.215   1.585  1.00  0.00     0.055 C 
HETATM    4  C4  UNL     1      -0.987  -1.595   1.707  1.00  0.00    -0.046 C 
HETATM    5  C5  UNL     1      -0.916  -0.074   1.767  1.00  0.00     0.015 C 
HETATM    6  C6  UNL     1      -1.750   0.506   0.590  1.00  0.00     0.006 C 
HETATM    7  C7  UNL     1       0.561   0.388   1.621  1.00  0.00     0.004 C 
HETATM    8  C8  UNL     1       1.542  -0.436   2.472  1.00  0.00     0.005 C 
HETATM    9  C9  UNL     1       1.514  -1.877   1.939  1.00  0.00     0.025 C 
HETATM   10  C10 UNL     1       0.105  -2.377   1.768  1.00  0.00    -0.035 C 
HETATM   11  C11 UNL     1       2.932   0.235   2.676  1.00  0.00     0.008 C 
HETATM   12  C12 UNL     1       3.328   1.383   1.695  1.00  0.00     0.007 C 
HETATM   13  C13 UNL     1       2.139   2.274   1.262  1.00  0.00     0.000 C 
HETATM   14  C14 UNL     1       0.805   1.875   1.900  1.00  0.00     0.000 C 
HETATM   15  C15 UNL     1       3.986   0.626   0.502  1.00  0.00     0.065 C 
HETATM   16  C16 UNL     1       4.492  -0.671   1.123  1.00  0.00     0.151 C 
HETATM   17  C17 UNL     1       4.124  -0.735   2.589  1.00  0.00     0.065 C 
HETATM   18  O1  UNL     1       5.062  -1.552   0.524  1.00  0.00    -0.296 OA
HETATM   19  C26 UNL     1       4.346   2.303   2.422  1.00  0.00     0.000 C 
HETATM   20  C27 UNL     1      -1.524   0.392   3.109  1.00  0.00     0.004 C 
HETATM   21  O3  UNL     1      -4.292  -0.897   1.026  1.00  0.00    -0.223 OA
ENDROOT
BRANCH  15  22
HETATM   22  C18 UNL     1       5.053   1.368  -0.334  1.00  0.00     0.065 C 
HETATM   23  C25 UNL     1       4.494   2.594  -1.078  1.00  0.00     0.008 C 
BRANCH  22  24
HETATM   24  C19 UNL     1       5.808   0.467  -1.318  1.00  0.00     0.151 C 
HETATM   25  O2  UNL     1       6.949   0.134  -1.085  1.00  0.00    -0.296 OA
BRANCH  24  26
HETATM   26  C20 UNL     1       5.122   0.071  -2.618  1.00  0.00     0.065 C 
BRANCH  26  27
HETATM   27  C21 UNL     1       5.809  -1.070  -3.387  1.00  0.00     0.009 C 
BRANCH  27  28
HETATM   28  C22 UNL     1       5.358  -1.229  -4.858  1.00  0.00     0.017 C 
HETATM   29  C24 UNL     1       3.827  -1.328  -4.972  1.00  0.00     0.001 C 
BRANCH  28  30
HETATM   30  C23 UNL     1       5.933  -0.114  -5.743  1.00  0.00     0.095 C 
HETATM   31 CL1  UNL     1       5.693  -0.415  -7.484  1.00  0.00    -0.114 Cl
ENDBRANCH  28  30
ENDBRANCH  27  28
ENDBRANCH  26  27
ENDBRANCH  24  26
ENDBRANCH  22  24
ENDBRANCH  15  22
TORSDOF 6
