REMARK  2 active torsions:
REMARK  status: ('A' for Active; 'I' for Inactive)
REMARK    1  A    between atoms: C3_3  and  C4_4 
REMARK    2  A    between atoms: C5_5  and  C9_9 
ROOT
HETATM    1  C4  UNL     1      -1.204  -0.361  -0.513  1.00  0.00     0.032 A 
HETATM    2  C5  UNL     1      -0.972   0.894  -1.327  1.00  0.00     0.092 A 
HETATM    3  C6  UNL     1      -2.376   0.520  -0.900  1.00  0.00     0.014 A 
HETATM    4  C7  UNL     1      -3.362  -0.085  -1.893  1.00  0.00     0.001 C 
HETATM    5  C8  UNL     1      -3.027   1.444   0.122  1.00  0.00     0.001 C 
ENDROOT
BRANCH   1   6
HETATM    6  C3  UNL     1      -0.824  -0.178   0.905  1.00  0.00    -0.034 C 
HETATM    7  C2  UNL     1      -1.345  -0.910   1.905  1.00  0.00    -0.048 C 
HETATM    8  C1  UNL     1      -0.907  -0.709   3.337  1.00  0.00     0.026 C 
HETATM    9  C10 UNL     1      -2.396  -1.976   1.707  1.00  0.00     0.026 C 
ENDBRANCH   1   6
BRANCH   2  10
HETATM   10  C9  UNL     1      -0.703   0.581  -2.725  1.00  0.00     0.185 C 
HETATM   11  O1  UNL     1      -1.113   1.578  -3.533  1.00  0.00    -0.647 OA
HETATM   12  O2  UNL     1      -0.176  -0.410  -3.170  1.00  0.00    -0.647 OA
ENDBRANCH   2  10
TORSDOF 2
