REMARK  0 active torsions:
REMARK  status: ('A' for Active; 'I' for Inactive)
ROOT
HETATM    1  C1  UNL     1      -2.572   0.625   0.231  1.00  0.00     0.076 C 
HETATM    2  C2  UNL     1      -1.275   1.391   0.159  1.00  0.00    -0.042 C 
HETATM    3  C3  UNL     1      -0.361   0.981  -0.740  1.00  0.00    -0.034 C 
HETATM    4  C4  UNL     1      -0.637  -0.218  -1.626  1.00  0.00     0.033 C 
HETATM    5  C5  UNL     1      -2.035  -0.775  -1.311  1.00  0.00     0.063 C 
HETATM    6  C6  UNL     1      -2.321  -0.915   0.218  1.00  0.00     0.017 C 
HETATM    7  C7  UNL     1      -1.184  -1.439   1.103  1.00  0.00     0.001 C 
HETATM    8  C8  UNL     1      -3.609  -1.714   0.494  1.00  0.00     0.001 C 
HETATM    9  C9  UNL     1      -2.976   0.425  -1.229  1.00  0.00     0.154 C 
HETATM   10  O1  UNL     1      -3.707   0.992  -1.999  1.00  0.00    -0.296 OA
HETATM   11  C10 UNL     1      -1.090   2.571   1.071  1.00  0.00     0.026 C 
ENDROOT
TORSDOF 0
