REMARK  1 active torsions:
REMARK  status: ('A' for Active; 'I' for Inactive)
REMARK    1  A    between atoms: C6_6  and  C12_13 
ROOT
HETATM    1  C1  UNL     1      -1.728   2.631  -0.643  1.00  0.00     0.042 C 
HETATM    2  C2  UNL     1      -0.624   2.481   0.413  1.00  0.00     0.171 C 
HETATM    3  C3  UNL     1       0.785   2.340  -0.127  1.00  0.00    -0.014 C 
HETATM    4  C4  UNL     1       1.717   1.378   0.583  1.00  0.00     0.025 C 
HETATM    5  C5  UNL     1       1.772  -0.079   0.065  1.00  0.00     0.007 C 
HETATM    6  C6  UNL     1       0.530  -0.968   0.329  1.00  0.00     0.031 C 
HETATM    7  C7  UNL     1      -0.612  -0.605  -0.652  1.00  0.00     0.040 C 
HETATM    8  C8  UNL     1      -2.012  -0.558  -0.030  1.00  0.00     0.171 C 
HETATM    9  C9  UNL     1      -2.932   0.378  -0.787  1.00  0.00    -0.014 C 
HETATM   10  C10 UNL     1      -3.008   1.828  -0.341  1.00  0.00     0.027 C 
HETATM   11  C11 UNL     1      -3.624  -0.059  -1.853  1.00  0.00    -0.007 C 
HETATM   12  O1  UNL     1      -2.585  -1.854   0.016  1.00  0.00    -0.219 OA
HETATM   13  C15 UNL     1       1.216   3.081  -1.160  1.00  0.00    -0.007 C 
HETATM   14  O3  UNL     1      -0.649   3.598   1.285  1.00  0.00    -0.219 OA
ENDROOT
BRANCH   6  15
HETATM   15  C12 UNL     1       0.795  -2.499   0.441  1.00  0.00     0.127 C 
HETATM   16  C13 UNL     1       0.383  -3.011   1.828  1.00  0.00     0.033 C 
HETATM   17  C14 UNL     1       2.232  -2.955   0.158  1.00  0.00     0.033 C 
HETATM   18  O2  UNL     1       0.007  -3.201  -0.487  1.00  0.00    -0.226 OA
ENDBRANCH   6  15
TORSDOF 1
