REMARK  7 active torsions:
REMARK  status: ('A' for Active; 'I' for Inactive)
REMARK    1  A    between atoms: C2_2  and  O7_25 
REMARK    2  A    between atoms: C3_3  and  O6_23 
REMARK    3  A    between atoms: C11_12  and  O4_20 
REMARK    4  A    between atoms: C12_13  and  O3_18 
REMARK    5  A    between atoms: C13_14  and  O2_16 
REMARK    6  A    between atoms: O7_25  and  C19_26 
REMARK    7  A    between atoms: C20_28  and  C24_35 
ROOT
HETATM    1  C1  UNL     1      -1.984   1.526   0.101  1.00  0.00     0.003 C 
HETATM    2  C2  UNL     1      -1.594   0.175   0.091  1.00  0.00     0.115 C 
HETATM    3  C3  UNL     1      -0.207  -0.134   0.107  1.00  0.00     0.119 C 
HETATM    4  C4  UNL     1       0.723   0.910   0.329  1.00  0.00     0.066 C 
HETATM    5  C5  UNL     1       0.313   2.251   0.287  1.00  0.00     0.044 C 
HETATM    6  C6  UNL     1      -1.040   2.552   0.153  1.00  0.00     0.001 C 
HETATM    7  C7  UNL     1       1.273   3.375   0.386  1.00  0.00     0.196 C 
HETATM    8  C8  UNL     1       2.717   3.042   0.350  1.00  0.00     0.046 A 
HETATM    9  C9  UNL     1       3.170   1.722   0.425  1.00  0.00     0.066 A 
HETATM   10  C10 UNL     1       2.171   0.618   0.573  1.00  0.00     0.200 C 
HETATM   11  O1  UNL     1       2.512  -0.480   1.003  1.00  0.00    -0.286 OA
HETATM   12  C11 UNL     1       4.552   1.438   0.364  1.00  0.00     0.121 A 
HETATM   13  C12 UNL     1       5.480   2.508   0.220  1.00  0.00     0.139 A 
HETATM   14  C13 UNL     1       5.026   3.847   0.186  1.00  0.00     0.118 A 
HETATM   15  C14 UNL     1       3.643   4.075   0.221  1.00  0.00     0.030 A 
HETATM   16  O5  UNL     1       0.890   4.541   0.441  1.00  0.00    -0.287 OA
HETATM   17  C25 UNL     1      -3.454   1.885   0.031  1.00  0.00     0.033 C 
ENDROOT
BRANCH   2  18
HETATM   18  O7  UNL     1      -2.652  -0.705   0.084  1.00  0.00    -0.302 OA
BRANCH  18  19
HETATM   19  C19 UNL     1      -2.553  -2.079   0.366  1.00  0.00     0.274 C 
HETATM   20  O8  UNL     1      -2.429  -2.696  -0.898  1.00  0.00    -0.326 OA
HETATM   21  C20 UNL     1      -2.414  -4.097  -0.841  1.00  0.00     0.184 C 
HETATM   22  C21 UNL     1      -3.679  -4.616  -0.162  1.00  0.00     0.215 C 
HETATM   23  C22 UNL     1      -3.840  -3.993   1.208  1.00  0.00     0.220 C 
HETATM   24  O11 UNL     1      -3.629  -6.011   0.004  1.00  0.00    -0.218 OA
HETATM   25  C23 UNL     1      -3.850  -2.493   1.025  1.00  0.00     0.241 C 
HETATM   26  O10 UNL     1      -5.053  -4.410   1.780  1.00  0.00    -0.218 OA
HETATM   27  O9  UNL     1      -3.948  -1.874   2.283  1.00  0.00    -0.215 OA
BRANCH  21  28
HETATM   28  C24 UNL     1      -2.320  -4.628  -2.266  1.00  0.00     0.214 C 
HETATM   29  O12 UNL     1      -1.101  -4.230  -2.860  1.00  0.00    -0.218 OA
ENDBRANCH  21  28
ENDBRANCH  18  19
ENDBRANCH   2  18
BRANCH   3  30
HETATM   30  O6  UNL     1       0.211  -1.439   0.086  1.00  0.00    -0.326 OA
HETATM   31  C18 UNL     1       0.755  -1.859  -1.146  1.00  0.00     0.181 C 
ENDBRANCH   3  30
BRANCH  12  32
HETATM   32  O4  UNL     1       4.903   0.105   0.350  1.00  0.00    -0.326 OA
HETATM   33  C17 UNL     1       6.092  -0.344  -0.257  1.00  0.00     0.181 C 
ENDBRANCH  12  32
BRANCH  13  34
HETATM   34  O3  UNL     1       6.817   2.181   0.230  1.00  0.00    -0.324 OA
HETATM   35  C16 UNL     1       7.803   3.085   0.668  1.00  0.00     0.182 C 
ENDBRANCH  13  34
BRANCH  14  36
HETATM   36  O2  UNL     1       5.922   4.874   0.016  1.00  0.00    -0.326 OA
HETATM   37  C15 UNL     1       5.463   6.160  -0.329  1.00  0.00     0.181 C 
ENDBRANCH  14  36
TORSDOF 7
