REMARK  6 active torsions:
REMARK  status: ('A' for Active; 'I' for Inactive)
REMARK    1  A    between atoms: C15_16  and  C16_17 
REMARK    2  A    between atoms: C15_16  and  C18_19 
REMARK    3  A    between atoms: C18_19  and  C19_20 
REMARK    4  A    between atoms: C19_20  and  C20_21 
REMARK    5  A    between atoms: C20_21  and  C21_23 
REMARK    6  A    between atoms: C21_23  and  C22_24 
ROOT
HETATM    1  C1  UNL     1      -4.665  -1.312  -0.733  1.00  0.00     0.065 C 
HETATM    2  C2  UNL     1      -5.227  -2.713  -0.561  1.00  0.00     0.150 C 
HETATM    3  C3  UNL     1      -4.573  -3.609   0.498  1.00  0.00     0.051 C 
HETATM    4  C4  UNL     1      -3.209  -2.978   0.898  1.00  0.00     0.007 C 
HETATM    5  C5  UNL     1      -3.195  -1.510   1.399  1.00  0.00     0.003 C 
HETATM    6  C6  UNL     1      -4.297  -0.723   0.633  1.00  0.00     0.008 C 
HETATM    7  C7  UNL     1      -1.732  -0.934   1.262  1.00  0.00     0.031 C 
HETATM    8  C8  UNL     1      -0.566  -1.975   1.204  1.00  0.00     0.005 C 
HETATM    9  C9  UNL     1      -0.949  -3.184   2.098  1.00  0.00     0.000 C 
HETATM   10  C10 UNL     1      -2.268  -3.881   1.712  1.00  0.00     0.000 C 
HETATM   11  C11 UNL     1       0.741  -1.253   1.721  1.00  0.00     0.027 C 
HETATM   12  C12 UNL     1       0.955   0.126   1.043  1.00  0.00     0.118 A 
HETATM   13  C13 UNL     1      -0.032   0.467  -0.063  1.00  0.00     0.062 C 
HETATM   14  C14 UNL     1      -1.503   0.234   0.292  1.00  0.00     0.154 C 
HETATM   15  O1  UNL     1      -1.989   1.435   0.858  1.00  0.00    -0.223 OA
HETATM   16  C15 UNL     1       2.273   0.849   1.043  1.00  0.00     0.115 A 
HETATM   17  O5  UNL     1       1.245   1.154   2.004  1.00  0.00    -0.359 OA
HETATM   18  C26 UNL     1       0.827  -1.243   3.272  1.00  0.00     0.003 C 
HETATM   19  C27 UNL     1      -0.297  -2.530  -0.226  1.00  0.00     0.000 C 
HETATM   20  C28 UNL     1      -3.586  -1.398   2.902  1.00  0.00     0.000 C 
HETATM   21  C29 UNL     1      -4.372  -5.004  -0.140  1.00  0.00     0.007 C 
HETATM   22  C30 UNL     1      -5.587  -3.778   1.646  1.00  0.00     0.007 C 
HETATM   23  O6  UNL     1      -6.159  -3.090  -1.236  1.00  0.00    -0.296 OA
ENDROOT
BRANCH  16  24
HETATM   24  C16 UNL     1       3.505   0.090   1.551  1.00  0.00     0.030 C 
HETATM   25  C17 UNL     1       4.267  -0.680   0.465  1.00  0.00     0.003 C 
ENDBRANCH  16  24
BRANCH  16  26
HETATM   26  C18 UNL     1       2.600   2.096   0.175  1.00  0.00     0.030 C 
HETATM   27  C25 UNL     1       1.856   3.390   0.575  1.00  0.00     0.003 C 
BRANCH  26  28
HETATM   28  C19 UNL     1       2.634   1.849  -1.353  1.00  0.00     0.038 C 
BRANCH  28  29
HETATM   29  C20 UNL     1       3.777   2.470  -2.176  1.00  0.00     0.185 C 
HETATM   30  O2  UNL     1       5.010   2.268  -1.525  1.00  0.00    -0.221 OA
BRANCH  29  31
HETATM   31  C21 UNL     1       3.674   3.959  -2.492  1.00  0.00     0.210 C 
HETATM   32  O4  UNL     1       4.982   4.485  -2.459  1.00  0.00    -0.218 OA
BRANCH  31  33
HETATM   33  C22 UNL     1       3.006   4.342  -3.815  1.00  0.00     0.157 C 
HETATM   34  C23 UNL     1       3.860   4.001  -5.041  1.00  0.00     0.036 C 
HETATM   35  C24 UNL     1       2.662   5.836  -3.837  1.00  0.00     0.036 C 
HETATM   36  O3  UNL     1       1.797   3.638  -3.925  1.00  0.00    -0.223 OA
ENDBRANCH  31  33
ENDBRANCH  29  31
ENDBRANCH  28  29
ENDBRANCH  26  28
ENDBRANCH  16  26
TORSDOF 6
