REMARK  1 active torsions:
REMARK  status: ('A' for Active; 'I' for Inactive)
REMARK    1  A    between atoms: C14_16  and  C18_23 
ROOT
HETATM    1  C1  UNL     1      -0.145  -0.126  -1.172  1.00  0.00     0.204 C 
HETATM    2  C2  UNL     1      -0.345  -1.569  -0.793  1.00  0.00     0.000 C 
HETATM    3  C3  UNL     1       0.587  -2.300  -0.156  1.00  0.00    -0.046 C 
HETATM    4  C4  UNL     1       1.956  -1.736   0.201  1.00  0.00     0.023 C 
HETATM    5  C5  UNL     1       1.959  -0.188   0.307  1.00  0.00     0.040 C 
HETATM    6  C6  UNL     1       1.316   0.260  -1.034  1.00  0.00     0.187 C 
HETATM    7  O1  UNL     1       1.446   1.636  -1.305  1.00  0.00    -0.220 OA
HETATM    8  C7  UNL     1       3.398   0.401   0.517  1.00  0.00     0.067 C 
HETATM    9  C8  UNL     1       4.573  -0.521   0.117  1.00  0.00     0.089 C 
HETATM   10  C9  UNL     1       4.258  -1.464  -1.041  1.00  0.00     0.130 C 
HETATM   11  C10 UNL     1       3.002  -2.317  -0.780  1.00  0.00     0.035 C 
HETATM   12  O2  UNL     1       4.119  -0.798  -2.266  1.00  0.00    -0.302 OA
HETATM   13  C11 UNL     1       4.292   0.546  -2.346  1.00  0.00     0.305 C 
HETATM   14  C12 UNL     1       5.441   1.112  -1.523  1.00  0.00     0.268 C 
HETATM   15  C13 UNL     1       5.808   0.336  -0.261  1.00  0.00     0.199 C 
HETATM   16  C14 UNL     1       6.334   1.220   0.886  1.00  0.00     0.218 C 
HETATM   17  C15 UNL     1       5.194   1.711   1.774  1.00  0.00     0.239 C 
HETATM   18  C16 UNL     1       4.010   0.759   1.877  1.00  0.00     0.250 C 
HETATM   19  O3  UNL     1       3.125   1.355   2.791  1.00  0.00    -0.193 OA
HETATM   20  O4  UNL     1       4.395  -0.440   2.474  1.00  0.00    -0.330 OA
HETATM   21  C17 UNL     1       4.808  -1.287   1.431  1.00  0.00     0.150 C 
HETATM   22  O5  UNL     1       4.696   2.944   1.312  1.00  0.00    -0.215 OA
HETATM   23  O7  UNL     1       7.157   0.417   1.702  1.00  0.00    -0.218 OA
HETATM   24  O8  UNL     1       6.860  -0.530  -0.613  1.00  0.00    -0.220 OA
HETATM   25  O9  UNL     1       6.584   1.304  -2.342  1.00  0.00    -0.210 OA
HETATM   26  O10 UNL     1       3.612   1.252  -3.062  1.00  0.00    -0.261 OA
HETATM   27  C19 UNL     1       1.016   0.215   1.466  1.00  0.00     0.003 C 
HETATM   28  C20 UNL     1       0.335  -3.744   0.207  1.00  0.00     0.026 C 
HETATM   29  O11 UNL     1      -0.537   0.107  -2.514  1.00  0.00    -0.216 OA
ENDROOT
BRANCH  16  30
HETATM   30  C18 UNL     1       7.264   2.345   0.435  1.00  0.00     0.218 C 
HETATM   31  O6  UNL     1       8.337   1.780  -0.290  1.00  0.00    -0.218 OA
ENDBRANCH  16  30
TORSDOF 1
