REMARK  2 active torsions:
REMARK  status: ('A' for Active; 'I' for Inactive)
REMARK    1  A    between atoms: C16_16  and  O1_17 
REMARK    2  A    between atoms: O1_17  and  C17_18 
ROOT
HETATM    1  C1  UNL     1       5.948  -0.980  -1.110  1.00  0.00     0.065 C 
HETATM    2  C2  UNL     1       5.038  -2.088  -1.598  1.00  0.00     0.151 C 
HETATM    3  C3  UNL     1       3.802  -2.360  -0.757  1.00  0.00     0.065 C 
HETATM    4  C4  UNL     1       2.943  -1.083  -0.561  1.00  0.00     0.008 C 
HETATM    5  C5  UNL     1       3.905   0.012   0.012  1.00  0.00     0.003 C 
HETATM    6  C6  UNL     1       5.205   0.337  -0.783  1.00  0.00     0.007 C 
HETATM    7  C7  UNL     1       6.182   1.182   0.079  1.00  0.00     0.000 C 
HETATM    8  C8  UNL     1       4.973   1.153  -2.073  1.00  0.00     0.000 C 
HETATM    9  C9  UNL     1       3.133   1.252   0.509  1.00  0.00     0.034 C 
HETATM   10  C10 UNL     1       2.159   0.822   1.596  1.00  0.00     0.161 C 
HETATM   11  C11 UNL     1       1.085  -0.117   1.052  1.00  0.00     0.109 C 
HETATM   12  C12 UNL     1       1.785  -1.374   0.467  1.00  0.00     0.012 C 
HETATM   13  C13 UNL     1       0.744  -2.457   0.083  1.00  0.00     0.001 C 
HETATM   14  C14 UNL     1      -0.584  -1.947  -0.509  1.00  0.00     0.007 C 
HETATM   15  C15 UNL     1      -1.073  -0.661   0.170  1.00  0.00     0.053 C 
HETATM   16  C16 UNL     1       0.019   0.415   0.066  1.00  0.00     0.137 C 
HETATM   17  C19 UNL     1      -1.137  -0.846   1.661  1.00  0.00     0.015 C 
HETATM   18  C20 UNL     1       0.174  -0.485   2.228  1.00  0.00     0.173 C 
HETATM   19  O3  UNL     1       0.454  -0.295   3.405  1.00  0.00    -0.291 OA
HETATM   20  C21 UNL     1      -2.188  -1.260   2.389  1.00  0.00    -0.002 C 
HETATM   21  O4  UNL     1       1.584   1.908   2.278  1.00  0.00    -0.223 OA
HETATM   22  C22 UNL     1       2.395  -0.721  -1.959  1.00  0.00     0.000 C 
HETATM   23  O5  UNL     1       5.313  -2.759  -2.568  1.00  0.00    -0.296 OA
ENDROOT
BRANCH  16  24
HETATM   24  O1  UNL     1      -0.525   1.638   0.479  1.00  0.00    -0.303 OA
BRANCH  24  25
HETATM   25  C17 UNL     1      -0.189   2.768  -0.204  1.00  0.00     0.272 C 
HETATM   26  C18 UNL     1      -0.750   3.990   0.492  1.00  0.00     0.106 C 
HETATM   27  O2  UNL     1       0.476   2.804  -1.214  1.00  0.00    -0.264 OA
ENDBRANCH  24  25
ENDBRANCH  16  24
TORSDOF 2
