REMARK  15 active torsions:
REMARK  status: ('A' for Active; 'I' for Inactive)
REMARK    1  A    between atoms: C3_3  and  C25_31 
REMARK    2  A    between atoms: C4_5  and  C6_7 
REMARK    3  A    between atoms: C6_7  and  O2_8 
REMARK    4  A    between atoms: C6_7  and  C9_12 
REMARK    5  A    between atoms: O2_8  and  C7_9 
REMARK    6  A    between atoms: C9_12  and  C10_13 
REMARK    7  A    between atoms: C10_13  and  C11_14 
REMARK    8  A    between atoms: C11_14  and  C12_16 
REMARK    9  A    between atoms: C13_18  and  C16_21 
REMARK   10  A    between atoms: C16_21  and  C17_22 
REMARK   11  A    between atoms: C17_22  and  C18_23 
REMARK   12  A    between atoms: C18_23  and  C19_24 
REMARK   13  A    between atoms: C25_31  and  C26_32 
REMARK   14  A    between atoms: C26_32  and  C27_33 
REMARK   15  A    between atoms: C27_33  and  C28_34 
ROOT
HETATM    1  C6  UNL     1       0.368   1.336   0.900  1.00  0.00     0.149 C 
ENDROOT
BRANCH   1   2
HETATM    2  C4  UNL     1       0.937   2.086   2.123  1.00  0.00     0.118 C 
HETATM    3  C1  UNL     1       0.752   1.302   3.442  1.00  0.00     0.032 C 
HETATM    4  C2  UNL     1       2.111   1.457   4.128  1.00  0.00     0.035 C 
HETATM    5  C3  UNL     1       2.972   1.390   2.874  1.00  0.00     0.143 C 
HETATM    6  O1  UNL     1       2.322   2.236   1.967  1.00  0.00    -0.357 OA
HETATM    7  C5  UNL     1       0.305   3.473   2.306  1.00  0.00     0.032 C 
BRANCH   5   8
HETATM    8  C25 UNL     1       4.454   1.720   3.040  1.00  0.00     0.152 C 
HETATM    9  O7  UNL     1       4.879   1.179   4.264  1.00  0.00    -0.224 OA
HETATM   10  C32 UNL     1       4.684   3.235   3.118  1.00  0.00     0.035 C 
BRANCH   8  11
HETATM   11  C26 UNL     1       5.351   1.120   1.940  1.00  0.00     0.038 C 
BRANCH  11  12
HETATM   12  C27 UNL     1       5.447  -0.417   1.851  1.00  0.00     0.028 C 
BRANCH  12  13
HETATM   13  C28 UNL     1       4.307  -1.110   1.148  1.00  0.00    -0.035 C 
HETATM   14  C29 UNL     1       4.084  -2.437   1.137  1.00  0.00    -0.048 C 
HETATM   15  C30 UNL     1       2.893  -3.026   0.418  1.00  0.00     0.026 C 
HETATM   16  C31 UNL     1       4.981  -3.449   1.805  1.00  0.00     0.026 C 
ENDBRANCH  12  13
ENDBRANCH  11  12
ENDBRANCH   8  11
ENDBRANCH   5   8
ENDBRANCH   1   2
BRANCH   1  17
HETATM   17  O2  UNL     1      -0.878   0.799   1.269  1.00  0.00    -0.302 OA
BRANCH  17  18
HETATM   18  C7  UNL     1      -1.210  -0.450   0.846  1.00  0.00     0.272 C 
HETATM   19  C8  UNL     1      -2.553  -0.850   1.423  1.00  0.00     0.106 C 
HETATM   20  O3  UNL     1      -0.539  -1.155   0.127  1.00  0.00    -0.264 OA
ENDBRANCH  17  18
ENDBRANCH   1  17
BRANCH   1  21
HETATM   21  C9  UNL     1       0.144   2.125  -0.404  1.00  0.00     0.035 C 
BRANCH  21  22
HETATM   22  C10 UNL     1       1.264   2.966  -1.038  1.00  0.00     0.038 C 
BRANCH  22  23
HETATM   23  C11 UNL     1       2.452   2.303  -1.740  1.00  0.00     0.177 C 
HETATM   24  O4  UNL     1       3.360   1.828  -0.782  1.00  0.00    -0.221 OA
BRANCH  23  25
HETATM   25  C12 UNL     1       2.230   1.233  -2.816  1.00  0.00     0.121 C 
HETATM   26  O5  UNL     1       3.480   0.981  -3.406  1.00  0.00    -0.356 OA
HETATM   27  C13 UNL     1       3.945  -0.264  -2.972  1.00  0.00     0.143 C 
HETATM   28  C14 UNL     1       2.694  -1.127  -2.943  1.00  0.00     0.035 C 
HETATM   29  C15 UNL     1       1.725  -0.125  -2.306  1.00  0.00     0.032 C 
HETATM   30  C24 UNL     1       1.310   1.766  -3.922  1.00  0.00     0.032 C 
BRANCH  27  31
HETATM   31  C16 UNL     1       5.134  -0.747  -3.803  1.00  0.00     0.152 C 
HETATM   32  O6  UNL     1       6.049   0.318  -3.890  1.00  0.00    -0.224 OA
HETATM   33  C23 UNL     1       4.735  -1.112  -5.235  1.00  0.00     0.035 C 
BRANCH  31  34
HETATM   34  C17 UNL     1       5.860  -1.929  -3.133  1.00  0.00     0.038 C 
BRANCH  34  35
HETATM   35  C18 UNL     1       6.620  -1.577  -1.840  1.00  0.00     0.028 C 
BRANCH  35  36
HETATM   36  C19 UNL     1       7.297  -2.762  -1.197  1.00  0.00    -0.035 C 
HETATM   37  C20 UNL     1       8.289  -2.700  -0.291  1.00  0.00    -0.048 C 
HETATM   38  C21 UNL     1       8.881  -3.953   0.311  1.00  0.00     0.026 C 
HETATM   39  C22 UNL     1       8.897  -1.416   0.223  1.00  0.00     0.026 C 
ENDBRANCH  35  36
ENDBRANCH  34  35
ENDBRANCH  31  34
ENDBRANCH  27  31
ENDBRANCH  23  25
ENDBRANCH  22  23
ENDBRANCH  21  22
ENDBRANCH   1  21
TORSDOF 15
