REMARK  7 active torsions:
REMARK  status: ('A' for Active; 'I' for Inactive)
REMARK    1  A    between atoms: C1_1  and  O8_32 
REMARK    2  A    between atoms: C9_9  and  O1_11 
REMARK    3  A    between atoms: O1_11  and  C11_12 
REMARK    4  A    between atoms: C13_15  and  O4_23 
REMARK    5  A    between atoms: C14_16  and  C18_21 
REMARK    6  A    between atoms: O4_23  and  C20_24 
REMARK    7  A    between atoms: O8_32  and  C25_33 
ROOT
HETATM    1  C1  UNL     1      -0.200  -0.113  -1.746  1.00  0.00     0.133 C 
HETATM    2  C2  UNL     1      -0.778  -1.133  -0.820  1.00  0.00     0.195 C 
HETATM    3  C3  UNL     1       0.161  -1.875   0.134  1.00  0.00     0.058 C 
HETATM    4  C4  UNL     1       1.534  -1.157   0.238  1.00  0.00     0.013 C 
HETATM    5  C5  UNL     1       1.506   0.384   0.059  1.00  0.00     0.026 C 
HETATM    6  C6  UNL     1       0.896   0.546  -1.325  1.00  0.00     0.001 C 
HETATM    7  C7  UNL     1       2.953   0.988   0.116  1.00  0.00     0.067 C 
HETATM    8  C8  UNL     1       3.845   0.440   1.256  1.00  0.00     0.180 C 
HETATM    9  C9  UNL     1       3.811  -1.099   1.341  1.00  0.00     0.154 C 
HETATM   10  C10 UNL     1       2.363  -1.589   1.456  1.00  0.00     0.034 C 
HETATM   11  C13 UNL     1       5.284   1.000   1.171  1.00  0.00     0.158 C 
HETATM   12  C14 UNL     1       5.386   2.547   1.176  1.00  0.00     0.049 C 
HETATM   13  C15 UNL     1       4.464   3.073   0.056  1.00  0.00     0.040 C 
HETATM   14  C16 UNL     1       3.034   2.530   0.118  1.00  0.00     0.155 C 
HETATM   15  O3  UNL     1       2.336   3.082  -0.973  1.00  0.00    -0.223 OA
HETATM   16  C17 UNL     1       5.052   3.212   2.529  1.00  0.00     0.007 C 
HETATM   17  O6  UNL     1       3.319   0.865   2.490  1.00  0.00    -0.221 OA
HETATM   18  C22 UNL     1       0.554   1.091   1.048  1.00  0.00     0.005 C 
HETATM   19  C23 UNL     1       0.346  -3.276  -0.504  1.00  0.00     0.008 C 
HETATM   20  C24 UNL     1      -0.546  -2.085   1.492  1.00  0.00     0.008 C 
HETATM   21  O7  UNL     1      -1.942  -1.489  -0.947  1.00  0.00    -0.289 OA
ENDROOT
BRANCH   1  22
HETATM   22  O8  UNL     1      -0.665   0.028  -3.027  1.00  0.00    -0.274 OA
BRANCH  22  23
HETATM   23  C25 UNL     1      -2.012  -0.036  -3.210  1.00  0.00     0.277 C 
HETATM   24  O9  UNL     1      -2.784   0.817  -2.828  1.00  0.00    -0.264 OA
HETATM   25  C26 UNL     1      -2.398  -1.282  -3.986  1.00  0.00     0.107 C 
ENDBRANCH  22  23
ENDBRANCH   1  22
BRANCH   9  26
HETATM   26  O1  UNL     1       4.435  -1.682   0.234  1.00  0.00    -0.302 OA
BRANCH  26  27
HETATM   27  C11 UNL     1       4.691  -3.018   0.242  1.00  0.00     0.272 C 
HETATM   28  C12 UNL     1       5.305  -3.444  -1.077  1.00  0.00     0.106 C 
HETATM   29  O2  UNL     1       4.458  -3.774   1.158  1.00  0.00    -0.264 OA
ENDBRANCH  26  27
ENDBRANCH   9  26
BRANCH  11  30
HETATM   30  O4  UNL     1       5.899   0.568  -0.019  1.00  0.00    -0.301 OA
BRANCH  30  31
HETATM   31  C20 UNL     1       6.980  -0.258   0.033  1.00  0.00     0.272 C 
HETATM   32  C21 UNL     1       7.517  -0.492  -1.365  1.00  0.00     0.106 C 
HETATM   33  O5  UNL     1       7.454  -0.737   1.038  1.00  0.00    -0.264 OA
ENDBRANCH  30  31
ENDBRANCH  11  30
BRANCH  12  34
HETATM   34  C18 UNL     1       6.845   2.937   0.939  1.00  0.00    -0.024 C 
HETATM   35  C19 UNL     1       7.272   4.078   0.377  1.00  0.00    -0.005 C 
ENDBRANCH  12  34
TORSDOF 7
