REMARK  10 active torsions:
REMARK  status: ('A' for Active; 'I' for Inactive)
REMARK    1  A    between atoms: C3_3  and  C24_32 
REMARK    2  A    between atoms: C6_6  and  O1_7 
REMARK    3  A    between atoms: C12_13  and  O2_14 
REMARK    4  A    between atoms: C17_22  and  O7_30 
REMARK    5  A    between atoms: C19_24  and  O5_25 
REMARK    6  A    between atoms: O5_25  and  C20_26 
REMARK    7  A    between atoms: C24_32  and  O8_33 
REMARK    8  A    between atoms: O8_33  and  C25_34 
REMARK    9  A    between atoms: C25_34  and  C26_36 
REMARK   10  A    between atoms: C31_41  and  N2_42 
ROOT
HETATM    1  C1  UNL     1       1.772   0.065  -3.682  1.00  0.00     0.030 C 
HETATM    2  C2  UNL     1       0.874  -0.266  -2.484  1.00  0.00     0.011 C 
HETATM    3  C3  UNL     1       1.652  -0.562  -1.181  1.00  0.00     0.067 C 
HETATM    4  C4  UNL     1       3.005   0.193  -1.206  1.00  0.00     0.042 C 
HETATM    5  C5  UNL     1       3.844  -0.443  -2.363  1.00  0.00     0.051 C 
HETATM    6  C6  UNL     1       3.050  -0.766  -3.658  1.00  0.00     0.117 C 
HETATM    7  C8  UNL     1       5.072   0.409  -2.777  1.00  0.00     0.009 C 
HETATM    8  C9  UNL     1       5.973   0.878  -1.632  1.00  0.00     0.059 C 
HETATM    9  C10 UNL     1       6.264  -0.292  -0.675  1.00  0.00     0.161 C 
HETATM   10  C11 UNL     1       4.930  -0.978  -0.306  1.00  0.00     0.197 C 
HETATM   11  C12 UNL     1       3.780  -0.054   0.116  1.00  0.00     0.148 C 
HETATM   12  C14 UNL     1       4.287  -1.657  -1.535  1.00  0.00     0.138 C 
HETATM   13  N1  UNL     1       3.171  -2.561  -1.150  1.00  0.00    -0.273 NA
HETATM   14  C15 UNL     1       2.024  -2.035  -1.071  1.00  0.00     0.069 C 
HETATM   15  O3  UNL     1       5.151  -1.963   0.667  1.00  0.00    -0.219 OA
HETATM   16  O4  UNL     1       6.840   0.277   0.476  1.00  0.00    -0.223 OA
HETATM   17  C16 UNL     1       7.303  -1.320  -1.178  1.00  0.00     0.063 C 
HETATM   18  C17 UNL     1       8.166  -0.924  -2.384  1.00  0.00     0.120 C 
HETATM   19  C18 UNL     1       7.513   0.186  -3.217  1.00  0.00     0.055 C 
HETATM   20  C19 UNL     1       7.204   1.407  -2.358  1.00  0.00     0.129 C 
HETATM   21  C22 UNL     1       6.110  -0.223  -3.739  1.00  0.00     0.005 C 
ENDROOT
BRANCH   3  22
HETATM   22  C24 UNL     1       0.714  -0.278   0.012  1.00  0.00     0.158 C 
BRANCH  22  23
HETATM   23  O8  UNL     1       0.846   1.036   0.485  1.00  0.00    -0.298 OA
BRANCH  23  24
HETATM   24  C25 UNL     1       0.139   1.366   1.613  1.00  0.00     0.297 C 
HETATM   25  O9  UNL     1       0.396   2.410   2.208  1.00  0.00    -0.259 OA
BRANCH  24  26
HETATM   26  C26 UNL     1      -1.033   0.586   2.162  1.00  0.00     0.079 A 
HETATM   27  C27 UNL     1      -2.121   0.391   1.303  1.00  0.00     0.007 A 
HETATM   28  C28 UNL     1      -3.277  -0.251   1.746  1.00  0.00     0.000 A 
HETATM   29  C29 UNL     1      -3.364  -0.659   3.075  1.00  0.00     0.002 A 
HETATM   30  C30 UNL     1      -2.301  -0.418   3.948  1.00  0.00     0.018 A 
HETATM   31  C31 UNL     1      -1.119   0.203   3.516  1.00  0.00     0.074 A 
BRANCH  31  32
HETATM   32  N2  UNL     1      -0.029   0.371   4.462  1.00  0.00    -0.249 N 
HETATM   33  C32 UNL     1       1.319   0.266   4.150  1.00  0.00     0.244 C 
HETATM   34  C33 UNL     1       2.199   0.728   5.295  1.00  0.00     0.098 C 
HETATM   35  O11 UNL     1       1.737  -0.270   3.130  1.00  0.00    -0.272 OA
HETATM   36  C34 UNL     1       1.235   0.680   6.497  1.00  0.00     0.089 C 
HETATM   37  C35 UNL     1      -0.134   0.566   5.838  1.00  0.00     0.243 C 
HETATM   38  C36 UNL     1       1.502  -0.505   7.432  1.00  0.00     0.010 C 
HETATM   39  O10 UNL     1      -1.186   0.660   6.461  1.00  0.00    -0.272 OA
ENDBRANCH  31  32
ENDBRANCH  24  26
ENDBRANCH  23  24
ENDBRANCH  22  23
ENDBRANCH   3  22
BRANCH  11  40
HETATM   40  O2  UNL     1       4.159   1.161   0.698  1.00  0.00    -0.351 OA
HETATM   41  C13 UNL     1       4.484   1.084   2.069  1.00  0.00     0.174 C 
ENDBRANCH  11  40
BRANCH   6  42
HETATM   42  O1  UNL     1       2.787  -2.139  -3.765  1.00  0.00    -0.354 OA
HETATM   43  C7  UNL     1       2.422  -2.573  -5.056  1.00  0.00     0.174 C 
ENDBRANCH   6  42
BRANCH  20  44
HETATM   44  O5  UNL     1       8.228   1.761  -1.483  1.00  0.00    -0.304 OA
BRANCH  44  45
HETATM   45  C20 UNL     1       8.137   2.973  -0.872  1.00  0.00     0.272 C 
HETATM   46  C21 UNL     1       9.260   3.133   0.131  1.00  0.00     0.106 C 
HETATM   47  O6  UNL     1       7.275   3.797  -1.080  1.00  0.00    -0.264 OA
ENDBRANCH  44  45
ENDBRANCH  20  44
BRANCH  18  48
HETATM   48  O7  UNL     1       9.439  -0.500  -1.968  1.00  0.00    -0.354 OA
HETATM   49  C23 UNL     1      10.354  -1.558  -1.774  1.00  0.00     0.174 C 
ENDBRANCH  18  48
TORSDOF 10
