REMARK  6 active torsions:
REMARK  status: ('A' for Active; 'I' for Inactive)
REMARK    1  A    between atoms: C2_2  and  O4_24 
REMARK    2  A    between atoms: C3_3  and  C19_21 
REMARK    3  A    between atoms: C7_7  and  C12_12 
REMARK    4  A    between atoms: C12_12  and  C13_13 
REMARK    5  A    between atoms: C13_13  and  C14_14 
REMARK    6  A    between atoms: O4_24  and  S1_25 
ROOT
HETATM    1  C1  UNL     1       0.987   2.168   1.111  1.00  0.00     0.031 C 
HETATM    2  C2  UNL     1      -0.529   2.365   1.182  1.00  0.00     0.140 C 
HETATM    3  C3  UNL     1      -1.270   1.698  -0.005  1.00  0.00     0.057 C 
HETATM    4  C4  UNL     1      -0.807   0.201  -0.117  1.00  0.00     0.005 C 
HETATM    5  C5  UNL     1       0.722  -0.110  -0.092  1.00  0.00     0.004 C 
HETATM    6  C6  UNL     1       1.350   0.680   1.084  1.00  0.00     0.003 C 
HETATM    7  C7  UNL     1       0.938  -1.645   0.188  1.00  0.00     0.019 C 
HETATM    8  C8  UNL     1      -0.288  -2.462  -0.184  1.00  0.00    -0.044 C 
HETATM    9  C9  UNL     1      -0.991  -2.019  -1.433  1.00  0.00     0.022 C 
HETATM   10  C10 UNL     1      -1.564  -0.616  -1.194  1.00  0.00     0.004 C 
HETATM   11  C11 UNL     1      -0.709  -3.511   0.539  1.00  0.00    -0.009 C 
HETATM   12  C18 UNL     1       1.398   0.321  -1.412  1.00  0.00     0.000 C 
HETATM   13  C20 UNL     1      -2.788   1.698   0.332  1.00  0.00     0.005 C 
ENDROOT
BRANCH   7  14
HETATM   14  C12 UNL     1       2.171  -2.337  -0.441  1.00  0.00     0.009 C 
BRANCH  14  15
HETATM   15  C13 UNL     1       3.517  -1.981   0.212  1.00  0.00     0.032 C 
BRANCH  15  16
HETATM   16  C14 UNL     1       4.687  -2.705  -0.384  1.00  0.00     0.039 A 
HETATM   17  C15 UNL     1       5.908  -3.172   0.304  1.00  0.00     0.292 A 
HETATM   18  O1  UNL     1       6.812  -3.769  -0.526  1.00  0.00    -0.294 OA
HETATM   19  O2  UNL     1       6.091  -3.038   1.508  1.00  0.00    -0.260 OA
HETATM   20  C16 UNL     1       6.236  -3.720  -1.827  1.00  0.00     0.178 A 
HETATM   21  C17 UNL     1       4.901  -3.039  -1.666  1.00  0.00     0.007 A 
ENDBRANCH  15  16
ENDBRANCH  14  15
ENDBRANCH   7  14
BRANCH   3  22
HETATM   22  C19 UNL     1      -1.070   2.521  -1.298  1.00  0.00     0.185 C 
HETATM   23  O3  UNL     1      -1.935   3.639  -1.366  1.00  0.00    -0.221 OA
ENDBRANCH   3  22
BRANCH   2  24
HETATM   24  O4  UNL     1      -0.812   3.736   1.219  1.00  0.00    -0.240 OA
BRANCH  24  25
HETATM   25  S1  UNL     1      -1.046   4.465   2.699  1.00  0.00     0.252 S 
HETATM   26  O5  UNL     1      -1.376   6.076   2.457  1.00  0.00    -0.572 OA
HETATM   27  O6  UNL     1      -2.301   4.020   3.282  1.00  0.00    -0.572 OA
HETATM   28  O7  UNL     1       0.123   4.297   3.542  1.00  0.00    -0.572 OA
ENDBRANCH  24  25
ENDBRANCH   2  24
TORSDOF 6
