REMARK  5 active torsions:
REMARK  status: ('A' for Active; 'I' for Inactive)
REMARK    1  A    between atoms: C8_8  and  C19_20 
REMARK    2  A    between atoms: C11_11  and  C12_12 
REMARK    3  A    between atoms: C12_12  and  C13_13 
REMARK    4  A    between atoms: C13_13  and  C14_14 
REMARK    5  A    between atoms: C14_14  and  C15_15 
ROOT
HETATM    1  C1  UNL     1      -1.578   0.191  -0.228  1.00  0.00    -0.031 C 
HETATM    2  C2  UNL     1      -1.327  -0.252  -1.469  1.00  0.00    -0.028 C 
HETATM    3  C3  UNL     1      -1.864   0.428  -2.701  1.00  0.00     0.055 C 
HETATM    4  C4  UNL     1      -0.950   1.622  -2.955  1.00  0.00     0.122 A 
HETATM    5  C5  UNL     1       0.433   1.294  -3.183  1.00  0.00     0.141 A 
HETATM    6  C6  UNL     1       1.567   2.235  -2.803  1.00  0.00     0.036 C 
HETATM    7  C7  UNL     1       2.115   2.016  -1.377  1.00  0.00     0.027 C 
HETATM    8  C8  UNL     1       1.251   2.558  -0.251  1.00  0.00    -0.016 C 
HETATM    9  C9  UNL     1       0.643   1.818   0.698  1.00  0.00    -0.032 C 
HETATM   10  C10 UNL     1       0.611   0.315   0.875  1.00  0.00     0.029 C 
HETATM   11  C11 UNL     1      -0.822  -0.268   1.009  1.00  0.00     0.022 C 
HETATM   12  C18 UNL     1      -1.554   0.271   2.257  1.00  0.00     0.005 C 
HETATM   13  O3  UNL     1      -0.217   1.663  -4.376  1.00  0.00    -0.356 OA
HETATM   14  C20 UNL     1      -1.430   2.993  -2.518  1.00  0.00     0.033 C 
ENDROOT
BRANCH  11  15
HETATM   15  C12 UNL     1      -0.769  -1.818   1.061  1.00  0.00     0.007 C 
BRANCH  15  16
HETATM   16  C13 UNL     1      -0.358  -2.431   2.412  1.00  0.00     0.038 C 
BRANCH  16  17
HETATM   17  C14 UNL     1      -0.036  -3.922   2.304  1.00  0.00     0.171 C 
HETATM   18  O1  UNL     1       0.130  -4.466   3.601  1.00  0.00    -0.219 OA
BRANCH  17  19
HETATM   19  C15 UNL     1       1.208  -4.239   1.502  1.00  0.00    -0.014 C 
HETATM   20  C16 UNL     1       1.187  -5.134   0.501  1.00  0.00    -0.007 C 
HETATM   21  C17 UNL     1       2.487  -3.539   1.896  1.00  0.00     0.029 C 
ENDBRANCH  17  19
ENDBRANCH  16  17
ENDBRANCH  15  16
ENDBRANCH  11  15
BRANCH   8  22
HETATM   22  C19 UNL     1       1.208   4.075  -0.193  1.00  0.00     0.204 C 
HETATM   23  O2  UNL     1       0.270   4.598   0.738  1.00  0.00    -0.216 OA
ENDBRANCH   8  22
TORSDOF 5
