REMARK  1 active torsions:
REMARK  status: ('A' for Active; 'I' for Inactive)
REMARK    1  A    between atoms: C2_2  and  C15_15 
ROOT
HETATM    1  C1  UNL     1      -1.584   0.221  -0.888  1.00  0.00    -0.033 A 
HETATM    2  C2  UNL     1      -0.594   1.349  -0.763  1.00  0.00     0.049 A 
HETATM    3  C3  UNL     1       0.517   0.694   0.148  1.00  0.00     0.009 A 
HETATM    4  C4  UNL     1       0.059  -0.766   0.531  1.00  0.00     0.015 A 
HETATM    5  C5  UNL     1      -1.267  -0.874  -0.191  1.00  0.00    -0.049 A 
HETATM    6  C6  UNL     1      -2.143  -2.095  -0.112  1.00  0.00     0.026 C 
HETATM    7  C7  UNL     1       1.093  -1.769  -0.045  1.00  0.00     0.003 C 
HETATM    8  C8  UNL     1       1.842  -0.960  -1.113  1.00  0.00     0.000 C 
HETATM    9  C9  UNL     1       1.881   0.463  -0.542  1.00  0.00     0.001 C 
HETATM   10  C10 UNL     1       2.100  -2.394   0.936  1.00  0.00     0.000 C 
HETATM   11  C11 UNL     1      -0.127  -0.795   2.062  1.00  0.00     0.004 C 
HETATM   12  C12 UNL     1      -0.306   0.668   2.472  1.00  0.00     0.000 C 
HETATM   13  C13 UNL     1       0.677   1.378   1.530  1.00  0.00     0.001 C 
HETATM   14  C14 UNL     1      -1.358   2.545  -0.140  1.00  0.00     0.007 C 
ENDROOT
BRANCH   2  15
HETATM   15  C15 UNL     1      -0.198   1.856  -2.162  1.00  0.00     0.186 C 
HETATM   16  O1  UNL     1       0.177   0.822  -3.045  1.00  0.00    -0.220 OA
ENDBRANCH   2  15
TORSDOF 1
