REMARK  5 active torsions:
REMARK  status: ('A' for Active; 'I' for Inactive)
REMARK    1  A    between atoms: C2_2  and  O7_25 
REMARK    2  A    between atoms: C3_3  and  O6_23 
REMARK    3  A    between atoms: C8_9  and  C10_11 
REMARK    4  A    between atoms: C13_14  and  O4_20 
REMARK    5  A    between atoms: C14_15  and  O3_18 
ROOT
HETATM    1  C1  UNL     1       3.713   1.795   0.264  1.00  0.00     0.050 A 
HETATM    2  C2  UNL     1       4.756   0.842   0.199  1.00  0.00     0.118 A 
HETATM    3  C3  UNL     1       4.449  -0.535   0.092  1.00  0.00     0.116 A 
HETATM    4  C4  UNL     1       3.102  -0.959   0.047  1.00  0.00     0.024 A 
HETATM    5  C5  UNL     1       2.053  -0.010   0.109  1.00  0.00     0.003 A 
HETATM    6  C6  UNL     1       2.361   1.377   0.223  1.00  0.00     0.092 A 
HETATM    7  O1  UNL     1       1.389   2.314   0.285  1.00  0.00    -0.331 OA
HETATM    8  C7  UNL     1       0.022   1.941   0.494  1.00  0.00     0.153 C 
HETATM    9  C8  UNL     1      -0.324   0.688  -0.322  1.00  0.00     0.060 C 
HETATM   10  C9  UNL     1       0.639  -0.455   0.059  1.00  0.00     0.035 C 
ENDROOT
BRANCH   9  11
HETATM   11  C10 UNL     1      -1.764   0.281  -0.133  1.00  0.00     0.025 A 
HETATM   12  C11 UNL     1      -2.295   0.250   1.103  1.00  0.00     0.043 A 
HETATM   13  C12 UNL     1      -3.701  -0.143   1.311  1.00  0.00     0.220 A 
HETATM   14  C13 UNL     1      -4.529  -0.516   0.143  1.00  0.00     0.158 A 
HETATM   15  O5  UNL     1      -4.170  -0.158   2.426  1.00  0.00    -0.284 OA
HETATM   16  C14 UNL     1      -4.002  -0.486  -1.102  1.00  0.00     0.158 A 
HETATM   17  C15 UNL     1      -2.592  -0.082  -1.303  1.00  0.00     0.216 A 
HETATM   18  O2  UNL     1      -2.125  -0.051  -2.418  1.00  0.00    -0.285 OA
BRANCH  14  19
HETATM   19  O4  UNL     1      -5.797  -0.881   0.322  1.00  0.00    -0.323 OA
HETATM   20  C17 UNL     1      -5.914  -2.061   1.103  1.00  0.00     0.182 C 
ENDBRANCH  14  19
BRANCH  16  21
HETATM   21  O3  UNL     1      -4.750  -0.820  -2.150  1.00  0.00    -0.323 OA
HETATM   22  C16 UNL     1      -5.883   0.023  -2.297  1.00  0.00     0.182 C 
ENDBRANCH  16  21
ENDBRANCH   9  11
BRANCH   3  23
HETATM   23  O6  UNL     1       5.436  -1.441   0.033  1.00  0.00    -0.326 OA
HETATM   24  C18 UNL     1       5.078  -2.813  -0.066  1.00  0.00     0.181 C 
ENDBRANCH   3  23
BRANCH   2  25
HETATM   25  O7  UNL     1       6.033   1.246   0.242  1.00  0.00    -0.326 OA
HETATM   26  C19 UNL     1       6.287   2.639   0.350  1.00  0.00     0.181 C 
ENDBRANCH   2  25
TORSDOF 5
