REMARK  0 active torsions:
REMARK  status: ('A' for Active; 'I' for Inactive)
ROOT
HETATM    1  C1  UNL     1      -1.945  -2.232  -2.814  1.00  0.00     0.033 C 
HETATM    2  C2  UNL     1      -2.851  -3.296  -2.205  1.00  0.00     0.153 C 
HETATM    3  C3  UNL     1      -2.082  -4.217  -1.253  1.00  0.00     0.040 C 
HETATM    4  C4  UNL     1      -0.762  -3.597  -0.755  1.00  0.00     0.060 C 
HETATM    5  C5  UNL     1      -0.890  -2.084  -0.443  1.00  0.00     0.007 C 
HETATM    6  C6  UNL     1      -1.319  -1.333  -1.731  1.00  0.00     0.003 C 
HETATM    7  C7  UNL     1       0.508  -1.590   0.013  1.00  0.00     0.001 C 
HETATM    8  C8  UNL     1       1.061  -2.351   1.223  1.00  0.00     0.007 C 
HETATM    9  C9  UNL     1       1.202  -3.842   0.915  1.00  0.00     0.065 C 
HETATM   10  C10 UNL     1      -0.122  -4.378   0.392  1.00  0.00     0.150 C 
HETATM   11  O1  UNL     1      -0.603  -5.398   0.829  1.00  0.00    -0.296 OA
HETATM   12  C11 UNL     1       2.318  -1.561   1.627  1.00  0.00     0.001 C 
HETATM   13  C12 UNL     1       1.944  -0.092   1.319  1.00  0.00     0.002 C 
HETATM   14  C13 UNL     1       0.688  -0.119   0.418  1.00  0.00     0.000 C 
HETATM   15  C14 UNL     1       3.095   0.734   0.711  1.00  0.00     0.033 C 
HETATM   16  C15 UNL     1       4.419   0.425   1.423  1.00  0.00     0.004 C 
HETATM   17  C16 UNL     1       4.781  -1.076   1.373  1.00  0.00     0.000 C 
HETATM   18  C17 UNL     1       3.616  -1.970   0.921  1.00  0.00     0.000 C 
HETATM   19  C18 UNL     1       5.530   1.288   0.802  1.00  0.00     0.033 C 
HETATM   20  C19 UNL     1       5.154   2.780   0.688  1.00  0.00     0.219 C 
HETATM   21  N1  UNL     1       3.856   3.057   1.286  1.00  0.00     0.135 N 
HETATM   22  C20 UNL     1       2.784   2.247   0.724  1.00  0.00     0.250 C 
HETATM   23  C21 UNL     1       3.552   4.484   1.241  1.00  0.00     0.250 C 
HETATM   24  C22 UNL     1       3.594   5.103  -0.169  1.00  0.00     0.033 C 
HETATM   25  C23 UNL     1       4.944   4.793  -0.834  1.00  0.00     0.004 C 
HETATM   26  C24 UNL     1       5.249   3.292  -0.762  1.00  0.00     0.033 C 
HETATM   27  C25 UNL     1       3.346   6.620  -0.118  1.00  0.00     0.002 C 
HETATM   28  C26 UNL     1      -1.959  -1.878   0.657  1.00  0.00     0.000 C 
HETATM   29  O2  UNL     1      -3.439  -4.061  -3.232  1.00  0.00    -0.223 OA
ENDROOT
TORSDOF 0
