REMARK  2 active torsions:
REMARK  status: ('A' for Active; 'I' for Inactive)
REMARK    1  A    between atoms: C10_13  and  C11_14 
REMARK    2  A    between atoms: C11_14  and  C12_15 
ROOT
HETATM    1  C1  UNL     1      -2.302   1.847   0.367  1.00  0.00     0.028 A 
HETATM    2  C2  UNL     1      -1.950   3.114  -0.092  1.00  0.00     0.002 A 
HETATM    3  C3  UNL     1      -0.605   3.417  -0.294  1.00  0.00     0.003 A 
HETATM    4  C4  UNL     1       0.362   2.431  -0.066  1.00  0.00     0.041 A 
HETATM    5  C5  UNL     1       0.001   1.125   0.322  1.00  0.00     0.050 A 
HETATM    6  C6  UNL     1      -1.352   0.837   0.571  1.00  0.00     0.133 A 
HETATM    7  O1  UNL     1      -1.772  -0.334   1.117  1.00  0.00    -0.190 OA
HETATM    8  C7  UNL     1       1.128   0.189   0.556  1.00  0.00     0.092 C 
HETATM    9  O2  UNL     1       2.296   0.728   1.026  1.00  0.00    -0.323 OA
HETATM   10  C8  UNL     1       2.813   1.716   0.160  1.00  0.00     0.217 C 
HETATM   11  C9  UNL     1       1.795   2.779  -0.221  1.00  0.00     0.203 C 
HETATM   12  O3  UNL     1       2.173   3.874  -0.623  1.00  0.00    -0.289 OA
HETATM   13  C10 UNL     1       1.097  -1.139   0.300  1.00  0.00    -0.002 C 
ENDROOT
BRANCH  13  14
HETATM   14  C11 UNL     1       0.023  -1.961  -0.365  1.00  0.00     0.028 C 
BRANCH  14  15
HETATM   15  C12 UNL     1       0.589  -3.049  -1.297  1.00  0.00     0.005 C 
HETATM   16  C13 UNL     1       1.243  -4.220  -0.549  1.00  0.00     0.000 C 
ENDBRANCH  14  15
ENDBRANCH  13  14
TORSDOF 2
