REMARK  10 active torsions:
REMARK  status: ('A' for Active; 'I' for Inactive)
REMARK    1  A    between atoms: C1_1  and  C2_2 
REMARK    2  A    between atoms: C2_2  and  C3_3 
REMARK    3  A    between atoms: C3_3  and  C4_4 
REMARK    4  A    between atoms: C5_5  and  C6_6 
REMARK    5  A    between atoms: C7_7  and  C8_8 
REMARK    6  A    between atoms: C9_9  and  C10_10 
REMARK    7  A    between atoms: C11_11  and  C12_12 
REMARK    8  A    between atoms: C13_13  and  C14_14 
REMARK    9  A    between atoms: C14_14  and  C15_15 
REMARK   10  A    between atoms: C15_15  and  C16_16 
ROOT
HETATM    1  C8  UNL     1       5.724  -2.741   0.000  1.00  0.00     0.050 C 
HETATM    2  C9  UNL     1       5.678  -1.395   0.000  1.00  0.00     0.009 C 
ENDROOT
BRANCH   1   3
HETATM    3  C7  UNL     1       4.469  -3.518   0.000  1.00  0.00    -0.050 C 
HETATM    4  C6  UNL     1       3.423  -4.131   0.001  1.00  0.00    -0.009 C 
BRANCH   4   5
HETATM    5  C5  UNL     1       2.156  -4.837   0.001  1.00  0.00    -0.014 C 
HETATM    6  C4  UNL     1       1.085  -5.405   0.001  1.00  0.00    -0.078 C 
BRANCH   6   7
HETATM    7  C3  UNL     1      -0.252  -6.024   0.001  1.00  0.00     0.080 C 
BRANCH   7   8
HETATM    8  C2  UNL     1      -1.341  -4.942  -0.004  1.00  0.00     0.050 C 
BRANCH   8   9
HETATM    9  C1  UNL     1      -2.741  -5.549  -0.002  1.00  0.00     0.183 C 
HETATM   10  O1  UNL     1      -3.704  -4.513  -0.009  1.00  0.00    -0.221 OA
ENDBRANCH   8   9
ENDBRANCH   7   8
ENDBRANCH   6   7
ENDBRANCH   4   5
ENDBRANCH   1   3
BRANCH   2  11
HETATM   11  C10 UNL     1       6.890  -0.572  -0.000  1.00  0.00     0.001 C 
HETATM   12  C11 UNL     1       6.838   0.781  -0.000  1.00  0.00    -0.000 C 
BRANCH  12  13
HETATM   13  C12 UNL     1       8.055   1.597  -0.000  1.00  0.00    -0.005 C 
HETATM   14  C13 UNL     1       8.024   2.946   0.000  1.00  0.00    -0.026 C 
BRANCH  14  15
HETATM   15  C14 UNL     1       9.280   3.780   0.000  1.00  0.00     0.026 C 
BRANCH  15  16
HETATM   16  C15 UNL     1       9.005   5.292  -0.000  1.00  0.00     0.005 C 
BRANCH  16  17
HETATM   17  C16 UNL     1      10.311   6.103   0.000  1.00  0.00     0.000 C 
HETATM   18  C17 UNL     1      10.050   7.615  -0.000  1.00  0.00     0.000 C 
ENDBRANCH  16  17
ENDBRANCH  15  16
ENDBRANCH  14  15
ENDBRANCH  12  13
ENDBRANCH   2  11
TORSDOF 10
