REMARK  11 active torsions:
REMARK  status: ('A' for Active; 'I' for Inactive)
REMARK    1  A    between atoms: C2_2  and  O6_39 
REMARK    2  A    between atoms: C15_15  and  C16_16 
REMARK    3  A    between atoms: C16_16  and  C17_17 
REMARK    4  A    between atoms: C16_16  and  C24_25 
REMARK    5  A    between atoms: C17_17  and  C18_18 
REMARK    6  A    between atoms: C18_18  and  C19_19 
REMARK    7  A    between atoms: C19_19  and  C20_20 
REMARK    8  A    between atoms: C19_19  and  C23_23 
REMARK    9  A    between atoms: C25_28  and  O4_30 
REMARK   10  A    between atoms: O4_30  and  C27_31 
REMARK   11  A    between atoms: O6_39  and  C34_40 
ROOT
HETATM    1  C1  UNL     1       5.832   1.547   0.584  1.00  0.00     0.030 C 
HETATM    2  C2  UNL     1       6.477   0.229   0.145  1.00  0.00     0.124 C 
HETATM    3  C3  UNL     1       5.838  -1.006   0.818  1.00  0.00     0.026 C 
HETATM    4  C4  UNL     1       4.301  -0.971   0.594  1.00  0.00     0.006 C 
HETATM    5  C5  UNL     1       3.621   0.350   1.061  1.00  0.00     0.015 C 
HETATM    6  C6  UNL     1       4.314   1.537   0.352  1.00  0.00     0.006 C 
HETATM    7  C7  UNL     1       2.115   0.320   0.797  1.00  0.00    -0.053 C 
HETATM    8  C8  UNL     1       1.430  -0.848   0.680  1.00  0.00    -0.053 C 
HETATM    9  C9  UNL     1       2.113  -2.201   0.680  1.00  0.00     0.021 C 
HETATM   10  C10 UNL     1       3.557  -2.176   1.190  1.00  0.00     0.005 C 
HETATM   11  C11 UNL     1      -0.080  -0.832   0.553  1.00  0.00     0.017 C 
HETATM   12  C12 UNL     1      -0.582   0.414  -0.199  1.00  0.00     0.006 C 
HETATM   13  C13 UNL     1      -0.147   1.623   0.631  1.00  0.00     0.005 C 
HETATM   14  C14 UNL     1       1.396   1.662   0.680  1.00  0.00     0.021 C 
HETATM   15  C15 UNL     1      -2.088   0.131  -0.277  1.00  0.00     0.038 C 
HETATM   16  C25 UNL     1      -2.127  -1.365  -0.629  1.00  0.00     0.125 C 
HETATM   17  C26 UNL     1      -0.744  -1.938  -0.277  1.00  0.00     0.034 C 
HETATM   18  C29 UNL     1      -0.016   0.496  -1.627  1.00  0.00     0.000 C 
HETATM   19  C30 UNL     1      -0.652  -0.971   1.971  1.00  0.00     0.004 C 
HETATM   20  C31 UNL     1       3.752   0.533   2.580  1.00  0.00     0.004 C 
HETATM   21  C32 UNL     1       6.180  -1.039   2.313  1.00  0.00     0.002 C 
HETATM   22  C33 UNL     1       6.428  -2.270   0.178  1.00  0.00     0.002 C 
ENDROOT
BRANCH  15  23
HETATM   23  C16 UNL     1      -2.844   0.996  -1.283  1.00  0.00     0.090 C 
BRANCH  23  24
HETATM   24  C17 UNL     1      -4.270   0.486  -1.070  1.00  0.00     0.011 C 
BRANCH  24  25
HETATM   25  C18 UNL     1      -5.305   1.283  -1.865  1.00  0.00     0.003 C 
BRANCH  25  26
HETATM   26  C19 UNL     1      -6.723   0.736  -1.699  1.00  0.00     0.033 C 
BRANCH  26  27
HETATM   27  C20 UNL     1      -7.545   1.525  -0.682  1.00  0.00     0.003 C 
HETATM   28  C21 UNL     1      -8.957   0.967  -0.500  1.00  0.00     0.000 C 
HETATM   29  C22 UNL     1      -6.811   1.719   0.647  1.00  0.00     0.000 C 
ENDBRANCH  26  27
BRANCH  26  30
HETATM   30  C23 UNL     1      -7.449   0.561  -3.035  1.00  0.00     0.182 C 
HETATM   31  O1  UNL     1      -8.256  -0.592  -2.951  1.00  0.00    -0.221 OA
ENDBRANCH  26  30
ENDBRANCH  25  26
ENDBRANCH  24  25
ENDBRANCH  23  24
BRANCH  23  32
HETATM   32  C24 UNL     1      -2.711   2.467  -0.990  1.00  0.00     0.185 C 
HETATM   33  O2  UNL     1      -2.106   3.180  -1.935  1.00  0.00    -0.647 OA
HETATM   34  O3  UNL     1      -3.133   2.938   0.041  1.00  0.00    -0.647 OA
ENDBRANCH  23  32
ENDBRANCH  15  23
BRANCH  16  35
HETATM   35  O4  UNL     1      -3.135  -2.014   0.137  1.00  0.00    -0.304 OA
BRANCH  35  36
HETATM   36  C27 UNL     1      -3.344  -3.266  -0.258  1.00  0.00     0.272 C 
HETATM   37  C28 UNL     1      -4.360  -4.031   0.547  1.00  0.00     0.106 C 
HETATM   38  O5  UNL     1      -2.774  -3.781  -1.191  1.00  0.00    -0.264 OA
ENDBRANCH  35  36
ENDBRANCH  16  35
BRANCH   2  39
HETATM   39  O6  UNL     1       7.869   0.273   0.430  1.00  0.00    -0.304 OA
BRANCH  39  40
HETATM   40  C34 UNL     1       8.529   1.080  -0.396  1.00  0.00     0.272 C 
HETATM   41  O7  UNL     1       8.027   1.621  -1.353  1.00  0.00    -0.264 OA
HETATM   42  C35 UNL     1       9.981   1.291  -0.060  1.00  0.00     0.106 C 
ENDBRANCH  39  40
ENDBRANCH   2  39
TORSDOF 11
