REMARK  3 active torsions:
REMARK  status: ('A' for Active; 'I' for Inactive)
REMARK    1  A    between atoms: C7_7  and  C10_11 
REMARK    2  A    between atoms: C10_11  and  C11_12 
REMARK    3  A    between atoms: C13_15  and  C18_20 
ROOT
HETATM    1  C10 UNL     1      -0.581  -1.161   0.289  1.00  0.00     0.206 C 
HETATM    2  O1  UNL     1      -0.512  -1.911   1.491  1.00  0.00    -0.216 OA
ENDROOT
BRANCH   1   3
HETATM    3  C7  UNL     1       0.768  -1.312  -0.388  1.00  0.00     0.013 A 
HETATM    4  C5  UNL     1       1.211  -2.589  -0.873  1.00  0.00     0.016 A 
HETATM    5  C4  UNL     1       2.489  -2.699  -1.463  1.00  0.00     0.081 A 
HETATM    6  C6  UNL     1       0.416  -3.776  -0.782  1.00  0.00     0.001 A 
HETATM    7  C3  UNL     1       2.955  -3.961  -1.943  1.00  0.00     0.019 A 
HETATM    8  N1  UNL     1       3.329  -1.621  -1.592  1.00  0.00    -0.244 NA
HETATM    9  C2  UNL     1       2.170  -5.082  -1.832  1.00  0.00     0.002 A 
HETATM   10  C1  UNL     1       0.883  -4.985  -1.243  1.00  0.00     0.000 A 
HETATM   11  C9  UNL     1       2.920  -0.469  -1.123  1.00  0.00     0.099 A 
HETATM   12  C8  UNL     1       1.658  -0.266  -0.505  1.00  0.00     0.019 A 
ENDBRANCH   1   3
BRANCH   1  13
HETATM   13  C11 UNL     1      -1.076   0.254   0.627  1.00  0.00     0.254 C 
HETATM   14  N2  UNL     1      -1.110   1.156  -0.526  1.00  0.00     0.138 N 
HETATM   15  C12 UNL     1      -1.323   2.524  -0.062  1.00  0.00     0.250 C 
HETATM   16  C17 UNL     1      -2.162   0.800  -1.470  1.00  0.00     0.250 C 
HETATM   17  C13 UNL     1      -2.664   2.667   0.686  1.00  0.00     0.034 C 
HETATM   18  C14 UNL     1      -3.361   1.292   0.661  1.00  0.00     0.006 C 
HETATM   19  C15 UNL     1      -2.461   0.228   1.310  1.00  0.00     0.036 C 
HETATM   20  C16 UNL     1      -3.549   0.881  -0.810  1.00  0.00     0.035 C 
BRANCH  17  21
HETATM   21  C18 UNL     1      -2.512   3.234   2.110  1.00  0.00     0.002 C 
HETATM   22  C19 UNL     1      -2.087   4.709   2.128  1.00  0.00     0.000 C 
ENDBRANCH  17  21
ENDBRANCH   1  13
TORSDOF 3
