REMARK  1 active torsions:
REMARK  status: ('A' for Active; 'I' for Inactive)
REMARK    1  A    between atoms: C9_10  and  C10_11 
ROOT
HETATM    1  C1  UNL     1      -0.369  -2.729  -0.904  1.00  0.00     0.002 A 
HETATM    2  C2  UNL     1      -1.758  -2.553  -0.673  1.00  0.00     0.000 A 
HETATM    3  C3  UNL     1      -2.248  -1.340  -0.248  1.00  0.00     0.002 A 
HETATM    4  C4  UNL     1      -1.388  -0.216  -0.027  1.00  0.00     0.024 A 
HETATM    5  C5  UNL     1      -0.005  -0.409  -0.264  1.00  0.00     0.082 A 
HETATM    6  C6  UNL     1       0.488  -1.677  -0.701  1.00  0.00     0.019 A 
HETATM    7  N1  UNL     1       0.921   0.587  -0.095  1.00  0.00    -0.244 NA
HETATM    8  C7  UNL     1       0.501   1.762   0.302  1.00  0.00     0.099 A 
HETATM    9  C8  UNL     1      -0.859   2.063   0.567  1.00  0.00     0.027 A 
HETATM   10  C9  UNL     1      -1.819   1.081   0.410  1.00  0.00     0.067 A 
ENDROOT
BRANCH  10  11
HETATM   11  C10 UNL     1      -3.235   1.457   0.706  1.00  0.00     0.211 C 
HETATM   12  O1  UNL     1      -3.575   2.704   1.101  1.00  0.00    -0.644 OA
HETATM   13  O2  UNL     1      -4.166   0.670   0.619  1.00  0.00    -0.644 OA
ENDBRANCH  10  11
TORSDOF 1
