REMARK  8 active torsions:
REMARK  status: ('A' for Active; 'I' for Inactive)
REMARK    1  A    between atoms: C11_12  and  O4_18 
REMARK    2  A    between atoms: C12_13  and  O2_14 
REMARK    3  A    between atoms: O2_14  and  C13_15 
REMARK    4  A    between atoms: O4_18  and  C15_19 
REMARK    5  A    between atoms: C19_24  and  O6_27 
REMARK    6  A    between atoms: O6_27  and  C22_28 
REMARK    7  A    between atoms: C22_28  and  C23_30 
REMARK    8  A    between atoms: C24_31  and  C25_32 
ROOT
HETATM    1  C1  UNL     1      -0.432   0.188   1.283  1.00  0.00    -0.014 C 
HETATM    2  C2  UNL     1       0.088  -0.905   2.221  1.00  0.00     0.049 C 
HETATM    3  C3  UNL     1       0.617  -1.958   1.231  1.00  0.00     0.178 C 
HETATM    4  C4  UNL     1      -0.617  -2.632   0.603  1.00  0.00     0.106 C 
HETATM    5  C5  UNL     1      -1.662  -1.623   0.153  1.00  0.00     0.172 C 
HETATM    6  C6  UNL     1      -1.350  -0.174   0.346  1.00  0.00     0.007 C 
HETATM    7  C7  UNL     1      -2.091   0.733  -0.615  1.00  0.00     0.033 C 
HETATM    8  O1  UNL     1      -2.670  -2.001  -0.431  1.00  0.00    -0.292 OA
HETATM    9  C8  UNL     1       1.586  -1.408   0.150  1.00  0.00     0.133 C 
HETATM   10  C9  UNL     1       2.731  -0.359   0.321  1.00  0.00     0.002 C 
HETATM   11  C10 UNL     1       2.651   1.170   0.693  1.00  0.00     0.049 C 
HETATM   12  C11 UNL     1       1.288   1.897   0.486  1.00  0.00     0.159 C 
HETATM   13  C12 UNL     1       0.073   1.616   1.400  1.00  0.00     0.170 C 
HETATM   14  C17 UNL     1       3.693   1.839  -0.292  1.00  0.00     0.009 C 
HETATM   15  C18 UNL     1       5.131   1.301  -0.151  1.00  0.00     0.035 C 
HETATM   16  C19 UNL     1       5.240  -0.230  -0.185  1.00  0.00     0.147 C 
HETATM   17  C20 UNL     1       4.129  -0.877   0.631  1.00  0.00     0.003 C 
HETATM   18  C21 UNL     1       4.404  -1.826   1.537  1.00  0.00    -0.002 C 
HETATM   19  C31 UNL     1       3.249   1.562   2.077  1.00  0.00     0.007 C 
HETATM   20  O8  UNL     1       0.843  -1.066  -1.008  1.00  0.00    -0.193 OA
HETATM   21  O9  UNL     1       1.266  -2.987   1.933  1.00  0.00    -0.219 OA
HETATM   22  C32 UNL     1      -1.111  -1.337   3.112  1.00  0.00     0.007 C 
HETATM   23  C33 UNL     1       1.192  -0.652   3.269  1.00  0.00     0.007 C 
ENDROOT
BRANCH  16  24
HETATM   24  O6  UNL     1       5.178  -0.680  -1.520  1.00  0.00    -0.296 OA
BRANCH  24  25
HETATM   25  C22 UNL     1       6.177  -1.421  -2.092  1.00  0.00     0.296 C 
HETATM   26  O7  UNL     1       6.031  -1.766  -3.264  1.00  0.00    -0.259 OA
BRANCH  25  27
HETATM   27  C23 UNL     1       7.395  -1.933  -1.403  1.00  0.00     0.068 C 
HETATM   28  C24 UNL     1       8.568  -2.235  -2.008  1.00  0.00     0.005 C 
BRANCH  28  29
HETATM   29  C25 UNL     1       8.924  -2.047  -3.429  1.00  0.00     0.000 A 
HETATM   30  C26 UNL     1       9.771  -2.983  -4.043  1.00  0.00     0.000 A 
HETATM   31  C27 UNL     1      10.165  -2.830  -5.372  1.00  0.00     0.000 A 
HETATM   32  C28 UNL     1       9.741  -1.718  -6.103  1.00  0.00     0.000 A 
HETATM   33  C29 UNL     1       8.950  -0.748  -5.485  1.00  0.00     0.000 A 
HETATM   34  C30 UNL     1       8.563  -0.902  -4.152  1.00  0.00     0.000 A 
ENDBRANCH  28  29
ENDBRANCH  25  27
ENDBRANCH  24  25
ENDBRANCH  16  24
BRANCH  12  35
HETATM   35  O4  UNL     1       0.887   1.685  -0.840  1.00  0.00    -0.301 OA
BRANCH  35  36
HETATM   36  C15 UNL     1       0.611   2.662  -1.753  1.00  0.00     0.272 C 
HETATM   37  O5  UNL     1       0.327   2.386  -2.899  1.00  0.00    -0.264 OA
HETATM   38  C16 UNL     1       0.620   4.099  -1.268  1.00  0.00     0.106 C 
ENDBRANCH  35  36
ENDBRANCH  12  35
BRANCH  13  39
HETATM   39  O2  UNL     1       0.231   2.014   2.738  1.00  0.00    -0.297 OA
BRANCH  39  40
HETATM   40  C13 UNL     1       0.263   3.339   3.044  1.00  0.00     0.273 C 
HETATM   41  C14 UNL     1       0.474   3.523   4.533  1.00  0.00     0.106 C 
HETATM   42  O3  UNL     1       0.150   4.241   2.245  1.00  0.00    -0.264 OA
ENDBRANCH  39  40
ENDBRANCH  13  39
TORSDOF 8
