REMARK  8 active torsions:
REMARK  status: ('A' for Active; 'I' for Inactive)
REMARK    1  A    between atoms: C2_2  and  C7_10 
REMARK    2  A    between atoms: C7_10  and  O4_11 
REMARK    3  A    between atoms: O4_11  and  C8_12 
REMARK    4  A    between atoms: C9_14  and  C22_31 
REMARK    5  A    between atoms: C12_17  and  O6_18 
REMARK    6  A    between atoms: O6_18  and  C13_19 
REMARK    7  A    between atoms: C13_19  and  C14_20 
REMARK    8  A    between atoms: C15_21  and  C16_22 
ROOT
HETATM    1  C8  UNL     1       3.558  -0.835  -1.755  1.00  0.00     0.274 C 
HETATM    2  O5  UNL     1       3.916  -1.806  -2.718  1.00  0.00    -0.326 OA
HETATM    3  C9  UNL     1       5.285  -2.114  -2.705  1.00  0.00     0.184 C 
HETATM    4  C10 UNL     1       5.656  -2.688  -1.344  1.00  0.00     0.215 C 
HETATM    5  C11 UNL     1       5.321  -1.688  -0.257  1.00  0.00     0.217 C 
HETATM    6  C12 UNL     1       3.847  -1.331  -0.348  1.00  0.00     0.214 C 
HETATM    7  O8  UNL     1       5.605  -2.268   0.991  1.00  0.00    -0.218 OA
HETATM    8  O9  UNL     1       7.032  -2.966  -1.265  1.00  0.00    -0.218 OA
ENDROOT
BRANCH   1   9
HETATM    9  O4  UNL     1       2.160  -0.716  -1.931  1.00  0.00    -0.270 OA
BRANCH   9  10
HETATM   10  C7  UNL     1       1.595   0.501  -2.178  1.00  0.00     0.298 C 
HETATM   11  O11 UNL     1       2.290   1.503  -2.314  1.00  0.00    -0.259 OA
BRANCH  10  12
HETATM   12  C2  UNL     1       0.115   0.664  -2.196  1.00  0.00     0.068 A 
HETATM   13  C1  UNL     1      -0.468   1.905  -2.476  1.00  0.00     0.035 A 
HETATM   14  C6  UNL     1      -1.858   2.054  -2.489  1.00  0.00     0.158 A 
HETATM   15  C5  UNL     1      -2.668   0.947  -2.221  1.00  0.00     0.181 A 
HETATM   16  O1  UNL     1      -2.430   3.255  -2.760  1.00  0.00    -0.188 OA
HETATM   17  C4  UNL     1      -2.103  -0.304  -1.945  1.00  0.00     0.158 A 
HETATM   18  O2  UNL     1      -4.018   1.096  -2.233  1.00  0.00    -0.186 OA
HETATM   19  C3  UNL     1      -0.714  -0.437  -1.937  1.00  0.00     0.035 A 
HETATM   20  O3  UNL     1      -2.926  -1.355  -1.691  1.00  0.00    -0.188 OA
ENDBRANCH  10  12
ENDBRANCH   9  10
ENDBRANCH   1   9
BRANCH   6  21
HETATM   21  O6  UNL     1       3.582  -0.319   0.583  1.00  0.00    -0.293 OA
BRANCH  21  22
HETATM   22  C13 UNL     1       2.485  -0.396   1.393  1.00  0.00     0.296 C 
HETATM   23  O7  UNL     1       1.691  -1.329   1.301  1.00  0.00    -0.259 OA
BRANCH  22  24
HETATM   24  C14 UNL     1       2.244   0.657   2.409  1.00  0.00     0.068 C 
HETATM   25  C15 UNL     1       1.235   0.596   3.313  1.00  0.00     0.005 C 
BRANCH  25  26
HETATM   26  C16 UNL     1       0.955   1.607   4.345  1.00  0.00     0.000 A 
HETATM   27  C17 UNL     1       0.034   1.294   5.360  1.00  0.00     0.000 A 
HETATM   28  C18 UNL     1      -0.288   2.218   6.354  1.00  0.00     0.000 A 
HETATM   29  C19 UNL     1       0.297   3.486   6.347  1.00  0.00     0.000 A 
HETATM   30  C20 UNL     1       1.198   3.821   5.336  1.00  0.00     0.000 A 
HETATM   31  C21 UNL     1       1.521   2.892   4.344  1.00  0.00     0.000 A 
ENDBRANCH  25  26
ENDBRANCH  22  24
ENDBRANCH  21  22
ENDBRANCH   6  21
BRANCH   3  32
HETATM   32  C22 UNL     1       5.571  -3.102  -3.828  1.00  0.00     0.214 C 
HETATM   33  O10 UNL     1       5.350  -2.479  -5.077  1.00  0.00    -0.218 OA
ENDBRANCH   3  32
TORSDOF 8
