REMARK  5 active torsions:
REMARK  status: ('A' for Active; 'I' for Inactive)
REMARK    1  A    between atoms: C2_2  and  C7_7 
REMARK    2  A    between atoms: C8_8  and  C9_9 
REMARK    3  A    between atoms: C9_9  and  O1_10 
REMARK    4  A    between atoms: O1_10  and  C10_11 
REMARK    5  A    between atoms: C12_14  and  C15_19 
ROOT
HETATM    1  C10 UNL     1       4.588  -0.245  -0.113  1.00  0.00     0.216 C 
HETATM    2  C11 UNL     1       5.009  -0.397   1.331  1.00  0.00     0.300 C 
HETATM    3  O2  UNL     1       4.647  -1.617   1.932  1.00  0.00    -0.324 OA
HETATM    4  C12 UNL     1       4.976  -2.792   1.237  1.00  0.00     0.184 C 
HETATM    5  C13 UNL     1       4.626  -2.744  -0.245  1.00  0.00     0.215 C 
HETATM    6  C14 UNL     1       5.037  -1.449  -0.922  1.00  0.00     0.218 C 
HETATM    7  O3  UNL     1       6.437  -1.407  -1.082  1.00  0.00    -0.218 OA
HETATM    8  O4  UNL     1       3.235  -2.911  -0.396  1.00  0.00    -0.218 OA
HETATM    9  O6  UNL     1       6.413  -0.329   1.472  1.00  0.00    -0.187 OA
ENDROOT
BRANCH   1  10
HETATM   10  O1  UNL     1       3.196  -0.110  -0.204  1.00  0.00    -0.293 OA
BRANCH  10  11
HETATM   11  C9  UNL     1       2.638   1.132  -0.116  1.00  0.00     0.296 C 
HETATM   12  O7  UNL     1       3.330   2.122   0.106  1.00  0.00    -0.259 OA
BRANCH  11  13
HETATM   13  C8  UNL     1       1.176   1.300  -0.306  1.00  0.00     0.068 C 
HETATM   14  C7  UNL     1       0.568   2.510  -0.348  1.00  0.00     0.005 C 
BRANCH  14  15
HETATM   15  C2  UNL     1      -0.876   2.722  -0.537  1.00  0.00     0.000 A 
HETATM   16  C1  UNL     1      -1.333   4.011  -0.866  1.00  0.00     0.000 A 
HETATM   17  C6  UNL     1      -2.693   4.272  -1.032  1.00  0.00     0.000 A 
HETATM   18  C5  UNL     1      -3.629   3.251  -0.853  1.00  0.00     0.000 A 
HETATM   19  C4  UNL     1      -3.194   1.972  -0.503  1.00  0.00     0.000 A 
HETATM   20  C3  UNL     1      -1.831   1.712  -0.342  1.00  0.00     0.000 A 
ENDBRANCH  14  15
ENDBRANCH  11  13
ENDBRANCH  10  11
ENDBRANCH   1  10
BRANCH   4  21
HETATM   21  C15 UNL     1       6.398  -3.261   1.533  1.00  0.00     0.214 C 
HETATM   22  O5  UNL     1       6.537  -4.623   1.177  1.00  0.00    -0.218 OA
ENDBRANCH   4  21
TORSDOF 5
