REMARK  8 active torsions:
REMARK  status: ('A' for Active; 'I' for Inactive)
REMARK    1  A    between atoms: C11_12  and  O4_18 
REMARK    2  A    between atoms: C12_13  and  O2_14 
REMARK    3  A    between atoms: O2_14  and  C13_15 
REMARK    4  A    between atoms: O4_18  and  C15_19 
REMARK    5  A    between atoms: C19_24  and  O6_27 
REMARK    6  A    between atoms: O6_27  and  C22_28 
REMARK    7  A    between atoms: C22_28  and  C23_30 
REMARK    8  A    between atoms: C24_31  and  C25_32 
ROOT
HETATM    1  C1  UNL     1      -1.590  -0.932   2.614  1.00  0.00    -0.020 C 
HETATM    2  C2  UNL     1      -0.651  -2.121   2.779  1.00  0.00     0.023 C 
HETATM    3  C3  UNL     1      -0.738  -2.801   1.401  1.00  0.00     0.054 C 
HETATM    4  C4  UNL     1      -2.109  -3.508   1.331  1.00  0.00     0.044 C 
HETATM    5  C5  UNL     1      -3.273  -2.587   1.727  1.00  0.00     0.170 C 
HETATM    6  C6  UNL     1      -2.861  -1.204   2.227  1.00  0.00    -0.020 C 
HETATM    7  C7  UNL     1      -3.999  -0.204   2.150  1.00  0.00     0.028 C 
HETATM    8  O1  UNL     1      -4.091  -2.443   0.574  1.00  0.00    -0.219 OA
HETATM    9  C8  UNL     1      -0.497  -1.886   0.167  1.00  0.00     0.104 C 
HETATM   10  C9  UNL     1       0.596  -0.786   0.021  1.00  0.00    -0.001 C 
HETATM   11  C10 UNL     1       0.687   0.607   0.745  1.00  0.00     0.049 C 
HETATM   12  C11 UNL     1      -0.596   1.126   1.464  1.00  0.00     0.159 C 
HETATM   13  C12 UNL     1      -1.081   0.490   2.790  1.00  0.00     0.170 C 
HETATM   14  C17 UNL     1       1.038   1.595  -0.433  1.00  0.00     0.009 C 
HETATM   15  C18 UNL     1       2.011   1.057  -1.513  1.00  0.00     0.035 C 
HETATM   16  C19 UNL     1       2.797  -0.230  -1.199  1.00  0.00     0.147 C 
HETATM   17  C20 UNL     1       1.998  -1.219  -0.358  1.00  0.00     0.003 C 
HETATM   18  C21 UNL     1       2.543  -2.395  -0.011  1.00  0.00    -0.002 C 
HETATM   19  C31 UNL     1       1.913   0.860   1.679  1.00  0.00     0.007 C 
HETATM   20  O8  UNL     1      -1.732  -1.373  -0.301  1.00  0.00    -0.195 OA
HETATM   21  C32 UNL     1      -1.168  -2.948   3.989  1.00  0.00     0.004 C 
HETATM   22  C33 UNL     1       0.847  -1.984   3.112  1.00  0.00     0.004 C 
ENDROOT
BRANCH  16  23
HETATM   23  O6  UNL     1       3.168  -0.906  -2.380  1.00  0.00    -0.296 OA
BRANCH  23  24
HETATM   24  C22 UNL     1       3.942  -0.310  -3.330  1.00  0.00     0.296 C 
HETATM   25  O7  UNL     1       4.174  -0.930  -4.367  1.00  0.00    -0.259 OA
BRANCH  24  26
HETATM   26  C23 UNL     1       4.618   1.013  -3.191  1.00  0.00     0.068 C 
HETATM   27  C24 UNL     1       4.773   1.885  -4.211  1.00  0.00     0.005 C 
BRANCH  27  28
HETATM   28  C25 UNL     1       4.200   1.724  -5.564  1.00  0.00     0.000 A 
HETATM   29  C26 UNL     1       4.923   2.166  -6.681  1.00  0.00     0.000 A 
HETATM   30  C27 UNL     1       4.391   2.046  -7.966  1.00  0.00     0.000 A 
HETATM   31  C28 UNL     1       3.114   1.512  -8.149  1.00  0.00     0.000 A 
HETATM   32  C29 UNL     1       2.361   1.126  -7.040  1.00  0.00     0.000 A 
HETATM   33  C30 UNL     1       2.894   1.250  -5.755  1.00  0.00     0.000 A 
ENDBRANCH  27  28
ENDBRANCH  24  26
ENDBRANCH  23  24
ENDBRANCH  16  23
BRANCH  12  34
HETATM   34  O4  UNL     1      -1.647   1.102   0.540  1.00  0.00    -0.301 OA
BRANCH  34  35
HETATM   35  C15 UNL     1      -2.424   2.169   0.198  1.00  0.00     0.272 C 
HETATM   36  O5  UNL     1      -3.228   2.090  -0.706  1.00  0.00    -0.264 OA
HETATM   37  C16 UNL     1      -2.280   3.433   1.024  1.00  0.00     0.106 C 
ENDBRANCH  34  35
ENDBRANCH  12  34
BRANCH  13  38
HETATM   38  O2  UNL     1      -0.165   0.585   3.850  1.00  0.00    -0.298 OA
BRANCH  38  39
HETATM   39  C13 UNL     1       0.089   1.798   4.407  1.00  0.00     0.273 C 
HETATM   40  C14 UNL     1       1.120   1.655   5.508  1.00  0.00     0.106 C 
HETATM   41  O3  UNL     1      -0.421   2.841   4.068  1.00  0.00    -0.264 OA
ENDBRANCH  38  39
ENDBRANCH  13  38
TORSDOF 8
