REMARK  8 active torsions:
REMARK  status: ('A' for Active; 'I' for Inactive)
REMARK    1  A    between atoms: C1_1  and  C30_36 
REMARK    2  A    between atoms: C3_3  and  O5_27 
REMARK    3  A    between atoms: C13_13  and  C16_18 
REMARK    4  A    between atoms: O5_27  and  C23_28 
REMARK    5  A    between atoms: C23_28  and  C24_29 
REMARK    6  A    between atoms: C24_29  and  C26_31 
REMARK    7  A    between atoms: C30_36  and  C31_37 
REMARK    8  A    between atoms: C31_37  and  O7_38 
ROOT
HETATM    1  C1  UNL     1       2.769  -1.706   1.143  1.00  0.00     0.019 C 
HETATM    2  C2  UNL     1       1.368  -1.164   1.566  1.00  0.00     0.027 C 
HETATM    3  C3  UNL     1       1.418   0.393   1.567  1.00  0.00     0.135 C 
HETATM    4  C4  UNL     1       2.769   0.961   2.046  1.00  0.00     0.107 C 
HETATM    5  C5  UNL     1       3.449  -0.066   2.925  1.00  0.00     0.156 C 
HETATM    6  C6  UNL     1       3.910  -1.286   2.126  1.00  0.00     0.056 C 
HETATM    7  C7  UNL     1       5.146  -0.695   1.396  1.00  0.00     0.025 C 
HETATM    8  C8  UNL     1       4.793   0.543   0.588  1.00  0.00    -0.048 C 
HETATM    9  C9  UNL     1       5.672   0.834  -0.622  1.00  0.00     0.030 C 
HETATM   10  C10 UNL     1       7.154   0.508  -0.367  1.00  0.00     0.034 C 
HETATM   11  C11 UNL     1       7.271  -0.982   0.077  1.00  0.00     0.003 C 
HETATM   12  C12 UNL     1       5.951  -1.649   0.509  1.00  0.00     0.004 C 
HETATM   13  C13 UNL     1       7.945   0.721  -1.675  1.00  0.00     0.149 C 
HETATM   14  O1  UNL     1       7.622   1.870  -2.423  1.00  0.00    -0.300 OA
HETATM   15  C14 UNL     1       6.497   2.612  -2.298  1.00  0.00     0.272 C 
HETATM   16  C15 UNL     1       5.550   2.254  -1.175  1.00  0.00     0.100 C 
HETATM   17  O2  UNL     1       6.266   3.554  -3.026  1.00  0.00    -0.264 OA
HETATM   18  C20 UNL     1       7.727   1.435   0.732  1.00  0.00     0.003 C 
HETATM   19  C21 UNL     1       3.728   1.292   0.924  1.00  0.00    -0.025 C 
HETATM   20  C22 UNL     1       4.319  -2.387   3.128  1.00  0.00     0.008 C 
HETATM   21  O4  UNL     1       3.656   0.110   4.104  1.00  0.00    -0.296 OA
HETATM   22  C28 UNL     1       0.246  -1.636   0.604  1.00  0.00     0.003 C 
HETATM   23  C29 UNL     1       0.923  -1.686   2.957  1.00  0.00     0.003 C 
ENDROOT
BRANCH   3  24
HETATM   24  O5  UNL     1       1.101   0.857   0.285  1.00  0.00    -0.303 OA
BRANCH  24  25
HETATM   25  C23 UNL     1       0.848   2.176   0.097  1.00  0.00     0.271 C 
HETATM   26  O6  UNL     1       0.872   3.013   0.970  1.00  0.00    -0.264 OA
BRANCH  25  27
HETATM   27  C24 UNL     1       0.497   2.445  -1.362  1.00  0.00     0.086 C 
HETATM   28  C25 UNL     1       1.361   1.637  -2.347  1.00  0.00     0.010 C 
BRANCH  27  29
HETATM   29  C26 UNL     1      -0.999   2.200  -1.630  1.00  0.00     0.010 C 
HETATM   30  C27 UNL     1      -1.922   3.048  -0.745  1.00  0.00     0.001 C 
ENDBRANCH  27  29
ENDBRANCH  25  27
ENDBRANCH  24  25
ENDBRANCH   3  24
BRANCH   1  31
HETATM   31  C30 UNL     1       2.816  -3.201   0.749  1.00  0.00     0.096 C 
BRANCH  31  32
HETATM   32  C31 UNL     1       2.182  -3.587  -0.582  1.00  0.00     0.272 C 
HETATM   33  O8  UNL     1       1.380  -4.483  -0.722  1.00  0.00    -0.264 OA
BRANCH  32  34
HETATM   34  O7  UNL     1       2.665  -2.819  -1.596  1.00  0.00    -0.299 OA
HETATM   35  C32 UNL     1       2.157  -3.086  -2.881  1.00  0.00     0.184 C 
ENDBRANCH  32  34
ENDBRANCH  31  32
ENDBRANCH   1  31
BRANCH  13  36
HETATM   36  C16 UNL     1       9.441   0.708  -1.454  1.00  0.00     0.032 A 
HETATM   37  C17 UNL     1      10.263  -0.369  -1.307  1.00  0.00     0.121 A 
HETATM   38  O3  UNL     1      11.556   0.019  -1.113  1.00  0.00    -0.303 OA
HETATM   39  C18 UNL     1      11.553   1.381  -1.144  1.00  0.00     0.122 A 
HETATM   40  C19 UNL     1      10.294   1.856  -1.349  1.00  0.00     0.027 A 
ENDBRANCH  13  36
TORSDOF 8
