REMARK  7 active torsions:
REMARK  status: ('A' for Active; 'I' for Inactive)
REMARK    1  A    between atoms: O1_2  and  C2_3 
REMARK    2  A    between atoms: C3_4  and  O2_5 
REMARK    3  A    between atoms: C9_12  and  C12_16 
REMARK    4  A    between atoms: C14_18  and  O11_34 
REMARK    5  A    between atoms: C15_19  and  O5_22 
REMARK    6  A    between atoms: O5_22  and  C18_23 
REMARK    7  A    between atoms: C22_27  and  C23_29 
ROOT
HETATM    1  C12 UNL     1       3.609   1.493   0.208  1.00  0.00     0.025 A 
HETATM    2  C13 UNL     1       3.056   0.276  -0.226  1.00  0.00     0.028 A 
HETATM    3  C14 UNL     1       3.709  -0.968  -0.179  1.00  0.00     0.116 A 
HETATM    4  C15 UNL     1       5.038  -0.992   0.312  1.00  0.00     0.119 A 
HETATM    5  C16 UNL     1       5.569   0.213   0.793  1.00  0.00     0.026 A 
HETATM    6  C17 UNL     1       4.894   1.429   0.754  1.00  0.00     0.004 A 
ENDROOT
BRANCH   1   7
HETATM    7  C9  UNL     1       2.823   2.744   0.102  1.00  0.00     0.103 C 
HETATM    8  O3  UNL     1       1.481   2.672  -0.143  1.00  0.00    -0.307 OA
HETATM    9  C7  UNL     1       0.723   3.801  -0.004  1.00  0.00     0.107 A 
HETATM   10  C6  UNL     1       1.242   5.100   0.090  1.00  0.00     0.089 A 
HETATM   11  C8  UNL     1      -0.666   3.684   0.006  1.00  0.00     0.051 A 
HETATM   12  C5  UNL     1       0.413   6.232   0.215  1.00  0.00     0.160 A 
HETATM   13  C11 UNL     1       2.723   5.216   0.069  1.00  0.00     0.202 C 
HETATM   14  C3  UNL     1      -0.988   6.065   0.257  1.00  0.00     0.142 A 
HETATM   15  O12 UNL     1       0.955   7.470   0.379  1.00  0.00    -0.188 OA
HETATM   16  C2  UNL     1      -1.538   4.775   0.113  1.00  0.00     0.120 A 
HETATM   17  C10 UNL     1       3.461   3.938   0.168  1.00  0.00     0.067 C 
HETATM   18  O4  UNL     1       3.343   6.274   0.022  1.00  0.00    -0.286 OA
BRANCH  14  19
HETATM   19  O2  UNL     1      -1.905   7.091   0.345  1.00  0.00    -0.324 OA
HETATM   20  C4  UNL     1      -1.567   8.396  -0.060  1.00  0.00     0.182 C 
ENDBRANCH  14  19
BRANCH  16  21
HETATM   21  O1  UNL     1      -2.909   4.658   0.130  1.00  0.00    -0.326 OA
HETATM   22  C1  UNL     1      -3.485   3.373   0.136  1.00  0.00     0.181 C 
ENDBRANCH  16  21
ENDBRANCH   1   7
BRANCH   3  23
HETATM   23  O11 UNL     1       3.131  -2.121  -0.651  1.00  0.00    -0.326 OA
HETATM   24  C24 UNL     1       1.875  -2.070  -1.287  1.00  0.00     0.181 C 
ENDBRANCH   3  23
BRANCH   4  25
HETATM   25  O5  UNL     1       5.855  -2.088   0.465  1.00  0.00    -0.302 OA
BRANCH  25  26
HETATM   26  C18 UNL     1       5.348  -3.401   0.529  1.00  0.00     0.274 C 
HETATM   27  C19 UNL     1       6.276  -4.248   1.378  1.00  0.00     0.241 C 
HETATM   28  C20 UNL     1       5.849  -5.696   1.286  1.00  0.00     0.220 C 
HETATM   29  O10 UNL     1       6.202  -3.859   2.728  1.00  0.00    -0.215 OA
HETATM   30  C21 UNL     1       5.824  -6.121  -0.166  1.00  0.00     0.215 C 
HETATM   31  O9  UNL     1       6.753  -6.507   1.991  1.00  0.00    -0.218 OA
HETATM   32  C22 UNL     1       4.947  -5.172  -0.972  1.00  0.00     0.184 C 
HETATM   33  O8  UNL     1       5.319  -7.435  -0.203  1.00  0.00    -0.218 OA
HETATM   34  O6  UNL     1       5.388  -3.851  -0.809  1.00  0.00    -0.326 OA
BRANCH  32  35
HETATM   35  C23 UNL     1       5.000  -5.471  -2.465  1.00  0.00     0.214 C 
HETATM   36  O7  UNL     1       4.733  -6.838  -2.701  1.00  0.00    -0.218 OA
ENDBRANCH  32  35
ENDBRANCH  25  26
ENDBRANCH   4  25
TORSDOF 7
