REMARK  7 active torsions:
REMARK  status: ('A' for Active; 'I' for Inactive)
REMARK    1  A    between atoms: C3_3  and  O4_11 
REMARK    2  A    between atoms: C5_6  and  C6_7 
REMARK    3  A    between atoms: C6_7  and  O3_9 
REMARK    4  A    between atoms: O4_11  and  C8_12 
REMARK    5  A    between atoms: C9_14  and  C13_21 
REMARK    6  A    between atoms: C14_23  and  O11_28 
REMARK    7  A    between atoms: O11_28  and  C18_29 
ROOT
HETATM    1  C1  UNL     1       1.037   2.549   1.089  1.00  0.00     0.067 C 
HETATM    2  C2  UNL     1       1.013   1.017   0.996  1.00  0.00     0.089 C 
HETATM    3  C3  UNL     1       2.260   0.519   0.274  1.00  0.00     0.244 C 
HETATM    4  O1  UNL     1       3.452   1.012   0.854  1.00  0.00    -0.304 OA
HETATM    5  C4  UNL     1       3.485   2.311   1.265  1.00  0.00     0.120 C 
HETATM    6  C5  UNL     1       2.404   3.097   1.365  1.00  0.00     0.068 C 
HETATM    7  C14 UNL     1      -0.349   0.726   0.309  1.00  0.00     0.109 C 
HETATM    8  C15 UNL     1      -0.696   2.026  -0.463  1.00  0.00     0.061 C 
HETATM    9  C16 UNL     1       0.474   2.982  -0.255  1.00  0.00     0.159 C 
HETATM   10  O10 UNL     1       0.063   4.325  -0.219  1.00  0.00    -0.223 OA
HETATM   11  C17 UNL     1      -0.404  -0.459  -0.665  1.00  0.00     0.031 C 
ENDROOT
BRANCH   3  12
HETATM   12  O4  UNL     1       2.373  -0.874   0.480  1.00  0.00    -0.304 OA
BRANCH  12  13
HETATM   13  C8  UNL     1       3.325  -1.515  -0.342  1.00  0.00     0.272 C 
HETATM   14  O5  UNL     1       2.607  -1.986  -1.461  1.00  0.00    -0.326 OA
HETATM   15  C9  UNL     1       3.403  -2.736  -2.342  1.00  0.00     0.184 C 
HETATM   16  C10 UNL     1       3.986  -3.946  -1.618  1.00  0.00     0.215 C 
HETATM   17  C11 UNL     1       4.790  -3.494  -0.418  1.00  0.00     0.220 C 
HETATM   18  O8  UNL     1       4.852  -4.677  -2.451  1.00  0.00    -0.218 OA
HETATM   19  C12 UNL     1       3.886  -2.665   0.460  1.00  0.00     0.241 C 
HETATM   20  O7  UNL     1       5.250  -4.611   0.298  1.00  0.00    -0.218 OA
HETATM   21  O6  UNL     1       4.631  -2.153   1.537  1.00  0.00    -0.215 OA
BRANCH  15  22
HETATM   22  C13 UNL     1       2.541  -3.153  -3.525  1.00  0.00     0.214 C 
HETATM   23  O9  UNL     1       2.156  -2.011  -4.264  1.00  0.00    -0.218 OA
ENDBRANCH  15  22
ENDBRANCH  12  13
ENDBRANCH   3  12
BRANCH   7  24
HETATM   24  O11 UNL     1      -1.344   0.575   1.280  1.00  0.00    -0.306 OA
BRANCH  24  25
HETATM   25  C18 UNL     1      -1.318  -0.476   2.143  1.00  0.00     0.272 C 
HETATM   26  C19 UNL     1      -2.518  -0.416   3.067  1.00  0.00     0.106 C 
HETATM   27  O12 UNL     1      -0.470  -1.340   2.188  1.00  0.00    -0.264 OA
ENDBRANCH  24  25
ENDBRANCH   7  24
BRANCH   6  28
HETATM   28  C6  UNL     1       2.546   4.524   1.833  1.00  0.00     0.294 C 
HETATM   29  O2  UNL     1       1.743   4.873   2.691  1.00  0.00    -0.259 OA
BRANCH  28  30
HETATM   30  O3  UNL     1       3.461   5.430   1.381  1.00  0.00    -0.296 OA
HETATM   31  C7  UNL     1       4.259   5.117   0.263  1.00  0.00     0.185 C 
ENDBRANCH  28  30
ENDBRANCH   6  28
TORSDOF 7
