REMARK  7 active torsions:
REMARK  status: ('A' for Active; 'I' for Inactive)
REMARK    1  A    between atoms: C3_3  and  O5_18 
REMARK    2  A    between atoms: C5_5  and  O2_7 
REMARK    3  A    between atoms: O2_7  and  C6_8 
REMARK    4  A    between atoms: C6_8  and  C7_9 
REMARK    5  A    between atoms: C7_9  and  C8_10 
REMARK    6  A    between atoms: O5_18  and  C14_19 
REMARK    7  A    between atoms: C15_21  and  C19_28 
ROOT
HETATM    1  C1  UNL     1       1.969  -1.576  -1.324  1.00  0.00     0.151 C 
HETATM    2  C2  UNL     1       1.335  -2.948  -1.076  1.00  0.00     0.209 C 
HETATM    3  C3  UNL     1      -0.108  -2.883  -0.574  1.00  0.00     0.186 C 
HETATM    4  C4  UNL     1      -0.834  -1.933  -1.512  1.00  0.00     0.238 C 
HETATM    5  C5  UNL     1      -0.157  -0.587  -1.549  1.00  0.00     0.270 C 
HETATM    6  O1  UNL     1       1.148  -0.714  -2.067  1.00  0.00    -0.329 OA
HETATM    7  O4  UNL     1      -2.190  -1.774  -1.184  1.00  0.00    -0.215 OA
HETATM    8  O11 UNL     1       1.371  -3.698  -2.271  1.00  0.00    -0.218 OA
HETATM    9  C20 UNL     1       2.502  -0.881  -0.066  1.00  0.00     0.035 C 
ENDROOT
BRANCH   3  10
HETATM   10  O5  UNL     1      -0.038  -2.473   0.765  1.00  0.00    -0.326 OA
BRANCH  10  11
HETATM   11  C14 UNL     1      -1.253  -2.398   1.477  1.00  0.00     0.270 C 
HETATM   12  O6  UNL     1      -1.493  -1.012   1.625  1.00  0.00    -0.326 OA
HETATM   13  C15 UNL     1      -2.666  -0.733   2.345  1.00  0.00     0.184 C 
HETATM   14  C16 UNL     1      -2.563  -1.331   3.745  1.00  0.00     0.215 C 
HETATM   15  C17 UNL     1      -2.296  -2.819   3.662  1.00  0.00     0.220 C 
HETATM   16  O9  UNL     1      -3.755  -1.148   4.468  1.00  0.00    -0.218 OA
HETATM   17  C18 UNL     1      -1.047  -3.027   2.837  1.00  0.00     0.241 C 
HETATM   18  O8  UNL     1      -2.106  -3.337   4.954  1.00  0.00    -0.218 OA
HETATM   19  O7  UNL     1      -0.817  -4.406   2.692  1.00  0.00    -0.215 OA
BRANCH  13  20
HETATM   20  C19 UNL     1      -2.850   0.778   2.408  1.00  0.00     0.214 C 
HETATM   21  O10 UNL     1      -3.072   1.299   1.114  1.00  0.00    -0.218 OA
ENDBRANCH  13  20
ENDBRANCH  10  11
ENDBRANCH   3  10
BRANCH   5  22
HETATM   22  O2  UNL     1      -0.844   0.215  -2.491  1.00  0.00    -0.329 OA
BRANCH  22  23
HETATM   23  C6  UNL     1      -1.165   1.492  -2.000  1.00  0.00     0.150 C 
BRANCH  23  24
HETATM   24  C7  UNL     1      -1.935   2.253  -3.078  1.00  0.00     0.059 C 
BRANCH  24  25
HETATM   25  C8  UNL     1      -2.528   3.583  -2.666  1.00  0.00    -0.019 A 
HETATM   26  C9  UNL     1      -3.269   4.310  -3.605  1.00  0.00    -0.002 A 
HETATM   27  C10 UNL     1      -3.852   5.536  -3.281  1.00  0.00     0.027 A 
HETATM   28  C11 UNL     1      -3.718   6.085  -2.003  1.00  0.00     0.131 A 
HETATM   29  C12 UNL     1      -2.977   5.360  -1.065  1.00  0.00     0.027 A 
HETATM   30  O3  UNL     1      -4.282   7.277  -1.679  1.00  0.00    -0.190 OA
HETATM   31  C13 UNL     1      -2.391   4.133  -1.386  1.00  0.00    -0.002 A 
ENDBRANCH  24  25
ENDBRANCH  23  24
ENDBRANCH  22  23
ENDBRANCH   5  22
TORSDOF 7
