REMARK  12 active torsions:
REMARK  status: ('A' for Active; 'I' for Inactive)
REMARK    1  A    between atoms: C2_2  and  O10_45 
REMARK    2  A    between atoms: C13_13  and  O1_14 
REMARK    3  A    between atoms: O1_14  and  C14_15 
REMARK    4  A    between atoms: C16_18  and  O5_25 
REMARK    5  A    between atoms: C18_20  and  O3_21 
REMARK    6  A    between atoms: O3_21  and  C19_22 
REMARK    7  A    between atoms: O5_25  and  C21_26 
REMARK    8  A    between atoms: C21_26  and  C22_27 
REMARK    9  A    between atoms: C22_27  and  C23_28 
REMARK   10  A    between atoms: C23_28  and  C24_29 
REMARK   11  A    between atoms: C23_28  and  N1_35 
REMARK   12  A    between atoms: O10_45  and  C35_46 
ROOT
HETATM    1  C1  UNL     1       2.992  -2.053   0.008  1.00  0.00    -0.022 C 
HETATM    2  C2  UNL     1       3.986  -0.926  -0.191  1.00  0.00     0.142 C 
HETATM    3  C3  UNL     1       3.815   0.221   0.814  1.00  0.00     0.038 C 
HETATM    4  C4  UNL     1       3.356  -0.234   2.225  1.00  0.00     0.038 C 
HETATM    5  C5  UNL     1       3.400  -1.781   2.424  1.00  0.00     0.020 C 
HETATM    6  C6  UNL     1       2.701  -2.496   1.258  1.00  0.00    -0.013 C 
HETATM    7  C7  UNL     1       1.762  -3.697   1.430  1.00  0.00     0.227 C 
HETATM    8  C8  UNL     1       0.328  -3.473   0.961  1.00  0.00     0.186 C 
HETATM    9  C9  UNL     1      -0.744  -2.873   1.873  1.00  0.00     0.084 C 
HETATM   10  C10 UNL     1      -0.285  -1.572   2.568  1.00  0.00     0.034 C 
HETATM   11  C11 UNL     1      -0.158  -0.375   1.641  1.00  0.00    -0.018 C 
HETATM   12  C12 UNL     1       0.889   0.481   1.670  1.00  0.00    -0.003 C 
HETATM   13  C13 UNL     1       2.033   0.457   2.666  1.00  0.00     0.146 C 
HETATM   14  C16 UNL     1      -1.311  -0.158   0.672  1.00  0.00     0.145 C 
HETATM   15  C17 UNL     1      -1.834  -1.453   0.039  1.00  0.00     0.065 C 
HETATM   16  C18 UNL     1      -2.035  -2.574   1.068  1.00  0.00     0.134 C 
HETATM   17  C32 UNL     1      -1.080  -3.932   2.934  1.00  0.00     0.010 C 
HETATM   18  O8  UNL     1       0.041  -3.805  -0.166  1.00  0.00    -0.293 OA
HETATM   19  O9  UNL     1       1.807  -4.318   2.695  1.00  0.00    -0.211 OA
HETATM   20  C33 UNL     1       2.924  -2.113   3.844  1.00  0.00     0.004 C 
HETATM   21  C34 UNL     1       4.861  -2.254   2.389  1.00  0.00     0.004 C 
HETATM   22  C37 UNL     1       2.361  -2.654  -1.227  1.00  0.00     0.028 C 
ENDROOT
BRANCH  14  23
HETATM   23  O5  UNL     1      -0.963   0.740  -0.375  1.00  0.00    -0.298 OA
BRANCH  23  24
HETATM   24  C21 UNL     1      -2.029   1.190  -1.031  1.00  0.00     0.305 C 
HETATM   25  O7  UNL     1      -3.168   1.022  -0.662  1.00  0.00    -0.261 OA
BRANCH  24  26
HETATM   26  C22 UNL     1      -1.730   1.941  -2.301  1.00  0.00     0.273 C 
HETATM   27  O6  UNL     1      -0.799   2.965  -2.031  1.00  0.00    -0.210 OA
BRANCH  26  28
HETATM   28  C23 UNL     1      -2.979   2.580  -2.908  1.00  0.00     0.281 C 
BRANCH  28  29
HETATM   29  C24 UNL     1      -2.900   2.637  -4.391  1.00  0.00     0.012 A 
HETATM   30  C25 UNL     1      -3.863   1.975  -5.174  1.00  0.00    -0.002 A 
HETATM   31  C26 UNL     1      -3.787   2.027  -6.576  1.00  0.00    -0.000 A 
HETATM   32  C27 UNL     1      -2.748   2.740  -7.197  1.00  0.00    -0.000 A 
HETATM   33  C28 UNL     1      -1.785   3.402  -6.416  1.00  0.00    -0.000 A 
HETATM   34  C29 UNL     1      -1.861   3.350  -5.014  1.00  0.00    -0.002 A 
ENDBRANCH  28  29
BRANCH  28  35
HETATM   35  N1  UNL     1      -3.207   3.897  -2.336  1.00  0.00     0.146 N 
HETATM   36  C30 UNL     1      -4.117   4.664  -3.168  1.00  0.00     0.286 C 
HETATM   37  C31 UNL     1      -3.731   3.779  -0.984  1.00  0.00     0.286 C 
ENDBRANCH  28  35
ENDBRANCH  26  28
ENDBRANCH  24  26
ENDBRANCH  23  24
ENDBRANCH  14  23
BRANCH  16  38
HETATM   38  O3  UNL     1      -3.076  -2.191   1.959  1.00  0.00    -0.304 OA
BRANCH  38  39
HETATM   39  C19 UNL     1      -4.016  -3.127   2.070  1.00  0.00     0.272 C 
HETATM   40  O4  UNL     1      -3.820  -4.305   1.887  1.00  0.00    -0.264 OA
HETATM   41  C20 UNL     1      -5.381  -2.617   2.449  1.00  0.00     0.106 C 
ENDBRANCH  38  39
ENDBRANCH  16  38
BRANCH  13  42
HETATM   42  O1  UNL     1       2.334   1.820   2.934  1.00  0.00    -0.300 OA
BRANCH  42  43
HETATM   43  C14 UNL     1       1.410   2.406   3.688  1.00  0.00     0.273 C 
HETATM   44  C15 UNL     1       1.734   3.809   4.127  1.00  0.00     0.106 C 
HETATM   45  O2  UNL     1       0.375   1.875   4.016  1.00  0.00    -0.264 OA
ENDBRANCH  42  43
ENDBRANCH  13  42
BRANCH   2  46
HETATM   46  O10 UNL     1       3.897  -0.402  -1.510  1.00  0.00    -0.300 OA
BRANCH  46  47
HETATM   47  C35 UNL     1       4.953   0.338  -1.834  1.00  0.00     0.273 C 
HETATM   48  C36 UNL     1       4.820   1.123  -3.111  1.00  0.00     0.106 C 
HETATM   49  O11 UNL     1       5.963   0.397  -1.170  1.00  0.00    -0.264 OA
ENDBRANCH  46  47
ENDBRANCH   2  46
TORSDOF 12
