REMARK  13 active torsions:
REMARK  status: ('A' for Active; 'I' for Inactive)
REMARK    1  A    between atoms: C1_1  and  O13_39 
REMARK    2  A    between atoms: C2_2  and  O7_27 
REMARK    3  A    between atoms: C5_5  and  C7_7 
REMARK    4  A    between atoms: C7_7  and  C8_8 
REMARK    5  A    between atoms: C8_8  and  C9_9 
REMARK    6  A    between atoms: C8_8  and  O2_11 
REMARK    7  A    between atoms: O2_11  and  C10_12 
REMARK    8  A    between atoms: C11_13  and  O3_14 
REMARK    9  A    between atoms: C14_17  and  C18_22 
REMARK   10  A    between atoms: C16_19  and  O4_20 
REMARK   11  A    between atoms: C19_23  and  C20_24 
REMARK   12  A    between atoms: O7_27  and  C21_28 
REMARK   13  A    between atoms: C22_30  and  C26_37 
ROOT
HETATM    1  C1  UNL     1       7.970   1.369   0.710  1.00  0.00     0.116 A 
HETATM    2  C2  UNL     1       8.202   0.222  -0.072  1.00  0.00     0.119 A 
HETATM    3  C3  UNL     1       7.110  -0.410  -0.680  1.00  0.00     0.026 A 
HETATM    4  C4  UNL     1       5.799   0.010  -0.467  1.00  0.00     0.000 A 
HETATM    5  C5  UNL     1       5.539   1.118   0.342  1.00  0.00     0.012 A 
HETATM    6  C6  UNL     1       6.640   1.774   0.905  1.00  0.00     0.025 A 
ENDROOT
BRANCH   5   7
HETATM    7  C7  UNL     1       4.115   1.610   0.519  1.00  0.00     0.205 C 
HETATM    8  O6  UNL     1       4.091   2.886   1.136  1.00  0.00    -0.216 OA
BRANCH   7   9
HETATM    9  C8  UNL     1       3.160   0.672   1.266  1.00  0.00     0.189 C 
BRANCH   9  10
HETATM   10  C9  UNL     1       3.870  -0.183   2.314  1.00  0.00     0.215 C 
HETATM   11  O1  UNL     1       4.576   0.634   3.225  1.00  0.00    -0.218 OA
ENDBRANCH   9  10
BRANCH   9  12
HETATM   12  O2  UNL     1       2.531  -0.211   0.380  1.00  0.00    -0.324 OA
BRANCH  12  13
HETATM   13  C10 UNL     1       1.413   0.105  -0.367  1.00  0.00     0.138 C 
HETATM   14  C11 UNL     1       0.787  -1.008  -0.974  1.00  0.00     0.118 C 
HETATM   15  C13 UNL     1      -0.277  -0.813  -1.857  1.00  0.00     0.026 C 
HETATM   16  C14 UNL     1      -0.853   0.442  -2.059  1.00  0.00     0.004 C 
HETATM   17  C15 UNL     1      -0.314   1.503  -1.328  1.00  0.00     0.026 C 
HETATM   18  C16 UNL     1       0.796   1.376  -0.477  1.00  0.00     0.118 C 
BRANCH  14  19
HETATM   19  O3  UNL     1       1.364  -2.252  -0.902  1.00  0.00    -0.326 OA
HETATM   20  C12 UNL     1       0.875  -3.035   0.163  1.00  0.00     0.181 C 
ENDBRANCH  14  19
BRANCH  16  21
HETATM   21  C18 UNL     1      -2.005   0.577  -2.969  1.00  0.00    -0.002 C 
HETATM   22  C19 UNL     1      -2.437   1.733  -3.509  1.00  0.00     0.009 C 
BRANCH  22  23
HETATM   23  C20 UNL     1      -3.612   1.833  -4.445  1.00  0.00     0.209 C 
HETATM   24  O5  UNL     1      -4.558   2.776  -3.959  1.00  0.00    -0.215 OA
ENDBRANCH  22  23
ENDBRANCH  16  21
BRANCH  18  25
HETATM   25  O4  UNL     1       1.329   2.464   0.165  1.00  0.00    -0.326 OA
HETATM   26  C17 UNL     1       0.930   3.766  -0.192  1.00  0.00     0.181 C 
ENDBRANCH  18  25
ENDBRANCH  12  13
ENDBRANCH   9  12
ENDBRANCH   7   9
ENDBRANCH   5   7
BRANCH   1  27
HETATM   27  O13 UNL     1       9.063   2.053   1.188  1.00  0.00    -0.326 OA
HETATM   28  C27 UNL     1       8.881   3.362   1.675  1.00  0.00     0.181 C 
ENDBRANCH   1  27
BRANCH   2  29
HETATM   29  O7  UNL     1       9.477  -0.162  -0.390  1.00  0.00    -0.302 OA
BRANCH  29  30
HETATM   30  C21 UNL     1       9.917  -1.367   0.196  1.00  0.00     0.274 C 
HETATM   31  O8  UNL     1      10.628  -1.007   1.360  1.00  0.00    -0.326 OA
HETATM   32  C22 UNL     1      11.181  -2.119   2.019  1.00  0.00     0.184 C 
HETATM   33  C23 UNL     1      12.152  -2.846   1.092  1.00  0.00     0.215 C 
HETATM   34  C24 UNL     1      11.444  -3.265  -0.180  1.00  0.00     0.220 C 
HETATM   35  O11 UNL     1      12.663  -4.009   1.696  1.00  0.00    -0.218 OA
HETATM   36  C25 UNL     1      10.836  -2.031  -0.802  1.00  0.00     0.241 C 
HETATM   37  O10 UNL     1      12.368  -3.838  -1.068  1.00  0.00    -0.218 OA
HETATM   38  O9  UNL     1      10.087  -2.398  -1.933  1.00  0.00    -0.215 OA
BRANCH  32  39
HETATM   39  C26 UNL     1      11.882  -1.636   3.281  1.00  0.00     0.214 C 
HETATM   40  O12 UNL     1      10.932  -1.135   4.200  1.00  0.00    -0.218 OA
ENDBRANCH  32  39
ENDBRANCH  29  30
ENDBRANCH   2  29
TORSDOF 13
