REMARK  8 active torsions:
REMARK  status: ('A' for Active; 'I' for Inactive)
REMARK    1  A    between atoms: C2_2  and  O8_29 
REMARK    2  A    between atoms: C4_4  and  C8_9 
REMARK    3  A    between atoms: C6_6  and  O1_7 
REMARK    4  A    between atoms: C8_9  and  C9_10 
REMARK    5  A    between atoms: C10_11  and  C21_26 
REMARK    6  A    between atoms: C11_12  and  C13_15 
REMARK    7  A    between atoms: C15_17  and  O5_24 
REMARK    8  A    between atoms: C17_19  and  O3_21 
ROOT
HETATM    1  C9  UNL     1      -1.169  -0.362  -0.162  1.00  0.00     0.083 C 
HETATM    2  C10 UNL     1       0.364  -0.465  -0.073  1.00  0.00     0.073 C 
HETATM    3  C11 UNL     1       0.762  -0.528  -1.560  1.00  0.00     0.141 C 
HETATM    4  O2  UNL     1      -0.374  -0.189  -2.330  1.00  0.00    -0.352 OA
HETATM    5  C12 UNL     1      -1.304   0.411  -1.466  1.00  0.00     0.149 C 
ENDROOT
BRANCH   1   6
HETATM    6  C8  UNL     1      -1.956   0.102   1.054  1.00  0.00     0.111 C 
HETATM    7  O7  UNL     1      -2.634  -0.771   1.773  1.00  0.00    -0.195 OA
BRANCH   6   8
HETATM    8  C4  UNL     1      -1.989   1.563   1.468  1.00  0.00     0.022 C 
HETATM    9  C3  UNL     1      -2.565   2.499   0.677  1.00  0.00     0.011 C 
HETATM   10  C2  UNL     1      -2.632   3.932   1.133  1.00  0.00     0.187 C 
HETATM   11  C1  UNL     1      -1.485   4.228   2.087  1.00  0.00     0.162 C 
HETATM   12  C6  UNL     1      -1.182   3.199   3.141  1.00  0.00     0.118 C 
HETATM   13  O9  UNL     1      -0.659   5.290   1.920  1.00  0.00    -0.190 OA
HETATM   14  C5  UNL     1      -1.502   1.922   2.814  1.00  0.00     0.028 C 
BRANCH  10  15
HETATM   15  O8  UNL     1      -2.890   4.869   0.165  1.00  0.00    -0.343 OA
HETATM   16  C22 UNL     1      -4.139   5.497   0.331  1.00  0.00     0.175 C 
ENDBRANCH  10  15
BRANCH  12  17
HETATM   17  O1  UNL     1      -0.733   3.507   4.397  1.00  0.00    -0.326 OA
HETATM   18  C7  UNL     1      -1.026   4.794   4.890  1.00  0.00     0.181 C 
ENDBRANCH  12  17
ENDBRANCH   6   8
ENDBRANCH   1   6
BRANCH   2  19
HETATM   19  C21 UNL     1       1.059   0.703   0.631  1.00  0.00     0.185 C 
HETATM   20  O6  UNL     1       0.835   0.622   2.022  1.00  0.00    -0.221 OA
ENDBRANCH   2  19
BRANCH   3  21
HETATM   21  C13 UNL     1       1.297  -1.900  -1.927  1.00  0.00     0.009 A 
HETATM   22  C14 UNL     1       2.669  -2.133  -2.021  1.00  0.00     0.025 A 
HETATM   23  C15 UNL     1       3.219  -3.389  -2.311  1.00  0.00     0.121 A 
HETATM   24  C16 UNL     1       2.321  -4.464  -2.463  1.00  0.00     0.175 A 
HETATM   25  C17 UNL     1       0.927  -4.274  -2.400  1.00  0.00     0.121 A 
HETATM   26  O4  UNL     1       2.755  -5.728  -2.722  1.00  0.00    -0.186 OA
HETATM   27  C18 UNL     1       0.447  -2.991  -2.112  1.00  0.00     0.025 A 
BRANCH  23  28
HETATM   28  O5  UNL     1       4.591  -3.475  -2.319  1.00  0.00    -0.326 OA
HETATM   29  C20 UNL     1       5.216  -4.696  -2.000  1.00  0.00     0.181 C 
ENDBRANCH  23  28
BRANCH  25  30
HETATM   30  O3  UNL     1       0.125  -5.378  -2.556  1.00  0.00    -0.326 OA
HETATM   31  C19 UNL     1      -1.244  -5.275  -2.243  1.00  0.00     0.181 C 
ENDBRANCH  25  30
ENDBRANCH   3  21
TORSDOF 8
