REMARK  2 active torsions:
REMARK  status: ('A' for Active; 'I' for Inactive)
REMARK    1  A    between atoms: C9_11  and  C10_12 
REMARK    2  A    between atoms: C10_12  and  C11_13 
ROOT
HETATM    1  C1  UNL     1       4.129  -1.160  -0.608  1.00  0.00     0.097 C 
HETATM    2  C2  UNL     1       3.780   0.026   0.282  1.00  0.00     0.106 C 
HETATM    3  O1  UNL     1       2.581   0.578  -0.146  1.00  0.00    -0.335 OA
HETATM    4  C3  UNL     1       1.491  -0.232  -0.301  1.00  0.00     0.097 A 
HETATM    5  C4  UNL     1       1.632  -1.626  -0.484  1.00  0.00     0.082 A 
HETATM    6  C5  UNL     1       3.011  -2.178  -0.591  1.00  0.00     0.179 C 
HETATM    7  O2  UNL     1       3.286  -3.367  -0.676  1.00  0.00    -0.291 OA
HETATM    8  C6  UNL     1       0.526  -2.476  -0.610  1.00  0.00     0.137 A 
HETATM    9  C7  UNL     1      -0.747  -1.881  -0.591  1.00  0.00     0.048 A 
HETATM   10  C8  UNL     1      -0.934  -0.500  -0.411  1.00  0.00     0.103 A 
HETATM   11  C9  UNL     1       0.198   0.325  -0.207  1.00  0.00     0.026 A 
HETATM   12  O3  UNL     1      -2.187   0.058  -0.419  1.00  0.00    -0.273 OA
HETATM   13  C15 UNL     1      -3.266  -0.731  -0.666  1.00  0.00     0.300 A 
HETATM   14  C16 UNL     1      -3.150  -2.193  -0.829  1.00  0.00     0.069 A 
HETATM   15  C17 UNL     1      -1.919  -2.741  -0.781  1.00  0.00     0.009 A 
HETATM   16  O4  UNL     1      -4.386  -0.232  -0.745  1.00  0.00    -0.259 OA
HETATM   17  O5  UNL     1       0.627  -3.820  -0.809  1.00  0.00    -0.190 OA
HETATM   18  C18 UNL     1       4.852   1.115   0.137  1.00  0.00     0.031 C 
HETATM   19  C19 UNL     1       3.672  -0.373   1.760  1.00  0.00     0.031 C 
ENDROOT
BRANCH  11  20
HETATM   20  C10 UNL     1      -0.031   1.843  -0.011  1.00  0.00     0.041 C 
HETATM   21  C13 UNL     1      -0.276   2.448  -1.412  1.00  0.00     0.009 C 
HETATM   22  C14 UNL     1       1.083   2.687   0.655  1.00  0.00     0.009 C 
BRANCH  20  23
HETATM   23  C11 UNL     1      -1.229   2.091   0.895  1.00  0.00    -0.023 C 
HETATM   24  C12 UNL     1      -1.349   1.585   2.131  1.00  0.00    -0.005 C 
ENDBRANCH  20  23
ENDBRANCH  11  20
TORSDOF 2
