REMARK  4 active torsions:
REMARK  status: ('A' for Active; 'I' for Inactive)
REMARK    1  A    between atoms: C2_2  and  C15_16 
REMARK    2  A    between atoms: C10_10  and  C11_11 
REMARK    3  A    between atoms: C15_16  and  O2_17 
REMARK    4  A    between atoms: O2_17  and  C16_18 
ROOT
HETATM    1  C1  UNL     1       1.052   2.434  -0.538  1.00  0.00     0.024 C 
HETATM    2  C2  UNL     1       2.124   1.406  -0.793  1.00  0.00    -0.018 C 
HETATM    3  C3  UNL     1       1.839   0.095  -0.841  1.00  0.00    -0.032 C 
HETATM    4  C4  UNL     1       0.475  -0.512  -0.625  1.00  0.00     0.024 C 
HETATM    5  C5  UNL     1      -0.648   0.555  -0.632  1.00  0.00     0.032 C 
HETATM    6  C6  UNL     1      -0.196   1.824   0.108  1.00  0.00     0.007 C 
HETATM    7  C7  UNL     1      -2.015   0.016  -0.155  1.00  0.00     0.127 C 
HETATM    8  C8  UNL     1      -2.060  -1.500  -0.358  1.00  0.00     0.030 C 
HETATM    9  C9  UNL     1      -0.963  -2.239   0.431  1.00  0.00     0.003 C 
HETATM   10  C10 UNL     1       0.344  -1.432   0.610  1.00  0.00     0.004 C 
HETATM   11  O1  UNL     1      -3.008   0.579  -0.980  1.00  0.00    -0.226 OA
HETATM   12  C14 UNL     1      -2.429   0.367   1.280  1.00  0.00     0.033 C 
ENDROOT
BRANCH   2  13
HETATM   13  C15 UNL     1       3.511   1.955  -1.066  1.00  0.00     0.174 C 
BRANCH  13  14
HETATM   14  O2  UNL     1       4.500   0.948  -1.081  1.00  0.00    -0.297 OA
BRANCH  14  15
HETATM   15  C16 UNL     1       5.815   1.240  -1.290  1.00  0.00     0.273 C 
HETATM   16  O3  UNL     1       6.683   0.394  -1.231  1.00  0.00    -0.264 OA
HETATM   17  C17 UNL     1       6.137   2.683  -1.641  1.00  0.00     0.106 C 
ENDBRANCH  14  15
ENDBRANCH  13  14
ENDBRANCH   2  13
BRANCH  10  18
HETATM   18  C11 UNL     1       1.575  -2.317   0.942  1.00  0.00     0.000 C 
HETATM   19  C12 UNL     1       2.652  -1.539   1.731  1.00  0.00     0.000 C 
HETATM   20  C13 UNL     1       1.237  -3.567   1.783  1.00  0.00     0.000 C 
ENDBRANCH  10  18
TORSDOF 4
