REMARK  10 active torsions:
REMARK  status: ('A' for Active; 'I' for Inactive)
REMARK    1  A    between atoms: C2_2  and  O10_41 
REMARK    2  A    between atoms: C4_4  and  C22_29 
REMARK    3  A    between atoms: C11_11  and  O2_14 
REMARK    4  A    between atoms: O2_14  and  C13_15 
REMARK    5  A    between atoms: C17_22  and  O6_25 
REMARK    6  A    between atoms: O6_25  and  C20_26 
REMARK    7  A    between atoms: C22_29  and  O8_32 
REMARK    8  A    between atoms: O8_32  and  C25_33 
REMARK    9  A    between atoms: C25_33  and  C26_35 
REMARK   10  A    between atoms: O10_41  and  C32_42 
ROOT
HETATM    1  C1  UNL     1       1.964   1.629   1.219  1.00  0.00     0.186 C 
HETATM    2  C2  UNL     1       0.549   2.163   1.433  1.00  0.00     0.172 C 
HETATM    3  C3  UNL     1      -0.619   1.232   1.144  1.00  0.00    -0.016 C 
HETATM    4  C4  UNL     1      -0.553  -0.293   0.971  1.00  0.00     0.071 C 
HETATM    5  C5  UNL     1       0.603  -0.747   0.024  1.00  0.00     0.160 C 
HETATM    6  C6  UNL     1       1.203   0.369  -0.849  1.00  0.00     0.066 C 
HETATM    7  C7  UNL     1       2.361   1.189  -0.213  1.00  0.00     0.064 C 
HETATM    8  C8  UNL     1       2.563   2.388  -1.166  1.00  0.00     0.157 C 
HETATM    9  C9  UNL     1       3.097   1.949  -2.529  1.00  0.00     0.065 C 
HETATM   10  C10 UNL     1       2.303   0.818  -3.183  1.00  0.00     0.146 A 
HETATM   11  C11 UNL     1       1.319  -0.002  -2.333  1.00  0.00     0.156 A 
HETATM   12  C12 UNL     1       2.233  -1.168  -2.708  1.00  0.00     0.172 A 
HETATM   13  O1  UNL     1       3.107  -0.319  -3.428  1.00  0.00    -0.351 OA
HETATM   14  O4  UNL     1       3.450   3.330  -0.605  1.00  0.00    -0.223 OA
HETATM   15  C15 UNL     1       3.713   0.434  -0.083  1.00  0.00     0.005 C 
HETATM   16  O5  UNL     1       1.641  -1.405   0.701  1.00  0.00    -0.223 OA
HETATM   17  C16 UNL     1      -1.862  -0.459   0.118  1.00  0.00     0.043 C 
HETATM   18  C17 UNL     1      -2.830   0.683   0.437  1.00  0.00     0.142 C 
HETATM   19  C18 UNL     1      -1.846   1.724   0.887  1.00  0.00    -0.022 C 
HETATM   20  C19 UNL     1      -2.309   3.154   0.952  1.00  0.00     0.028 C 
HETATM   21  O12 UNL     1       2.874   2.608   1.667  1.00  0.00    -0.220 OA
ENDROOT
BRANCH   4  22
HETATM   22  C22 UNL     1      -0.688  -1.119   2.307  1.00  0.00     0.107 C 
HETATM   23  C23 UNL     1      -2.040  -0.961   3.028  1.00  0.00     0.031 C 
HETATM   24  C24 UNL     1       0.333  -0.679   3.380  1.00  0.00     0.031 C 
BRANCH  22  25
HETATM   25  O8  UNL     1      -0.357  -2.455   2.046  1.00  0.00    -0.303 OA
BRANCH  25  26
HETATM   26  C25 UNL     1      -1.206  -3.448   1.647  1.00  0.00     0.296 C 
HETATM   27  O9  UNL     1      -2.407  -3.316   1.733  1.00  0.00    -0.259 OA
BRANCH  26  28
HETATM   28  C26 UNL     1      -0.722  -4.572   1.038  1.00  0.00     0.063 A 
HETATM   29  C27 UNL     1       0.606  -4.760   0.906  1.00  0.00     0.005 A 
HETATM   30  C28 UNL     1       1.092  -5.850   0.292  1.00  0.00     0.000 A 
HETATM   31  C29 UNL     1       0.255  -6.774  -0.201  1.00  0.00     0.000 A 
HETATM   32  C30 UNL     1      -1.068  -6.605  -0.067  1.00  0.00     0.000 A 
HETATM   33  C31 UNL     1      -1.552  -5.515   0.551  1.00  0.00     0.005 A 
ENDBRANCH  26  28
ENDBRANCH  25  26
ENDBRANCH  22  25
ENDBRANCH   4  22
BRANCH   2  34
HETATM   34  O10 UNL     1       0.422   2.678   2.743  1.00  0.00    -0.297 OA
BRANCH  34  35
HETATM   35  C32 UNL     1       0.681   4.000   2.952  1.00  0.00     0.273 C 
HETATM   36  C33 UNL     1       0.548   4.328   4.426  1.00  0.00     0.106 C 
HETATM   37  O11 UNL     1       0.962   4.809   2.095  1.00  0.00    -0.264 OA
ENDBRANCH  34  35
ENDBRANCH   2  34
BRANCH  18  38
HETATM   38  O6  UNL     1      -3.556   1.101  -0.694  1.00  0.00    -0.300 OA
BRANCH  38  39
HETATM   39  C20 UNL     1      -4.493   0.237  -1.169  1.00  0.00     0.273 C 
HETATM   40  C21 UNL     1      -5.174   0.813  -2.394  1.00  0.00     0.106 C 
HETATM   41  O7  UNL     1      -4.750  -0.842  -0.685  1.00  0.00    -0.264 OA
ENDBRANCH  38  39
ENDBRANCH  18  38
BRANCH  11  42
HETATM   42  O2  UNL     1       0.038  -0.085  -2.880  1.00  0.00    -0.302 OA
BRANCH  42  43
HETATM   43  C13 UNL     1      -0.244  -0.387  -4.174  1.00  0.00     0.272 C 
HETATM   44  C14 UNL     1      -1.741  -0.275  -4.396  1.00  0.00     0.106 C 
HETATM   45  O3  UNL     1       0.550  -0.678  -5.038  1.00  0.00    -0.264 OA
ENDBRANCH  42  43
ENDBRANCH  11  42
TORSDOF 10
