REMARK  5 active torsions:
REMARK  status: ('A' for Active; 'I' for Inactive)
REMARK    1  A    between atoms: C4_4  and  O3_9 
REMARK    2  A    between atoms: C5_6  and  C6_7 
REMARK    3  A    between atoms: O3_9  and  C7_10 
REMARK    4  A    between atoms: C7_10  and  C8_11 
REMARK    5  A    between atoms: C14_17  and  C18_21 
ROOT
HETATM    1  C8  UNL     1      -1.114   2.828  -0.341  1.00  0.00    -0.016 C 
HETATM    2  C9  UNL     1      -2.298   2.683   0.283  1.00  0.00    -0.003 C 
HETATM    3  C10 UNL     1      -3.165   1.447   0.323  1.00  0.00     0.149 C 
HETATM    4  C11 UNL     1      -2.485   0.190   0.891  1.00  0.00     0.072 C 
HETATM    5  C12 UNL     1      -2.481   0.050   2.425  1.00  0.00     0.160 C 
HETATM    6  C13 UNL     1      -1.265   0.661   3.148  1.00  0.00     0.062 C 
HETATM    7  C14 UNL     1      -1.151   2.167   2.973  1.00  0.00     0.018 C 
HETATM    8  C15 UNL     1      -0.180   2.662   2.179  1.00  0.00    -0.027 C 
HETATM    9  C16 UNL     1      -0.024   4.051   1.597  1.00  0.00     0.030 C 
HETATM   10  C17 UNL     1      -0.204   3.979   0.058  1.00  0.00     0.029 C 
HETATM   11  O5  UNL     1      -2.502  -1.318   2.768  1.00  0.00    -0.223 OA
HETATM   12  C19 UNL     1      -3.252  -0.904   0.124  1.00  0.00     0.092 C 
HETATM   13  C20 UNL     1      -3.774  -0.206  -1.118  1.00  0.00     0.272 C 
HETATM   14  O6  UNL     1      -3.691   1.134  -0.941  1.00  0.00    -0.300 OA
HETATM   15  O7  UNL     1      -4.189  -0.744  -2.120  1.00  0.00    -0.264 OA
HETATM   16  C21 UNL     1      -2.398  -2.124  -0.248  1.00  0.00     0.011 C 
ENDROOT
BRANCH   1  17
HETATM   17  C7  UNL     1      -0.518   1.812  -1.295  1.00  0.00     0.167 C 
BRANCH  17  18
HETATM   18  O3  UNL     1       0.656   1.260  -0.731  1.00  0.00    -0.325 OA
BRANCH  18  19
HETATM   19  C4  UNL     1       1.077   0.036  -1.299  1.00  0.00     0.270 C 
HETATM   20  C3  UNL     1       2.426   0.220  -1.943  1.00  0.00     0.241 C 
HETATM   21  C2  UNL     1       2.951  -1.127  -2.386  1.00  0.00     0.220 C 
HETATM   22  O8  UNL     1       2.299   1.057  -3.065  1.00  0.00    -0.215 OA
HETATM   23  C1  UNL     1       2.993  -2.058  -1.188  1.00  0.00     0.215 C 
HETATM   24  O9  UNL     1       4.235  -0.935  -2.929  1.00  0.00    -0.218 OA
HETATM   25  C5  UNL     1       1.647  -2.091  -0.465  1.00  0.00     0.184 C 
HETATM   26  O10 UNL     1       3.304  -3.357  -1.642  1.00  0.00    -0.218 OA
HETATM   27  O1  UNL     1       1.187  -0.801  -0.168  1.00  0.00    -0.326 OA
BRANCH  25  28
HETATM   28  C6  UNL     1       1.720  -2.836   0.864  1.00  0.00     0.214 C 
HETATM   29  O2  UNL     1       2.302  -4.110   0.689  1.00  0.00    -0.218 OA
ENDBRANCH  25  28
ENDBRANCH  18  19
ENDBRANCH  17  18
ENDBRANCH   1  17
BRANCH   7  30
HETATM   30  C18 UNL     1      -2.096   2.932   3.579  1.00  0.00     0.230 C 
HETATM   31  O4  UNL     1      -2.197   4.135   3.567  1.00  0.00    -0.283 OA
ENDBRANCH   7  30
TORSDOF 5
