REMARK  7 active torsions:
REMARK  status: ('A' for Active; 'I' for Inactive)
REMARK    1  A    between atoms: C12_14  and  C17_22 
REMARK    2  A    between atoms: C13_15  and  O4_18 
REMARK    3  A    between atoms: O4_18  and  C15_19 
REMARK    4  A    between atoms: C17_22  and  O6_23 
REMARK    5  A    between atoms: O6_23  and  C18_24 
REMARK    6  A    between atoms: C18_24  and  C19_25 
REMARK    7  A    between atoms: C19_25  and  C20_26 
ROOT
HETATM    1  C1  UNL     1       2.179   0.514  -2.713  1.00  0.00     0.054 C 
HETATM    2  C2  UNL     1       2.941   0.381  -1.378  1.00  0.00     0.039 C 
HETATM    3  C3  UNL     1       3.620   1.659  -0.882  1.00  0.00     0.129 C 
HETATM    4  C4  UNL     1       4.717   2.191  -1.826  1.00  0.00     0.056 C 
HETATM    5  C5  UNL     1       4.196   3.211  -2.842  1.00  0.00     0.011 C 
HETATM    6  C6  UNL     1       3.238   2.574  -3.858  1.00  0.00     0.022 C 
HETATM    7  C7  UNL     1       2.018   1.940  -3.217  1.00  0.00    -0.042 C 
HETATM    8  C8  UNL     1       0.884   2.654  -3.127  1.00  0.00    -0.009 C 
HETATM    9  C9  UNL     1       5.728   2.725  -0.849  1.00  0.00     0.043 C 
HETATM   10  C10 UNL     1       5.369   2.106   0.436  1.00  0.00     0.292 C 
HETATM   11  O1  UNL     1       4.184   1.450   0.393  1.00  0.00    -0.301 OA
HETATM   12  O2  UNL     1       6.069   2.155   1.443  1.00  0.00    -0.260 OA
HETATM   13  C11 UNL     1       6.766   3.555  -1.044  1.00  0.00     0.001 C 
HETATM   14  C12 UNL     1       1.953  -0.182  -0.327  1.00  0.00     0.064 C 
HETATM   15  C13 UNL     1       0.597  -0.343  -1.025  1.00  0.00     0.157 C 
HETATM   16  C14 UNL     1       0.900  -0.310  -2.519  1.00  0.00     0.183 C 
HETATM   17  O3  UNL     1       1.138  -1.639  -2.931  1.00  0.00    -0.221 OA
ENDROOT
BRANCH  14  18
HETATM   18  C17 UNL     1       2.467  -1.493   0.285  1.00  0.00     0.154 C 
BRANCH  18  19
HETATM   19  O6  UNL     1       1.806  -1.732   1.500  1.00  0.00    -0.302 OA
BRANCH  19  20
HETATM   20  C18 UNL     1       2.081  -2.915   2.116  1.00  0.00     0.272 C 
HETATM   21  O7  UNL     1       2.684  -3.830   1.603  1.00  0.00    -0.264 OA
BRANCH  20  22
HETATM   22  C19 UNL     1       1.607  -2.879   3.561  1.00  0.00     0.096 C 
BRANCH  22  23
HETATM   23  C20 UNL     1       2.234  -3.954   4.471  1.00  0.00     0.010 C 
HETATM   24  C21 UNL     1       3.764  -3.815   4.568  1.00  0.00     0.001 C 
HETATM   25  C22 UNL     1       1.623  -3.879   5.882  1.00  0.00     0.001 C 
ENDBRANCH  22  23
ENDBRANCH  20  22
ENDBRANCH  19  20
ENDBRANCH  18  19
ENDBRANCH  14  18
BRANCH  15  26
HETATM   26  O4  UNL     1      -0.246   0.705  -0.642  1.00  0.00    -0.302 OA
BRANCH  26  27
HETATM   27  C15 UNL     1      -1.548   0.618  -1.030  1.00  0.00     0.272 C 
HETATM   28  C16 UNL     1      -2.317   1.836  -0.562  1.00  0.00     0.106 C 
HETATM   29  O5  UNL     1      -2.019  -0.297  -1.667  1.00  0.00    -0.264 OA
ENDBRANCH  26  27
ENDBRANCH  15  26
TORSDOF 7
