REMARK  8 active torsions:
REMARK  status: ('A' for Active; 'I' for Inactive)
REMARK    1  A    between atoms: C1_1  and  C20_23 
REMARK    2  A    between atoms: C7_7  and  C9_10 
REMARK    3  A    between atoms: C9_10  and  C10_11 
REMARK    4  A    between atoms: C12_14  and  C15_17 
REMARK    5  A    between atoms: C15_17  and  O3_20 
REMARK    6  A    between atoms: C21_24  and  O4_25 
REMARK    7  A    between atoms: O4_25  and  C22_26 
REMARK    8  A    between atoms: C22_26  and  C23_27 
ROOT
HETATM    1  C1  UNL     1      -0.108   0.065   0.033  1.00  0.00     0.044 C 
HETATM    2  C2  UNL     1       0.124  -1.467   0.173  1.00  0.00     0.008 C 
HETATM    3  C3  UNL     1       1.432  -1.704   0.960  1.00  0.00     0.005 C 
HETATM    4  C4  UNL     1       2.637  -1.267   0.107  1.00  0.00     0.022 C 
HETATM    5  C5  UNL     1       2.391   0.186  -0.197  1.00  0.00    -0.020 C 
HETATM    6  C6  UNL     1       1.194   0.775  -0.216  1.00  0.00    -0.019 C 
HETATM    7  C7  UNL     1       1.398   2.248  -0.448  1.00  0.00     0.141 C 
HETATM    8  O1  UNL     1       2.738   2.368  -0.899  1.00  0.00    -0.348 OA
HETATM    9  C8  UNL     1       3.445   1.206  -0.489  1.00  0.00     0.164 C 
HETATM   10  C12 UNL     1       2.779  -2.121  -1.179  1.00  0.00     0.029 C 
HETATM   11  C13 UNL     1       1.506  -2.960  -1.428  1.00  0.00     0.003 C 
HETATM   12  C14 UNL     1       0.246  -2.101  -1.239  1.00  0.00     0.001 C 
HETATM   13  C19 UNL     1      -1.036  -2.147   0.932  1.00  0.00     0.001 C 
ENDROOT
BRANCH   1  14
HETATM   14  C20 UNL     1      -0.848   0.697   1.188  1.00  0.00     0.004 C 
HETATM   15  C21 UNL     1      -2.164   0.961   1.128  1.00  0.00     0.122 C 
BRANCH  15  16
HETATM   16  O4  UNL     1      -2.840   1.550   2.157  1.00  0.00    -0.271 OA
BRANCH  16  17
HETATM   17  C22 UNL     1      -4.005   2.211   1.848  1.00  0.00     0.300 C 
HETATM   18  O5  UNL     1      -4.288   2.424   0.689  1.00  0.00    -0.259 OA
BRANCH  17  19
HETATM   19  C23 UNL     1      -4.843   2.620   2.841  1.00  0.00     0.060 C 
HETATM   20  C24 UNL     1      -6.011   3.274   2.696  1.00  0.00    -0.038 C 
HETATM   21  C25 UNL     1      -6.844   3.644   3.903  1.00  0.00     0.026 C 
HETATM   22  C26 UNL     1      -6.609   3.688   1.371  1.00  0.00     0.026 C 
ENDBRANCH  17  19
ENDBRANCH  16  17
ENDBRANCH  15  16
ENDBRANCH   1  14
BRANCH   7  23
HETATM   23  C9  UNL     1       0.463   2.878  -1.479  1.00  0.00     0.098 C 
BRANCH  23  24
HETATM   24  C10 UNL     1      -0.910   3.258  -0.943  1.00  0.00     0.154 C 
HETATM   25  C11 UNL     1      -2.066   3.215  -1.923  1.00  0.00     0.072 C 
HETATM   26  O2  UNL     1      -1.067   3.604   0.206  1.00  0.00    -0.296 OA
ENDBRANCH  23  24
ENDBRANCH   7  23
BRANCH  10  27
HETATM   27  C15 UNL     1       4.135  -2.859  -1.367  1.00  0.00     0.093 C 
HETATM   28  C16 UNL     1       5.194  -1.818  -1.798  1.00  0.00     0.030 C 
HETATM   29  C17 UNL     1       4.099  -3.914  -2.485  1.00  0.00     0.030 C 
BRANCH  27  30
HETATM   30  O3  UNL     1       4.656  -3.389  -0.178  1.00  0.00    -0.356 OA
HETATM   31  C18 UNL     1       4.036  -4.540   0.345  1.00  0.00     0.174 C 
ENDBRANCH  27  30
ENDBRANCH  10  27
TORSDOF 8
