REMARK  4 active torsions:
REMARK  status: ('A' for Active; 'I' for Inactive)
REMARK    1  A    between atoms: C2_2  and  O4_20 
REMARK    2  A    between atoms: C10_11  and  O3_18 
REMARK    3  A    between atoms: C11_12  and  C13_14 
REMARK    4  A    between atoms: C13_14  and  O1_15 
ROOT
HETATM    1  C1  UNL     1      -0.291  -2.566  -0.672  1.00  0.00     0.024 A 
HETATM    2  C2  UNL     1      -1.316  -1.999   0.138  1.00  0.00     0.096 A 
HETATM    3  C3  UNL     1      -1.042  -0.779   0.750  1.00  0.00     0.043 A 
HETATM    4  C4  UNL     1       0.230  -0.186   0.598  1.00  0.00     0.083 A 
HETATM    5  C5  UNL     1       1.216  -0.777  -0.200  1.00  0.00     0.019 A 
HETATM    6  C6  UNL     1       0.959  -1.999  -0.849  1.00  0.00     0.004 A 
HETATM    7  C7  UNL     1       2.359   0.094  -0.181  1.00  0.00     0.019 A 
HETATM    8  C8  UNL     1       2.044   1.178   0.644  1.00  0.00     0.083 A 
HETATM    9  N1  UNL     1       0.747   1.001   1.112  1.00  0.00    -0.245 NA
HETATM   10  C9  UNL     1       2.975   2.215   0.849  1.00  0.00     0.043 C 
HETATM   11  C10 UNL     1       4.242   2.146   0.278  1.00  0.00     0.101 C 
HETATM   12  C11 UNL     1       4.500   1.093  -0.662  1.00  0.00     0.086 C 
HETATM   13  C12 UNL     1       3.585   0.069  -0.872  1.00  0.00     0.009 C 
ENDROOT
BRANCH  12  14
HETATM   14  C13 UNL     1       5.791   1.082  -1.440  1.00  0.00     0.298 C 
HETATM   15  O2  UNL     1       6.178   2.170  -1.858  1.00  0.00    -0.259 OA
BRANCH  14  16
HETATM   16  O1  UNL     1       6.542  -0.015  -1.770  1.00  0.00    -0.296 OA
HETATM   17  C14 UNL     1       6.252  -1.285  -1.236  1.00  0.00     0.185 C 
ENDBRANCH  14  16
ENDBRANCH  12  14
BRANCH  11  18
HETATM   18  O3  UNL     1       5.097   3.205   0.456  1.00  0.00    -0.328 OA
HETATM   19  C15 UNL     1       5.977   3.035   1.544  1.00  0.00     0.181 C 
ENDBRANCH  11  18
BRANCH   2  20
HETATM   20  O4  UNL     1      -2.535  -2.633   0.179  1.00  0.00    -0.328 OA
HETATM   21  C16 UNL     1      -3.668  -1.875   0.536  1.00  0.00     0.181 C 
ENDBRANCH   2  20
TORSDOF 4
