REMARK  1 active torsions:
REMARK  status: ('A' for Active; 'I' for Inactive)
REMARK    1  A    between atoms: C21_22  and  C22_24 
ROOT
HETATM    1  C1  UNL     1      -2.513  -1.574  -2.470  1.00  0.00     0.033 C 
HETATM    2  C2  UNL     1      -3.442  -2.411  -1.600  1.00  0.00     0.152 C 
HETATM    3  C3  UNL     1      -2.710  -3.016  -0.380  1.00  0.00     0.028 C 
HETATM    4  C4  UNL     1      -1.409  -2.221  -0.034  1.00  0.00     0.002 C 
HETATM    5  C5  UNL     1      -1.425  -0.683  -0.255  1.00  0.00     0.001 C 
HETATM    6  C6  UNL     1      -1.860  -0.398  -1.726  1.00  0.00     0.003 C 
HETATM    7  C7  UNL     1       0.035  -0.119  -0.051  1.00  0.00     0.007 C 
HETATM    8  C8  UNL     1       0.875  -0.549   1.197  1.00  0.00     0.001 C 
HETATM    9  C9  UNL     1       0.661  -2.072   1.415  1.00  0.00     0.000 C 
HETATM   10  C10 UNL     1      -0.792  -2.563   1.337  1.00  0.00     0.000 C 
HETATM   11  C11 UNL     1       2.434  -0.194   0.990  1.00  0.00     0.007 C 
HETATM   12  C12 UNL     1       2.631   1.017   0.014  1.00  0.00     0.060 C 
HETATM   13  C13 UNL     1       1.468   1.980   0.155  1.00  0.00     0.150 C 
HETATM   14  C14 UNL     1       0.133   1.406  -0.278  1.00  0.00     0.065 C 
HETATM   15  O1  UNL     1       1.528   3.114   0.569  1.00  0.00    -0.296 OA
HETATM   16  C15 UNL     1       4.065   1.583   0.018  1.00  0.00     0.039 C 
HETATM   17  C16 UNL     1       4.649   1.950   1.394  1.00  0.00     0.003 C 
HETATM   18  C17 UNL     1       4.590   0.679   2.264  1.00  0.00     0.000 C 
HETATM   19  C18 UNL     1       3.153   0.124   2.338  1.00  0.00     0.000 C 
HETATM   20  C19 UNL     1       6.071   2.375   0.970  1.00  0.00     0.003 C 
HETATM   21  C20 UNL     1       5.878   3.109  -0.375  1.00  0.00     0.034 C 
HETATM   22  C21 UNL     1       4.549   2.628  -0.998  1.00  0.00     0.142 C 
HETATM   23  O2  UNL     1       3.639   3.701  -1.010  1.00  0.00    -0.222 OA
HETATM   24  C25 UNL     1       4.014   3.141   2.138  1.00  0.00     0.000 C 
HETATM   25  C26 UNL     1       3.203  -1.400   0.374  1.00  0.00     0.000 C 
HETATM   26  C27 UNL     1       0.313   0.152   2.461  1.00  0.00     0.000 C 
HETATM   27  C28 UNL     1      -2.477  -0.012   0.665  1.00  0.00     0.000 C 
HETATM   28  C29 UNL     1      -2.301  -4.461  -0.791  1.00  0.00     0.003 C 
HETATM   29  C30 UNL     1      -3.666  -3.183   0.823  1.00  0.00     0.003 C 
HETATM   30  O3  UNL     1      -4.566  -1.644  -1.239  1.00  0.00    -0.224 OA
ENDROOT
BRANCH  22  31
HETATM   31  C22 UNL     1       4.748   2.199  -2.449  1.00  0.00    -0.017 C 
HETATM   32  C23 UNL     1       5.054   3.307  -3.437  1.00  0.00     0.029 C 
HETATM   33  C24 UNL     1       4.676   0.932  -2.892  1.00  0.00    -0.007 C 
ENDBRANCH  22  31
TORSDOF 1
