REMARK  0 active torsions:
REMARK  status: ('A' for Active; 'I' for Inactive)
ROOT
HETATM    1  C1  UNL     1      -1.866   0.932  -0.059  1.00  0.00     0.007 C 
HETATM    2  C2  UNL     1      -1.892  -0.624   0.011  1.00  0.00     0.019 C 
HETATM    3  C3  UNL     1      -0.504  -1.163  -0.366  1.00  0.00     0.004 C 
HETATM    4  C4  UNL     1       0.441  -0.852   0.811  1.00  0.00     0.000 C 
HETATM    5  C5  UNL     1       0.281   0.635   1.238  1.00  0.00     0.000 C 
HETATM    6  C6  UNL     1      -0.449   1.485   0.184  1.00  0.00     0.001 C 
HETATM    7  C7  UNL     1       0.067  -1.808   1.972  1.00  0.00     0.000 C 
HETATM    8  C8  UNL     1      -1.407  -2.259   1.931  1.00  0.00     0.000 C 
HETATM    9  C9  UNL     1      -2.332  -1.156   1.397  1.00  0.00     0.004 C 
HETATM   10  C10 UNL     1       1.896  -1.109   0.370  1.00  0.00     0.000 C 
HETATM   11  C11 UNL     1      -2.892  -0.968  -1.061  1.00  0.00    -0.031 C 
HETATM   12  C12 UNL     1      -3.267   0.090  -1.786  1.00  0.00    -0.031 C 
HETATM   13  C13 UNL     1      -2.587   1.371  -1.368  1.00  0.00     0.019 C 
HETATM   14  C14 UNL     1      -3.644   2.459  -1.098  1.00  0.00     0.004 C 
HETATM   15  C15 UNL     1      -1.663   1.830  -2.509  1.00  0.00     0.004 C 
ENDROOT
TORSDOF 0
