REMARK  1 active torsions:
REMARK  status: ('A' for Active; 'I' for Inactive)
REMARK    1  A    between atoms: C2_2  and  O3_18 
ROOT
HETATM    1  C1  UNL     1      -3.482   0.842   0.702  1.00  0.00     0.019 C 
HETATM    2  C2  UNL     1      -2.982  -0.368   1.043  1.00  0.00     0.074 C 
HETATM    3  C3  UNL     1      -1.501  -0.472   1.363  1.00  0.00     0.091 C 
HETATM    4  C4  UNL     1      -0.641   0.450   0.474  1.00  0.00     0.236 C 
HETATM    5  C5  UNL     1      -1.284   1.806   0.493  1.00  0.00    -0.009 C 
HETATM    6  C6  UNL     1      -2.608   2.009   0.585  1.00  0.00    -0.005 C 
HETATM    7  C7  UNL     1      -0.197   2.830   0.617  1.00  0.00     0.059 C 
HETATM    8  C8  UNL     1       0.710   2.009   1.554  1.00  0.00     0.255 C 
HETATM    9  N1  UNL     1       0.696   0.630   1.062  1.00  0.00     0.141 N 
HETATM   10  C9  UNL     1       1.818   0.399   0.160  1.00  0.00     0.255 C 
HETATM   11  C10 UNL     1       1.717  -0.941  -0.586  1.00  0.00     0.060 C 
HETATM   12  C11 UNL     1       0.453  -0.837  -1.369  1.00  0.00    -0.009 A 
HETATM   13  C12 UNL     1      -0.595  -0.140  -0.912  1.00  0.00     0.068 A 
HETATM   14  C13 UNL     1      -1.586  -0.287  -1.998  1.00  0.00     0.294 A 
HETATM   15  O1  UNL     1      -1.140  -1.046  -3.046  1.00  0.00    -0.294 OA
HETATM   16  C14 UNL     1       0.181  -1.454  -2.709  1.00  0.00     0.174 A 
HETATM   17  O2  UNL     1      -2.702   0.216  -1.983  1.00  0.00    -0.259 OA
ENDROOT
BRANCH   2  18
HETATM   18  O3  UNL     1      -3.804  -1.452   1.202  1.00  0.00    -0.332 OA
HETATM   19  C15 UNL     1      -3.454  -2.604   0.468  1.00  0.00     0.181 C 
ENDBRANCH   2  18
TORSDOF 1
