REMARK  2 active torsions:
REMARK  status: ('A' for Active; 'I' for Inactive)
REMARK    1  A    between atoms: C7_8  and  O6_41 
REMARK    2  A    between atoms: C23_28  and  O5_39 
ROOT
HETATM    1  C1  UNL     1      -3.111   3.468  -0.308  1.00  0.00     0.102 C 
HETATM    2  N1  UNL     1      -2.928   2.284   0.488  1.00  0.00    -0.366 N 
HETATM    3  C2  UNL     1      -1.864   1.519  -0.104  1.00  0.00     0.088 A 
HETATM    4  C3  UNL     1      -0.587   2.299  -0.104  1.00  0.00     0.017 C 
HETATM    5  C4  UNL     1      -0.587   3.636  -0.104  1.00  0.00    -0.018 C 
HETATM    6  C5  UNL     1      -1.864   4.416  -0.104  1.00  0.00     0.050 C 
HETATM    7  C6  UNL     1       0.571   4.304  -0.116  1.00  0.00     0.022 C 
HETATM    8  C7  UNL     1       1.692   3.561   0.501  1.00  0.00     0.121 C 
HETATM    9  C8  UNL     1       1.710   2.261   0.187  1.00  0.00     0.175 C 
HETATM   10  C9  UNL     1       0.571   1.630  -0.116  1.00  0.00     0.125 C 
HETATM   11  O1  UNL     1       0.491   0.321  -0.457  1.00  0.00    -0.303 OA
HETATM   12  C10 UNL     1       1.600  -0.102  -1.110  1.00  0.00     0.125 A 
HETATM   13  C11 UNL     1       2.643   0.679  -1.409  1.00  0.00     0.153 A 
HETATM   14  O2  UNL     1       2.726   1.995  -1.095  1.00  0.00    -0.188 OA
HETATM   15  O3  UNL     1       2.931   1.673   0.191  1.00  0.00    -0.186 OA
HETATM   16  C12 UNL     1       3.700   0.168  -2.049  1.00  0.00     0.025 A 
HETATM   17  C13 UNL     1       3.705  -1.119  -2.408  1.00  0.00    -0.017 A 
HETATM   18  C14 UNL     1       2.658  -1.899  -2.118  1.00  0.00     0.012 A 
HETATM   19  C15 UNL     1       1.605  -1.390  -1.469  1.00  0.00     0.028 A 
HETATM   20  C16 UNL     1       2.658  -3.184  -2.487  1.00  0.00     0.058 C 
HETATM   21  N2  UNL     1       2.967  -3.500  -3.667  1.00  0.00    -0.274 NA
HETATM   22  C17 UNL     1       4.498  -2.914  -3.901  1.00  0.00     0.130 C 
HETATM   23  C18 UNL     1       4.894  -1.653  -3.144  1.00  0.00     0.053 C 
HETATM   24  C19 UNL     1       2.292  -4.301  -1.561  1.00  0.00     0.072 C 
HETATM   25  C20 UNL     1       2.541  -3.880  -0.147  1.00  0.00    -0.014 A 
HETATM   26  C21 UNL     1       3.652  -4.276   0.483  1.00  0.00    -0.002 A 
HETATM   27  C22 UNL     1       3.874  -3.899   1.747  1.00  0.00     0.026 A 
HETATM   28  C23 UNL     1       2.992  -3.117   2.376  1.00  0.00     0.117 A 
HETATM   29  C24 UNL     1       1.887  -2.711   1.743  1.00  0.00     0.122 A 
HETATM   30  O4  UNL     1       0.992  -1.918   2.381  1.00  0.00    -0.305 OA
HETATM   31  C25 UNL     1       0.158  -1.294   1.514  1.00  0.00     0.099 A 
HETATM   32  C26 UNL     1       0.293  -1.490   0.198  1.00  0.00     0.021 A 
HETATM   33  C27 UNL     1      -0.537  -0.883  -0.656  1.00  0.00    -0.018 A 
HETATM   34  C28 UNL     1      -1.502  -0.080  -0.195  1.00  0.00     0.060 A 
HETATM   35  C29 UNL     1      -2.431   0.599  -1.152  1.00  0.00     0.035 A 
HETATM   36  C30 UNL     1      -1.644   0.106   1.121  1.00  0.00    -0.018 A 
HETATM   37  C31 UNL     1      -0.806  -0.492   1.975  1.00  0.00     0.021 A 
HETATM   38  C32 UNL     1       1.659  -3.097   0.483  1.00  0.00     0.023 A 
HETATM   39  C35 UNL     1      -3.675   1.929   1.665  1.00  0.00     0.121 C 
ENDROOT
BRANCH   8  40
HETATM   40  O6  UNL     1       2.612   4.142   1.308  1.00  0.00    -0.326 OA
HETATM   41  C34 UNL     1       2.377   5.421   1.832  1.00  0.00     0.181 C 
ENDBRANCH   8  40
BRANCH  28  42
HETATM   42  O5  UNL     1       3.217  -2.735   3.657  1.00  0.00    -0.326 OA
HETATM   43  C33 UNL     1       4.489  -2.289   4.041  1.00  0.00     0.181 C 
ENDBRANCH  28  42
TORSDOF 2
