REMARK  1 active torsions:
REMARK  status: ('A' for Active; 'I' for Inactive)
REMARK    1  A    between atoms: C3_4  and  C5_7 
ROOT
HETATM    1  C1  UNL     1      -3.539   0.982   0.029  1.00  0.00     0.137 A 
HETATM    2  C2  UNL     1      -3.474  -0.360   0.095  1.00  0.00     0.125 A 
HETATM    3  N1  UNL     1      -2.273  -1.067   0.096  1.00  0.00    -0.238 NA
HETATM    4  C3  UNL     1      -1.174  -0.412   0.042  1.00  0.00     0.153 A 
HETATM    5  C4  UNL     1      -1.175   1.099  -0.009  1.00  0.00     0.201 A 
HETATM    6  O1  UNL     1      -2.427   1.760  -0.037  1.00  0.00    -0.321 OA
ENDROOT
BRANCH   4   7
HETATM    7  C5  UNL     1       0.135  -1.136   0.037  1.00  0.00     0.228 C 
HETATM    8  O2  UNL     1       1.309  -0.475  -0.025  1.00  0.00    -0.643 OA
HETATM    9  O3  UNL     1       0.191  -2.357   0.085  1.00  0.00    -0.643 OA
ENDBRANCH   4   7
TORSDOF 1
