REMARK  2 active torsions:
REMARK  status: ('A' for Active; 'I' for Inactive)
REMARK    1  A    between atoms: C14_15  and  O3_19 
REMARK    2  A    between atoms: C15_16  and  O2_17 
ROOT
HETATM    1  C1  UNL     1      -2.641   0.872  -0.233  1.00  0.00     0.133 A 
HETATM    2  C2  UNL     1      -1.832   1.987   0.015  1.00  0.00     0.052 A 
HETATM    3  C3  UNL     1      -0.435   1.921   0.046  1.00  0.00     0.096 A 
HETATM    4  C4  UNL     1       0.144   0.674  -0.231  1.00  0.00     0.018 A 
HETATM    5  C5  UNL     1      -0.624  -0.460  -0.516  1.00  0.00    -0.018 A 
HETATM    6  C6  UNL     1      -2.015  -0.347  -0.510  1.00  0.00     0.023 A 
HETATM    7  C7  UNL     1       0.084  -1.748  -0.848  1.00  0.00     0.031 C 
HETATM    8  C8  UNL     1       1.349  -1.912   0.007  1.00  0.00     0.033 C 
HETATM    9  C9  UNL     1       2.234  -0.681  -0.028  1.00  0.00     0.002 A 
HETATM   10  C10 UNL     1       1.603   0.559  -0.166  1.00  0.00     0.000 A 
HETATM   11  C11 UNL     1       2.338   1.741  -0.201  1.00  0.00     0.035 A 
HETATM   12  C12 UNL     1       1.592   3.043  -0.367  1.00  0.00     0.177 C 
HETATM   13  O1  UNL     1       0.323   3.041   0.259  1.00  0.00    -0.326 OA
HETATM   14  C13 UNL     1       3.731   1.673  -0.139  1.00  0.00     0.153 A 
HETATM   15  C14 UNL     1       4.393   0.440   0.031  1.00  0.00     0.141 A 
HETATM   16  C15 UNL     1       3.628  -0.746   0.153  1.00  0.00     0.114 A 
HETATM   17  O4  UNL     1       4.468   2.813  -0.246  1.00  0.00    -0.188 OA
HETATM   18  O5  UNL     1      -3.997   0.971  -0.238  1.00  0.00    -0.190 OA
ENDROOT
BRANCH  15  19
HETATM   19  O3  UNL     1       5.768   0.539   0.051  1.00  0.00    -0.324 OA
HETATM   20  C17 UNL     1       6.608  -0.580  -0.076  1.00  0.00     0.182 C 
ENDBRANCH  15  19
BRANCH  16  21
HETATM   21  O2  UNL     1       4.218  -1.977   0.275  1.00  0.00    -0.326 OA
HETATM   22  C16 UNL     1       4.242  -2.472   1.595  1.00  0.00     0.181 C 
ENDBRANCH  16  21
TORSDOF 2
