REMARK  7 active torsions:
REMARK  status: ('A' for Active; 'I' for Inactive)
REMARK    1  A    between atoms: C3_3  and  C4_4 
REMARK    2  A    between atoms: C4_4  and  C5_5 
REMARK    3  A    between atoms: C5_5  and  C6_6 
REMARK    4  A    between atoms: C8_8  and  C9_9 
REMARK    5  A    between atoms: C9_9  and  O1_10 
REMARK    6  A    between atoms: O1_10  and  C10_11 
REMARK    7  A    between atoms: C15_16  and  O2_17 
ROOT
HETATM    1  C10 UNL     1      -0.188   2.265   1.238  1.00  0.00     0.119 C 
HETATM    2  C11 UNL     1       0.928   2.774   1.912  1.00  0.00     0.026 C 
HETATM    3  C12 UNL     1       0.870   3.991   2.575  1.00  0.00     0.004 C 
HETATM    4  C13 UNL     1      -0.306   4.745   2.511  1.00  0.00     0.025 A 
HETATM    5  C14 UNL     1      -1.417   4.311   1.760  1.00  0.00     0.127 A 
HETATM    6  C15 UNL     1      -1.331   3.076   1.071  1.00  0.00     0.139 C 
HETATM    7  O3  UNL     1      -2.546   5.079   1.675  1.00  0.00    -0.271 OA
HETATM    8  C17 UNL     1      -2.600   6.261   2.348  1.00  0.00     0.300 A 
HETATM    9  C18 UNL     1      -1.470   6.772   3.151  1.00  0.00     0.069 A 
HETATM   10  C19 UNL     1      -0.350   6.024   3.221  1.00  0.00     0.007 A 
HETATM   11  O4  UNL     1      -3.621   6.945   2.300  1.00  0.00    -0.259 OA
ENDROOT
BRANCH   1  12
HETATM   12  O1  UNL     1      -0.063   1.090   0.539  1.00  0.00    -0.324 OA
BRANCH  12  13
HETATM   13  C9  UNL     1      -0.490  -0.050   1.261  1.00  0.00     0.174 C 
BRANCH  13  14
HETATM   14  C8  UNL     1      -0.429  -1.275   0.381  1.00  0.00    -0.002 C 
HETATM   15  C6  UNL     1      -0.015  -2.509   0.722  1.00  0.00    -0.045 C 
HETATM   16  C7  UNL     1       0.452  -2.890   2.110  1.00  0.00     0.026 C 
BRANCH  15  17
HETATM   17  C5  UNL     1       0.034  -3.669  -0.258  1.00  0.00     0.026 C 
BRANCH  17  18
HETATM   18  C4  UNL     1      -0.445  -3.403  -1.695  1.00  0.00     0.030 C 
BRANCH  18  19
HETATM   19  C3  UNL     1      -0.307  -4.614  -2.586  1.00  0.00    -0.034 C 
HETATM   20  C2  UNL     1      -0.464  -4.613  -3.922  1.00  0.00    -0.048 C 
HETATM   21  C1  UNL     1      -0.259  -5.865  -4.741  1.00  0.00     0.026 C 
HETATM   22  C20 UNL     1      -0.836  -3.386  -4.720  1.00  0.00     0.026 C 
ENDBRANCH  18  19
ENDBRANCH  17  18
ENDBRANCH  15  17
ENDBRANCH  13  14
ENDBRANCH  12  13
ENDBRANCH   1  12
BRANCH   6  23
HETATM   23  O2  UNL     1      -2.325   2.519   0.294  1.00  0.00    -0.324 OA
HETATM   24  C16 UNL     1      -3.626   3.052   0.265  1.00  0.00     0.182 C 
ENDBRANCH   6  23
TORSDOF 7
