REMARK  1 active torsions:
REMARK  status: ('A' for Active; 'I' for Inactive)
REMARK    1  A    between atoms: C13_16  and  C15_18 
ROOT
HETATM    1  C1  UNL     1      -2.976   0.826  -2.528  1.00  0.00     0.002 C 
HETATM    2  C2  UNL     1      -3.580   1.758  -1.784  1.00  0.00     0.011 C 
HETATM    3  C3  UNL     1      -2.674   2.335  -0.725  1.00  0.00     0.222 C 
HETATM    4  C4  UNL     1      -2.199   1.211   0.222  1.00  0.00     0.041 C 
HETATM    5  C5  UNL     1      -1.494   0.144  -0.671  1.00  0.00     0.036 C 
HETATM    6  C6  UNL     1      -1.528   0.614  -2.143  1.00  0.00     0.146 C 
HETATM    7  O1  UNL     1      -0.898   1.872  -2.260  1.00  0.00    -0.298 OA
HETATM    8  C7  UNL     1      -1.464   2.841  -1.493  1.00  0.00     0.304 C 
HETATM    9  O2  UNL     1      -1.120   4.000  -1.420  1.00  0.00    -0.261 OA
HETATM   10  C8  UNL     1      -0.116  -0.422  -0.194  1.00  0.00     0.014 C 
HETATM   11  C9  UNL     1      -0.050  -0.555   1.347  1.00  0.00     0.087 C 
HETATM   12  C10 UNL     1      -0.639   0.626   2.149  1.00  0.00     0.010 C 
HETATM   13  C11 UNL     1      -1.239   1.749   1.297  1.00  0.00     0.004 C 
HETATM   14  C12 UNL     1      -0.484  -1.929   1.853  1.00  0.00     0.272 C 
HETATM   15  O3  UNL     1       0.220  -2.967   1.323  1.00  0.00    -0.300 OA
HETATM   16  C13 UNL     1       0.864  -2.810   0.084  1.00  0.00     0.148 C 
HETATM   17  C14 UNL     1       0.078  -1.842  -0.799  1.00  0.00     0.035 C 
HETATM   18  O5  UNL     1      -1.276  -2.091   2.757  1.00  0.00    -0.264 OA
HETATM   19  C19 UNL     1       1.090   0.429  -0.670  1.00  0.00     0.001 C 
HETATM   20  C20 UNL     1      -3.443   0.612   0.926  1.00  0.00     0.003 C 
HETATM   21  O6  UNL     1      -3.250   3.434  -0.041  1.00  0.00    -0.211 OA
ENDROOT
BRANCH  16  22
HETATM   22  C15 UNL     1       2.333  -2.503   0.194  1.00  0.00     0.032 A 
HETATM   23  C16 UNL     1       3.211  -2.406  -0.845  1.00  0.00     0.121 A 
HETATM   24  O4  UNL     1       4.468  -2.118  -0.403  1.00  0.00    -0.303 OA
HETATM   25  C17 UNL     1       4.384  -2.042   0.955  1.00  0.00     0.122 A 
HETATM   26  C18 UNL     1       3.110  -2.275   1.377  1.00  0.00     0.027 A 
ENDBRANCH  16  22
TORSDOF 1
