REMARK  0 active torsions:
REMARK  status: ('A' for Active; 'I' for Inactive)
ROOT
HETATM    1  C1  UNL     1      -3.601   0.323   1.815  1.00  0.00     0.035 C 
HETATM    2  C2  UNL     1      -3.739  -0.149   0.361  1.00  0.00     0.250 C 
HETATM    3  N1  UNL     1      -2.648  -1.047   0.008  1.00  0.00     0.133 N 
HETATM    4  C3  UNL     1      -1.317  -0.431   0.085  1.00  0.00     0.194 C 
HETATM    5  C4  UNL     1      -1.119   0.281   1.446  1.00  0.00     0.030 C 
HETATM    6  C5  UNL     1      -2.302   1.115   1.965  1.00  0.00     0.004 C 
HETATM    7  C6  UNL     1       0.202   1.070   1.376  1.00  0.00     0.004 C 
HETATM    8  C7  UNL     1       0.039   2.299   0.464  1.00  0.00     0.033 C 
HETATM    9  C8  UNL     1      -0.859   2.020  -0.747  1.00  0.00     0.154 C 
HETATM   10  C9  UNL     1      -1.007   0.536  -1.107  1.00  0.00     0.060 C 
HETATM   11  C10 UNL     1      -1.957   0.364  -2.308  1.00  0.00     0.006 C 
HETATM   12  C11 UNL     1      -2.289  -1.112  -2.513  1.00  0.00     0.035 C 
HETATM   13  C12 UNL     1      -2.882  -1.753  -1.249  1.00  0.00     0.250 C 
HETATM   14  O1  UNL     1      -0.343   2.728  -1.852  1.00  0.00    -0.223 OA
HETATM   15  C13 UNL     1       1.376   0.189   0.885  1.00  0.00     0.000 C 
HETATM   16  C14 UNL     1       1.034  -1.307   0.882  1.00  0.00     0.002 C 
HETATM   17  C15 UNL     1      -0.265  -1.592   0.093  1.00  0.00     0.031 C 
HETATM   18  C16 UNL     1       2.204  -2.153   0.355  1.00  0.00     0.000 C 
ENDROOT
TORSDOF 0
