REMARK  6 active torsions:
REMARK  status: ('A' for Active; 'I' for Inactive)
REMARK    1  A    between atoms: C10_10  and  O1_11 
REMARK    2  A    between atoms: O1_11  and  C11_12 
REMARK    3  A    between atoms: C13_15  and  O3_17 
REMARK    4  A    between atoms: N1_21  and  C24_31 
REMARK    5  A    between atoms: C18_23  and  C22_28 
REMARK    6  A    between atoms: C22_28  and  O6_29 
ROOT
HETATM    1  C1  UNL     1      -0.629  -0.518   1.126  1.00  0.00     0.058 C 
HETATM    2  C2  UNL     1      -0.692  -2.032   0.787  1.00  0.00     0.009 C 
HETATM    3  C3  UNL     1      -0.172  -2.113  -0.663  1.00  0.00     0.005 C 
HETATM    4  C4  UNL     1      -0.392  -0.688  -1.220  1.00  0.00     0.060 C 
HETATM    5  C5  UNL     1       0.949   0.058  -1.337  1.00  0.00     0.133 C 
HETATM    6  C6  UNL     1       1.739  -0.076  -0.030  1.00  0.00     0.056 C 
HETATM    7  C7  UNL     1       0.821   0.049   1.205  1.00  0.00     0.009 C 
HETATM    8  C8  UNL     1       0.909   1.561   1.525  1.00  0.00     0.005 C 
HETATM    9  C9  UNL     1       1.803   2.199   0.441  1.00  0.00     0.055 C 
HETATM   10  C10 UNL     1       2.760   1.051   0.129  1.00  0.00     0.129 C 
HETATM   11  C13 UNL     1       0.981   2.634  -0.786  1.00  0.00     0.120 C 
HETATM   12  C14 UNL     1       0.776   1.510  -1.819  1.00  0.00     0.060 C 
HETATM   13  O4  UNL     1       1.706  -0.596  -2.330  1.00  0.00    -0.226 OA
HETATM   14  C16 UNL     1      -1.297  -0.005  -0.166  1.00  0.00     0.224 C 
HETATM   15  N1  UNL     1      -2.716  -0.353  -0.237  1.00  0.00     0.135 N 
HETATM   16  C17 UNL     1      -2.948  -1.790  -0.253  1.00  0.00     0.253 C 
HETATM   17  C18 UNL     1      -2.161  -2.538   0.863  1.00  0.00     0.059 C 
HETATM   18  C19 UNL     1      -2.826  -2.184   2.220  1.00  0.00     0.007 C 
HETATM   19  C20 UNL     1      -1.919  -1.393   3.161  1.00  0.00     0.033 C 
HETATM   20  C21 UNL     1      -1.334  -0.179   2.455  1.00  0.00     0.154 C 
HETATM   21  O5  UNL     1      -2.328   0.804   2.290  1.00  0.00    -0.223 OA
ENDROOT
BRANCH  10  22
HETATM   22  O1  UNL     1       3.526   1.210  -1.025  1.00  0.00    -0.304 OA
BRANCH  22  23
HETATM   23  C11 UNL     1       4.399   2.252  -1.064  1.00  0.00     0.272 C 
HETATM   24  O2  UNL     1       4.651   2.984  -0.134  1.00  0.00    -0.264 OA
HETATM   25  C12 UNL     1       4.997   2.385  -2.450  1.00  0.00     0.106 C 
ENDBRANCH  22  23
ENDBRANCH  10  22
BRANCH  11  26
HETATM   26  O3  UNL     1       1.609   3.705  -1.449  1.00  0.00    -0.354 OA
HETATM   27  C15 UNL     1       1.364   4.968  -0.866  1.00  0.00     0.174 C 
ENDBRANCH  11  26
BRANCH  15  28
HETATM   28  C24 UNL     1      -3.420   0.284  -1.349  1.00  0.00     0.250 C 
HETATM   29  C25 UNL     1      -3.406   1.822  -1.309  1.00  0.00     0.037 C 
ENDBRANCH  15  28
BRANCH  17  30
HETATM   30  C22 UNL     1      -2.300  -4.057   0.586  1.00  0.00     0.144 C 
BRANCH  30  31
HETATM   31  O6  UNL     1      -1.267  -4.858   1.110  1.00  0.00    -0.351 OA
HETATM   32  C23 UNL     1      -1.389  -5.146   2.485  1.00  0.00     0.174 C 
ENDBRANCH  30  31
ENDBRANCH  17  30
TORSDOF 6
