REMARK  3 active torsions:
REMARK  status: ('A' for Active; 'I' for Inactive)
REMARK    1  A    between atoms: C7_7  and  C12_12 
REMARK    2  A    between atoms: C12_12  and  O1_13 
REMARK    3  A    between atoms: O1_13  and  C13_14 
ROOT
HETATM    1  C1  UNL     1      -1.109  -1.620  -2.022  1.00  0.00     0.033 C 
HETATM    2  C2  UNL     1      -1.716  -2.562  -0.991  1.00  0.00     0.152 C 
HETATM    3  C3  UNL     1      -0.673  -3.501  -0.345  1.00  0.00     0.029 C 
HETATM    4  C4  UNL     1       0.741  -2.820  -0.293  1.00  0.00     0.007 C 
HETATM    5  C5  UNL     1       0.731  -1.267  -0.204  1.00  0.00     0.006 C 
HETATM    6  C6  UNL     1      -0.010  -0.709  -1.443  1.00  0.00     0.003 C 
HETATM    7  C7  UNL     1       2.182  -0.686  -0.092  1.00  0.00     0.048 C 
HETATM    8  C8  UNL     1       3.242  -1.413  -0.896  1.00  0.00    -0.046 C 
HETATM    9  C9  UNL     1       2.984  -2.579  -1.503  1.00  0.00    -0.035 C 
HETATM   10  C10 UNL     1       1.661  -3.278  -1.446  1.00  0.00     0.025 C 
HETATM   11  C11 UNL     1       4.641  -0.840  -0.941  1.00  0.00     0.026 C 
HETATM   12  C22 UNL     1       0.023  -0.797   1.099  1.00  0.00     0.000 C 
HETATM   13  C23 UNL     1      -1.152  -3.880   1.082  1.00  0.00     0.003 C 
HETATM   14  C24 UNL     1      -0.637  -4.862  -1.091  1.00  0.00     0.003 C 
HETATM   15  O4  UNL     1      -2.762  -3.288  -1.597  1.00  0.00    -0.224 OA
ENDROOT
BRANCH   7  16
HETATM   16  C12 UNL     1       2.258   0.837  -0.332  1.00  0.00     0.153 C 
BRANCH  16  17
HETATM   17  O1  UNL     1       3.252   1.387   0.495  1.00  0.00    -0.330 OA
BRANCH  17  18
HETATM   18  C13 UNL     1       3.293   2.748   0.654  1.00  0.00     0.096 A 
HETATM   19  C14 UNL     1       3.745   3.272   1.873  1.00  0.00     0.049 A 
HETATM   20  C15 UNL     1       3.779   4.636   2.192  1.00  0.00     0.105 A 
HETATM   21  C16 UNL     1       3.311   5.528   1.213  1.00  0.00     0.023 A 
HETATM   22  O2  UNL     1       4.243   5.034   3.415  1.00  0.00    -0.273 OA
HETATM   23  C17 UNL     1       2.821   5.046  -0.008  1.00  0.00     0.004 A 
HETATM   24  C19 UNL     1       3.324   6.961   1.497  1.00  0.00     0.007 A 
HETATM   25  C18 UNL     1       2.790   3.678  -0.269  1.00  0.00     0.024 A 
HETATM   26  C20 UNL     1       3.775   7.379   2.699  1.00  0.00     0.069 A 
HETATM   27  C21 UNL     1       4.240   6.372   3.680  1.00  0.00     0.300 A 
HETATM   28  O3  UNL     1       4.635   6.782   4.770  1.00  0.00    -0.259 OA
ENDBRANCH  17  18
ENDBRANCH  16  17
ENDBRANCH   7  16
TORSDOF 3
