REMARK  0 active torsions:
REMARK  status: ('A' for Active; 'I' for Inactive)
ROOT
HETATM    1  C1  UNL     1      -0.451   0.815   1.044  1.00  0.00     0.007 C 
HETATM    2  C2  UNL     1      -1.009  -0.605   0.798  1.00  0.00     0.052 C 
HETATM    3  C3  UNL     1      -1.073  -1.032  -0.688  1.00  0.00     0.014 C 
HETATM    4  C4  UNL     1      -0.849   0.074  -1.731  1.00  0.00     0.056 C 
HETATM    5  C5  UNL     1       0.584   0.667  -1.772  1.00  0.00     0.129 C 
HETATM    6  C6  UNL     1       1.489   0.405  -0.562  1.00  0.00     0.031 C 
HETATM    7  C7  UNL     1       1.033   1.084   0.744  1.00  0.00     0.003 C 
HETATM    8  C8  UNL     1       1.996   0.765   1.900  1.00  0.00     0.000 C 
HETATM    9  O1  UNL     1       1.246   0.205  -2.929  1.00  0.00    -0.301 OA
HETATM   10  C9  UNL     1       0.344  -0.425  -3.718  1.00  0.00     0.292 C 
HETATM   11  C10 UNL     1      -0.997  -0.479  -3.123  1.00  0.00     0.043 C 
HETATM   12  C11 UNL     1      -2.103  -0.940  -3.732  1.00  0.00     0.001 C 
HETATM   13  O2  UNL     1       0.630  -0.906  -4.810  1.00  0.00    -0.260 OA
HETATM   14  C12 UNL     1      -2.398  -0.443   1.427  1.00  0.00     0.150 C 
HETATM   15  C13 UNL     1      -2.425   0.718   2.407  1.00  0.00     0.065 C 
HETATM   16  C14 UNL     1      -0.978   1.235   2.425  1.00  0.00     0.008 C 
HETATM   17  O3  UNL     1      -3.354  -1.149   1.204  1.00  0.00    -0.296 OA
HETATM   18  C15 UNL     1      -0.342  -1.727   1.620  1.00  0.00     0.007 C 
ENDROOT
TORSDOF 0
