REMARK  1 active torsions:
REMARK  status: ('A' for Active; 'I' for Inactive)
REMARK    1  A    between atoms: C5_5  and  C18_21 
ROOT
HETATM    1  C1  UNL     1      -2.871   0.575   0.999  1.00  0.00     0.000 C 
HETATM    2  C2  UNL     1      -2.955  -0.973   0.864  1.00  0.00     0.000 C 
HETATM    3  C3  UNL     1      -2.242  -1.468  -0.387  1.00  0.00     0.000 C 
HETATM    4  C4  UNL     1      -0.806  -0.961  -0.387  1.00  0.00     0.005 C 
HETATM    5  C5  UNL     1      -0.806   0.562  -0.387  1.00  0.00     0.031 C 
HETATM    6  C6  UNL     1      -1.434   1.070   0.904  1.00  0.00     0.003 C 
HETATM    7  C7  UNL     1       0.626   1.070  -0.489  1.00  0.00     0.014 C 
HETATM    8  C8  UNL     1       1.590  -0.106  -0.393  1.00  0.00     0.108 C 
HETATM    9  C9  UNL     1       1.397  -1.020  -1.596  1.00  0.00     0.161 C 
HETATM   10  C10 UNL     1      -0.088  -1.468  -1.631  1.00  0.00     0.034 C 
HETATM   11  O1  UNL     1       1.710  -0.326  -2.773  1.00  0.00    -0.223 OA
HETATM   12  C11 UNL     1       3.022   0.412  -0.374  1.00  0.00     0.161 C 
HETATM   13  C12 UNL     1       3.234   0.855   1.068  1.00  0.00     0.038 C 
HETATM   14  C13 UNL     1       2.518   2.178   1.303  1.00  0.00     0.003 C 
HETATM   15  C14 UNL     1       0.901   2.046   0.648  1.00  0.00     0.001 C 
HETATM   16  C15 UNL     1       2.565  -0.238   1.891  1.00  0.00     0.060 C 
HETATM   17  C16 UNL     1       1.236  -0.892   0.845  1.00  0.00     0.154 C 
HETATM   18  O2  UNL     1       0.359  -1.692   1.066  1.00  0.00    -0.296 OA
HETATM   19  C17 UNL     1       1.991   0.343   3.177  1.00  0.00     0.008 C 
HETATM   20  O3  UNL     1       3.923  -0.605  -0.720  1.00  0.00    -0.223 OA
HETATM   21  C19 UNL     1      -2.241  -2.991  -0.401  1.00  0.00     0.000 C 
HETATM   22  C20 UNL     1      -2.964  -0.948  -1.623  1.00  0.00     0.000 C 
ENDROOT
BRANCH   5  23
HETATM   23  C18 UNL     1      -1.610   1.070  -1.576  1.00  0.00     0.182 C 
HETATM   24  O4  UNL     1      -1.611   2.472  -1.577  1.00  0.00    -0.221 OA
ENDBRANCH   5  23
TORSDOF 1
