REMARK  1 active torsions:
REMARK  status: ('A' for Active; 'I' for Inactive)
REMARK    1  A    between atoms: C18_22  and  C19_23 
ROOT
HETATM    1  C1  UNL     1      -0.972  -2.701  -0.387  1.00  0.00    -0.000 A 
HETATM    2  C2  UNL     1      -0.567  -4.024  -0.183  1.00  0.00     0.002 A 
HETATM    3  C3  UNL     1       0.790  -4.337  -0.088  1.00  0.00     0.017 A 
HETATM    4  C4  UNL     1       1.711  -3.291  -0.188  1.00  0.00     0.059 A 
HETATM    5  C5  UNL     1       1.325  -1.950  -0.344  1.00  0.00     0.004 A 
HETATM    6  C6  UNL     1      -0.034  -1.667  -0.473  1.00  0.00    -0.002 A 
HETATM    7  C7  UNL     1       2.503  -0.990  -0.364  1.00  0.00     0.126 A 
HETATM    8  C8  UNL     1       3.648  -2.028  -0.341  1.00  0.00     0.242 A 
HETATM    9  N1  UNL     1       3.105  -3.266  -0.173  1.00  0.00    -0.297 N 
HETATM   10  C9  UNL     1       3.946  -4.459  -0.047  1.00  0.00     0.133 C 
HETATM   11  O1  UNL     1       4.853  -1.808  -0.453  1.00  0.00    -0.272 OA
HETATM   12  C10 UNL     1       2.667  -0.042  -1.567  1.00  0.00     0.054 C 
HETATM   13  C11 UNL     1       3.265   1.245  -0.946  1.00  0.00     0.288 C 
HETATM   14  N2  UNL     1       3.773   0.783   0.346  1.00  0.00     0.338 N 
HETATM   15  C12 UNL     1       2.701  -0.068   0.853  1.00  0.00     0.269 C 
HETATM   16  C13 UNL     1       1.528   0.846   1.254  1.00  0.00     0.044 C 
HETATM   17  C14 UNL     1       1.055   1.802   0.144  1.00  0.00     0.062 C 
HETATM   18  C15 UNL     1       2.227   2.345  -0.679  1.00  0.00     0.190 C 
HETATM   19  C16 UNL     1       2.822   3.552   0.025  1.00  0.00     0.181 C 
HETATM   20  O2  UNL     1       1.873   4.579   0.112  1.00  0.00    -0.326 OA
HETATM   21  C17 UNL     1       0.642   4.217   0.578  1.00  0.00     0.115 C 
HETATM   22  C18 UNL     1       0.204   2.942   0.658  1.00  0.00     0.039 C 
HETATM   23  O4  UNL     1       1.730   2.816  -1.906  1.00  0.00    -0.221 OA
ENDROOT
BRANCH  22  24
HETATM   24  C19 UNL     1      -1.164   2.724   1.210  1.00  0.00     0.172 C 
HETATM   25  O3  UNL     1      -1.688   3.542   1.957  1.00  0.00    -0.292 OA
HETATM   26  C20 UNL     1      -1.926   1.465   0.837  1.00  0.00     0.077 C 
ENDBRANCH  22  24
TORSDOF 1
