REMARK  6 active torsions:
REMARK  status: ('A' for Active; 'I' for Inactive)
REMARK    1  A    between atoms: C2_2  and  O4_31 
REMARK    2  A    between atoms: O4_31  and  C28_32 
REMARK    3  A    between atoms: C32_37  and  O6_38 
REMARK    4  A    between atoms: O6_38  and  C33_39 
REMARK    5  A    between atoms: C36_43  and  O9_46 
REMARK    6  A    between atoms: O9_46  and  C38_47 
ROOT
HETATM    1  C1  UNL     1       0.303   0.264  -2.279  1.00  0.00     0.063 C 
HETATM    2  C2  UNL     1      -0.094  -0.937  -1.365  1.00  0.00     0.120 C 
HETATM    3  C3  UNL     1       1.095  -1.870  -1.512  1.00  0.00     0.030 C 
HETATM    4  C4  UNL     1       2.440  -1.116  -1.401  1.00  0.00     0.009 C 
HETATM    5  C5  UNL     1       2.404   0.353  -0.817  1.00  0.00     0.043 C 
HETATM    6  C6  UNL     1       1.689   0.956  -2.063  1.00  0.00     0.158 C 
HETATM    7  O1  UNL     1       1.510   2.351  -2.031  1.00  0.00    -0.223 OA
HETATM    8  C7  UNL     1       3.881   0.517  -0.293  1.00  0.00    -0.050 C 
HETATM    9  C8  UNL     1       5.146  -0.395  -1.292  1.00  0.00    -0.052 C 
HETATM   10  C9  UNL     1       4.665  -0.438  -2.749  1.00  0.00     0.021 C 
HETATM   11  C10 UNL     1       3.320  -1.238  -2.713  1.00  0.00     0.005 C 
HETATM   12  C11 UNL     1       6.894  -0.307  -0.838  1.00  0.00     0.020 C 
HETATM   13  C12 UNL     1       7.555   0.244   0.757  1.00  0.00     0.006 C 
HETATM   14  C13 UNL     1       6.348   1.115   1.947  1.00  0.00     0.005 C 
HETATM   15  C14 UNL     1       4.441   1.193   1.493  1.00  0.00     0.021 C 
HETATM   16  C15 UNL     1       9.008   0.821   0.282  1.00  0.00     0.032 C 
HETATM   17  C16 UNL     1       9.041   0.940  -1.262  1.00  0.00     0.118 C 
HETATM   18  C17 UNL     1       7.732   0.452  -1.892  1.00  0.00     0.034 C 
HETATM   19  O2  UNL     1      10.109   0.233  -1.834  1.00  0.00    -0.337 OA
HETATM   20  C18 UNL     1      10.665  -0.636  -0.902  1.00  0.00     0.187 C 
HETATM   21  C19 UNL     1      10.403   0.079   0.430  1.00  0.00     0.054 C 
HETATM   22  C20 UNL     1      11.582   1.032   0.742  1.00  0.00     0.005 C 
HETATM   23  O3  UNL     1      12.031  -0.716  -1.258  1.00  0.00    -0.335 OA
HETATM   24  C21 UNL     1      12.265  -1.282  -2.535  1.00  0.00     0.145 C 
HETATM   25  C22 UNL     1      11.713  -2.704  -2.669  1.00  0.00     0.030 C 
HETATM   26  C23 UNL     1      10.234  -2.716  -2.277  1.00  0.00     0.007 C 
HETATM   27  C24 UNL     1      10.101  -2.046  -0.915  1.00  0.00     0.056 C 
HETATM   28  C25 UNL     1      11.878  -3.292  -4.084  1.00  0.00     0.003 C 
HETATM   29  C26 UNL     1       8.063  -0.836   1.737  1.00  0.00     0.000 C 
HETATM   30  C27 UNL     1       1.663   1.115   0.315  1.00  0.00     0.007 C 
ENDROOT
BRANCH   2  31
HETATM   31  O4  UNL     1      -0.258  -0.479  -0.057  1.00  0.00    -0.332 OA
BRANCH  31  32
HETATM   32  C28 UNL     1      -0.805  -1.219   1.024  1.00  0.00     0.267 C 
HETATM   33  O5  UNL     1      -2.012  -0.472   1.111  1.00  0.00    -0.326 OA
HETATM   34  C29 UNL     1      -2.704  -0.559   2.324  1.00  0.00     0.181 C 
HETATM   35  C30 UNL     1      -1.881  -0.030   3.484  1.00  0.00     0.214 C 
HETATM   36  C31 UNL     1      -0.658  -0.909   3.607  1.00  0.00     0.217 C 
HETATM   37  O16 UNL     1      -1.489   1.312   3.288  1.00  0.00    -0.218 OA
HETATM   38  C32 UNL     1       0.067  -0.994   2.277  1.00  0.00     0.207 C 
HETATM   39  O15 UNL     1       0.236  -0.357   4.552  1.00  0.00    -0.218 OA
BRANCH  38  40
HETATM   40  O6  UNL     1       1.127  -1.906   2.471  1.00  0.00    -0.321 OA
BRANCH  40  41
HETATM   41  C33 UNL     1       2.247  -1.744   1.613  1.00  0.00     0.288 C 
HETATM   42  O7  UNL     1       2.494  -3.060   1.233  1.00  0.00    -0.325 OA
HETATM   43  C34 UNL     1       3.835  -3.452   1.079  1.00  0.00     0.155 C 
HETATM   44  C35 UNL     1       5.010  -2.398   0.907  1.00  0.00     0.225 C 
HETATM   45  C44 UNL     1       3.770  -4.522  -0.022  1.00  0.00     0.035 C 
HETATM   46  C36 UNL     1       4.853  -0.783   1.268  1.00  0.00     0.133 C 
HETATM   47  O14 UNL     1       5.971  -2.985   1.766  1.00  0.00    -0.214 OA
HETATM   48  C37 UNL     1       3.468  -1.103   2.208  1.00  0.00     0.185 C 
HETATM   49  O8  UNL     1       3.067  -0.413   3.381  1.00  0.00    -0.188 OA
BRANCH  46  50
HETATM   50  O9  UNL     1       5.537   0.632   0.328  1.00  0.00    -0.303 OA
BRANCH  50  51
HETATM   51  C38 UNL     1       5.319   2.390   0.187  1.00  0.00     0.274 C 
HETATM   52  O10 UNL     1       3.999   2.883  -0.122  1.00  0.00    -0.329 OA
HETATM   53  C39 UNL     1       3.590   4.207   0.033  1.00  0.00     0.151 C 
HETATM   54  C40 UNL     1       4.350   5.090  -0.917  1.00  0.00     0.212 C 
HETATM   55  C43 UNL     1       3.369   4.694   1.464  1.00  0.00     0.035 C 
HETATM   56  C41 UNL     1       5.812   4.710  -0.857  1.00  0.00     0.220 C 
HETATM   57  O13 UNL     1       3.856   4.918  -2.228  1.00  0.00    -0.218 OA
HETATM   58  C42 UNL     1       6.132   3.201  -0.827  1.00  0.00     0.241 C 
HETATM   59  O12 UNL     1       6.332   5.316   0.306  1.00  0.00    -0.218 OA
HETATM   60  O11 UNL     1       7.494   3.170  -0.514  1.00  0.00    -0.215 OA
ENDBRANCH  50  51
ENDBRANCH  46  50
ENDBRANCH  40  41
ENDBRANCH  38  40
ENDBRANCH  31  32
ENDBRANCH   2  31
TORSDOF 6
