REMARK  8 active torsions:
REMARK  status: ('A' for Active; 'I' for Inactive)
REMARK    1  A    between atoms: C2_2  and  C3_3 
REMARK    2  A    between atoms: C3_3  and  C4_4 
REMARK    3  A    between atoms: C8_11  and  C16_23 
REMARK    4  A    between atoms: C10_14  and  C13_19 
REMARK    5  A    between atoms: C16_23  and  C17_24 
REMARK    6  A    between atoms: C17_24  and  C18_25 
REMARK    7  A    between atoms: C18_25  and  C19_26 
REMARK    8  A    between atoms: C19_26  and  C20_27 
ROOT
HETATM    1  C4  UNL     1       2.312   1.393  -0.634  1.00  0.00     0.191 C 
HETATM    2  C5  UNL     1       3.053   0.411  -1.535  1.00  0.00     0.275 C 
HETATM    3  O1  UNL     1       3.615   0.738  -2.554  1.00  0.00    -0.268 OA
HETATM    4  N1  UNL     1       3.007  -0.888  -1.103  1.00  0.00    -0.229 NA
HETATM    5  C6  UNL     1       3.558  -2.001  -1.888  1.00  0.00     0.186 C 
HETATM    6  C7  UNL     1       4.070  -3.109  -0.968  1.00  0.00     0.274 C 
HETATM    7  N2  UNL     1       5.028  -2.783  -0.046  1.00  0.00    -0.228 NA
HETATM    8  C8  UNL     1       5.696  -1.481   0.117  1.00  0.00     0.192 C 
HETATM    9  C9  UNL     1       5.063  -0.678   1.252  1.00  0.00     0.294 C 
HETATM   10  O2  UNL     1       4.271  -1.488   1.998  1.00  0.00    -0.302 OA
HETATM   11  C10 UNL     1       3.690  -1.020   3.183  1.00  0.00     0.134 C 
HETATM   12  C11 UNL     1       2.858   0.253   2.972  1.00  0.00     0.120 C 
HETATM   13  C12 UNL     1       2.192   0.310   1.609  1.00  0.00     0.254 C 
HETATM   14  N3  UNL     1       2.754   1.216   0.753  1.00  0.00    -0.230 NA
HETATM   15  O3  UNL     1       1.294  -0.428   1.282  1.00  0.00    -0.270 OA
HETATM   16  O4  UNL     1       5.272   0.496   1.458  1.00  0.00    -0.262 OA
HETATM   17  O5  UNL     1       3.651  -4.240  -1.009  1.00  0.00    -0.268 OA
HETATM   18  C23 UNL     1       2.479  -2.517  -2.855  1.00  0.00     0.037 C 
ENDROOT
BRANCH   1  19
HETATM   19  C3  UNL     1       2.429   2.870  -1.054  1.00  0.00     0.060 C 
BRANCH  19  20
HETATM   20  C2  UNL     1       1.275   3.714  -0.545  1.00  0.00    -0.020 A 
HETATM   21  C1  UNL     1       0.461   4.421  -1.440  1.00  0.00    -0.004 A 
HETATM   22  C27 UNL     1      -0.621   5.182  -0.992  1.00  0.00    -0.000 A 
HETATM   23  C26 UNL     1      -0.914   5.242   0.370  1.00  0.00    -0.000 A 
HETATM   24  C25 UNL     1      -0.110   4.550   1.277  1.00  0.00    -0.000 A 
HETATM   25  C24 UNL     1       0.979   3.802   0.821  1.00  0.00    -0.004 A 
ENDBRANCH  19  20
ENDBRANCH   1  19
BRANCH  11  26
HETATM   26  C13 UNL     1       4.745  -0.896   4.298  1.00  0.00     0.028 C 
HETATM   27  C14 UNL     1       4.118  -0.465   5.637  1.00  0.00     0.003 C 
HETATM   28  C15 UNL     1       5.515  -2.215   4.506  1.00  0.00     0.003 C 
ENDBRANCH  11  26
BRANCH   8  29
HETATM   29  C16 UNL     1       7.198  -1.712   0.392  1.00  0.00     0.035 C 
BRANCH  29  30
HETATM   30  C17 UNL     1       8.138  -0.781  -0.405  1.00  0.00     0.003 C 
HETATM   31  C22 UNL     1       9.541  -0.792   0.231  1.00  0.00     0.000 C 
BRANCH  30  32
HETATM   32  C18 UNL     1       8.195  -1.209  -1.888  1.00  0.00     0.000 C 
BRANCH  32  33
HETATM   33  C19 UNL     1       8.760  -0.132  -2.828  1.00  0.00     0.000 C 
BRANCH  33  34
HETATM   34  C20 UNL     1       8.870  -0.596  -4.292  1.00  0.00     0.000 C 
HETATM   35  C21 UNL     1       7.519  -0.920  -4.944  1.00  0.00     0.000 C 
ENDBRANCH  33  34
ENDBRANCH  32  33
ENDBRANCH  30  32
ENDBRANCH  29  30
ENDBRANCH   8  29
TORSDOF 8
