REMARK  2 active torsions:
REMARK  status: ('A' for Active; 'I' for Inactive)
REMARK    1  A    between atoms: N5_10  and  C6_11 
REMARK    2  A    between atoms: C8_13  and  C10_16 
ROOT
HETATM    1  N1  UNL     1      -2.461   2.971  -0.672  1.00  0.00    -0.202 NA
HETATM    2  C1  UNL     1      -2.533   1.609  -0.668  1.00  0.00     0.202 A 
HETATM    3  N2  UNL     1      -1.537   0.733  -0.697  1.00  0.00    -0.205 NA
HETATM    4  C2  UNL     1      -0.285   1.288  -0.741  1.00  0.00     0.170 A 
HETATM    5  C3  UNL     1      -0.102   2.677  -0.738  1.00  0.00     0.155 A 
HETATM    6  C4  UNL     1      -1.240   3.543  -0.704  1.00  0.00     0.206 A 
HETATM    7  N3  UNL     1      -1.029   4.894  -0.710  1.00  0.00    -0.125 N 
HETATM    8  N4  UNL     1       1.246   3.011  -0.771  1.00  0.00    -0.219 NA
HETATM    9  C5  UNL     1       1.894   1.872  -0.802  1.00  0.00     0.182 A 
HETATM   10  N5  UNL     1       1.003   0.838  -0.789  1.00  0.00    -0.270 N 
ENDROOT
BRANCH  10  11
HETATM   11  C6  UNL     1       1.384  -0.576  -0.830  1.00  0.00     0.239 C 
HETATM   12  C7  UNL     1       1.460  -1.190   0.558  1.00  0.00     0.206 C 
HETATM   13  C8  UNL     1       1.084  -2.637   0.283  1.00  0.00     0.098 C 
HETATM   14  O3  UNL     1       2.749  -1.123   1.113  1.00  0.00    -0.218 OA
HETATM   15  C9  UNL     1       0.020  -2.417  -0.780  1.00  0.00     0.150 C 
HETATM   16  O1  UNL     1       0.512  -1.385  -1.600  1.00  0.00    -0.334 OA
BRANCH  13  17
HETATM   17  C10 UNL     1       0.635  -3.382   1.531  1.00  0.00     0.188 C 
HETATM   18  O2  UNL     1       1.660  -3.273   2.499  1.00  0.00    -0.221 OA
ENDBRANCH  13  17
ENDBRANCH  10  11
TORSDOF 2
