REMARK  9 active torsions:
REMARK  status: ('A' for Active; 'I' for Inactive)
REMARK    1  A    between atoms: C1_1  and  C34_55 
REMARK    2  A    between atoms: C3_3  and  O16_42 
REMARK    3  A    between atoms: C4_4  and  O3_8 
REMARK    4  A    between atoms: O3_8  and  C6_9 
REMARK    5  A    between atoms: C6_9  and  C7_11 
REMARK    6  A    between atoms: C12_16  and  O5_17 
REMARK    7  A    between atoms: O5_17  and  C13_18 
REMARK    8  A    between atoms: O16_42  and  C27_43 
REMARK    9  A    between atoms: C27_43  and  C28_45 
ROOT
HETATM    1  C7  UNL     1      -0.283   0.169  -0.752  1.00  0.00     0.076 C 
HETATM    2  C8  UNL     1      -1.091   1.213  -1.061  1.00  0.00     0.036 C 
HETATM    3  C9  UNL     1      -1.106   1.769  -2.443  1.00  0.00     0.159 C 
HETATM    4  C10 UNL     1      -0.689   0.779  -3.491  1.00  0.00     0.183 C 
HETATM    5  C11 UNL     1       0.335  -0.231  -3.086  1.00  0.00     0.181 C 
HETATM    6  C12 UNL     1       0.539  -0.529  -1.771  1.00  0.00     0.131 C 
HETATM    7  O13 UNL     1       1.025  -0.834  -4.090  1.00  0.00    -0.186 OA
HETATM    8  O14 UNL     1      -0.780   1.160  -4.788  1.00  0.00    -0.186 OA
HETATM    9  O15 UNL     1      -1.982   2.739  -2.811  1.00  0.00    -0.188 OA
ENDROOT
BRANCH   1  10
HETATM   10  C6  UNL     1      -0.351  -0.301   0.701  1.00  0.00     0.231 C 
HETATM   11  O4  UNL     1      -1.505  -0.859   1.037  1.00  0.00    -0.163 OA
BRANCH  10  12
HETATM   12  O3  UNL     1       0.587  -0.144   1.678  1.00  0.00    -0.303 OA
BRANCH  12  13
HETATM   13  C4  UNL     1       1.876   0.325   1.435  1.00  0.00     0.213 C 
HETATM   14  C3  UNL     1       2.755   0.014   2.649  1.00  0.00     0.190 C 
HETATM   15  C2  UNL     1       4.168   0.491   2.320  1.00  0.00     0.212 C 
HETATM   16  C1  UNL     1       4.191   1.963   1.917  1.00  0.00     0.184 C 
HETATM   17  O21 UNL     1       4.974   0.282   3.455  1.00  0.00    -0.218 OA
HETATM   18  O1  UNL     1       3.290   2.178   0.865  1.00  0.00    -0.324 OA
HETATM   19  C5  UNL     1       1.973   1.821   1.221  1.00  0.00     0.300 C 
HETATM   20  O2  UNL     1       1.237   2.259   0.096  1.00  0.00    -0.187 OA
BRANCH  14  21
HETATM   21  O16 UNL     1       2.817  -1.360   2.904  1.00  0.00    -0.295 OA
BRANCH  21  22
HETATM   22  C27 UNL     1       2.436  -1.896   4.106  1.00  0.00     0.296 C 
HETATM   23  O17 UNL     1       2.718  -3.074   4.314  1.00  0.00    -0.259 OA
BRANCH  22  24
HETATM   24  C28 UNL     1       1.708  -1.209   5.227  1.00  0.00     0.067 A 
HETATM   25  C29 UNL     1       2.113  -1.432   6.547  1.00  0.00     0.035 A 
HETATM   26  C30 UNL     1       1.451  -0.820   7.617  1.00  0.00     0.158 A 
HETATM   27  C31 UNL     1       0.360   0.017   7.358  1.00  0.00     0.181 A 
HETATM   28  O20 UNL     1       1.831  -1.022   8.905  1.00  0.00    -0.188 OA
HETATM   29  C32 UNL     1      -0.069   0.242   6.045  1.00  0.00     0.158 A 
HETATM   30  O19 UNL     1      -0.306   0.608   8.382  1.00  0.00    -0.186 OA
HETATM   31  C33 UNL     1       0.600  -0.388   4.996  1.00  0.00     0.035 A 
HETATM   32  O18 UNL     1      -1.151   1.029   5.814  1.00  0.00    -0.188 OA
ENDBRANCH  22  24
ENDBRANCH  21  22
ENDBRANCH  14  21
BRANCH  16  33
HETATM   33  C34 UNL     1       5.577   2.390   1.450  1.00  0.00     0.214 C 
HETATM   34  O22 UNL     1       5.567   3.765   1.120  1.00  0.00    -0.218 OA
ENDBRANCH  16  33
ENDBRANCH  12  13
ENDBRANCH  10  12
ENDBRANCH   1  10
BRANCH   6  35
HETATM   35  O5  UNL     1       1.453  -1.475  -1.397  1.00  0.00    -0.303 OA
BRANCH  35  36
HETATM   36  C13 UNL     1       2.684  -1.400  -1.999  1.00  0.00     0.128 A 
HETATM   37  C14 UNL     1       3.405  -0.193  -2.079  1.00  0.00     0.176 A 
HETATM   38  C15 UNL     1       4.682  -0.125  -2.652  1.00  0.00     0.131 A 
HETATM   39  O12 UNL     1       2.898   0.944  -1.541  1.00  0.00    -0.186 OA
HETATM   40  C16 UNL     1       5.191  -1.287  -3.244  1.00  0.00     0.032 A 
HETATM   41  O7  UNL     1       5.348   1.069  -2.651  1.00  0.00    -0.271 OA
HETATM   42  C17 UNL     1       4.485  -2.494  -3.217  1.00  0.00     0.068 A 
HETATM   43  C21 UNL     1       6.471  -1.256  -3.933  1.00  0.00     0.032 A 
HETATM   44  C18 UNL     1       3.245  -2.547  -2.577  1.00  0.00     0.032 A 
HETATM   45  C19 UNL     1       5.099  -3.671  -3.883  1.00  0.00     0.300 A 
HETATM   46  O6  UNL     1       6.296  -3.607  -4.542  1.00  0.00    -0.271 OA
HETATM   47  O11 UNL     1       4.503  -4.746  -3.840  1.00  0.00    -0.259 OA
HETATM   48  C20 UNL     1       6.958  -2.410  -4.557  1.00  0.00     0.131 A 
HETATM   49  C26 UNL     1       8.180  -2.313  -5.239  1.00  0.00     0.179 A 
HETATM   50  C25 UNL     1       8.893  -1.108  -5.290  1.00  0.00     0.158 A 
HETATM   51  O9  UNL     1       8.675  -3.410  -5.869  1.00  0.00    -0.186 OA
HETATM   52  C24 UNL     1       8.386   0.027  -4.646  1.00  0.00     0.035 A 
HETATM   53  O10 UNL     1      10.067  -1.068  -5.974  1.00  0.00    -0.188 OA
HETATM   54  C22 UNL     1       7.171  -0.044  -3.961  1.00  0.00     0.068 A 
HETATM   55  C23 UNL     1       6.569   1.123  -3.267  1.00  0.00     0.300 A 
HETATM   56  O8  UNL     1       7.199   2.178  -3.237  1.00  0.00    -0.259 OA
ENDBRANCH  35  36
ENDBRANCH   6  35
TORSDOF 9
