REMARK  24 active torsions:
REMARK  status: ('A' for Active; 'I' for Inactive)
REMARK    1  A    between atoms: C16_20  and  O5_22 
REMARK    2  A    between atoms: O5_22  and  C18_23 
REMARK    3  A    between atoms: C23_28  and  C24_29 
REMARK    4  A    between atoms: C24_29  and  O6_30 
REMARK    5  A    between atoms: O6_30  and  C25_31 
REMARK    6  A    between atoms: C25_31  and  C26_32 
REMARK    7  A    between atoms: C28_34  and  O18_62 
REMARK    8  A    between atoms: C29_35  and  O13_50 
REMARK    9  A    between atoms: C30_36  and  O8_38 
REMARK   10  A    between atoms: O8_38  and  C31_39 
REMARK   11  A    between atoms: C31_39  and  C32_40 
REMARK   12  A    between atoms: O13_50  and  C38_51 
REMARK   13  A    between atoms: C38_51  and  C39_52 
REMARK   14  A    between atoms: O18_62  and  C45_63 
REMARK   15  A    between atoms: C45_63  and  C46_65 
REMARK   16  A    between atoms: C52_81  and  O41_109 
REMARK   17  A    between atoms: C53_82  and  O36_97 
REMARK   18  A    between atoms: C54_83  and  O31_85 
REMARK   19  A    between atoms: O31_85  and  C55_86 
REMARK   20  A    between atoms: C55_86  and  C56_88 
REMARK   21  A    between atoms: O36_97  and  C62_98 
REMARK   22  A    between atoms: C62_98  and  C63_99 
REMARK   23  A    between atoms: O41_109  and  C69_110 
REMARK   24  A    between atoms: C69_110  and  C70_112 
ROOT
HETATM    1  C1  UNL     1       7.911  -1.530   3.649  1.00  0.00     0.177 C 
HETATM    2  C2  UNL     1       6.651  -1.732   2.807  1.00  0.00     0.154 C 
HETATM    3  C3  UNL     1       6.588  -0.991   1.498  1.00  0.00     0.012 C 
HETATM    4  C4  UNL     1       7.785  -0.209   1.090  1.00  0.00     0.032 C 
HETATM    5  C5  UNL     1       9.076  -0.130   1.808  1.00  0.00     0.087 C 
HETATM    6  C6  UNL     1       9.130  -0.722   3.183  1.00  0.00     0.140 C 
HETATM    7  O1  UNL     1      10.376  -0.889   3.700  1.00  0.00    -0.192 OA
HETATM    8  C7  UNL     1       7.559   0.651  -0.092  1.00  0.00     0.225 C 
HETATM    9  O2  UNL     1       7.229   1.938   0.067  1.00  0.00    -0.306 OA
HETATM   10  C8  UNL     1       6.053   2.258  -0.600  1.00  0.00     0.184 C 
HETATM   11  C9  UNL     1       5.212   3.088   0.344  1.00  0.00     0.182 C 
HETATM   12  C10 UNL     1       3.780   2.569   0.581  1.00  0.00     0.200 C 
HETATM   13  O3  UNL     1       3.748   1.873   1.782  1.00  0.00    -0.302 OA
HETATM   14  C11 UNL     1       4.432   0.777   1.616  1.00  0.00     0.225 C 
HETATM   15  C12 UNL     1       4.546   0.113   0.236  1.00  0.00     0.031 C 
HETATM   16  C13 UNL     1       5.332  -1.041   0.612  1.00  0.00     0.083 C 
HETATM   17  C14 UNL     1       5.379  -1.419  -0.825  1.00  0.00     0.193 C 
HETATM   18  O4  UNL     1       6.528  -2.165  -0.634  1.00  0.00    -0.220 OA
HETATM   19  C15 UNL     1       3.905  -1.910  -1.852  1.00  0.00     0.214 C 
HETATM   20  C16 UNL     1       3.193  -0.673  -2.261  1.00  0.00     0.176 C 
HETATM   21  C17 UNL     1       3.403   0.026  -0.872  1.00  0.00     0.006 C 
HETATM   22  O28 UNL     1       3.460  -3.229  -2.607  1.00  0.00    -0.218 OA
HETATM   23  O29 UNL     1       4.875   0.302   2.757  1.00  0.00    -0.164 OA
HETATM   24  C52 UNL     1       2.704   3.554   0.803  1.00  0.00     0.135 C 
HETATM   25  C53 UNL     1       3.055   4.955   0.568  1.00  0.00     0.158 C 
HETATM   26  C54 UNL     1       4.469   5.254   0.328  1.00  0.00     0.292 C 
HETATM   27  O30 UNL     1       5.260   4.301  -0.307  1.00  0.00    -0.323 OA
HETATM   28  O46 UNL     1       7.362   0.051  -1.229  1.00  0.00    -0.164 OA
HETATM   29  O47 UNL     1       5.956  -2.902   2.898  1.00  0.00    -0.188 OA
HETATM   30  O48 UNL     1       8.080  -2.437   4.635  1.00  0.00    -0.186 OA
ENDROOT
BRANCH  20  31
HETATM   31  O5  UNL     1       1.954  -1.348  -2.237  1.00  0.00    -0.330 OA
BRANCH  31  32
HETATM   32  C18 UNL     1       0.833  -1.005  -1.537  1.00  0.00     0.085 C 
HETATM   33  C19 UNL     1      -0.441  -1.592  -2.073  1.00  0.00     0.107 C 
HETATM   34  C20 UNL     1      -1.669  -0.771  -1.975  1.00  0.00     0.142 C 
HETATM   35  C21 UNL     1      -1.599   0.170  -0.818  1.00  0.00     0.178 C 
HETATM   36  O27 UNL     1      -2.811  -1.087  -2.663  1.00  0.00    -0.192 OA
HETATM   37  C22 UNL     1      -0.486   0.243  -0.038  1.00  0.00     0.164 C 
HETATM   38  O26 UNL     1      -2.714   0.905  -0.518  1.00  0.00    -0.186 OA
HETATM   39  C23 UNL     1       0.593  -0.836  -0.204  1.00  0.00     0.095 C 
HETATM   40  O25 UNL     1      -0.551   1.214   0.917  1.00  0.00    -0.188 OA
BRANCH  39  41
HETATM   41  C24 UNL     1       1.609  -1.012   0.932  1.00  0.00     0.232 C 
HETATM   42  O24 UNL     1       1.685   0.014   1.747  1.00  0.00    -0.163 OA
BRANCH  41  43
HETATM   43  O6  UNL     1       2.596  -1.982   1.065  1.00  0.00    -0.302 OA
BRANCH  43  44
HETATM   44  C25 UNL     1       2.835  -3.011   0.060  1.00  0.00     0.204 C 
BRANCH  44  45
HETATM   45  C26 UNL     1       4.532  -3.208  -0.720  1.00  0.00     0.134 C 
HETATM   46  C27 UNL     1       5.490  -2.562  -2.338  1.00  0.00     0.164 C 
HETATM   47  C28 UNL     1       6.754  -3.250  -2.777  1.00  0.00     0.223 C 
HETATM   48  O23 UNL     1       5.689  -1.017  -2.818  1.00  0.00    -0.190 OA
HETATM   49  C29 UNL     1       6.550  -4.579  -2.085  1.00  0.00     0.162 C 
HETATM   50  C30 UNL     1       5.680  -5.097  -0.968  1.00  0.00     0.227 C 
HETATM   51  O7  UNL     1       4.496  -4.576  -0.558  1.00  0.00    -0.284 OA
BRANCH  47  52
HETATM   52  O18 UNL     1       6.929  -3.265  -4.212  1.00  0.00    -0.287 OA
BRANCH  52  53
HETATM   53  C45 UNL     1       8.060  -2.602  -4.640  1.00  0.00     0.297 C 
HETATM   54  O19 UNL     1       8.333  -2.586  -5.833  1.00  0.00    -0.259 OA
BRANCH  53  55
HETATM   55  C46 UNL     1       9.036  -1.918  -3.676  1.00  0.00     0.067 A 
HETATM   56  C47 UNL     1      10.133  -2.642  -3.217  1.00  0.00     0.035 A 
HETATM   57  C48 UNL     1      10.968  -2.132  -2.220  1.00  0.00     0.158 A 
HETATM   58  C49 UNL     1      10.697  -0.888  -1.643  1.00  0.00     0.181 A 
HETATM   59  O22 UNL     1      12.062  -2.811  -1.795  1.00  0.00    -0.188 OA
HETATM   60  C50 UNL     1       9.652  -0.112  -2.138  1.00  0.00     0.158 A 
HETATM   61  O21 UNL     1      11.437  -0.403  -0.606  1.00  0.00    -0.186 OA
HETATM   62  C51 UNL     1       8.813  -0.652  -3.131  1.00  0.00     0.035 A 
HETATM   63  O20 UNL     1       9.442   1.103  -1.548  1.00  0.00    -0.188 OA
ENDBRANCH  53  55
ENDBRANCH  52  53
ENDBRANCH  47  52
BRANCH  49  64
HETATM   64  O13 UNL     1       7.741  -5.213  -2.115  1.00  0.00    -0.270 OA
BRANCH  64  65
HETATM   65  C38 UNL     1       7.833  -6.257  -2.979  1.00  0.00     0.300 C 
HETATM   66  O17 UNL     1       8.943  -6.775  -2.982  1.00  0.00    -0.259 OA
BRANCH  65  67
HETATM   67  C39 UNL     1       6.793  -6.823  -3.902  1.00  0.00     0.068 A 
HETATM   68  C40 UNL     1       7.108  -7.920  -4.708  1.00  0.00     0.035 A 
HETATM   69  C41 UNL     1       6.136  -8.462  -5.561  1.00  0.00     0.158 A 
HETATM   70  C42 UNL     1       4.841  -7.923  -5.661  1.00  0.00     0.181 A 
HETATM   71  O16 UNL     1       6.450  -9.536  -6.324  1.00  0.00    -0.188 OA
HETATM   72  C43 UNL     1       4.468  -6.838  -4.878  1.00  0.00     0.158 A 
HETATM   73  O15 UNL     1       3.881  -8.415  -6.477  1.00  0.00    -0.186 OA
HETATM   74  C44 UNL     1       5.466  -6.390  -4.049  1.00  0.00     0.035 A 
HETATM   75  O14 UNL     1       3.244  -6.207  -4.845  1.00  0.00    -0.188 OA
ENDBRANCH  65  67
ENDBRANCH  64  65
ENDBRANCH  49  64
BRANCH  50  76
HETATM   76  O8  UNL     1       5.440  -6.442  -0.643  1.00  0.00    -0.259 OA
BRANCH  76  77
HETATM   77  C31 UNL     1       6.089  -6.844   0.511  1.00  0.00     0.234 C 
HETATM   78  O12 UNL     1       5.864  -8.108   0.830  1.00  0.00    -0.163 OA
BRANCH  77  79
HETATM   79  C32 UNL     1       7.066  -6.028   1.420  1.00  0.00     0.053 C 
HETATM   80  C33 UNL     1       7.633  -6.609   2.502  1.00  0.00     0.034 C 
HETATM   81  C34 UNL     1       8.581  -5.812   3.353  1.00  0.00     0.158 C 
HETATM   82  C35 UNL     1       9.324  -4.629   2.755  1.00  0.00     0.181 C 
HETATM   83  O11 UNL     1       9.140  -6.328   4.471  1.00  0.00    -0.188 OA
HETATM   84  C36 UNL     1       8.678  -4.019   1.560  1.00  0.00     0.158 C 
HETATM   85  O10 UNL     1      10.113  -3.840   3.549  1.00  0.00    -0.186 OA
HETATM   86  C37 UNL     1       7.509  -4.613   1.244  1.00  0.00     0.034 C 
HETATM   87  O9  UNL     1       8.868  -2.716   1.211  1.00  0.00    -0.188 OA
ENDBRANCH  77  79
ENDBRANCH  76  77
ENDBRANCH  50  76
ENDBRANCH  44  45
ENDBRANCH  43  44
ENDBRANCH  41  43
ENDBRANCH  39  41
ENDBRANCH  31  32
ENDBRANCH  20  31
BRANCH  24  88
HETATM   88  O41 UNL     1       1.371   3.217   0.672  1.00  0.00    -0.273 OA
BRANCH  88  89
HETATM   89  C69 UNL     1       0.557   3.355   1.777  1.00  0.00     0.300 C 
HETATM   90  O42 UNL     1      -0.626   3.550   1.522  1.00  0.00    -0.259 OA
BRANCH  89  91
HETATM   91  C70 UNL     1       0.906   3.342   3.236  1.00  0.00     0.068 A 
HETATM   92  C71 UNL     1      -0.036   3.063   4.234  1.00  0.00     0.035 A 
HETATM   93  C72 UNL     1       0.280   3.252   5.594  1.00  0.00     0.158 A 
HETATM   94  C73 UNL     1       1.552   3.686   6.001  1.00  0.00     0.181 A 
HETATM   95  O45 UNL     1      -0.667   3.108   6.553  1.00  0.00    -0.188 OA
HETATM   96  C74 UNL     1       2.534   3.854   5.045  1.00  0.00     0.158 A 
HETATM   97  O44 UNL     1       1.925   3.982   7.273  1.00  0.00    -0.186 OA
HETATM   98  C75 UNL     1       2.162   3.668   3.743  1.00  0.00     0.035 A 
HETATM   99  O43 UNL     1       3.768   4.368   5.274  1.00  0.00    -0.188 OA
ENDBRANCH  89  91
ENDBRANCH  88  89
ENDBRANCH  24  88
BRANCH  25 100
HETATM  100  O36 UNL     1       2.288   5.893   1.216  1.00  0.00    -0.281 OA
BRANCH 100 101
HETATM  101  C62 UNL     1       1.419   6.517   0.358  1.00  0.00     0.233 C 
HETATM  102  O40 UNL     1       0.701   7.465   0.932  1.00  0.00    -0.163 OA
BRANCH 101 103
HETATM  103  C63 UNL     1       1.203   6.233  -1.156  1.00  0.00     0.053 A 
HETATM  104  C64 UNL     1       0.250   6.959  -1.781  1.00  0.00     0.034 A 
HETATM  105  C65 UNL     1      -0.026   6.730  -3.229  1.00  0.00     0.158 A 
HETATM  106  C66 UNL     1       0.699   5.641  -3.985  1.00  0.00     0.181 A 
HETATM  107  O39 UNL     1      -0.948   7.454  -3.897  1.00  0.00    -0.188 OA
HETATM  108  C67 UNL     1       1.736   4.865  -3.302  1.00  0.00     0.158 A 
HETATM  109  O38 UNL     1       0.539   5.372  -5.292  1.00  0.00    -0.186 OA
HETATM  110  C68 UNL     1       1.911   5.257  -2.036  1.00  0.00     0.034 A 
HETATM  111  O37 UNL     1       2.532   3.882  -3.841  1.00  0.00    -0.188 OA
ENDBRANCH 101 103
ENDBRANCH 100 101
ENDBRANCH  25 100
BRANCH  26 112
HETATM  112  O31 UNL     1       4.770   6.480  -0.234  1.00  0.00    -0.266 OA
BRANCH 112 113
HETATM  113  C55 UNL     1       5.359   7.364   0.643  1.00  0.00     0.298 C 
HETATM  114  O32 UNL     1       5.540   8.490   0.190  1.00  0.00    -0.259 OA
BRANCH 113 115
HETATM  115  C56 UNL     1       5.756   7.121   2.083  1.00  0.00     0.068 C 
HETATM  116  C57 UNL     1       5.932   5.865   2.691  1.00  0.00     0.035 C 
HETATM  117  C58 UNL     1       6.105   5.599   4.031  1.00  0.00     0.158 C 
HETATM  118  C59 UNL     1       6.278   6.700   4.856  1.00  0.00     0.181 C 
HETATM  119  O35 UNL     1       6.098   4.311   4.481  1.00  0.00    -0.188 OA
HETATM  120  C60 UNL     1       6.387   7.977   4.288  1.00  0.00     0.158 C 
HETATM  121  O34 UNL     1       6.505   6.468   6.168  1.00  0.00    -0.186 OA
HETATM  122  C61 UNL     1       6.088   8.184   2.928  1.00  0.00     0.035 C 
HETATM  123  O33 UNL     1       6.803   9.019   5.057  1.00  0.00    -0.188 OA
ENDBRANCH 113 115
ENDBRANCH 112 113
ENDBRANCH  26 112
TORSDOF 24
