REMARK  1 active torsions:
REMARK  status: ('A' for Active; 'I' for Inactive)
REMARK    1  A    between atoms: C3_3  and  C13_13 
ROOT
HETATM    1  C1  UNL     1       2.632   1.037  -1.211  1.00  0.00    -0.005 A 
HETATM    2  C2  UNL     1       1.905   0.046  -1.868  1.00  0.00    -0.004 A 
HETATM    3  C3  UNL     1       0.749  -0.517  -1.314  1.00  0.00    -0.023 A 
HETATM    4  C4  UNL     1       0.336  -0.038  -0.051  1.00  0.00    -0.009 A 
HETATM    5  C5  UNL     1       1.073   0.961   0.619  1.00  0.00    -0.026 A 
HETATM    6  C6  UNL     1       2.231   1.506   0.040  1.00  0.00    -0.026 A 
HETATM    7  C7  UNL     1       3.066   2.555   0.738  1.00  0.00     0.030 C 
HETATM    8  C8  UNL     1       0.624   1.406   1.994  1.00  0.00     0.030 C 
HETATM    9  C9  UNL     1      -0.901   1.400   2.134  1.00  0.00     0.026 C 
HETATM   10  C10 UNL     1      -1.446   0.083   1.659  1.00  0.00    -0.044 C 
HETATM   11  C11 UNL     1      -0.845  -0.574   0.647  1.00  0.00    -0.009 C 
HETATM   12  C12 UNL     1      -2.719  -0.405   2.302  1.00  0.00     0.026 C 
ENDROOT
BRANCH   3  13
HETATM   13  C13 UNL     1       0.031  -1.583  -2.137  1.00  0.00     0.022 C 
HETATM   14  C14 UNL     1       0.186  -2.995  -1.552  1.00  0.00     0.005 C 
HETATM   15  C15 UNL     1      -1.416  -1.217  -2.504  1.00  0.00     0.005 C 
ENDBRANCH   3  13
TORSDOF 1
