REMARK  1 active torsions:
REMARK  status: ('A' for Active; 'I' for Inactive)
REMARK    1  A    between atoms: C3_3  and  C6_6 
ROOT
HETATM    1  C1  UNL     1      -0.492   1.234   1.147  1.00  0.00     0.000 C 
HETATM    2  C2  UNL     1      -0.100  -0.012   0.299  1.00  0.00     0.007 C 
HETATM    3  C3  UNL     1      -1.467  -0.688   0.020  1.00  0.00     0.000 C 
HETATM    4  C4  UNL     1      -2.463   0.463   0.051  1.00  0.00     0.000 C 
HETATM    5  C5  UNL     1      -2.010   1.162   1.324  1.00  0.00     0.000 C 
HETATM    6  C9  UNL     1       0.756  -1.002   1.111  1.00  0.00     0.065 C 
HETATM    7  C10 UNL     1       2.191  -0.567   1.301  1.00  0.00     0.150 C 
HETATM    8  C11 UNL     1       2.617   0.738   0.658  1.00  0.00     0.058 C 
HETATM    9  C12 UNL     1       2.070   0.896  -0.777  1.00  0.00     0.007 C 
HETATM   10  C13 UNL     1       0.646   0.340  -1.004  1.00  0.00     0.001 C 
HETATM   11  C14 UNL     1       4.139   0.922   0.686  1.00  0.00     0.008 C 
HETATM   12  O1  UNL     1       2.961  -1.244   1.941  1.00  0.00    -0.296 OA
HETATM   13  C15 UNL     1      -0.189   2.588   0.500  1.00  0.00     0.000 C 
ENDROOT
BRANCH   3  14
HETATM   14  C6  UNL     1      -1.594  -1.475  -1.281  1.00  0.00     0.000 C 
HETATM   15  C7  UNL     1      -3.068  -1.778  -1.551  1.00  0.00     0.000 C 
HETATM   16  C8  UNL     1      -0.738  -2.738  -1.197  1.00  0.00     0.000 C 
ENDBRANCH   3  14
TORSDOF 1
