REMARK  0 active torsions:
REMARK  status: ('A' for Active; 'I' for Inactive)
ROOT
HETATM    1  C1  UNL     1       0.536   1.978   0.371  1.00  0.00     0.029 C 
HETATM    2  C2  UNL     1      -0.292   1.045  -0.526  1.00  0.00     0.135 C 
HETATM    3  C3  UNL     1      -0.056  -0.486  -0.466  1.00  0.00     0.103 C 
HETATM    4  C4  UNL     1       1.249  -0.979  -1.131  1.00  0.00     0.137 C 
HETATM    5  C5  UNL     1       2.599  -0.590  -0.475  1.00  0.00     0.056 C 
HETATM    6  C6  UNL     1       2.683   0.539   0.560  1.00  0.00     0.007 C 
HETATM    7  C7  UNL     1       2.053   1.864   0.123  1.00  0.00     0.003 C 
HETATM    8  C8  UNL     1       3.105  -1.906   0.053  1.00  0.00     0.043 C 
HETATM    9  C9  UNL     1       2.246  -2.921  -0.571  1.00  0.00     0.292 C 
HETATM   10  O1  UNL     1       1.212  -2.386  -1.260  1.00  0.00    -0.300 OA
HETATM   11  O2  UNL     1       2.440  -4.129  -0.479  1.00  0.00    -0.260 OA
HETATM   12  C10 UNL     1       4.112  -2.171   0.901  1.00  0.00     0.001 C 
HETATM   13  C11 UNL     1      -1.286  -0.922  -1.282  1.00  0.00     0.154 C 
HETATM   14  C12 UNL     1      -2.431   0.059  -1.127  1.00  0.00     0.067 C 
HETATM   15  C13 UNL     1      -1.809   1.222  -0.346  1.00  0.00     0.039 C 
HETATM   16  O3  UNL     1      -1.348  -1.888  -2.007  1.00  0.00    -0.296 OA
HETATM   17  C14 UNL     1      -0.269  -1.163   0.904  1.00  0.00     0.012 C 
HETATM   18  O4  UNL     1      -0.031   1.466  -1.850  1.00  0.00    -0.226 OA
HETATM   19  C15 UNL     1       0.196   1.990   1.873  1.00  0.00     0.003 C 
ENDROOT
TORSDOF 0
