REMARK  0 active torsions:
REMARK  status: ('A' for Active; 'I' for Inactive)
ROOT
HETATM    1  O1  UNL     1      -1.607   0.215   2.255  1.00  0.00    -0.300 OA
HETATM    2  C1  UNL     1      -2.654  -0.598   1.711  1.00  0.00     0.304 A 
HETATM    3  O2  UNL     1      -2.050  -1.413   0.698  1.00  0.00    -0.300 OA
HETATM    4  C2  UNL     1      -0.727  -1.032   0.592  1.00  0.00     0.119 A 
HETATM    5  C3  UNL     1      -0.459  -0.058   1.537  1.00  0.00     0.119 A 
HETATM    6  C4  UNL     1       0.806   0.517   1.629  1.00  0.00     0.029 A 
HETATM    7  C5  UNL     1       1.806   0.099   0.739  1.00  0.00     0.033 A 
HETATM    8  C6  UNL     1       1.529  -0.866  -0.277  1.00  0.00    -0.015 A 
HETATM    9  C7  UNL     1       0.251  -1.449  -0.309  1.00  0.00     0.022 A 
HETATM   10  C8  UNL     1       2.485  -1.348  -1.379  1.00  0.00     0.062 C 
HETATM   11  C9  UNL     1       3.907  -1.200  -0.868  1.00  0.00     0.255 C 
HETATM   12  N1  UNL     1       5.123  -1.506  -1.582  1.00  0.00     0.144 N 
HETATM   13  C10 UNL     1       6.220  -1.161  -0.661  1.00  0.00     0.279 C 
HETATM   14  C11 UNL     1       6.302   0.341  -0.366  1.00  0.00     0.032 A 
HETATM   15  C12 UNL     1       5.575   1.071   0.621  1.00  0.00    -0.015 A 
HETATM   16  C13 UNL     1       4.415   0.513   1.469  1.00  0.00     0.084 C 
HETATM   17  C14 UNL     1       3.065   0.959   0.859  1.00  0.00     0.176 C 
HETATM   18  O3  UNL     1       2.953   2.114   0.471  1.00  0.00    -0.291 OA
HETATM   19  C15 UNL     1       4.470   0.929   2.952  1.00  0.00     0.013 C 
HETATM   20  C16 UNL     1       5.848   2.443   0.778  1.00  0.00    -0.002 A 
HETATM   21  C17 UNL     1       6.779   3.154   0.015  1.00  0.00     0.026 A 
HETATM   22  C18 UNL     1       7.445   2.436  -0.963  1.00  0.00     0.119 A 
HETATM   23  C19 UNL     1       7.206   1.075  -1.139  1.00  0.00     0.117 A 
HETATM   24  O4  UNL     1       8.014   0.635  -2.175  1.00  0.00    -0.300 OA
HETATM   25  C20 UNL     1       8.760   1.751  -2.675  1.00  0.00     0.304 A 
HETATM   26  O5  UNL     1       8.387   2.873  -1.871  1.00  0.00    -0.300 OA
HETATM   27  C21 UNL     1       5.181  -2.894  -2.002  1.00  0.00     0.286 C 
ENDROOT
TORSDOF 0
