REMARK  4 active torsions:
REMARK  status: ('A' for Active; 'I' for Inactive)
REMARK    1  A    between atoms: C9_11  and  C12_15 
REMARK    2  A    between atoms: C13_16  and  C19_24 
REMARK    3  A    between atoms: C19_24  and  C20_25 
REMARK    4  A    between atoms: C20_25  and  O5_26 
ROOT
HETATM    1  C1  UNL     1      -2.385  -0.983   0.112  1.00  0.00     0.119 A 
HETATM    2  O1  UNL     1      -3.435  -1.874   0.212  1.00  0.00    -0.300 OA
HETATM    3  C2  UNL     1      -2.901  -3.192   0.038  1.00  0.00     0.304 A 
HETATM    4  O2  UNL     1      -1.495  -3.031  -0.184  1.00  0.00    -0.300 OA
HETATM    5  C3  UNL     1      -1.208  -1.680  -0.128  1.00  0.00     0.117 A 
HETATM    6  C4  UNL     1       0.024  -1.040  -0.272  1.00  0.00     0.031 A 
HETATM    7  C5  UNL     1       0.047   0.356  -0.142  1.00  0.00    -0.020 A 
HETATM    8  C6  UNL     1      -1.160   1.052   0.059  1.00  0.00    -0.002 A 
HETATM    9  C7  UNL     1      -2.391   0.405   0.200  1.00  0.00     0.026 A 
HETATM   10  C8  UNL     1       1.369   1.089  -0.266  1.00  0.00     0.058 C 
HETATM   11  C9  UNL     1       2.577   0.123  -0.165  1.00  0.00     0.246 C 
HETATM   12  N1  UNL     1       2.372  -1.040  -1.027  1.00  0.00     0.146 N 
HETATM   13  C10 UNL     1       1.262  -1.853  -0.542  1.00  0.00     0.279 C 
HETATM   14  C11 UNL     1       3.554  -1.888  -1.135  1.00  0.00     0.286 C 
HETATM   15  C22 UNL     1       1.512   2.233   0.756  1.00  0.00     0.007 C 
ENDROOT
BRANCH  11  16
HETATM   16  C12 UNL     1       3.863   0.870  -0.521  1.00  0.00     0.007 A 
HETATM   17  C13 UNL     1       4.868   1.167   0.430  1.00  0.00    -0.012 A 
HETATM   18  C14 UNL     1       6.037   1.840   0.038  1.00  0.00     0.022 A 
HETATM   19  C15 UNL     1       6.179   2.224  -1.290  1.00  0.00     0.119 A 
HETATM   20  C16 UNL     1       5.188   1.953  -2.221  1.00  0.00     0.119 A 
HETATM   21  O4  UNL     1       7.220   2.887  -1.910  1.00  0.00    -0.300 OA
HETATM   22  C17 UNL     1       4.027   1.281  -1.856  1.00  0.00     0.024 A 
HETATM   23  O3  UNL     1       5.580   2.438  -3.453  1.00  0.00    -0.300 OA
HETATM   24  C18 UNL     1       6.874   3.033  -3.293  1.00  0.00     0.304 A 
BRANCH  17  25
HETATM   25  C19 UNL     1       4.766   0.781   1.894  1.00  0.00     0.122 C 
BRANCH  25  26
HETATM   26  C20 UNL     1       5.287  -0.626   2.136  1.00  0.00     0.276 C 
HETATM   27  O6  UNL     1       5.874  -1.296   1.316  1.00  0.00    -0.264 OA
BRANCH  26  28
HETATM   28  O5  UNL     1       5.014  -1.022   3.408  1.00  0.00    -0.299 OA
HETATM   29  C21 UNL     1       5.484  -2.298   3.775  1.00  0.00     0.184 C 
ENDBRANCH  26  28
ENDBRANCH  25  26
ENDBRANCH  17  25
ENDBRANCH  11  16
TORSDOF 4
