REMARK  1 active torsions:
REMARK  status: ('A' for Active; 'I' for Inactive)
REMARK    1  A    between atoms: C8_9  and  C10_12 
ROOT
HETATM    1  C1  UNL     1      -1.620  -0.062  -0.220  1.00  0.00     0.133 A 
HETATM    2  C2  UNL     1      -1.094   1.165   0.191  1.00  0.00     0.028 A 
HETATM    3  C3  UNL     1       0.278   1.324   0.384  1.00  0.00     0.007 A 
HETATM    4  C4  UNL     1       1.144   0.245   0.163  1.00  0.00     0.062 A 
HETATM    5  C5  UNL     1       0.661  -0.993  -0.284  1.00  0.00     0.105 A 
HETATM    6  C6  UNL     1      -0.724  -1.112  -0.450  1.00  0.00     0.052 A 
HETATM    7  O1  UNL     1       1.467  -2.064  -0.520  1.00  0.00    -0.305 OA
HETATM    8  C7  UNL     1       2.816  -1.897  -0.411  1.00  0.00     0.126 A 
HETATM    9  C8  UNL     1       3.437  -0.780   0.033  1.00  0.00     0.064 A 
HETATM   10  C9  UNL     1       2.599   0.397   0.395  1.00  0.00     0.199 A 
HETATM   11  O2  UNL     1       3.050   1.416   0.912  1.00  0.00    -0.286 OA
HETATM   12  O4  UNL     1      -2.957  -0.242  -0.384  1.00  0.00    -0.190 OA
ENDROOT
BRANCH   9  13
HETATM   13  C10 UNL     1       4.916  -0.707   0.147  1.00  0.00     0.005 A 
HETATM   14  C11 UNL     1       5.675  -1.862   0.403  1.00  0.00     0.002 A 
HETATM   15  C12 UNL     1       7.059  -1.806   0.562  1.00  0.00     0.024 A 
HETATM   16  C13 UNL     1       7.764  -0.598   0.513  1.00  0.00     0.094 A 
HETATM   17  C14 UNL     1       7.017   0.548   0.196  1.00  0.00     0.022 A 
HETATM   18  O3  UNL     1       9.121  -0.579   0.685  1.00  0.00    -0.332 OA
HETATM   19  C15 UNL     1       5.628   0.493   0.018  1.00  0.00     0.002 A 
HETATM   20  C16 UNL     1       7.736   1.823   0.158  1.00  0.00    -0.000 C 
HETATM   21  C17 UNL     1       9.081   1.785   0.161  1.00  0.00     0.001 C 
HETATM   22  C18 UNL     1       9.825   0.471   0.076  1.00  0.00     0.117 C 
HETATM   23  C19 UNL     1      11.178   0.577   0.789  1.00  0.00     0.035 C 
HETATM   24  C20 UNL     1      10.040   0.132  -1.405  1.00  0.00     0.035 C 
ENDBRANCH   9  13
TORSDOF 1
