REMARK  2 active torsions:
REMARK  status: ('A' for Active; 'I' for Inactive)
REMARK    1  A    between atoms: C8_9  and  C10_12 
REMARK    2  A    between atoms: C15_17  and  C16_18 
ROOT
HETATM    1  C1  UNL     1      -1.530   0.160  -0.016  1.00  0.00     0.133 A 
HETATM    2  C2  UNL     1      -0.970   1.289  -0.620  1.00  0.00     0.028 A 
HETATM    3  C3  UNL     1       0.391   1.340  -0.922  1.00  0.00     0.007 A 
HETATM    4  C4  UNL     1       1.208   0.245  -0.618  1.00  0.00     0.062 A 
HETATM    5  C5  UNL     1       0.692  -0.904  -0.001  1.00  0.00     0.105 A 
HETATM    6  C6  UNL     1      -0.681  -0.915   0.272  1.00  0.00     0.052 A 
HETATM    7  O1  UNL     1       1.461  -1.996   0.281  1.00  0.00    -0.305 OA
HETATM    8  C7  UNL     1       2.812  -1.812   0.335  1.00  0.00     0.126 C 
HETATM    9  C8  UNL     1       3.455  -0.771  -0.228  1.00  0.00     0.064 C 
HETATM   10  C9  UNL     1       2.661   0.291  -0.901  1.00  0.00     0.199 C 
HETATM   11  O2  UNL     1       3.189   1.146  -1.608  1.00  0.00    -0.286 OA
HETATM   12  O5  UNL     1      -2.855   0.093   0.280  1.00  0.00    -0.190 OA
ENDROOT
BRANCH   9  13
HETATM   13  C10 UNL     1       4.935  -0.617  -0.150  1.00  0.00     0.010 A 
HETATM   14  C11 UNL     1       5.728  -1.696  -0.564  1.00  0.00     0.000 A 
HETATM   15  C12 UNL     1       7.116  -1.579  -0.600  1.00  0.00     0.002 A 
HETATM   16  C13 UNL     1       7.716  -0.375  -0.226  1.00  0.00     0.028 A 
HETATM   17  C14 UNL     1       6.959   0.719   0.199  1.00  0.00     0.134 A 
HETATM   18  C15 UNL     1       5.559   0.570   0.277  1.00  0.00     0.068 A 
HETATM   19  O4  UNL     1       7.593   1.857   0.592  1.00  0.00    -0.190 OA
BRANCH  18  20
HETATM   20  C16 UNL     1       4.742   1.700   0.797  1.00  0.00     0.236 C 
HETATM   21  O3  UNL     1       3.627   1.563   1.284  1.00  0.00    -0.283 OA
ENDBRANCH  18  20
ENDBRANCH   9  13
TORSDOF 2
