REMARK  2 active torsions:
REMARK  status: ('A' for Active; 'I' for Inactive)
REMARK    1  A    between atoms: C16_18  and  O2_23 
REMARK    2  A    between atoms: O2_23  and  C20_24 
ROOT
HETATM    1  C1  UNL     1      -2.863  -0.006  -0.528  1.00  0.00     0.000 A 
HETATM    2  C2  UNL     1      -2.705  -1.313   0.015  1.00  0.00     0.002 A 
HETATM    3  C3  UNL     1      -1.456  -1.870   0.193  1.00  0.00     0.019 A 
HETATM    4  C4  UNL     1      -0.334  -1.091  -0.188  1.00  0.00     0.081 A 
HETATM    5  C5  UNL     1      -0.486   0.191  -0.728  1.00  0.00     0.015 A 
HETATM    6  C6  UNL     1      -1.775   0.756  -0.902  1.00  0.00     0.001 A 
HETATM    7  C7  UNL     1       0.820   0.677  -1.024  1.00  0.00    -0.003 A 
HETATM    8  C8  UNL     1       1.730  -0.285  -0.666  1.00  0.00     0.086 A 
HETATM    9  N1  UNL     1       1.019  -1.364  -0.156  1.00  0.00    -0.248 NA
HETATM   10  C9  UNL     1       3.207  -0.134  -0.903  1.00  0.00     0.259 C 
HETATM   11  N2  UNL     1       3.554   1.239  -1.268  1.00  0.00     0.141 N 
HETATM   12  C10 UNL     1       2.636   1.796  -2.256  1.00  0.00     0.255 C 
HETATM   13  C11 UNL     1       1.225   1.965  -1.664  1.00  0.00     0.063 C 
HETATM   14  C12 UNL     1       4.934   1.286  -1.732  1.00  0.00     0.251 C 
HETATM   15  C13 UNL     1       5.929   0.830  -0.647  1.00  0.00     0.036 C 
HETATM   16  C14 UNL     1       5.533  -0.503   0.005  1.00  0.00     0.035 C 
HETATM   17  C15 UNL     1       4.029  -0.553   0.323  1.00  0.00     0.042 C 
HETATM   18  C16 UNL     1       6.438  -0.801   1.217  1.00  0.00     0.154 C 
HETATM   19  C17 UNL     1       7.893  -0.402   0.949  1.00  0.00     0.180 C 
HETATM   20  C18 UNL     1       8.218  -0.335  -0.536  1.00  0.00     0.036 C 
HETATM   21  C19 UNL     1       7.365   0.754  -1.211  1.00  0.00     0.005 C 
HETATM   22  O1  UNL     1       8.757  -1.315   1.584  1.00  0.00    -0.221 OA
ENDROOT
BRANCH  18  23
HETATM   23  O2  UNL     1       6.019  -0.088   2.348  1.00  0.00    -0.302 OA
BRANCH  23  24
HETATM   24  C20 UNL     1       5.268  -0.706   3.299  1.00  0.00     0.272 C 
HETATM   25  C21 UNL     1       4.923   0.279   4.397  1.00  0.00     0.106 C 
HETATM   26  O3  UNL     1       4.907  -1.861   3.274  1.00  0.00    -0.264 OA
ENDBRANCH  23  24
ENDBRANCH  18  23
TORSDOF 2
