REMARK  1 active torsions:
REMARK  status: ('A' for Active; 'I' for Inactive)
REMARK    1  A    between atoms: C14_15  and  O1_16 
ROOT
HETATM    1  C1  UNL     1       5.205   2.281  -0.176  1.00  0.00     0.000 A 
HETATM    2  C2  UNL     1       4.393   3.158   0.570  1.00  0.00     0.002 A 
HETATM    3  C3  UNL     1       3.026   2.867   0.758  1.00  0.00     0.017 A 
HETATM    4  C4  UNL     1       2.428   1.697   0.195  1.00  0.00     0.063 A 
HETATM    5  C5  UNL     1       3.274   0.803  -0.525  1.00  0.00     0.055 A 
HETATM    6  C6  UNL     1       4.649   1.105  -0.719  1.00  0.00     0.005 A 
HETATM    7  C7  UNL     1       2.725  -0.461  -1.088  1.00  0.00     0.200 C 
HETATM    8  C8  UNL     1       1.295  -0.719  -0.725  1.00  0.00     0.077 C 
HETATM    9  C9  UNL     1       0.547   0.236   0.053  1.00  0.00     0.067 C 
HETATM   10  N1  UNL     1       1.072   1.488   0.348  1.00  0.00    -0.325 N 
HETATM   11  C10 UNL     1       0.207   2.625   0.748  1.00  0.00     0.131 C 
HETATM   12  C11 UNL     1      -0.777  -0.166   0.476  1.00  0.00     0.038 C 
HETATM   13  C12 UNL     1      -1.381  -1.344  -0.041  1.00  0.00     0.098 C 
HETATM   14  C13 UNL     1      -0.642  -2.225  -0.848  1.00  0.00     0.049 C 
HETATM   15  C14 UNL     1       0.692  -1.928  -1.168  1.00  0.00     0.101 C 
HETATM   16  O2  UNL     1      -2.666  -1.649   0.246  1.00  0.00    -0.332 OA
HETATM   17  C16 UNL     1      -3.588  -0.647   0.703  1.00  0.00     0.117 C 
HETATM   18  C17 UNL     1      -2.904   0.353   1.611  1.00  0.00     0.001 C 
HETATM   19  C18 UNL     1      -1.586   0.594   1.482  1.00  0.00     0.001 C 
HETATM   20  C19 UNL     1      -4.143   0.088  -0.522  1.00  0.00     0.035 C 
HETATM   21  C20 UNL     1      -4.721  -1.356   1.451  1.00  0.00     0.035 C 
HETATM   22  O3  UNL     1       3.389  -1.211  -1.770  1.00  0.00    -0.286 OA
ENDROOT
BRANCH  15  23
HETATM   23  O1  UNL     1       1.375  -2.817  -1.904  1.00  0.00    -0.328 OA
HETATM   24  C15 UNL     1       0.856  -4.135  -2.008  1.00  0.00     0.181 C 
ENDBRANCH  15  23
TORSDOF 1
