REMARK  11 active torsions:
REMARK  status: ('A' for Active; 'I' for Inactive)
REMARK    1  A    between atoms: C1_1  and  O17_53 
REMARK    2  A    between atoms: C5_5  and  C7_7 
REMARK    3  A    between atoms: C7_7  and  C8_8 
REMARK    4  A    between atoms: C8_8  and  C9_9 
REMARK    5  A    between atoms: C9_9  and  O1_10 
REMARK    6  A    between atoms: O1_10  and  C10_11 
REMARK    7  A    between atoms: C14_15  and  O3_17 
REMARK    8  A    between atoms: O3_17  and  C15_18 
REMARK    9  A    between atoms: C16_19  and  C21_28 
REMARK   10  A    between atoms: C17_21  and  C20_26 
REMARK   11  A    between atoms: C28_36  and  C31_40 
ROOT
HETATM    1  C15 UNL     1      -0.170   1.016  -0.706  1.00  0.00     0.195 C 
HETATM    2  C16 UNL     1       0.621   1.952   0.210  1.00  0.00     0.103 C 
HETATM    3  O4  UNL     1       0.261   3.306   0.087  1.00  0.00    -0.330 OA
HETATM    4  C17 UNL     1      -1.097   3.638   0.159  1.00  0.00     0.187 C 
HETATM    5  C18 UNL     1      -2.104   2.624  -0.402  1.00  0.00     0.215 C 
HETATM    6  C19 UNL     1      -1.677   1.176  -0.613  1.00  0.00     0.218 C 
HETATM    7  O5  UNL     1      -2.246   0.285   0.315  1.00  0.00    -0.217 OA
HETATM    8  O6  UNL     1      -2.534   3.096  -1.669  1.00  0.00    -0.218 OA
ENDROOT
BRANCH   1   9
HETATM    9  O3  UNL     1       0.176   1.352  -2.033  1.00  0.00    -0.322 OA
BRANCH   9  10
HETATM   10  C14 UNL     1       0.026   0.318  -2.981  1.00  0.00     0.272 C 
HETATM   11  C13 UNL     1      -0.435   0.959  -4.271  1.00  0.00     0.241 C 
HETATM   12  C12 UNL     1      -0.414  -0.076  -5.373  1.00  0.00     0.223 C 
HETATM   13  O12 UNL     1      -1.748   1.442  -4.111  1.00  0.00    -0.215 OA
HETATM   14  C11 UNL     1       0.987  -0.644  -5.463  1.00  0.00     0.241 C 
HETATM   15  O13 UNL     1      -0.756   0.526  -6.595  1.00  0.00    -0.218 OA
HETATM   16  C10 UNL     1       1.403  -1.207  -4.120  1.00  0.00     0.273 C 
HETATM   17  O14 UNL     1       0.990  -1.659  -6.436  1.00  0.00    -0.215 OA
HETATM   18  O2  UNL     1       1.327  -0.215  -3.116  1.00  0.00    -0.302 OA
BRANCH  16  19
HETATM   19  O1  UNL     1       2.779  -1.537  -4.139  1.00  0.00    -0.302 OA
BRANCH  19  20
HETATM   20  C9  UNL     1       3.165  -2.815  -3.870  1.00  0.00     0.271 C 
HETATM   21  O15 UNL     1       2.309  -3.751  -3.511  1.00  0.00    -0.190 OA
BRANCH  20  22
HETATM   22  C8  UNL     1       4.624  -3.233  -4.024  1.00  0.00     0.069 C 
BRANCH  22  23
HETATM   23  C7  UNL     1       5.396  -3.740  -2.833  1.00  0.00     0.027 C 
BRANCH  23  24
HETATM   24  C5  UNL     1       6.891  -3.895  -2.876  1.00  0.00    -0.042 C 
HETATM   25  C4  UNL     1       7.460  -5.181  -2.556  1.00  0.00     0.029 C 
HETATM   26  C3  UNL     1       8.953  -5.348  -2.574  1.00  0.00     0.061 C 
HETATM   27  C2  UNL     1       9.726  -4.343  -3.390  1.00  0.00     0.131 C 
HETATM   28  C1  UNL     1       9.188  -2.927  -3.268  1.00  0.00     0.115 C 
HETATM   29  O16 UNL     1      11.040  -4.567  -3.648  1.00  0.00    -0.193 OA
HETATM   30  C6  UNL     1       7.684  -2.837  -3.209  1.00  0.00     0.018 C 
BRANCH  28  31
HETATM   31  O17 UNL     1      10.022  -1.881  -3.565  1.00  0.00    -0.326 OA
HETATM   32  C37 UNL     1       9.439  -0.690  -4.038  1.00  0.00     0.181 C 
ENDBRANCH  28  31
ENDBRANCH  23  24
ENDBRANCH  22  23
ENDBRANCH  20  22
ENDBRANCH  19  20
ENDBRANCH  16  19
ENDBRANCH   9  10
ENDBRANCH   1   9
BRANCH   2  33
HETATM   33  C21 UNL     1       1.211   1.535   1.576  1.00  0.00     0.042 A 
HETATM   34  C22 UNL     1       2.625   1.550   1.733  1.00  0.00     0.137 A 
HETATM   35  C23 UNL     1       3.220   1.171   2.953  1.00  0.00     0.087 A 
HETATM   36  O11 UNL     1       3.415   1.979   0.705  1.00  0.00    -0.190 OA
HETATM   37  C24 UNL     1       2.459   0.791   4.067  1.00  0.00     0.105 A 
HETATM   38  C30 UNL     1       4.695   1.155   3.143  1.00  0.00     0.202 A 
HETATM   39  C25 UNL     1       1.081   0.789   3.888  1.00  0.00     0.021 A 
HETATM   40  O8  UNL     1       2.965   0.429   5.281  1.00  0.00    -0.307 OA
HETATM   41  C26 UNL     1       0.448   1.141   2.690  1.00  0.00    -0.016 A 
HETATM   42  C27 UNL     1      -1.054   1.092   2.762  1.00  0.00     0.031 C 
HETATM   43  C28 UNL     1       4.307   0.534   5.510  1.00  0.00     0.103 A 
HETATM   44  C29 UNL     1       5.165   0.869   4.517  1.00  0.00     0.067 A 
HETATM   45  O9  UNL     1       5.523   1.373   2.264  1.00  0.00    -0.286 OA
BRANCH  43  46
HETATM   46  C31 UNL     1       4.808   0.289   6.883  1.00  0.00     0.023 A 
HETATM   47  C32 UNL     1       3.874   0.152   7.926  1.00  0.00     0.004 A 
HETATM   48  C33 UNL     1       4.273  -0.063   9.244  1.00  0.00     0.028 A 
HETATM   49  C34 UNL     1       5.625  -0.161   9.588  1.00  0.00     0.131 A 
HETATM   50  C35 UNL     1       6.557  -0.046   8.555  1.00  0.00     0.028 A 
HETATM   51  O10 UNL     1       6.022  -0.370  10.871  1.00  0.00    -0.190 OA
HETATM   52  C36 UNL     1       6.163   0.172   7.233  1.00  0.00     0.004 A 
ENDBRANCH  43  46
ENDBRANCH   2  33
BRANCH   4  53
HETATM   53  C20 UNL     1      -1.400   4.317   1.493  1.00  0.00     0.215 C 
HETATM   54  O7  UNL     1      -2.741   4.760   1.526  1.00  0.00    -0.218 OA
ENDBRANCH   4  53
TORSDOF 11
