REMARK  4 active torsions:
REMARK  status: ('A' for Active; 'I' for Inactive)
REMARK    1  A    between atoms: C1_1  and  O4_19 
REMARK    2  A    between atoms: C3_3  and  O3_17 
REMARK    3  A    between atoms: C6_6  and  C7_7 
REMARK    4  A    between atoms: C7_7  and  C8_8 
ROOT
HETATM    1  C1  UNL     1       1.821  -0.336  -0.226  1.00  0.00     0.094 C 
HETATM    2  C2  UNL     1       2.869  -0.061   0.661  1.00  0.00     0.048 C 
HETATM    3  C3  UNL     1       2.858   1.004   1.563  1.00  0.00     0.098 C 
HETATM    4  C4  UNL     1       1.625   1.663   1.739  1.00  0.00     0.045 A 
HETATM    5  C5  UNL     1       0.499   1.365   0.947  1.00  0.00     0.103 A 
HETATM    6  C6  UNL     1       0.610   0.346  -0.018  1.00  0.00     0.028 C 
HETATM    7  O1  UNL     1      -0.704   2.001   1.102  1.00  0.00    -0.273 OA
HETATM    8  C12 UNL     1      -0.807   2.967   2.054  1.00  0.00     0.300 A 
HETATM    9  C13 UNL     1       0.321   3.333   2.934  1.00  0.00     0.069 A 
HETATM   10  C14 UNL     1       1.496   2.690   2.776  1.00  0.00     0.009 A 
HETATM   11  O2  UNL     1      -1.868   3.571   2.204  1.00  0.00    -0.259 OA
ENDROOT
BRANCH   6  12
HETATM   12  C7  UNL     1      -0.593  -0.037  -0.863  1.00  0.00     0.056 C 
BRANCH  12  13
HETATM   13  C8  UNL     1      -1.034  -1.447  -0.558  1.00  0.00    -0.030 C 
HETATM   14  C9  UNL     1      -1.253  -2.442  -1.438  1.00  0.00    -0.048 C 
HETATM   15  C10 UNL     1      -1.663  -3.819  -0.966  1.00  0.00     0.026 C 
HETATM   16  C11 UNL     1      -1.112  -2.324  -2.937  1.00  0.00     0.026 C 
ENDBRANCH  12  13
ENDBRANCH   6  12
BRANCH   1  17
HETATM   17  O4  UNL     1       1.906  -1.416  -1.067  1.00  0.00    -0.328 OA
HETATM   18  C16 UNL     1       2.519  -1.127  -2.301  1.00  0.00     0.181 C 
ENDBRANCH   1  17
BRANCH   3  19
HETATM   19  O3  UNL     1       3.914   1.188   2.418  1.00  0.00    -0.328 OA
HETATM   20  C15 UNL     1       4.891   2.071   1.916  1.00  0.00     0.181 C 
ENDBRANCH   3  19
TORSDOF 4
