REMARK  1 active torsions:
REMARK  status: ('A' for Active; 'I' for Inactive)
REMARK    1  A    between atoms: C4_4  and  C19_20 
ROOT
HETATM    1  C1  UNL     1      -1.748   0.177   0.896  1.00  0.00     0.000 C 
HETATM    2  C2  UNL     1      -2.832  -0.911   0.867  1.00  0.00     0.001 C 
HETATM    3  C3  UNL     1      -2.233  -2.284   0.545  1.00  0.00     0.010 C 
HETATM    4  C4  UNL     1      -1.393  -2.312  -0.757  1.00  0.00     0.078 C 
HETATM    5  C5  UNL     1      -0.349  -1.161  -0.680  1.00  0.00     0.010 C 
HETATM    6  C6  UNL     1      -0.912   0.265  -0.407  1.00  0.00     0.001 C 
HETATM    7  C7  UNL     1       0.259   1.313  -0.330  1.00  0.00     0.000 C 
HETATM    8  C8  UNL     1       1.693   0.725  -0.239  1.00  0.00     0.002 C 
HETATM    9  C9  UNL     1       1.949  -0.332  -1.334  1.00  0.00     0.000 C 
HETATM   10  C10 UNL     1       0.704  -1.104  -1.794  1.00  0.00     0.001 C 
HETATM   11  C11 UNL     1       2.721   1.877  -0.418  1.00  0.00     0.003 C 
HETATM   12  C12 UNL     1       2.539   2.684   0.877  1.00  0.00     0.027 C 
HETATM   13  C13 UNL     1       1.207   3.443   0.783  1.00  0.00     0.002 C 
HETATM   14  C14 UNL     1       0.030   2.457   0.684  1.00  0.00     0.000 C 
HETATM   15  C15 UNL     1       2.472   1.554   1.885  1.00  0.00     0.120 A 
HETATM   16  C16 UNL     1       2.052   0.267   1.202  1.00  0.00     0.030 C 
HETATM   17  O1  UNL     1       3.743   1.408   2.837  1.00  0.00    -0.354 OA
HETATM   18  C17 UNL     1       2.459   1.748   3.300  1.00  0.00     0.169 A 
HETATM   19  C18 UNL     1      -1.864   0.771  -1.524  1.00  0.00     0.000 C 
HETATM   20  C20 UNL     1      -0.705  -3.701  -0.801  1.00  0.00     0.011 C 
ENDROOT
BRANCH   4  21
HETATM   21  C19 UNL     1      -2.219  -2.259  -2.041  1.00  0.00     0.184 C 
HETATM   22  O2  UNL     1      -1.797  -2.055  -3.155  1.00  0.00    -0.647 OA
HETATM   23  O3  UNL     1      -3.523  -2.524  -1.853  1.00  0.00    -0.647 OA
ENDBRANCH   4  21
TORSDOF 1
