REMARK  6 active torsions:
REMARK  status: ('A' for Active; 'I' for Inactive)
REMARK    1  A    between atoms: C2_2  and  O8_33 
REMARK    2  A    between atoms: C5_5  and  C25_30 
REMARK    3  A    between atoms: C15_15  and  C20_22 
REMARK    4  A    between atoms: C16_16  and  O1_18 
REMARK    5  A    between atoms: O1_18  and  C18_19 
REMARK    6  A    between atoms: O8_33  and  C26_34 
ROOT
HETATM    1  C1  UNL     1       1.632   1.043  -1.707  1.00  0.00     0.030 C 
HETATM    2  C2  UNL     1       1.086  -0.185  -0.966  1.00  0.00     0.120 C 
HETATM    3  C3  UNL     1       2.106  -1.313  -1.106  1.00  0.00     0.061 C 
HETATM    4  C4  UNL     1       3.509  -1.019  -0.518  1.00  0.00     0.136 C 
HETATM    5  C5  UNL     1       3.866   0.502  -0.482  1.00  0.00     0.084 C 
HETATM    6  C6  UNL     1       3.172   1.139  -1.714  1.00  0.00     0.012 C 
HETATM    7  C7  UNL     1       5.398   0.843  -0.490  1.00  0.00     0.012 C 
HETATM    8  C8  UNL     1       6.333  -0.375  -0.588  1.00  0.00     0.029 C 
HETATM    9  C9  UNL     1       5.808  -1.267  -1.716  1.00  0.00     0.005 C 
HETATM   10  C10 UNL     1       4.511  -1.936  -1.257  1.00  0.00     0.031 C 
HETATM   11  C11 UNL     1       7.824  -0.026  -0.746  1.00  0.00     0.129 C 
HETATM   12  C12 UNL     1       8.359   0.951   0.319  1.00  0.00     0.032 C 
HETATM   13  C13 UNL     1       7.378   2.145   0.442  1.00  0.00     0.003 C 
HETATM   14  C14 UNL     1       5.914   1.739   0.654  1.00  0.00     0.001 C 
HETATM   15  C15 UNL     1       9.683   1.478  -0.291  1.00  0.00     0.051 C 
HETATM   16  C16 UNL     1       9.428   1.518  -1.806  1.00  0.00     0.131 C 
HETATM   17  C17 UNL     1       8.231   0.597  -2.087  1.00  0.00     0.061 C 
HETATM   18  C24 UNL     1       8.559   0.338   1.719  1.00  0.00     0.003 C 
HETATM   19  O5  UNL     1       8.536  -1.232  -0.648  1.00  0.00    -0.226 OA
HETATM   20  O7  UNL     1       3.478  -1.469   0.815  1.00  0.00    -0.226 OA
ENDROOT
BRANCH   2  21
HETATM   21  O8  UNL     1       0.880   0.126   0.382  1.00  0.00    -0.332 OA
BRANCH  21  22
HETATM   22  C26 UNL     1      -0.100  -0.646   1.041  1.00  0.00     0.270 C 
HETATM   23  O9  UNL     1      -1.315   0.008   0.751  1.00  0.00    -0.329 OA
HETATM   24  C27 UNL     1      -2.426  -0.550   1.398  1.00  0.00     0.151 C 
HETATM   25  C28 UNL     1      -2.245  -0.607   2.912  1.00  0.00     0.212 C 
HETATM   26  C31 UNL     1      -2.846  -1.875   0.758  1.00  0.00     0.035 C 
HETATM   27  C29 UNL     1      -0.906  -1.168   3.349  1.00  0.00     0.220 C 
HETATM   28  O12 UNL     1      -2.355   0.701   3.430  1.00  0.00    -0.218 OA
HETATM   29  C30 UNL     1       0.209  -0.577   2.518  1.00  0.00     0.241 C 
HETATM   30  O11 UNL     1      -0.870  -2.565   3.189  1.00  0.00    -0.218 OA
HETATM   31  O10 UNL     1       1.381  -1.315   2.768  1.00  0.00    -0.215 OA
ENDBRANCH  21  22
ENDBRANCH   2  21
BRANCH   5  32
HETATM   32  C25 UNL     1       3.300   1.195   0.767  1.00  0.00     0.209 C 
HETATM   33  O6  UNL     1       2.779   2.286   0.743  1.00  0.00    -0.288 OA
ENDBRANCH   5  32
BRANCH  15  34
HETATM   34  C20 UNL     1      10.979   0.822   0.138  1.00  0.00    -0.007 A 
HETATM   35  C21 UNL     1      11.940   1.454   0.835  1.00  0.00     0.062 A 
HETATM   36  C22 UNL     1      13.030   0.476   0.989  1.00  0.00     0.296 A 
HETATM   37  O3  UNL     1      12.757  -0.721   0.403  1.00  0.00    -0.294 OA
HETATM   38  O4  UNL     1      14.081   0.721   1.572  1.00  0.00    -0.259 OA
HETATM   39  C23 UNL     1      11.446  -0.593  -0.144  1.00  0.00     0.175 A 
ENDBRANCH  15  34
BRANCH  16  40
HETATM   40  O1  UNL     1      10.568   1.155  -2.521  1.00  0.00    -0.304 OA
BRANCH  40  41
HETATM   41  C18 UNL     1      10.578   1.414  -3.856  1.00  0.00     0.272 C 
HETATM   42  C19 UNL     1      11.927   1.061  -4.446  1.00  0.00     0.106 C 
HETATM   43  O2  UNL     1       9.649   1.879  -4.479  1.00  0.00    -0.264 OA
ENDBRANCH  40  41
ENDBRANCH  16  40
TORSDOF 6
