REMARK  2 active torsions:
REMARK  status: ('A' for Active; 'I' for Inactive)
REMARK    1  A    between atoms: C3_3  and  C19_22 
REMARK    2  A    between atoms: C15_15  and  C17_18 
ROOT
HETATM    1  C1  UNL     1      -3.622   0.653   0.504  1.00  0.00     0.000 C 
HETATM    2  C2  UNL     1      -3.729  -0.863   0.315  1.00  0.00     0.007 C 
HETATM    3  C3  UNL     1      -2.966  -1.373  -0.928  1.00  0.00     0.058 C 
HETATM    4  C4  UNL     1      -1.502  -0.848  -0.883  1.00  0.00     0.007 C 
HETATM    5  C5  UNL     1      -1.315   0.687  -0.687  1.00  0.00     0.000 C 
HETATM    6  C6  UNL     1      -2.151   1.091   0.554  1.00  0.00     0.000 C 
HETATM    7  C7  UNL     1       0.207   1.069  -0.544  1.00  0.00     0.000 C 
HETATM    8  C8  UNL     1       1.192  -0.125  -0.554  1.00  0.00     0.005 C 
HETATM    9  C9  UNL     1       0.900  -1.048  -1.752  1.00  0.00     0.000 C 
HETATM   10  C10 UNL     1      -0.579  -1.393  -1.981  1.00  0.00     0.000 C 
HETATM   11  C11 UNL     1       2.641   0.394  -0.707  1.00  0.00     0.033 C 
HETATM   12  C12 UNL     1       2.880   0.986   0.675  1.00  0.00     0.153 C 
HETATM   13  C13 UNL     1       2.066   2.281   0.765  1.00  0.00     0.033 C 
HETATM   14  C14 UNL     1       0.555   2.057   0.590  1.00  0.00     0.003 C 
HETATM   15  C15 UNL     1       2.442  -0.154   1.600  1.00  0.00     0.167 C 
HETATM   16  C16 UNL     1       1.276  -0.808   0.833  1.00  0.00     0.034 C 
HETATM   17  O1  UNL     1       2.014   0.386   2.822  1.00  0.00    -0.222 OA
HETATM   18  O2  UNL     1       4.232   1.296   0.856  1.00  0.00    -0.223 OA
HETATM   19  C18 UNL     1      -1.847   1.500  -1.896  1.00  0.00     0.000 C 
HETATM   20  C20 UNL     1      -3.020  -2.921  -0.884  1.00  0.00     0.008 C 
ENDROOT
BRANCH   3  21
HETATM   21  C19 UNL     1      -3.685  -1.000  -2.220  1.00  0.00     0.206 C 
HETATM   22  O3  UNL     1      -4.791  -0.513  -2.248  1.00  0.00    -0.288 OA
ENDBRANCH   3  21
BRANCH  15  23
HETATM   23  C17 UNL     1       3.549  -1.153   1.943  1.00  0.00     0.128 C 
HETATM   24 CL1  UNL     1       2.953  -2.412   3.058  1.00  0.00    -0.111 Cl
ENDBRANCH  15  23
TORSDOF 2
