REMARK  7 active torsions:
REMARK  status: ('A' for Active; 'I' for Inactive)
REMARK    1  A    between atoms: C2_2  and  O7_38 
REMARK    2  A    between atoms: C6_6  and  C7_7 
REMARK    3  A    between atoms: C7_7  and  C8_8 
REMARK    4  A    between atoms: C12_13  and  O3_17 
REMARK    5  A    between atoms: O3_17  and  C15_18 
REMARK    6  A    between atoms: C22_27  and  C25_30 
REMARK    7  A    between atoms: O7_38  and  C32_39 
ROOT
HETATM    1  C1  UNL     1      -3.949   0.743   0.118  1.00  0.00     0.031 C 
HETATM    2  C2  UNL     1      -4.243  -0.655   0.670  1.00  0.00     0.127 C 
HETATM    3  C3  UNL     1      -3.059  -1.622   0.556  1.00  0.00     0.056 C 
HETATM    4  C4  UNL     1      -1.697  -1.008   0.975  1.00  0.00     0.038 C 
HETATM    5  C5  UNL     1      -1.574   0.537   1.151  1.00  0.00     0.019 C 
HETATM    6  C6  UNL     1      -2.462   1.168   0.027  1.00  0.00     0.013 C 
HETATM    7  C10 UNL     1      -0.064   1.008   1.069  1.00  0.00    -0.037 C 
HETATM    8  C11 UNL     1       1.026  -0.073   0.799  1.00  0.00     0.060 C 
HETATM    9  C12 UNL     1       0.500  -0.874  -0.404  1.00  0.00     0.158 C 
HETATM   10  C13 UNL     1      -0.777  -1.630  -0.077  1.00  0.00     0.144 C 
HETATM   11  O2  UNL     1      -1.526  -1.754  -1.248  1.00  0.00    -0.354 OA
HETATM   12  C14 UNL     1      -2.837  -2.088  -0.890  1.00  0.00     0.145 C 
HETATM   13  C17 UNL     1       2.347   0.579   0.382  1.00  0.00    -0.019 C 
HETATM   14  C18 UNL     1       2.376   2.027  -0.064  1.00  0.00     0.140 C 
HETATM   15  O5  UNL     1       2.437   2.900   1.033  1.00  0.00    -0.327 OA
HETATM   16  C19 UNL     1       1.529   2.780   2.043  1.00  0.00     0.116 C 
HETATM   17  C20 UNL     1       0.456   1.974   2.116  1.00  0.00     0.018 C 
HETATM   18  C21 UNL     1       3.719   2.117  -0.801  1.00  0.00     0.043 C 
HETATM   19  C22 UNL     1       4.609   1.107  -0.061  1.00  0.00     0.045 C 
HETATM   20  C23 UNL     1       3.596   0.070   0.365  1.00  0.00    -0.045 C 
HETATM   21  C24 UNL     1       4.104  -1.283   0.782  1.00  0.00     0.026 C 
HETATM   22  C29 UNL     1       1.241  -0.896   2.086  1.00  0.00     0.011 C 
HETATM   23  C30 UNL     1      -2.159   0.913   2.538  1.00  0.00     0.004 C 
HETATM   24  C31 UNL     1      -3.349  -2.868   1.434  1.00  0.00     0.005 C 
ENDROOT
BRANCH  19  25
HETATM   25  C25 UNL     1       5.751   0.571  -0.871  1.00  0.00     0.008 A 
HETATM   26  C26 UNL     1       5.766   0.187  -2.155  1.00  0.00     0.119 A 
HETATM   27  O6  UNL     1       6.873  -0.225  -2.498  1.00  0.00    -0.303 OA
HETATM   28  C27 UNL     1       7.626  -0.150  -1.528  1.00  0.00     0.122 A 
HETATM   29  C28 UNL     1       7.003   0.340  -0.451  1.00  0.00     0.025 A 
ENDBRANCH  19  25
BRANCH   9  30
HETATM   30  O3  UNL     1       1.437  -1.786  -0.906  1.00  0.00    -0.301 OA
BRANCH  30  31
HETATM   31  C15 UNL     1       2.132  -1.467  -2.033  1.00  0.00     0.272 C 
HETATM   32  C16 UNL     1       3.015  -2.623  -2.461  1.00  0.00     0.106 C 
HETATM   33  O4  UNL     1       2.058  -0.418  -2.632  1.00  0.00    -0.264 OA
ENDBRANCH  30  31
ENDBRANCH   9  30
BRANCH   6  34
HETATM   34  C7  UNL     1      -2.423   2.710  -0.133  1.00  0.00     0.065 C 
BRANCH  34  35
HETATM   35  C8  UNL     1      -1.269   3.320  -0.918  1.00  0.00     0.151 C 
HETATM   36  C9  UNL     1      -1.020   2.834  -2.335  1.00  0.00     0.072 C 
HETATM   37  O1  UNL     1      -0.587   4.196  -0.435  1.00  0.00    -0.296 OA
ENDBRANCH  34  35
ENDBRANCH   6  34
BRANCH   2  38
HETATM   38  O7  UNL     1      -5.375  -1.215   0.061  1.00  0.00    -0.304 OA
BRANCH  38  39
HETATM   39  C32 UNL     1      -6.594  -0.734   0.427  1.00  0.00     0.272 C 
HETATM   40  C33 UNL     1      -7.693  -1.516  -0.264  1.00  0.00     0.106 C 
HETATM   41  O8  UNL     1      -6.782   0.170   1.209  1.00  0.00    -0.264 OA
ENDBRANCH  38  39
ENDBRANCH   2  38
TORSDOF 7
