REMARK  2 active torsions:
REMARK  status: ('A' for Active; 'I' for Inactive)
REMARK    1  A    between atoms: C3_3  and  C19_20 
REMARK    2  A    between atoms: C15_15  and  C17_17 
ROOT
HETATM    1  C1  UNL     1      -2.151   0.713   0.801  1.00  0.00     0.001 C 
HETATM    2  C2  UNL     1      -2.343  -0.766   0.455  1.00  0.00     0.010 C 
HETATM    3  C3  UNL     1      -1.648  -1.193  -0.862  1.00  0.00     0.078 C 
HETATM    4  C4  UNL     1      -0.162  -0.741  -0.789  1.00  0.00     0.010 C 
HETATM    5  C5  UNL     1       0.091   0.767  -0.488  1.00  0.00     0.001 C 
HETATM    6  C6  UNL     1      -0.662   1.088   0.829  1.00  0.00     0.000 C 
HETATM    7  C7  UNL     1       1.634   1.066  -0.415  1.00  0.00     0.004 C 
HETATM    8  C8  UNL     1       2.553  -0.181  -0.374  1.00  0.00     0.018 C 
HETATM    9  C9  UNL     1       2.227  -1.241  -1.438  1.00  0.00     0.004 C 
HETATM   10  C10 UNL     1       0.767  -1.218  -1.914  1.00  0.00     0.001 C 
HETATM   11  C11 UNL     1       4.029   0.271  -0.522  1.00  0.00     0.008 C 
HETATM   12  C12 UNL     1       4.292   0.942   0.837  1.00  0.00     0.021 C 
HETATM   13  C13 UNL     1       3.562   2.292   0.833  1.00  0.00     0.004 C 
HETATM   14  C14 UNL     1       2.042   2.104   0.661  1.00  0.00     0.001 C 
HETATM   15  C15 UNL     1       3.600  -0.058   1.731  1.00  0.00    -0.016 C 
HETATM   16  C16 UNL     1       2.638  -0.695   1.049  1.00  0.00    -0.033 C 
HETATM   17  C18 UNL     1      -0.474   1.714  -1.581  1.00  0.00     0.000 C 
HETATM   18  C20 UNL     1      -1.769  -2.736  -0.939  1.00  0.00     0.011 C 
ENDROOT
BRANCH   3  19
HETATM   19  C19 UNL     1      -2.341  -0.697  -2.129  1.00  0.00     0.184 C 
HETATM   20  O2  UNL     1      -1.877  -0.685  -3.244  1.00  0.00    -0.647 OA
HETATM   21  O3  UNL     1      -3.609  -0.297  -1.922  1.00  0.00    -0.647 OA
ENDBRANCH   3  19
BRANCH  15  22
HETATM   22  C17 UNL     1       3.946  -0.215   3.180  1.00  0.00     0.204 C 
HETATM   23  O1  UNL     1       3.178  -1.230   3.813  1.00  0.00    -0.216 OA
ENDBRANCH  15  22
TORSDOF 2
