REMARK  11 active torsions:
REMARK  status: ('A' for Active; 'I' for Inactive)
REMARK    1  A    between atoms: C1_1  and  C2_2 
REMARK    2  A    between atoms: C1_1  and  C16_20 
REMARK    3  A    between atoms: C1_1  and  C29_37 
REMARK    4  A    between atoms: C4_5  and  C11_15 
REMARK    5  A    between atoms: C5_6  and  O4_13 
REMARK    6  A    between atoms: C6_7  and  C8_10 
REMARK    7  A    between atoms: C11_15  and  C12_16 
REMARK    8  A    between atoms: C18_23  and  C27_34 
REMARK    9  A    between atoms: C20_25  and  C22_28 
REMARK   10  A    between atoms: C22_28  and  C23_29 
REMARK   11  A    between atoms: C29_37  and  C30_38 
ROOT
HETATM    1  C1  UNL     1      -1.145   0.725   1.463  1.00  0.00     0.053 C 
ENDROOT
BRANCH   1   2
HETATM    2  C2  UNL     1      -0.354  -0.537   1.463  1.00  0.00     0.032 A 
HETATM    3  C3  UNL     1       1.053  -0.483   1.463  1.00  0.00     0.128 A 
HETATM    4  O1  UNL     1       1.672   0.684   1.463  1.00  0.00    -0.191 OA
HETATM    5  C4  UNL     1       1.799  -1.678   1.463  1.00  0.00     0.030 A 
HETATM    6  C5  UNL     1       1.143  -2.924   1.463  1.00  0.00     0.097 A 
HETATM    7  C6  UNL     1      -0.266  -2.973   1.463  1.00  0.00     0.082 A 
HETATM    8  C7  UNL     1      -1.016  -1.779   1.463  1.00  0.00     0.134 A 
HETATM    9  O2  UNL     1      -2.334  -1.824   1.463  1.00  0.00    -0.190 OA
BRANCH   5  10
HETATM   10  C11 UNL     1       3.287  -1.623   1.463  1.00  0.00     0.056 C 
BRANCH  10  11
HETATM   11  C12 UNL     1       3.889  -2.610   0.500  1.00  0.00    -0.030 C 
HETATM   12  C13 UNL     1       3.799  -2.358  -0.816  1.00  0.00    -0.048 C 
HETATM   13  C14 UNL     1       4.361  -3.227  -1.908  1.00  0.00     0.026 C 
HETATM   14  C15 UNL     1       3.082  -1.109  -1.260  1.00  0.00     0.026 C 
ENDBRANCH  10  11
ENDBRANCH   5  10
BRANCH   6  15
HETATM   15  O4  UNL     1       1.846  -4.039   1.463  1.00  0.00    -0.328 OA
HETATM   16  C10 UNL     1       2.076  -4.682   2.709  1.00  0.00     0.181 C 
ENDBRANCH   6  15
BRANCH   7  17
HETATM   17  C8  UNL     1      -0.967  -4.293   1.463  1.00  0.00     0.177 C 
HETATM   18  O3  UNL     1      -1.859  -4.524   2.244  1.00  0.00    -0.291 OA
HETATM   19  C9  UNL     1      -0.525  -5.328   0.463  1.00  0.00     0.077 C 
ENDBRANCH   7  17
ENDBRANCH   1   2
BRANCH   1  20
HETATM   20  C16 UNL     1      -0.695   1.590   0.338  1.00  0.00     0.032 A 
HETATM   21  C17 UNL     1       0.186   2.660   0.584  1.00  0.00     0.134 A 
HETATM   22  O5  UNL     1       0.613   2.894   1.811  1.00  0.00    -0.190 OA
HETATM   23  C18 UNL     1       0.607   3.478  -0.482  1.00  0.00     0.085 A 
HETATM   24  C19 UNL     1       0.150   3.228  -1.791  1.00  0.00     0.134 A 
HETATM   25  C20 UNL     1      -0.731   2.156  -2.029  1.00  0.00     0.033 A 
HETATM   26  O7  UNL     1       0.545   3.992  -2.791  1.00  0.00    -0.190 OA
HETATM   27  C21 UNL     1      -1.156   1.336  -0.967  1.00  0.00     0.128 A 
HETATM   28  O6  UNL     1      -1.982   0.332  -1.195  1.00  0.00    -0.191 OA
BRANCH  23  29
HETATM   29  C27 UNL     1       1.545   4.617  -0.225  1.00  0.00     0.177 C 
HETATM   30  C28 UNL     1       2.721   4.789  -1.146  1.00  0.00     0.077 C 
HETATM   31  O8  UNL     1       1.361   5.375   0.699  1.00  0.00    -0.291 OA
ENDBRANCH  23  29
BRANCH  25  32
HETATM   32  C22 UNL     1      -1.217   1.889  -3.412  1.00  0.00     0.056 C 
BRANCH  32  33
HETATM   33  C23 UNL     1      -2.719   1.935  -3.504  1.00  0.00    -0.030 C 
HETATM   34  C24 UNL     1      -3.299   1.609  -4.670  1.00  0.00    -0.048 C 
HETATM   35  C25 UNL     1      -4.779   1.643  -4.943  1.00  0.00     0.026 C 
HETATM   36  C26 UNL     1      -2.420   1.174  -5.812  1.00  0.00     0.026 C 
ENDBRANCH  32  33
ENDBRANCH  25  32
ENDBRANCH   1  20
BRANCH   1  37
HETATM   37  C29 UNL     1      -1.045   1.451   2.807  1.00  0.00     0.009 C 
BRANCH  37  38
HETATM   38  C30 UNL     1      -1.977   0.859   3.865  1.00  0.00     0.001 C 
HETATM   39  C31 UNL     1      -1.557   1.226   5.289  1.00  0.00     0.000 C 
HETATM   40  C32 UNL     1      -3.449   1.158   3.590  1.00  0.00     0.000 C 
ENDBRANCH  37  38
ENDBRANCH   1  37
TORSDOF 11
