REMARK  1 active torsions:
REMARK  status: ('A' for Active; 'I' for Inactive)
REMARK    1  A    between atoms: C12_15  and  C14_19 
ROOT
HETATM    1  C1  UNL     1       1.280  -1.271  -1.492  1.00  0.00     0.158 C 
HETATM    2  C2  UNL     1       0.862  -2.756  -1.565  1.00  0.00     0.068 C 
HETATM    3  C3  UNL     1       2.116  -3.560  -1.147  1.00  0.00     0.253 C 
HETATM    4  N1  UNL     1       2.972  -2.541  -0.586  1.00  0.00     0.140 N 
HETATM    5  C4  UNL     1       2.804  -1.384  -1.427  1.00  0.00     0.252 C 
HETATM    6  C5  UNL     1       3.824  -0.378  -0.859  1.00  0.00     0.097 C 
HETATM    7  C6  UNL     1       4.920  -1.334  -0.324  1.00  0.00     0.190 C 
HETATM    8  C7  UNL     1       4.395  -2.764  -0.524  1.00  0.00     0.283 C 
HETATM    9  O1  UNL     1       6.124  -1.156  -1.029  1.00  0.00    -0.221 OA
HETATM   10  C8  UNL     1       3.364   0.578   0.243  1.00  0.00     0.157 C 
HETATM   11  O2  UNL     1       2.478   1.523  -0.297  1.00  0.00    -0.300 OA
HETATM   12  C9  UNL     1       1.651   2.149   0.579  1.00  0.00     0.302 C 
HETATM   13  C10 UNL     1       0.399   2.732  -0.081  1.00  0.00     0.229 C 
HETATM   14  C11 UNL     1      -0.837   2.143   0.650  1.00  0.00     0.170 C 
HETATM   15  C12 UNL     1      -0.844   0.601   0.866  1.00  0.00     0.117 C 
HETATM   16  C13 UNL     1      -0.497  -0.165  -0.409  1.00  0.00     0.274 C 
HETATM   17  O3  UNL     1       0.757  -0.689  -0.337  1.00  0.00    -0.302 OA
HETATM   18  O4  UNL     1      -1.235  -0.269  -1.364  1.00  0.00    -0.264 OA
HETATM   19  O5  UNL     1      -0.765   2.725   1.934  1.00  0.00    -0.222 OA
HETATM   20  C17 UNL     1      -2.137   2.635   0.001  1.00  0.00     0.037 C 
HETATM   21  O6  UNL     1       0.421   4.125   0.189  1.00  0.00    -0.213 OA
HETATM   22  C18 UNL     1       0.408   2.629  -1.610  1.00  0.00     0.046 C 
HETATM   23  O7  UNL     1       1.772   2.141   1.784  1.00  0.00    -0.261 OA
ENDROOT
BRANCH  15  24
HETATM   24  C14 UNL     1      -2.117  -0.040   1.490  1.00  0.00     0.012 C 
HETATM   25  C15 UNL     1      -1.930  -1.563   1.674  1.00  0.00     0.001 C 
HETATM   26  C16 UNL     1      -2.523   0.545   2.856  1.00  0.00     0.001 C 
ENDBRANCH  15  24
TORSDOF 1
