REMARK  1 active torsions:
REMARK  status: ('A' for Active; 'I' for Inactive)
REMARK    1  A    between atoms: C1_1  and  C7_8 
ROOT
HETATM    1  C1  UNL     1      -0.380   0.142   0.213  1.00  0.00     0.022 C 
HETATM    2  C2  UNL     1       1.097   0.160  -0.117  1.00  0.00    -0.024 C 
HETATM    3  C3  UNL     1       1.935  -0.866   0.118  1.00  0.00     0.033 C 
HETATM    4  C4  UNL     1       1.474  -2.130   0.738  1.00  0.00     0.173 C 
HETATM    5  C5  UNL     1       0.002  -2.224   1.085  1.00  0.00     0.070 C 
HETATM    6  C6  UNL     1      -0.868  -1.318   0.205  1.00  0.00     0.013 C 
HETATM    7  O1  UNL     1       2.248  -3.049   0.973  1.00  0.00    -0.291 OA
ENDROOT
BRANCH   1   8
HETATM    8  C7  UNL     1      -1.201   1.059  -0.732  1.00  0.00     0.004 C 
HETATM    9  C8  UNL     1      -0.850   2.551  -0.552  1.00  0.00     0.000 C 
HETATM   10  C9  UNL     1      -2.723   0.905  -0.539  1.00  0.00     0.000 C 
ENDBRANCH   1   8
TORSDOF 1
