REMARK  7 active torsions:
REMARK  status: ('A' for Active; 'I' for Inactive)
REMARK    1  A    between atoms: C7_7  and  C30_36 
REMARK    2  A    between atoms: C15_16  and  C18_20 
REMARK    3  A    between atoms: C18_20  and  C19_21 
REMARK    4  A    between atoms: C19_21  and  C20_22 
REMARK    5  A    between atoms: C21_23  and  C22_24 
REMARK    6  A    between atoms: C22_24  and  O3_26 
REMARK    7  A    between atoms: O3_26  and  C24_27 
ROOT
HETATM    1  C1  UNL     1      -1.957  -2.325  -1.802  1.00  0.00     0.209 C 
HETATM    2  C2  UNL     1      -2.106  -3.833  -1.714  1.00  0.00     0.183 C 
HETATM    3  C3  UNL     1      -0.827  -4.658  -1.549  1.00  0.00     0.069 C 
HETATM    4  C4  UNL     1       0.437  -3.838  -1.299  1.00  0.00    -0.042 C 
HETATM    5  C5  UNL     1       0.409  -2.359  -0.939  1.00  0.00     0.030 C 
HETATM    6  C6  UNL     1      -1.033  -1.888  -0.676  1.00  0.00     0.045 C 
HETATM    7  C7  UNL     1       1.452  -2.037   0.188  1.00  0.00     0.086 C 
HETATM    8  C8  UNL     1       2.872  -2.607  -0.172  1.00  0.00     0.014 C 
HETATM    9  C9  UNL     1       2.890  -3.556  -1.383  1.00  0.00     0.026 C 
HETATM   10  C10 UNL     1       1.650  -4.397  -1.443  1.00  0.00    -0.034 C 
HETATM   11  C11 UNL     1       3.986  -1.522  -0.255  1.00  0.00     0.004 C 
HETATM   12  C12 UNL     1       4.063  -0.736   1.099  1.00  0.00     0.012 C 
HETATM   13  C13 UNL     1       2.737   0.028   1.260  1.00  0.00     0.065 C 
HETATM   14  C14 UNL     1       1.598  -0.519   0.407  1.00  0.00     0.153 C 
HETATM   15  O1  UNL     1       0.855   0.285  -0.110  1.00  0.00    -0.296 OA
HETATM   16  C15 UNL     1       5.340   0.126   0.898  1.00  0.00     0.066 C 
HETATM   17  C16 UNL     1       6.295  -0.865   0.196  1.00  0.00     0.155 C 
HETATM   18  C17 UNL     1       5.444  -2.020  -0.361  1.00  0.00     0.033 C 
HETATM   19  O2  UNL     1       7.001  -0.212  -0.832  1.00  0.00    -0.223 OA
HETATM   20  C28 UNL     1       4.323  -1.614   2.350  1.00  0.00     0.001 C 
HETATM   21  C29 UNL     1       3.768  -0.659  -1.537  1.00  0.00     0.000 C 
HETATM   22  C31 UNL     1      -1.039  -5.624  -0.365  1.00  0.00     0.011 C 
HETATM   23  C32 UNL     1      -0.715  -5.474  -2.857  1.00  0.00     0.011 C 
HETATM   24  O8  UNL     1      -3.190  -4.369  -1.790  1.00  0.00    -0.293 OA
HETATM   25  O9  UNL     1      -3.199  -1.654  -1.666  1.00  0.00    -0.215 OA
ENDROOT
BRANCH  16  26
HETATM   26  C18 UNL     1       5.977   0.966   2.024  1.00  0.00     0.184 C 
HETATM   27  C27 UNL     1       4.988   1.733   2.907  1.00  0.00     0.041 C 
HETATM   28  O6  UNL     1       6.722   0.147   2.903  1.00  0.00    -0.218 OA
BRANCH  26  29
HETATM   29  C19 UNL     1       6.958   1.931   1.321  1.00  0.00     0.200 C 
HETATM   30  O5  UNL     1       8.042   1.522   0.915  1.00  0.00    -0.289 OA
BRANCH  29  31
HETATM   31  C20 UNL     1       6.496   3.302   0.991  1.00  0.00     0.038 C 
HETATM   32  C21 UNL     1       7.312   4.277   0.542  1.00  0.00     0.004 C 
BRANCH  32  33
HETATM   33  C22 UNL     1       6.842   5.693   0.217  1.00  0.00     0.120 C 
HETATM   34  C23 UNL     1       6.275   6.321   1.500  1.00  0.00     0.035 C 
HETATM   35  C26 UNL     1       5.780   5.624  -0.889  1.00  0.00     0.035 C 
BRANCH  33  36
HETATM   36  O3  UNL     1       7.963   6.418  -0.228  1.00  0.00    -0.302 OA
BRANCH  36  37
HETATM   37  C24 UNL     1       7.870   7.730  -0.580  1.00  0.00     0.273 C 
HETATM   38  C25 UNL     1       9.228   8.245  -1.016  1.00  0.00     0.106 C 
HETATM   39  O4  UNL     1       6.870   8.410  -0.558  1.00  0.00    -0.264 OA
ENDBRANCH  36  37
ENDBRANCH  33  36
ENDBRANCH  32  33
ENDBRANCH  29  31
ENDBRANCH  26  29
ENDBRANCH  16  26
BRANCH   7  40
HETATM   40  C30 UNL     1       0.917  -2.633   1.512  1.00  0.00     0.189 C 
HETATM   41  O7  UNL     1       0.061  -1.726   2.175  1.00  0.00    -0.220 OA
ENDBRANCH   7  40
TORSDOF 7
