REMARK  4 active torsions:
REMARK  status: ('A' for Active; 'I' for Inactive)
REMARK    1  A    between atoms: C16_17  and  C19_21 
REMARK    2  A    between atoms: C19_21  and  C20_22 
REMARK    3  A    between atoms: C20_22  and  C21_23 
REMARK    4  A    between atoms: C22_24  and  C23_25 
ROOT
HETATM    1  C1  UNL     1      -1.796  -1.578  -1.090  1.00  0.00     0.180 C 
HETATM    2  C2  UNL     1      -2.072  -3.031  -0.708  1.00  0.00     0.158 C 
HETATM    3  C3  UNL     1      -0.798  -3.893  -0.919  1.00  0.00     0.043 C 
HETATM    4  C4  UNL     1       0.472  -3.219  -0.385  1.00  0.00    -0.046 C 
HETATM    5  C5  UNL     1       0.585  -1.716  -0.191  1.00  0.00     0.027 C 
HETATM    6  C6  UNL     1      -0.755  -0.965  -0.166  1.00  0.00     0.040 C 
HETATM    7  C7  UNL     1       1.532  -1.412   1.016  1.00  0.00     0.055 C 
HETATM    8  C8  UNL     1       2.949  -1.989   0.738  1.00  0.00     0.011 C 
HETATM    9  C9  UNL     1       2.967  -3.279  -0.105  1.00  0.00     0.026 C 
HETATM   10  C10 UNL     1       1.623  -3.914  -0.325  1.00  0.00    -0.035 C 
HETATM   11  C11 UNL     1       3.975  -0.926   0.277  1.00  0.00     0.004 C 
HETATM   12  C12 UNL     1       4.130   0.160   1.389  1.00  0.00     0.012 C 
HETATM   13  C13 UNL     1       2.817   0.952   1.410  1.00  0.00     0.065 C 
HETATM   14  C14 UNL     1       1.560   0.085   1.401  1.00  0.00     0.150 C 
HETATM   15  O1  UNL     1       0.543   0.642   1.754  1.00  0.00    -0.296 OA
HETATM   16  C15 UNL     1       4.374  -0.388   2.817  1.00  0.00     0.001 C 
HETATM   17  C16 UNL     1       5.398   0.916   0.916  1.00  0.00     0.066 C 
HETATM   18  C17 UNL     1       6.317  -0.230   0.452  1.00  0.00     0.155 C 
HETATM   19  C18 UNL     1       5.425  -1.435   0.127  1.00  0.00     0.033 C 
HETATM   20  O2  UNL     1       7.076   0.173  -0.663  1.00  0.00    -0.223 OA
HETATM   21  C27 UNL     1       3.573  -0.355  -1.113  1.00  0.00     0.000 C 
HETATM   22  C28 UNL     1       0.951  -2.120   2.276  1.00  0.00     0.008 C 
HETATM   23  C29 UNL     1      -0.992  -5.282  -0.258  1.00  0.00     0.007 C 
HETATM   24  C30 UNL     1      -0.544  -4.155  -2.428  1.00  0.00     0.007 C 
HETATM   25  C31 UNL     1      -2.649  -3.144   0.712  1.00  0.00     0.036 C 
HETATM   26  O6  UNL     1      -3.081  -3.497  -1.572  1.00  0.00    -0.223 OA
HETATM   27  O7  UNL     1      -2.973  -0.804  -1.010  1.00  0.00    -0.221 OA
ENDROOT
BRANCH  17  28
HETATM   28  C19 UNL     1       6.118   1.966   1.780  1.00  0.00     0.184 C 
HETATM   29  O5  UNL     1       6.844   1.339   2.819  1.00  0.00    -0.218 OA
HETATM   30  C26 UNL     1       5.215   3.030   2.402  1.00  0.00     0.041 C 
BRANCH  28  31
HETATM   31  C20 UNL     1       7.179   2.611   0.885  1.00  0.00     0.200 C 
HETATM   32  O4  UNL     1       8.271   2.052   0.874  1.00  0.00    -0.289 OA
BRANCH  31  33
HETATM   33  C21 UNL     1       6.829   3.750   0.010  1.00  0.00     0.038 C 
HETATM   34  C22 UNL     1       7.761   4.477  -0.636  1.00  0.00     0.006 C 
BRANCH  34  35
HETATM   35  C23 UNL     1       7.415   5.648  -1.532  1.00  0.00     0.145 C 
HETATM   36  C24 UNL     1       6.723   6.757  -0.736  1.00  0.00     0.038 C 
HETATM   37  C25 UNL     1       8.666   6.193  -2.226  1.00  0.00     0.038 C 
HETATM   38  O3  UNL     1       6.525   5.208  -2.537  1.00  0.00    -0.222 OA
ENDBRANCH  34  35
ENDBRANCH  31  33
ENDBRANCH  28  31
ENDBRANCH  17  28
TORSDOF 4
