REMARK  3 active torsions:
REMARK  status: ('A' for Active; 'I' for Inactive)
REMARK    1  A    between atoms: C8_9  and  O3_14 
REMARK    2  A    between atoms: C9_10  and  O2_12 
REMARK    3  A    between atoms: C13_16  and  O4_23 
ROOT
HETATM    1  C1  UNL     1       0.469   1.353  -1.705  1.00  0.00     0.285 C 
HETATM    2  C2  UNL     1      -0.295   0.533  -0.684  1.00  0.00     0.032 A 
HETATM    3  C3  UNL     1       0.150  -0.775  -0.438  1.00  0.00     0.120 A 
HETATM    4  O1  UNL     1       1.154  -1.285  -1.212  1.00  0.00    -0.306 OA
HETATM    5  C4  UNL     1       2.402  -0.891  -0.839  1.00  0.00     0.098 A 
HETATM    6  C5  UNL     1       2.807   0.448  -0.828  1.00  0.00     0.005 A 
HETATM    7  C6  UNL     1       1.909   1.609  -1.213  1.00  0.00     0.069 C 
HETATM    8  C7  UNL     1       4.110   0.733  -0.406  1.00  0.00     0.024 A 
HETATM    9  C8  UNL     1       5.062  -0.223  -0.013  1.00  0.00     0.116 A 
HETATM   10  C9  UNL     1       4.671  -1.578  -0.080  1.00  0.00     0.118 A 
HETATM   11  C10 UNL     1       3.352  -1.847  -0.470  1.00  0.00     0.051 A 
HETATM   12  C13 UNL     1      -0.424  -1.553   0.586  1.00  0.00     0.117 A 
HETATM   13  C14 UNL     1      -1.467  -0.977   1.325  1.00  0.00     0.026 A 
HETATM   14  C15 UNL     1      -1.979   0.281   1.012  1.00  0.00    -0.002 A 
HETATM   15  C16 UNL     1      -1.402   1.046  -0.002  1.00  0.00    -0.020 A 
HETATM   16  C17 UNL     1      -1.990   2.374  -0.395  1.00  0.00     0.064 C 
HETATM   17  C18 UNL     1      -1.598   2.681  -1.844  1.00  0.00     0.295 C 
HETATM   18  N1  UNL     1      -0.144   2.667  -1.936  1.00  0.00     0.342 N 
ENDROOT
BRANCH   9  19
HETATM   19  O3  UNL     1       6.328   0.114   0.397  1.00  0.00    -0.326 OA
HETATM   20  C12 UNL     1       6.712   1.467   0.441  1.00  0.00     0.181 C 
ENDBRANCH   9  19
BRANCH  10  21
HETATM   21  O2  UNL     1       5.430  -2.677   0.254  1.00  0.00    -0.326 OA
HETATM   22  C11 UNL     1       6.661  -2.534   0.918  1.00  0.00     0.181 C 
ENDBRANCH  10  21
BRANCH  12  23
HETATM   23  O4  UNL     1       0.124  -2.784   0.850  1.00  0.00    -0.326 OA
HETATM   24  C19 UNL     1      -0.149  -3.382   2.096  1.00  0.00     0.181 C 
ENDBRANCH  12  23
TORSDOF 3
