REMARK  1 active torsions:
REMARK  status: ('A' for Active; 'I' for Inactive)
REMARK    1  A    between atoms: C5_5  and  C7_7 
ROOT
HETATM    1  C7  UNL     1       2.704  -0.189   0.120  1.00  0.00     0.021 C 
HETATM    2  C8  UNL     1       2.739   1.355   0.359  1.00  0.00     0.032 C 
HETATM    3  C9  UNL     1       4.002   1.591   1.221  1.00  0.00     0.152 C 
HETATM    4  C10 UNL     1       4.432   0.247   1.807  1.00  0.00     0.033 C 
HETATM    5  C11 UNL     1       3.284  -0.708   1.460  1.00  0.00     0.007 C 
HETATM    6  O1  UNL     1       5.067   2.121   0.467  1.00  0.00    -0.224 OA
HETATM    7  C12 UNL     1       2.754   2.229  -0.914  1.00  0.00     0.003 C 
HETATM    8  C13 UNL     1       1.498   1.808   1.173  1.00  0.00     0.003 C 
HETATM    9  C14 UNL     1       3.667  -0.654  -1.000  1.00  0.00     0.004 C 
ENDROOT
BRANCH   1  10
HETATM   10  C5  UNL     1       1.312  -0.738  -0.214  1.00  0.00    -0.023 A 
HETATM   11  C4  UNL     1       0.695  -0.436  -1.437  1.00  0.00    -0.005 A 
HETATM   12  C3  UNL     1      -0.577  -0.903  -1.772  1.00  0.00    -0.005 A 
HETATM   13  C2  UNL     1      -1.296  -1.715  -0.892  1.00  0.00    -0.022 A 
HETATM   14  C1  UNL     1      -0.691  -2.043   0.324  1.00  0.00    -0.005 A 
HETATM   15  C15 UNL     1      -2.680  -2.209  -1.227  1.00  0.00     0.031 C 
HETATM   16  C6  UNL     1       0.584  -1.571   0.649  1.00  0.00    -0.005 A 
ENDBRANCH   1  10
TORSDOF 1
