REMARK  4 active torsions:
REMARK  status: ('A' for Active; 'I' for Inactive)
REMARK    1  A    between atoms: C1_1  and  O5_20 
REMARK    2  A    between atoms: C2_2  and  C11_14 
REMARK    3  A    between atoms: C3_3  and  O3_12 
REMARK    4  A    between atoms: C11_14  and  C12_15 
ROOT
HETATM    1  C1  UNL     1      -0.141   1.027   1.096  1.00  0.00     0.094 A 
HETATM    2  C2  UNL     1      -0.205  -0.299   0.600  1.00  0.00     0.025 A 
HETATM    3  C3  UNL     1      -1.461  -0.883   0.293  1.00  0.00     0.094 A 
HETATM    4  C4  UNL     1      -2.646  -0.129   0.486  1.00  0.00     0.045 A 
HETATM    5  C5  UNL     1      -2.584   1.201   0.983  1.00  0.00     0.107 A 
HETATM    6  C6  UNL     1      -1.328   1.773   1.285  1.00  0.00     0.049 A 
HETATM    7  O1  UNL     1      -3.717   1.918   1.166  1.00  0.00    -0.273 OA
HETATM    8  C7  UNL     1      -4.947   1.428   0.899  1.00  0.00     0.300 A 
HETATM    9  C8  UNL     1      -5.080   0.049   0.379  1.00  0.00     0.069 A 
HETATM   10  C9  UNL     1      -3.982  -0.707   0.180  1.00  0.00     0.009 A 
HETATM   11  O2  UNL     1      -5.951   2.080   1.065  1.00  0.00    -0.259 OA
ENDROOT
BRANCH   2  12
HETATM   12  C11 UNL     1       1.033  -1.074   0.403  1.00  0.00     0.062 C 
BRANCH  12  13
HETATM   13  C12 UNL     1       1.713  -0.719  -0.912  1.00  0.00     0.144 A 
HETATM   14  C13 UNL     1       3.275  -0.633  -1.051  1.00  0.00     0.118 A 
HETATM   15  O4  UNL     1       2.455   0.441  -0.723  1.00  0.00    -0.356 OA
HETATM   16  C14 UNL     1       4.172  -0.926   0.145  1.00  0.00     0.032 C 
HETATM   17  C15 UNL     1       3.899  -0.357  -2.410  1.00  0.00     0.032 C 
ENDBRANCH  12  13
ENDBRANCH   2  12
BRANCH   1  18
HETATM   18  O5  UNL     1       1.045   1.584   1.387  1.00  0.00    -0.328 OA
HETATM   19  C16 UNL     1       1.055   2.928   1.842  1.00  0.00     0.181 C 
ENDBRANCH   1  18
BRANCH   3  20
HETATM   20  O3  UNL     1      -1.523  -2.137  -0.176  1.00  0.00    -0.328 OA
HETATM   21  C10 UNL     1      -1.437  -2.330  -1.580  1.00  0.00     0.181 C 
ENDBRANCH   3  20
TORSDOF 4
