REMARK  4 active torsions:
REMARK  status: ('A' for Active; 'I' for Inactive)
REMARK    1  A    between atoms: C7_7  and  O3_22 
REMARK    2  A    between atoms: C9_9  and  C10_11 
REMARK    3  A    between atoms: C10_11  and  C11_12 
REMARK    4  A    between atoms: C11_12  and  C12_13 
ROOT
HETATM    1  C1  UNL     1       5.380  -5.396   0.177  1.00  0.00     0.000 A 
HETATM    2  C2  UNL     1       3.978  -5.598   0.217  1.00  0.00     0.002 A 
HETATM    3  C3  UNL     1       3.152  -4.504   0.182  1.00  0.00     0.019 A 
HETATM    4  C4  UNL     1       3.689  -3.182   0.105  1.00  0.00     0.083 A 
HETATM    5  C5  UNL     1       5.085  -2.950   0.060  1.00  0.00     0.040 A 
HETATM    6  C6  UNL     1       5.904  -4.126   0.102  1.00  0.00     0.004 A 
HETATM    7  C7  UNL     1       5.547  -1.585  -0.017  1.00  0.00     0.097 A 
HETATM    8  C8  UNL     1       4.546  -0.630  -0.036  1.00  0.00     0.039 A 
HETATM    9  C9  UNL     1       3.160  -0.931   0.015  1.00  0.00     0.061 A 
HETATM   10  N1  UNL     1       2.759  -2.176   0.081  1.00  0.00    -0.250 NA
ENDROOT
BRANCH   9  11
HETATM   11  C10 UNL     1       2.042   0.091   0.005  1.00  0.00     0.051 C 
BRANCH  11  12
HETATM   12  C11 UNL     1       2.475   1.563  -0.062  1.00  0.00     0.033 C 
BRANCH  12  13
HETATM   13  C12 UNL     1       1.374   2.606  -0.082  1.00  0.00    -0.020 A 
HETATM   14  C13 UNL     1       1.743   3.956  -0.221  1.00  0.00    -0.002 A 
HETATM   15  C14 UNL     1       0.807   4.996  -0.261  1.00  0.00     0.026 A 
HETATM   16  C15 UNL     1      -0.534   4.645  -0.154  1.00  0.00     0.119 A 
HETATM   17  C16 UNL     1      -0.919   3.318  -0.004  1.00  0.00     0.119 A 
HETATM   18  O2  UNL     1      -1.657   5.449  -0.166  1.00  0.00    -0.300 OA
HETATM   19  C17 UNL     1       0.012   2.282   0.032  1.00  0.00     0.022 A 
HETATM   20  O1  UNL     1      -2.297   3.258   0.084  1.00  0.00    -0.300 OA
HETATM   21  C18 UNL     1      -2.800   4.596  -0.021  1.00  0.00     0.304 A 
ENDBRANCH  12  13
ENDBRANCH  11  12
ENDBRANCH   9  11
BRANCH   7  22
HETATM   22  O3  UNL     1       6.823  -1.072  -0.082  1.00  0.00    -0.328 OA
HETATM   23  C19 UNL     1       7.969  -1.879  -0.105  1.00  0.00     0.181 C 
ENDBRANCH   7  22
TORSDOF 4
