REMARK  3 active torsions:
REMARK  status: ('A' for Active; 'I' for Inactive)
REMARK    1  A    between atoms: C3_3  and  C21_22 
REMARK    2  A    between atoms: C21_22  and  O2_23 
REMARK    3  A    between atoms: O2_23  and  C22_24 
ROOT
HETATM    1  C1  UNL     1      -0.837   0.072  -3.097  1.00  0.00     0.065 C 
HETATM    2  C2  UNL     1      -1.834  -0.551  -2.147  1.00  0.00     0.152 C 
HETATM    3  C3  UNL     1      -1.245  -1.340  -0.971  1.00  0.00     0.080 C 
HETATM    4  C4  UNL     1       0.130  -0.698  -0.603  1.00  0.00     0.009 C 
HETATM    5  C5  UNL     1       0.249   0.840  -0.851  1.00  0.00     0.001 C 
HETATM    6  C6  UNL     1       0.060   1.092  -2.382  1.00  0.00     0.008 C 
HETATM    7  C7  UNL     1       1.677   1.354  -0.443  1.00  0.00     0.000 C 
HETATM    8  C8  UNL     1       2.283   0.882   0.921  1.00  0.00     0.003 C 
HETATM    9  C9  UNL     1       2.105  -0.651   1.015  1.00  0.00     0.000 C 
HETATM   10  C10 UNL     1       0.659  -1.118   0.780  1.00  0.00     0.001 C 
HETATM   11  C11 UNL     1       3.808   1.277   0.952  1.00  0.00     0.036 C 
HETATM   12  C12 UNL     1       3.920   2.815   0.749  1.00  0.00     0.024 C 
HETATM   13  C13 UNL     1       3.414   3.275  -0.613  1.00  0.00     0.004 C 
HETATM   14  C14 UNL     1       1.933   2.858  -0.721  1.00  0.00     0.000 C 
HETATM   15  C15 UNL     1       5.326   3.096   1.192  1.00  0.00    -0.028 C 
HETATM   16  C16 UNL     1       5.696   2.172   2.089  1.00  0.00     0.002 C 
HETATM   17  C17 UNL     1       4.604   1.145   2.279  1.00  0.00     0.174 C 
HETATM   18  O1  UNL     1       5.141  -0.144   2.492  1.00  0.00    -0.219 OA
HETATM   19  C18 UNL     1       4.665   0.548  -0.132  1.00  0.00     0.003 C 
HETATM   20  C19 UNL     1       1.543   1.499   2.136  1.00  0.00     0.000 C 
HETATM   21  C20 UNL     1      -0.874   1.633  -0.142  1.00  0.00     0.000 C 
HETATM   22  C24 UNL     1      -2.288  -1.341   0.172  1.00  0.00     0.010 C 
HETATM   23  O4  UNL     1      -3.025  -0.467  -2.349  1.00  0.00    -0.296 OA
ENDROOT
BRANCH   3  24
HETATM   24  C21 UNL     1      -1.108  -2.792  -1.494  1.00  0.00     0.159 C 
BRANCH  24  25
HETATM   25  O2  UNL     1      -0.920  -3.699  -0.437  1.00  0.00    -0.301 OA
BRANCH  25  26
HETATM   26  C22 UNL     1      -1.137  -5.016  -0.701  1.00  0.00     0.272 C 
HETATM   27  C23 UNL     1      -1.113  -5.823   0.582  1.00  0.00     0.106 C 
HETATM   28  O3  UNL     1      -1.364  -5.475  -1.798  1.00  0.00    -0.264 OA
ENDBRANCH  25  26
ENDBRANCH  24  25
ENDBRANCH   3  24
TORSDOF 3
