REMARK  5 active torsions:
REMARK  status: ('A' for Active; 'I' for Inactive)
REMARK    1  A    between atoms: C3_3  and  O7_31 
REMARK    2  A    between atoms: C10_10  and  O1_11 
REMARK    3  A    between atoms: C12_13  and  O2_15 
REMARK    4  A    between atoms: N1_20  and  C16_21 
REMARK    5  A    between atoms: C19_24  and  C23_29 
ROOT
HETATM    1  C1  UNL     1       0.762   0.069   1.230  1.00  0.00     0.060 C 
HETATM    2  C2  UNL     1       0.698  -1.482   1.110  1.00  0.00     0.041 C 
HETATM    3  C3  UNL     1       0.820  -1.776  -0.403  1.00  0.00     0.148 C 
HETATM    4  C4  UNL     1       0.888  -0.390  -1.061  1.00  0.00     0.206 C 
HETATM    5  C5  UNL     1       2.281   0.247  -1.223  1.00  0.00     0.161 C 
HETATM    6  C6  UNL     1       3.062   0.094   0.087  1.00  0.00     0.058 C 
HETATM    7  C7  UNL     1       2.206   0.610   1.247  1.00  0.00     0.009 C 
HETATM    8  C8  UNL     1       2.437   2.135   1.166  1.00  0.00     0.005 C 
HETATM    9  C9  UNL     1       3.627   2.338   0.190  1.00  0.00     0.055 C 
HETATM   10  C10 UNL     1       4.306   0.968   0.171  1.00  0.00     0.120 C 
HETATM   11  C12 UNL     1       3.140   2.737  -1.208  1.00  0.00     0.120 C 
HETATM   12  C13 UNL     1       2.182   1.685  -1.783  1.00  0.00     0.063 C 
HETATM   13  O3  UNL     1       2.975  -0.481  -2.206  1.00  0.00    -0.223 OA
HETATM   14  O4  UNL     1       0.334  -0.455  -2.344  1.00  0.00    -0.219 OA
HETATM   15  C15 UNL     1      -0.008   0.387  -0.073  1.00  0.00     0.257 C 
HETATM   16  N1  UNL     1      -1.360  -0.187  -0.005  1.00  0.00     0.163 N 
HETATM   17  C18 UNL     1      -1.612  -0.604   1.374  1.00  0.00     0.339 C 
HETATM   18  C19 UNL     1      -0.677  -1.780   1.771  1.00  0.00     0.089 C 
HETATM   19  C20 UNL     1      -0.449  -1.716   3.307  1.00  0.00     0.009 C 
HETATM   20  C21 UNL     1       0.247  -0.393   3.659  1.00  0.00     0.030 C 
HETATM   21  C22 UNL     1      -0.003   0.544   2.479  1.00  0.00     0.119 C 
HETATM   22  O5  UNL     1      -1.373   0.496   2.219  1.00  0.00    -0.331 OA
ENDROOT
BRANCH   3  23
HETATM   23  O7  UNL     1       1.909  -2.579  -0.752  1.00  0.00    -0.351 OA
HETATM   24  C24 UNL     1       1.708  -3.950  -0.486  1.00  0.00     0.174 C 
ENDBRANCH   3  23
BRANCH  18  25
HETATM   25  C23 UNL     1      -1.295  -3.158   1.489  1.00  0.00     0.187 C 
HETATM   26  O6  UNL     1      -1.905  -3.245   0.219  1.00  0.00    -0.221 OA
ENDBRANCH  18  25
BRANCH  16  27
HETATM   27  C16 UNL     1      -2.406   0.702  -0.501  1.00  0.00     0.253 C 
HETATM   28  C17 UNL     1      -2.256   1.098  -1.977  1.00  0.00     0.037 C 
ENDBRANCH  16  27
BRANCH  10  29
HETATM   29  O1  UNL     1       5.177   0.786  -0.906  1.00  0.00    -0.354 OA
HETATM   30  C11 UNL     1       5.936  -0.402  -0.817  1.00  0.00     0.174 C 
ENDBRANCH  10  29
BRANCH  11  31
HETATM   31  O2  UNL     1       4.245   2.938  -2.051  1.00  0.00    -0.354 OA
HETATM   32  C14 UNL     1       4.006   3.858  -3.096  1.00  0.00     0.174 C 
ENDBRANCH  11  31
TORSDOF 5
