REMARK  1 active torsions:
REMARK  status: ('A' for Active; 'I' for Inactive)
REMARK    1  A    between atoms: C3_4  and  C5_8 
ROOT
HETATM    1  C1  UNL     1      -2.145   0.201  -0.348  1.00  0.00     0.186 A 
HETATM    2  N1  UNL     1      -1.315  -0.967  -0.727  1.00  0.00    -0.229 NA
HETATM    3  C2  UNL     1       0.058  -0.920  -0.758  1.00  0.00     0.274 A 
HETATM    4  C3  UNL     1       0.826   0.338  -0.391  1.00  0.00     0.186 A 
HETATM    5  N2  UNL     1      -0.004   1.512  -0.031  1.00  0.00    -0.229 NA
HETATM    6  C4  UNL     1      -1.377   1.465   0.000  1.00  0.00     0.274 A 
HETATM    7  O1  UNL     1      -1.990   2.459   0.312  1.00  0.00    -0.268 OA
HETATM    8  O2  UNL     1       0.672  -1.908  -1.090  1.00  0.00    -0.268 OA
HETATM    9  C8  UNL     1      -3.151   0.488  -1.465  1.00  0.00     0.037 C 
ENDROOT
BRANCH   4  10
HETATM   10  C5  UNL     1       1.799   0.043   0.754  1.00  0.00     0.032 C 
HETATM   11  C6  UNL     1       1.125  -0.646   1.939  1.00  0.00     0.003 C 
HETATM   12  C7  UNL     1       3.057  -0.689   0.283  1.00  0.00     0.003 C 
ENDBRANCH   4  10
TORSDOF 1
