REMARK  4 active torsions:
REMARK  status: ('A' for Active; 'I' for Inactive)
REMARK    1  A    between atoms: C16_16  and  C19_19 
REMARK    2  A    between atoms: C19_19  and  C20_20 
REMARK    3  A    between atoms: C20_20  and  C21_21 
REMARK    4  A    between atoms: C22_22  and  C23_23 
ROOT
HETATM    1  C1  UNL     1      -6.537  -0.506   0.014  1.00  0.00     0.152 C 
HETATM    2  C2  UNL     1      -5.916   0.705  -0.764  1.00  0.00     0.028 C 
HETATM    3  C3  UNL     1      -4.522   1.090  -0.190  1.00  0.00     0.002 C 
HETATM    4  C4  UNL     1      -3.709  -0.178   0.142  1.00  0.00     0.000 A 
HETATM    5  C5  UNL     1      -4.356  -1.027   1.254  1.00  0.00     0.003 C 
HETATM    6  C6  UNL     1      -5.865  -0.746   1.381  1.00  0.00     0.033 C 
HETATM    7  C7  UNL     1      -2.180  -0.154   0.021  1.00  0.00     0.000 A 
HETATM    8  C8  UNL     1      -1.475   1.111  -0.529  1.00  0.00     0.000 C 
HETATM    9  C9  UNL     1      -2.356   2.371  -0.449  1.00  0.00     0.000 C 
HETATM   10  C10 UNL     1      -3.744   2.113  -1.039  1.00  0.00     0.000 C 
HETATM   11  C11 UNL     1      -0.109   1.334   0.150  1.00  0.00     0.000 C 
HETATM   12  C12 UNL     1       0.732   0.053  -0.008  1.00  0.00     0.000 C 
HETATM   13  C13 UNL     1       0.131  -1.100   0.818  1.00  0.00     0.000 C 
HETATM   14  C14 UNL     1      -1.389  -0.979   1.060  1.00  0.00     0.000 C 
HETATM   15  C15 UNL     1       0.857  -0.359  -1.484  1.00  0.00     0.000 C 
HETATM   16  C16 UNL     1       2.107   0.547   0.467  1.00  0.00     0.000 C 
HETATM   17  C17 UNL     1       2.217   1.957  -0.133  1.00  0.00     0.000 C 
HETATM   18  C18 UNL     1       0.793   2.377  -0.514  1.00  0.00     0.000 C 
HETATM   19  C27 UNL     1      -0.256   1.756   1.623  1.00  0.00     0.000 C 
HETATM   20  C28 UNL     1      -3.020  -0.926  -0.981  1.00  0.00     0.000 A 
HETATM   21  C29 UNL     1      -6.842   1.920  -0.594  1.00  0.00     0.003 C 
HETATM   22  C30 UNL     1      -5.830   0.438  -2.279  1.00  0.00     0.003 C 
HETATM   23  O2  UNL     1      -6.436  -1.715  -0.721  1.00  0.00    -0.224 OA
ENDROOT
BRANCH  16  24
HETATM   24  C19 UNL     1       3.283  -0.346   0.078  1.00  0.00     0.004 C 
HETATM   25  C26 UNL     1       3.064  -1.750   0.644  1.00  0.00     0.000 C 
BRANCH  24  26
HETATM   26  C20 UNL     1       4.588   0.287   0.562  1.00  0.00     0.026 C 
BRANCH  26  27
HETATM   27  C21 UNL     1       5.801  -0.469   0.096  1.00  0.00    -0.028 C 
HETATM   28  C22 UNL     1       6.576  -1.068   1.014  1.00  0.00    -0.001 C 
BRANCH  28  29
HETATM   29  C23 UNL     1       7.791  -1.824   0.547  1.00  0.00     0.145 C 
HETATM   30  C24 UNL     1       9.090  -1.068   0.820  1.00  0.00     0.038 C 
HETATM   31  O1  UNL     1       7.762  -2.967   1.371  1.00  0.00    -0.222 OA
HETATM   32  C25 UNL     1       7.668  -2.281  -0.908  1.00  0.00     0.038 C 
ENDBRANCH  28  29
ENDBRANCH  26  27
ENDBRANCH  24  26
ENDBRANCH  16  24
TORSDOF 4
