REMARK  4 active torsions:
REMARK  status: ('A' for Active; 'I' for Inactive)
REMARK    1  A    between atoms: C16_16  and  C19_19 
REMARK    2  A    between atoms: C19_19  and  C20_20 
REMARK    3  A    between atoms: C20_20  and  C21_21 
REMARK    4  A    between atoms: C21_21  and  C22_22 
ROOT
HETATM    1  C1  UNL     1      -2.468  -1.911   1.299  1.00  0.00     0.150 C 
HETATM    2  C2  UNL     1      -1.485  -2.866   0.620  1.00  0.00     0.051 C 
HETATM    3  C3  UNL     1      -0.095  -2.174   0.554  1.00  0.00     0.006 C 
HETATM    4  C4  UNL     1      -0.125  -0.643   0.510  1.00  0.00     0.001 A 
HETATM    5  C5  UNL     1      -1.395  -0.060  -0.085  1.00  0.00     0.008 C 
HETATM    6  C6  UNL     1      -2.608  -0.503   0.741  1.00  0.00     0.065 C 
HETATM    7  C7  UNL     1       1.211   0.064   0.338  1.00  0.00     0.000 A 
HETATM    8  C8  UNL     1       2.452  -0.840   0.209  1.00  0.00     0.000 C 
HETATM    9  C9  UNL     1       2.243  -2.236  -0.427  1.00  0.00     0.000 C 
HETATM   10  C10 UNL     1       0.777  -2.651  -0.616  1.00  0.00     0.000 C 
HETATM   11  C11 UNL     1       3.653  -0.077  -0.411  1.00  0.00     0.000 C 
HETATM   12  C12 UNL     1       3.814   1.324   0.266  1.00  0.00     0.000 C 
HETATM   13  C13 UNL     1       2.619   2.196  -0.180  1.00  0.00     0.000 C 
HETATM   14  C14 UNL     1       1.297   1.417  -0.369  1.00  0.00     0.000 C 
HETATM   15  C15 UNL     1       3.822   1.261   1.818  1.00  0.00     0.000 C 
HETATM   16  C16 UNL     1       5.230   1.784  -0.208  1.00  0.00     0.000 C 
HETATM   17  C17 UNL     1       6.011   0.450  -0.259  1.00  0.00     0.000 C 
HETATM   18  C18 UNL     1       5.020  -0.715  -0.101  1.00  0.00     0.000 C 
HETATM   19  C27 UNL     1       3.520  -0.008  -1.960  1.00  0.00     0.000 C 
HETATM   20  C28 UNL     1       0.487   0.089   1.675  1.00  0.00     0.000 A 
HETATM   21  C29 UNL     1      -1.373  -4.163   1.457  1.00  0.00     0.007 C 
HETATM   22  C30 UNL     1      -2.101  -3.253  -0.741  1.00  0.00     0.007 C 
HETATM   23  O1  UNL     1      -3.155  -2.252   2.236  1.00  0.00    -0.296 OA
ENDROOT
BRANCH  16  24
HETATM   24  C19 UNL     1       5.980   2.928   0.525  1.00  0.00     0.000 C 
HETATM   25  C26 UNL     1       5.115   4.208   0.604  1.00  0.00     0.000 C 
BRANCH  24  26
HETATM   26  C20 UNL     1       7.318   3.357  -0.138  1.00  0.00     0.005 C 
BRANCH  26  27
HETATM   27  C21 UNL     1       8.552   2.447   0.025  1.00  0.00     0.025 C 
BRANCH  27  28
HETATM   28  C22 UNL     1       8.771   1.494  -1.123  1.00  0.00    -0.035 C 
HETATM   29  C23 UNL     1       9.259   0.241  -1.062  1.00  0.00    -0.048 C 
HETATM   30  C24 UNL     1       9.381  -0.607  -2.308  1.00  0.00     0.026 C 
HETATM   31  C25 UNL     1       9.700  -0.451   0.205  1.00  0.00     0.026 C 
ENDBRANCH  27  28
ENDBRANCH  26  27
ENDBRANCH  24  26
ENDBRANCH  16  24
TORSDOF 4
