REMARK  2 active torsions:
REMARK  status: ('A' for Active; 'I' for Inactive)
REMARK    1  A    between atoms: C15_15  and  C18_18 
REMARK    2  A    between atoms: C20_20  and  C23_23 
ROOT
HETATM    1  C1  UNL     1       6.047  -0.541  -0.346  1.00  0.00     0.152 C 
HETATM    2  C2  UNL     1       5.346   0.353   0.707  1.00  0.00     0.028 C 
HETATM    3  C3  UNL     1       3.826   0.605   0.391  1.00  0.00     0.002 C 
HETATM    4  C4  UNL     1       3.170  -0.356  -0.637  1.00  0.00     0.000 C 
HETATM    5  C5  UNL     1       3.748  -1.770  -0.432  1.00  0.00     0.003 C 
HETATM    6  C6  UNL     1       5.274  -1.846  -0.664  1.00  0.00     0.033 C 
HETATM    7  C7  UNL     1       1.602  -0.283  -0.520  1.00  0.00     0.000 C 
HETATM    8  C8  UNL     1       1.076   1.059   0.092  1.00  0.00     0.000 C 
HETATM    9  C9  UNL     1       1.961   2.225  -0.396  1.00  0.00     0.000 C 
HETATM   10  C10 UNL     1       3.428   2.076   0.080  1.00  0.00     0.000 C 
HETATM   11  C11 UNL     1      -0.414   1.162  -0.334  1.00  0.00     0.000 C 
HETATM   12  C12 UNL     1      -1.203  -0.014   0.281  1.00  0.00     0.000 C 
HETATM   13  C13 UNL     1      -0.668  -1.379  -0.174  1.00  0.00     0.000 C 
HETATM   14  C14 UNL     1       0.852  -1.484   0.100  1.00  0.00     0.000 C 
HETATM   15  C15 UNL     1      -2.652   0.318  -0.074  1.00  0.00     0.008 C 
HETATM   16  C16 UNL     1      -2.703   1.846   0.090  1.00  0.00     0.000 C 
HETATM   17  C17 UNL     1      -1.250   2.320   0.227  1.00  0.00     0.000 C 
HETATM   18  C26 UNL     1      -0.580   1.246  -1.861  1.00  0.00     0.000 C 
HETATM   19  C27 UNL     1       1.082   1.066   1.637  1.00  0.00     0.000 C 
HETATM   20  C28 UNL     1       3.530   0.090  -2.070  1.00  0.00     0.000 C 
HETATM   21  C29 UNL     1       6.116   1.672   0.895  1.00  0.00     0.003 C 
HETATM   22  C30 UNL     1       5.465  -0.393   2.049  1.00  0.00     0.003 C 
HETATM   23  O3  UNL     1       6.287   0.189  -1.537  1.00  0.00    -0.224 OA
ENDROOT
BRANCH  15  24
HETATM   24  C18 UNL     1      -3.648  -0.402   0.830  1.00  0.00     0.066 A 
HETATM   25  C19 UNL     1      -5.051   0.127   0.662  1.00  0.00     0.171 A 
HETATM   26  C20 UNL     1      -5.918  -0.949   0.211  1.00  0.00     0.035 A 
HETATM   27  O2  UNL     1      -5.398   1.266   0.873  1.00  0.00    -0.292 OA
HETATM   28  C21 UNL     1      -5.234  -2.092   0.084  1.00  0.00    -0.025 A 
HETATM   29  C22 UNL     1      -3.781  -1.895   0.447  1.00  0.00     0.034 A 
BRANCH  26  30
HETATM   30  C23 UNL     1      -7.389  -0.801  -0.074  1.00  0.00     0.148 C 
HETATM   31  O1  UNL     1      -7.400   0.217  -1.051  1.00  0.00    -0.221 OA
HETATM   32  C24 UNL     1      -8.172  -0.305   1.143  1.00  0.00     0.038 C 
HETATM   33  C25 UNL     1      -7.994  -2.061  -0.691  1.00  0.00     0.038 C 
ENDBRANCH  26  30
ENDBRANCH  15  24
TORSDOF 2
