REMARK  0 active torsions:
REMARK  status: ('A' for Active; 'I' for Inactive)
ROOT
HETATM    1  C1  UNL     1      -3.293   0.183   0.093  1.00  0.00     0.004 C 
HETATM    2  C2  UNL     1      -2.898  -1.160  -0.541  1.00  0.00     0.022 C 
HETATM    3  C3  UNL     1      -1.472  -1.529  -0.194  1.00  0.00    -0.042 C 
HETATM    4  C4  UNL     1      -0.442  -0.449  -0.485  1.00  0.00     0.046 C 
HETATM    5  C5  UNL     1      -0.826   0.866   0.267  1.00  0.00     0.006 C 
HETATM    6  C6  UNL     1      -2.249   1.285  -0.167  1.00  0.00     0.001 C 
HETATM    7  C7  UNL     1       0.177   2.010  -0.045  1.00  0.00     0.001 C 
HETATM    8  C8  UNL     1       1.656   1.635   0.205  1.00  0.00     0.007 C 
HETATM    9  C9  UNL     1       1.907   0.396  -0.650  1.00  0.00     0.056 C 
HETATM   10  C10 UNL     1       1.025  -0.745  -0.138  1.00  0.00     0.132 C 
HETATM   11  O1  UNL     1       1.565  -1.940  -0.716  1.00  0.00    -0.301 OA
HETATM   12  C11 UNL     1       2.888  -1.755  -0.808  1.00  0.00     0.292 C 
HETATM   13  C12 UNL     1       3.210  -0.338  -0.641  1.00  0.00     0.043 C 
HETATM   14  C13 UNL     1       4.429   0.215  -0.504  1.00  0.00     0.001 C 
HETATM   15  O2  UNL     1       3.712  -2.617  -1.009  1.00  0.00    -0.260 OA
HETATM   16  C14 UNL     1      -0.827   0.635   1.789  1.00  0.00     0.000 C 
HETATM   17  C15 UNL     1      -1.174  -2.730   0.342  1.00  0.00    -0.009 C 
ENDROOT
TORSDOF 0
