REMARK  3 active torsions:
REMARK  status: ('A' for Active; 'I' for Inactive)
REMARK    1  A    between atoms: C6_7  and  C24_31 
REMARK    2  A    between atoms: C15_19  and  C16_20 
REMARK    3  A    between atoms: C24_31  and  C25_32 
ROOT
HETATM    1  C1  UNL     1      -1.558   0.207   0.439  1.00  0.00     0.117 C 
HETATM    2  C2  UNL     1      -1.665  -1.284   0.656  1.00  0.00     0.001 C 
HETATM    3  C3  UNL     1      -0.568  -2.060   0.639  1.00  0.00     0.002 C 
HETATM    4  C4  UNL     1       0.738  -1.411   0.476  1.00  0.00     0.047 A 
HETATM    5  C5  UNL     1       0.783  -0.022   0.666  1.00  0.00     0.094 A 
HETATM    6  O1  UNL     1      -0.345   0.710   0.930  1.00  0.00    -0.332 OA
HETATM    7  C6  UNL     1       2.015   0.626   0.474  1.00  0.00     0.028 A 
HETATM    8  C7  UNL     1       3.184  -0.095   0.184  1.00  0.00     0.103 A 
HETATM    9  C8  UNL     1       3.107  -1.496   0.087  1.00  0.00     0.087 A 
HETATM   10  C9  UNL     1       1.887  -2.179   0.223  1.00  0.00     0.138 A 
HETATM   11  O2  UNL     1       1.758  -3.527   0.078  1.00  0.00    -0.190 OA
HETATM   12  C10 UNL     1       4.378  -2.232  -0.141  1.00  0.00     0.200 C 
HETATM   13  C11 UNL     1       5.628  -1.430  -0.197  1.00  0.00     0.071 C 
HETATM   14  C12 UNL     1       5.524  -0.083  -0.095  1.00  0.00     0.104 C 
HETATM   15  O3  UNL     1       4.347   0.593   0.006  1.00  0.00    -0.307 OA
HETATM   16  C13 UNL     1       6.787   0.670  -0.074  1.00  0.00     0.047 A 
HETATM   17  C14 UNL     1       7.982   0.023  -0.417  1.00  0.00     0.099 A 
HETATM   18  O4  UNL     1       8.026  -1.303  -0.730  1.00  0.00    -0.324 OA
HETATM   19  C15 UNL     1       6.986  -2.108  -0.204  1.00  0.00     0.170 C 
HETATM   20  C20 UNL     1       9.163   0.772  -0.347  1.00  0.00     0.054 A 
HETATM   21  C21 UNL     1       9.184   2.129  -0.021  1.00  0.00     0.158 A 
HETATM   22  C22 UNL     1       7.976   2.779   0.259  1.00  0.00     0.156 A 
HETATM   23  C23 UNL     1       6.795   2.041   0.232  1.00  0.00     0.033 A 
HETATM   24  O5  UNL     1       7.971   4.102   0.565  1.00  0.00    -0.188 OA
HETATM   25  O6  UNL     1      10.342   2.839   0.025  1.00  0.00    -0.188 OA
HETATM   26  O7  UNL     1       4.425  -3.457  -0.190  1.00  0.00    -0.287 OA
HETATM   27  C29 UNL     1      -2.684   0.935   1.180  1.00  0.00     0.035 C 
HETATM   28  C30 UNL     1      -1.649   0.505  -1.063  1.00  0.00     0.035 C 
ENDROOT
BRANCH   7  29
HETATM   29  C24 UNL     1       2.059   2.139   0.612  1.00  0.00     0.056 C 
BRANCH  29  30
HETATM   30  C25 UNL     1       1.217   2.813  -0.442  1.00  0.00    -0.030 C 
HETATM   31  C26 UNL     1       0.552   3.975  -0.305  1.00  0.00    -0.048 C 
HETATM   32  C27 UNL     1      -0.295   4.527  -1.428  1.00  0.00     0.026 C 
HETATM   33  C28 UNL     1       0.568   4.830   0.940  1.00  0.00     0.026 C 
ENDBRANCH  29  30
ENDBRANCH   7  29
BRANCH  19  34
HETATM   34  C16 UNL     1       6.989  -3.400  -0.991  1.00  0.00    -0.000 C 
HETATM   35  C17 UNL     1       7.276  -4.639  -0.550  1.00  0.00    -0.045 C 
HETATM   36  C18 UNL     1       7.232  -5.823  -1.490  1.00  0.00     0.026 C 
HETATM   37  C19 UNL     1       7.651  -5.003   0.867  1.00  0.00     0.026 C 
ENDBRANCH  19  34
TORSDOF 3
