REMARK  8 active torsions:
REMARK  status: ('A' for Active; 'I' for Inactive)
REMARK    1  A    between atoms: C1_1  and  C7_7 
REMARK    2  A    between atoms: C7_7  and  C9_9 
REMARK    3  A    between atoms: C9_9  and  C10_10 
REMARK    4  A    between atoms: C10_10  and  C11_11 
REMARK    5  A    between atoms: C11_11  and  C12_12 
REMARK    6  A    between atoms: C12_12  and  C13_13 
REMARK    7  A    between atoms: C13_13  and  C14_14 
REMARK    8  A    between atoms: C14_14  and  C15_15 
ROOT
HETATM    1  C7  UNL     1       0.375   0.023   2.526  1.00  0.00     0.000 C 
HETATM    2  C8  UNL     1      -0.848   0.488   3.315  1.00  0.00     0.000 C 
ENDROOT
BRANCH   1   3
HETATM    3  C1  UNL     1       1.696   0.471   3.162  1.00  0.00     0.000 C 
HETATM    4  C2  UNL     1       2.863  -0.414   2.697  1.00  0.00     0.000 C 
HETATM    5  C3  UNL     1       4.205   0.045   3.287  1.00  0.00     0.000 C 
HETATM    6  C4  UNL     1       4.477   1.525   2.987  1.00  0.00     0.000 C 
HETATM    7  C5  UNL     1       3.319   2.414   3.461  1.00  0.00     0.000 C 
HETATM    8  C6  UNL     1       1.977   1.955   2.869  1.00  0.00     0.000 C 
ENDBRANCH   1   3
BRANCH   1   9
HETATM    9  C9  UNL     1       0.287   0.377   1.039  1.00  0.00     0.000 C 
BRANCH   9  10
HETATM   10  C10 UNL     1      -0.797  -0.416   0.309  1.00  0.00     0.000 C 
BRANCH  10  11
HETATM   11  C11 UNL     1      -0.849  -0.102  -1.187  1.00  0.00     0.000 C 
BRANCH  11  12
HETATM   12  C12 UNL     1      -1.935  -0.893  -1.918  1.00  0.00     0.000 C 
BRANCH  12  13
HETATM   13  C13 UNL     1      -1.988  -0.578  -3.414  1.00  0.00     0.000 C 
BRANCH  13  14
HETATM   14  C14 UNL     1      -3.074  -1.369  -4.144  1.00  0.00     0.000 C 
BRANCH  14  15
HETATM   15  C15 UNL     1      -3.127  -1.055  -5.639  1.00  0.00     0.000 C 
HETATM   16  C16 UNL     1      -4.213  -1.846  -6.371  1.00  0.00     0.000 C 
ENDBRANCH  14  15
ENDBRANCH  13  14
ENDBRANCH  12  13
ENDBRANCH  11  12
ENDBRANCH  10  11
ENDBRANCH   9  10
ENDBRANCH   1   9
TORSDOF 8
