REMARK  7 active torsions:
REMARK  status: ('A' for Active; 'I' for Inactive)
REMARK    1  A    between atoms: N5_10  and  C6_11 
REMARK    2  A    between atoms: C9_14  and  C10_16 
REMARK    3  A    between atoms: C10_16  and  O2_17 
REMARK    4  A    between atoms: O2_17  and  P1_18 
REMARK    5  A    between atoms: P1_18  and  O5_21 
REMARK    6  A    between atoms: O5_21  and  P2_22 
REMARK    7  A    between atoms: P2_22  and  P3_25 
ROOT
HETATM    1  C6  UNL     1      -1.260   0.061   2.332  1.00  0.00     0.241 C 
HETATM    2  C7  UNL     1      -0.328  -0.203   3.516  1.00  0.00     0.234 C 
HETATM    3  C8  UNL     1       0.377  -1.498   3.065  1.00  0.00     0.216 C 
HETATM    4  C9  UNL     1       0.242  -1.496   1.525  1.00  0.00     0.181 C 
HETATM    5  O1  UNL     1      -0.443  -0.297   1.244  1.00  0.00    -0.331 OA
HETATM    6  O11 UNL     1       1.728  -1.496   3.490  1.00  0.00    -0.218 OA
HETATM    7  O12 UNL     1      -1.059  -0.400   4.709  1.00  0.00    -0.216 OA
ENDROOT
BRANCH   4   8
HETATM    8  C10 UNL     1       1.510  -1.525   0.674  1.00  0.00     0.187 C 
BRANCH   8   9
HETATM    9  O2  UNL     1       1.156  -1.525  -0.701  1.00  0.00    -0.268 OA
BRANCH   9  10
HETATM   10  P1  UNL     1       2.361  -1.510  -1.684  1.00  0.00     0.417 P 
HETATM   11  O3  UNL     1       3.225  -2.785  -1.467  1.00  0.00    -0.624 OA
HETATM   12  O4  UNL     1       3.174  -0.322  -1.437  1.00  0.00    -0.624 OA
BRANCH  10  13
HETATM   13  O5  UNL     1       1.830  -1.482  -3.145  1.00  0.00    -0.193 OA
BRANCH  13  14
HETATM   14  P2  UNL     1       2.781  -1.711  -4.354  1.00  0.00     0.390 P 
HETATM   15  O6  UNL     1       3.305  -3.074  -4.311  1.00  0.00    -0.637 OA
HETATM   16  O7  UNL     1       3.961  -0.699  -4.283  1.00  0.00    -0.637 OA
BRANCH  14  17
HETATM   17  P3  UNL     1       2.105  -1.520  -6.447  1.00  0.00     0.381 P 
HETATM   18  O8  UNL     1       1.727  -0.111  -6.531  1.00  0.00    -0.631 OA
HETATM   19  O9  UNL     1       0.967  -2.398  -7.039  1.00  0.00    -0.631 OA
HETATM   20  O10 UNL     1       3.414  -1.754  -7.252  1.00  0.00    -0.631 OA
ENDBRANCH  14  17
ENDBRANCH  13  14
ENDBRANCH  10  13
ENDBRANCH   9  10
ENDBRANCH   8   9
ENDBRANCH   4   8
BRANCH   1  21
HETATM   21  N5  UNL     1      -1.678   1.463   2.168  1.00  0.00    -0.270 N 
HETATM   22  C2  UNL     1      -2.928   1.971   2.088  1.00  0.00     0.170 A 
HETATM   23  N2  UNL     1      -4.031   1.147   2.160  1.00  0.00    -0.205 NA
HETATM   24  C3  UNL     1      -2.844   3.334   1.936  1.00  0.00     0.155 A 
HETATM   25  C1  UNL     1      -5.246   1.838   2.061  1.00  0.00     0.202 A 
HETATM   26  N1  UNL     1      -5.336   3.233   1.902  1.00  0.00    -0.202 NA
HETATM   27  C4  UNL     1      -4.133   3.928   1.846  1.00  0.00     0.206 A 
HETATM   28  N3  UNL     1      -4.094   5.262   1.695  1.00  0.00    -0.125 N 
HETATM   29  N4  UNL     1      -1.565   3.748   1.914  1.00  0.00    -0.219 NA
HETATM   30  C5  UNL     1      -0.854   2.570   2.059  1.00  0.00     0.182 A 
ENDBRANCH   1  21
TORSDOF 7
