REMARK  1 active torsions:
REMARK  status: ('A' for Active; 'I' for Inactive)
REMARK    1  A    between atoms: C17_19  and  C20_22 
ROOT
HETATM    1  C1  UNL     1       1.327  -0.583  -0.551  1.00  0.00     0.000 A 
HETATM    2  C2  UNL     1       1.243   0.622   0.346  1.00  0.00     0.002 A 
HETATM    3  C3  UNL     1       0.062   1.198   0.596  1.00  0.00     0.019 A 
HETATM    4  C4  UNL     1      -1.099   0.600  -0.015  1.00  0.00     0.081 A 
HETATM    5  C5  UNL     1      -1.027  -0.446  -0.817  1.00  0.00     0.019 A 
HETATM    6  C6  UNL     1       0.227  -1.089  -1.126  1.00  0.00     0.002 A 
HETATM    7  C7  UNL     1      -2.389  -0.817  -1.197  1.00  0.00     0.019 A 
HETATM    8  C8  UNL     1      -3.190  -0.006  -0.547  1.00  0.00     0.079 A 
HETATM    9  N1  UNL     1      -2.435   0.939   0.157  1.00  0.00    -0.246 NA
HETATM   10  C9  UNL     1      -4.588  -0.204  -0.554  1.00  0.00     0.018 A 
HETATM   11  C10 UNL     1      -5.142  -1.139  -1.318  1.00  0.00     0.087 A 
HETATM   12  C11 UNL     1      -4.244  -2.036  -2.123  1.00  0.00     0.000 A 
HETATM   13  C12 UNL     1      -2.904  -1.901  -2.033  1.00  0.00    -0.001 A 
HETATM   14  C13 UNL     1      -4.835  -3.145  -2.936  1.00  0.00     0.033 C 
HETATM   15  O1  UNL     1      -6.586  -1.324  -1.264  1.00  0.00    -0.336 OA
HETATM   16  C14 UNL     1      -7.504  -0.331  -0.597  1.00  0.00     0.099 C 
HETATM   17  C15 UNL     1      -6.747   0.893  -0.352  1.00  0.00     0.033 C 
HETATM   18  C16 UNL     1      -5.457   0.424   0.388  1.00  0.00     0.032 C 
HETATM   19  C17 UNL     1      -5.755  -0.894   1.390  1.00  0.00     0.023 C 
HETATM   20  C18 UNL     1      -6.961  -0.611   2.116  1.00  0.00     0.007 C 
HETATM   21  C19 UNL     1      -8.051  -0.678   0.923  1.00  0.00     0.028 C 
HETATM   22  C23 UNL     1      -8.749  -0.109  -1.474  1.00  0.00     0.030 C 
ENDROOT
BRANCH  19  23
HETATM   23  C20 UNL     1      -4.607  -1.397   2.278  1.00  0.00    -0.044 C 
HETATM   24  C21 UNL     1      -4.689  -2.813   2.783  1.00  0.00     0.026 C 
HETATM   25  C22 UNL     1      -3.527  -0.675   2.570  1.00  0.00    -0.009 C 
ENDBRANCH  19  23
TORSDOF 1
