REMARK  1 active torsions:
REMARK  status: ('A' for Active; 'I' for Inactive)
REMARK    1  A    between atoms: C15_19  and  C16_20 
ROOT
HETATM    1  C1  UNL     1      -5.881  -0.195   1.303  1.00  0.00     0.117 C 
HETATM    2  C2  UNL     1      -5.707  -1.699   1.166  1.00  0.00     0.001 C 
HETATM    3  C3  UNL     1      -4.496  -2.235   0.924  1.00  0.00     0.002 C 
HETATM    4  C4  UNL     1      -3.303  -1.356   0.877  1.00  0.00     0.048 A 
HETATM    5  C5  UNL     1      -3.451   0.008   1.238  1.00  0.00     0.098 A 
HETATM    6  O1  UNL     1      -4.654   0.494   1.613  1.00  0.00    -0.331 OA
HETATM    7  C6  UNL     1      -2.326   0.865   1.225  1.00  0.00     0.049 A 
HETATM    8  C7  UNL     1      -1.061   0.367   0.836  1.00  0.00     0.107 A 
HETATM    9  C8  UNL     1      -0.916  -0.992   0.469  1.00  0.00     0.087 A 
HETATM   10  C9  UNL     1      -2.035  -1.865   0.490  1.00  0.00     0.138 A 
HETATM   11  O2  UNL     1      -1.902  -3.156   0.149  1.00  0.00    -0.190 OA
HETATM   12  C10 UNL     1       0.430  -1.471   0.065  1.00  0.00     0.200 A 
HETATM   13  C11 UNL     1       1.508  -0.447   0.061  1.00  0.00     0.071 A 
HETATM   14  C12 UNL     1       1.266   0.834   0.463  1.00  0.00     0.103 A 
HETATM   15  O3  UNL     1       0.008   1.191   0.816  1.00  0.00    -0.307 OA
HETATM   16  C13 UNL     1       2.424   1.773   0.484  1.00  0.00     0.045 A 
HETATM   17  C14 UNL     1       3.738   1.287   0.270  1.00  0.00     0.099 A 
HETATM   18  O4  UNL     1       3.955  -0.020   0.029  1.00  0.00    -0.324 OA
HETATM   19  C15 UNL     1       2.891  -0.867  -0.422  1.00  0.00     0.170 C 
HETATM   20  C20 UNL     1       4.838   2.176   0.320  1.00  0.00     0.052 A 
HETATM   21  C21 UNL     1       4.625   3.551   0.572  1.00  0.00     0.133 A 
HETATM   22  C22 UNL     1       3.314   4.039   0.779  1.00  0.00     0.028 A 
HETATM   23  C23 UNL     1       2.213   3.152   0.738  1.00  0.00     0.006 A 
HETATM   24  O5  UNL     1       5.668   4.393   0.617  1.00  0.00    -0.190 OA
HETATM   25  O6  UNL     1       0.725  -2.598  -0.264  1.00  0.00    -0.287 OA
HETATM   26  C24 UNL     1      -6.401   0.355  -0.027  1.00  0.00     0.035 C 
HETATM   27  C25 UNL     1      -6.877   0.119   2.420  1.00  0.00     0.035 C 
ENDROOT
BRANCH  19  28
HETATM   28  C16 UNL     1       2.912  -0.891  -1.930  1.00  0.00    -0.000 C 
HETATM   29  C17 UNL     1       4.035  -1.285  -2.549  1.00  0.00    -0.045 C 
HETATM   30  C18 UNL     1       5.213  -1.699  -1.707  1.00  0.00     0.026 C 
HETATM   31  C19 UNL     1       4.059  -1.297  -4.055  1.00  0.00     0.026 C 
ENDBRANCH  19  28
TORSDOF 1
