REMARK  4 active torsions:
REMARK  status: ('A' for Active; 'I' for Inactive)
REMARK    1  A    between atoms: C9_11  and  C12_14 
REMARK    2  A    between atoms: C15_17  and  N3_24 
REMARK    3  A    between atoms: C16_18  and  C18_20 
REMARK    4  A    between atoms: C18_20  and  O2_22 
ROOT
HETATM    1  C1  UNL     1       5.639   1.166  -0.449  1.00  0.00    -0.000 A 
HETATM    2  C2  UNL     1       5.223  -0.150  -0.748  1.00  0.00     0.002 A 
HETATM    3  C3  UNL     1       3.865  -0.416  -1.039  1.00  0.00     0.019 A 
HETATM    4  C4  UNL     1       2.908   0.631  -1.031  1.00  0.00     0.081 A 
HETATM    5  C5  UNL     1       3.336   1.967  -0.730  1.00  0.00     0.018 A 
HETATM    6  C6  UNL     1       4.699   2.221  -0.441  1.00  0.00    -0.001 A 
HETATM    7  C7  UNL     1       2.361   3.094  -0.715  1.00  0.00     0.131 A 
HETATM    8  N1  UNL     1       1.006   2.633  -1.025  1.00  0.00    -0.333 N 
HETATM    9  C8  UNL     1       0.734   1.283  -1.299  1.00  0.00     0.120 A 
HETATM   10  N2  UNL     1       1.604   0.314  -1.314  1.00  0.00    -0.233 NA
HETATM   11  C9  UNL     1      -0.752   1.197  -1.572  1.00  0.00     0.081 C 
HETATM   12  C10 UNL     1      -1.348   2.525  -1.055  1.00  0.00     0.036 C 
HETATM   13  C11 UNL     1      -0.160   3.492  -1.084  1.00  0.00     0.104 C 
ENDROOT
BRANCH  11  14
HETATM   14  C12 UNL     1      -1.420   0.008  -0.965  1.00  0.00    -0.015 A 
HETATM   15  C13 UNL     1      -2.164  -0.869  -1.769  1.00  0.00    -0.002 A 
HETATM   16  C14 UNL     1      -2.791  -1.988  -1.199  1.00  0.00     0.018 A 
HETATM   17  C15 UNL     1      -2.680  -2.238   0.184  1.00  0.00     0.081 A 
HETATM   18  C16 UNL     1      -1.928  -1.355   0.994  1.00  0.00     0.080 A 
HETATM   19  C17 UNL     1      -1.303  -0.236   0.416  1.00  0.00     0.003 A 
BRANCH  17  20
HETATM   20  N3  UNL     1      -3.305  -3.342   0.713  1.00  0.00    -0.268 NA
HETATM   21  C20 UNL     1      -4.332  -4.047  -0.064  1.00  0.00     0.152 C 
ENDBRANCH  17  20
BRANCH  18  22
HETATM   22  C18 UNL     1      -1.781  -1.582   2.469  1.00  0.00     0.297 C 
HETATM   23  O1  UNL     1      -2.684  -2.057   3.117  1.00  0.00    -0.259 OA
BRANCH  22  24
HETATM   24  O2  UNL     1      -0.607  -1.223   2.983  1.00  0.00    -0.296 OA
HETATM   25  C19 UNL     1      -0.533  -1.463   4.379  1.00  0.00     0.185 C 
ENDBRANCH  22  24
ENDBRANCH  18  22
ENDBRANCH  11  14
TORSDOF 4
