REMARK  11 active torsions:
REMARK  status: ('A' for Active; 'I' for Inactive)
REMARK    1  A    between atoms: C1_2  and  C12_15 
REMARK    2  A    between atoms: C7_8  and  O2_13 
REMARK    3  A    between atoms: C8_9  and  O1_11 
REMARK    4  A    between atoms: C14_17  and  O9_50 
REMARK    5  A    between atoms: C15_18  and  O8_48 
REMARK    6  A    between atoms: C17_20  and  O3_21 
REMARK    7  A    between atoms: O3_21  and  C18_22 
REMARK    8  A    between atoms: C23_27  and  O4_28 
REMARK    9  A    between atoms: C32_38  and  O7_45 
REMARK   10  A    between atoms: C33_39  and  O6_43 
REMARK   11  A    between atoms: C34_40  and  O5_41 
ROOT
HETATM    1  C18 UNL     1       0.176   0.660   0.609  1.00  0.00     0.122 A 
HETATM    2  C19 UNL     1       0.885  -0.379  -0.027  1.00  0.00     0.022 A 
HETATM    3  C20 UNL     1       2.301  -0.387  -0.029  1.00  0.00    -0.018 A 
HETATM    4  C21 UNL     1       3.029   0.650   0.633  1.00  0.00    -0.000 A 
HETATM    5  C22 UNL     1       2.295   1.709   1.246  1.00  0.00     0.026 A 
HETATM    6  C23 UNL     1       0.883   1.707   1.242  1.00  0.00     0.117 A 
HETATM    7  C25 UNL     1       4.520   0.582   0.650  1.00  0.00     0.022 A 
HETATM    8  C26 UNL     1       5.170  -0.260  -0.310  1.00  0.00    -0.002 A 
HETATM    9  C27 UNL     1       4.346  -0.957  -1.353  1.00  0.00     0.104 C 
HETATM   10  C28 UNL     1       3.031  -1.479  -0.725  1.00  0.00     0.053 C 
HETATM   11  N2  UNL     1       5.059  -1.990  -2.150  1.00  0.00    -0.364 N 
HETATM   12  C29 UNL     1       6.275  -2.547  -1.559  1.00  0.00     0.102 C 
HETATM   13  C30 UNL     1       7.229  -1.402  -1.186  1.00  0.00     0.052 C 
HETATM   14  C31 UNL     1       6.582  -0.434  -0.268  1.00  0.00     0.002 A 
HETATM   15  C32 UNL     1       7.359   0.309   0.654  1.00  0.00     0.114 A 
HETATM   16  C33 UNL     1       6.733   1.172   1.574  1.00  0.00     0.138 A 
HETATM   17  C34 UNL     1       5.324   1.297   1.596  1.00  0.00     0.118 A 
HETATM   18  C38 UNL     1       4.234  -2.990  -2.822  1.00  0.00     0.121 C 
ENDROOT
BRANCH   1  19
HETATM   19  O3  UNL     1      -1.164   0.654   0.607  1.00  0.00    -0.305 OA
BRANCH  19  20
HETATM   20  C17 UNL     1      -1.820   0.184  -0.434  1.00  0.00     0.100 A 
HETATM   21  C12 UNL     1      -3.027  -0.520  -0.262  1.00  0.00     0.038 A 
HETATM   22  C13 UNL     1      -3.717  -1.018  -1.383  1.00  0.00     0.026 A 
HETATM   23  C14 UNL     1      -3.205  -0.814  -2.676  1.00  0.00     0.116 A 
HETATM   24  C15 UNL     1      -2.000  -0.111  -2.852  1.00  0.00     0.118 A 
HETATM   25  C16 UNL     1      -1.313   0.385  -1.730  1.00  0.00     0.051 A 
BRANCH  21  26
HETATM   26  C1  UNL     1      -3.578  -0.742   1.100  1.00  0.00     0.266 C 
HETATM   27  N1  UNL     1      -3.541  -2.190   1.410  1.00  0.00     0.146 N 
HETATM   28  C5  UNL     1      -4.408  -2.576   2.524  1.00  0.00     0.256 C 
HETATM   29  C41 UNL     1      -2.180  -2.688   1.608  1.00  0.00     0.286 C 
HETATM   30  C4  UNL     1      -5.869  -2.231   2.199  1.00  0.00     0.061 C 
HETATM   31  C3  UNL     1      -6.039  -0.828   1.752  1.00  0.00    -0.020 A 
HETATM   32  C2  UNL     1      -4.930  -0.102   1.227  1.00  0.00     0.011 A 
HETATM   33  C6  UNL     1      -7.313  -0.209   1.846  1.00  0.00     0.022 A 
HETATM   34  C9  UNL     1      -5.121   1.256   0.840  1.00  0.00     0.024 A 
HETATM   35  C8  UNL     1      -6.391   1.865   0.934  1.00  0.00     0.116 A 
HETATM   36  C7  UNL     1      -7.488   1.131   1.434  1.00  0.00     0.116 A 
BRANCH  35  37
HETATM   37  O1  UNL     1      -6.547   3.141   0.549  1.00  0.00    -0.326 OA
HETATM   38  C10 UNL     1      -7.742   3.488  -0.137  1.00  0.00     0.181 C 
ENDBRANCH  35  37
BRANCH  36  39
HETATM   39  O2  UNL     1      -8.699   1.701   1.524  1.00  0.00    -0.326 OA
HETATM   40  C11 UNL     1      -9.772   0.916   2.020  1.00  0.00     0.181 C 
ENDBRANCH  36  39
ENDBRANCH  21  26
BRANCH  23  41
HETATM   41  O9  UNL     1      -3.858  -1.285  -3.721  1.00  0.00    -0.326 OA
HETATM   42  C40 UNL     1      -5.000  -2.098  -3.484  1.00  0.00     0.181 C 
ENDBRANCH  23  41
BRANCH  24  43
HETATM   43  O8  UNL     1      -1.514   0.084  -4.061  1.00  0.00    -0.326 OA
HETATM   44  C39 UNL     1      -1.590  -0.988  -4.990  1.00  0.00     0.181 C 
ENDBRANCH  24  43
ENDBRANCH  19  20
ENDBRANCH   1  19
BRANCH   6  45
HETATM   45  O4  UNL     1       0.215   2.703   1.842  1.00  0.00    -0.326 OA
HETATM   46  C24 UNL     1      -0.969   3.182   1.219  1.00  0.00     0.181 C 
ENDBRANCH   6  45
BRANCH  17  47
HETATM   47  O5  UNL     1       4.797   2.078   2.547  1.00  0.00    -0.326 OA
HETATM   48  C35 UNL     1       5.170   3.449   2.567  1.00  0.00     0.181 C 
ENDBRANCH  17  47
BRANCH  16  49
HETATM   49  O6  UNL     1       7.477   1.867   2.447  1.00  0.00    -0.324 OA
HETATM   50  C36 UNL     1       8.703   2.416   1.990  1.00  0.00     0.182 C 
ENDBRANCH  16  49
BRANCH  15  51
HETATM   51  O7  UNL     1       8.695   0.186   0.668  1.00  0.00    -0.326 OA
HETATM   52  C37 UNL     1       9.408   0.529  -0.512  1.00  0.00     0.181 C 
ENDBRANCH  15  51
TORSDOF 11
