REMARK  17 active torsions:
REMARK  status: ('A' for Active; 'I' for Inactive)
REMARK    1  A    between atoms: C1_1  and  O7_35 
REMARK    2  A    between atoms: C12_12  and  C22_24 
REMARK    3  A    between atoms: C13_13  and  O1_15 
REMARK    4  A    between atoms: O1_15  and  C15_16 
REMARK    5  A    between atoms: C15_16  and  C16_17 
REMARK    6  A    between atoms: C17_18  and  C18_19 
REMARK    7  A    between atoms: C22_24  and  C23_25 
REMARK    8  A    between atoms: O7_35  and  C29_36 
REMARK    9  A    between atoms: C31_39  and  O10_44 
REMARK   10  A    between atoms: C32_40  and  O9_42 
REMARK   11  A    between atoms: O10_44  and  C35_45 
REMARK   12  A    between atoms: C37_48  and  O13_52 
REMARK   13  A    between atoms: O13_52  and  C40_53 
REMARK   14  A    between atoms: C42_56  and  O16_61 
REMARK   15  A    between atoms: C43_57  and  O15_59 
REMARK   16  A    between atoms: O16_61  and  C46_62 
REMARK   17  A    between atoms: C47_64  and  C51_71 
ROOT
HETATM    1  C29 UNL     1      -0.205   1.547   2.001  1.00  0.00     0.238 C 
HETATM    2  O8  UNL     1      -0.480   0.167   1.796  1.00  0.00    -0.331 OA
HETATM    3  C30 UNL     1       0.010  -0.367   0.572  1.00  0.00     0.147 C 
HETATM    4  C31 UNL     1       1.550  -0.224   0.526  1.00  0.00     0.172 C 
HETATM    5  C32 UNL     1       1.985   1.239   0.765  1.00  0.00     0.150 C 
HETATM    6  C33 UNL     1       1.319   1.778   2.040  1.00  0.00     0.094 C 
HETATM    7  C54 UNL     1      -0.456  -1.825   0.504  1.00  0.00     0.035 C 
ENDROOT
BRANCH   1   8
HETATM    8  O7  UNL     1      -0.773   1.967   3.223  1.00  0.00    -0.333 OA
BRANCH   8   9
HETATM    9  C1  UNL     1      -2.186   2.023   3.190  1.00  0.00     0.122 C 
HETATM   10  C2  UNL     1      -2.733   2.020   4.629  1.00  0.00     0.051 C 
HETATM   11  C3  UNL     1      -4.190   2.438   4.709  1.00  0.00    -0.046 C 
HETATM   12  C4  UNL     1      -4.973   2.583   3.405  1.00  0.00     0.018 C 
HETATM   13  C10 UNL     1      -4.725   2.690   5.922  1.00  0.00    -0.032 C 
HETATM   14  C5  UNL     1      -4.159   3.525   2.472  1.00  0.00     0.006 C 
HETATM   15  C7  UNL     1      -6.439   3.139   3.574  1.00  0.00     0.037 C 
HETATM   16  C28 UNL     1      -5.007   1.188   2.755  1.00  0.00     0.004 C 
HETATM   17  C6  UNL     1      -2.632   3.279   2.422  1.00  0.00     0.030 C 
HETATM   18  C8  UNL     1      -6.632   3.995   4.867  1.00  0.00     0.157 C 
HETATM   19  C14 UNL     1      -7.544   2.046   3.471  1.00  0.00     0.033 C 
HETATM   20  C9  UNL     1      -6.144   3.173   6.084  1.00  0.00     0.058 C 
HETATM   21  C11 UNL     1      -8.116   4.498   4.923  1.00  0.00     0.157 C 
HETATM   22  O6  UNL     1      -5.782   5.138   4.812  1.00  0.00    -0.223 OA
HETATM   23  C12 UNL     1      -9.172   3.359   4.874  1.00  0.00     0.089 C 
HETATM   24  C27 UNL     1      -8.596   5.244   6.179  1.00  0.00     0.036 C 
HETATM   25  O5  UNL     1      -8.321   5.392   3.822  1.00  0.00    -0.223 OA
HETATM   26  C13 UNL     1      -8.986   2.588   3.558  1.00  0.00     0.130 C 
HETATM   27  C25 UNL     1     -10.481   4.165   5.032  1.00  0.00     0.157 C 
HETATM   28  C26 UNL     1     -10.133   5.177   6.138  1.00  0.00     0.036 C 
HETATM   29  O4  UNL     1     -11.602   3.371   5.380  1.00  0.00    -0.223 OA
BRANCH  23  30
HETATM   30  C22 UNL     1      -9.097   2.399   6.075  1.00  0.00     0.072 C 
BRANCH  30  31
HETATM   31  C23 UNL     1     -10.385   1.652   6.295  1.00  0.00     0.151 C 
HETATM   32  C24 UNL     1     -11.119   1.874   7.590  1.00  0.00     0.072 C 
HETATM   33  O3  UNL     1     -10.816   0.896   5.457  1.00  0.00    -0.296 OA
ENDBRANCH  30  31
ENDBRANCH  23  30
BRANCH  26  34
HETATM   34  O1  UNL     1      -9.903   1.503   3.499  1.00  0.00    -0.301 OA
BRANCH  34  35
HETATM   35  C15 UNL     1     -10.017   1.004   2.271  1.00  0.00     0.295 C 
HETATM   36  O2  UNL     1      -9.487   1.484   1.297  1.00  0.00    -0.259 OA
BRANCH  35  37
HETATM   37  C16 UNL     1     -10.847  -0.201   2.148  1.00  0.00     0.060 C 
HETATM   38  C17 UNL     1     -10.358  -1.313   1.576  1.00  0.00    -0.039 C 
HETATM   39  C21 UNL     1      -8.942  -1.296   1.066  1.00  0.00     0.026 C 
BRANCH  38  40
HETATM   40  C18 UNL     1     -11.115  -2.602   1.396  1.00  0.00     0.018 C 
HETATM   41  C19 UNL     1     -12.470  -2.586   2.103  1.00  0.00     0.004 C 
HETATM   42  C20 UNL     1     -11.220  -3.016  -0.072  1.00  0.00     0.004 C 
ENDBRANCH  38  40
ENDBRANCH  35  37
ENDBRANCH  34  35
ENDBRANCH  26  34
ENDBRANCH   8   9
ENDBRANCH   1   8
BRANCH   5  43
HETATM   43  O9  UNL     1       3.391   1.324   0.909  1.00  0.00    -0.351 OA
HETATM   44  C34 UNL     1       3.863   2.651   0.971  1.00  0.00     0.174 C 
ENDBRANCH   5  43
BRANCH   4  45
HETATM   45  O10 UNL     1       2.012  -0.661  -0.740  1.00  0.00    -0.328 OA
BRANCH  45  46
HETATM   46  C35 UNL     1       3.380  -1.008  -0.744  1.00  0.00     0.238 C 
HETATM   47  O11 UNL     1       4.122  -0.018  -1.444  1.00  0.00    -0.331 OA
HETATM   48  C36 UNL     1       5.527  -0.238  -1.482  1.00  0.00     0.148 C 
HETATM   49  C37 UNL     1       5.822  -1.580  -2.194  1.00  0.00     0.175 C 
HETATM   50  C53 UNL     1       6.146   0.967  -2.199  1.00  0.00     0.035 C 
HETATM   51  C38 UNL     1       5.045  -2.743  -1.540  1.00  0.00     0.187 C 
HETATM   52  C39 UNL     1       3.557  -2.378  -1.428  1.00  0.00     0.097 C 
HETATM   53  O12 UNL     1       5.172  -3.924  -2.311  1.00  0.00    -0.221 OA
BRANCH  49  54
HETATM   54  O13 UNL     1       7.214  -1.835  -2.130  1.00  0.00    -0.328 OA
BRANCH  54  55
HETATM   55  C40 UNL     1       7.888  -1.549  -3.336  1.00  0.00     0.238 C 
HETATM   56  O14 UNL     1       7.552  -2.524  -4.314  1.00  0.00    -0.331 OA
HETATM   57  C41 UNL     1       8.142  -2.320  -5.592  1.00  0.00     0.147 C 
HETATM   58  C42 UNL     1       9.683  -2.355  -5.462  1.00  0.00     0.172 C 
HETATM   59  C52 UNL     1       7.596  -3.415  -6.515  1.00  0.00     0.035 C 
HETATM   60  C43 UNL     1      10.179  -1.350  -4.399  1.00  0.00     0.150 C 
HETATM   61  C44 UNL     1       9.409  -1.559  -3.086  1.00  0.00     0.094 C 
BRANCH  58  62
HETATM   62  O16 UNL     1      10.256  -2.045  -6.720  1.00  0.00    -0.327 OA
BRANCH  62  63
HETATM   63  C46 UNL     1      11.407  -2.812  -7.013  1.00  0.00     0.270 C 
HETATM   64  O17 UNL     1      10.995  -4.137  -7.322  1.00  0.00    -0.326 OA
HETATM   65  C47 UNL     1      12.053  -5.048  -7.592  1.00  0.00     0.184 C 
HETATM   66  C48 UNL     1      12.839  -4.565  -8.831  1.00  0.00     0.215 C 
HETATM   67  C49 UNL     1      13.342  -3.115  -8.648  1.00  0.00     0.220 C 
HETATM   68  O20 UNL     1      13.941  -5.433  -9.036  1.00  0.00    -0.218 OA
HETATM   69  C50 UNL     1      12.172  -2.203  -8.215  1.00  0.00     0.241 C 
HETATM   70  O19 UNL     1      13.898  -2.642  -9.864  1.00  0.00    -0.218 OA
HETATM   71  O18 UNL     1      12.681  -0.929  -7.851  1.00  0.00    -0.215 OA
BRANCH  65  72
HETATM   72  C51 UNL     1      11.411  -6.424  -7.791  1.00  0.00     0.214 C 
HETATM   73  O21 UNL     1      10.864  -6.838  -6.559  1.00  0.00    -0.218 OA
ENDBRANCH  65  72
ENDBRANCH  62  63
ENDBRANCH  58  62
BRANCH  60  74
HETATM   74  O15 UNL     1      11.562  -1.525  -4.154  1.00  0.00    -0.351 OA
HETATM   75  C45 UNL     1      12.106  -0.537  -3.308  1.00  0.00     0.174 C 
ENDBRANCH  60  74
ENDBRANCH  54  55
ENDBRANCH  49  54
ENDBRANCH  45  46
ENDBRANCH   4  45
TORSDOF 17
