REMARK  7 active torsions:
REMARK  status: ('A' for Active; 'I' for Inactive)
REMARK    1  A    between atoms: C1_1  and  O1_30 
REMARK    2  A    between atoms: C21_21  and  C22_22 
REMARK    3  A    between atoms: O1_30  and  C30_31 
REMARK    4  A    between atoms: C30_31  and  C31_32 
REMARK    5  A    between atoms: C31_32  and  C32_33 
REMARK    6  A    between atoms: C32_33  and  C33_34 
REMARK    7  A    between atoms: C33_34  and  C34_35 
ROOT
HETATM    1  C1  UNL     1       4.283   0.109  -0.592  1.00  0.00     0.124 C 
HETATM    2  C2  UNL     1       3.625  -1.144  -1.217  1.00  0.00     0.026 C 
HETATM    3  C3  UNL     1       2.047  -1.135  -1.156  1.00  0.00     0.002 C 
HETATM    4  C4  UNL     1       1.408   0.164  -0.574  1.00  0.00     0.000 C 
HETATM    5  C5  UNL     1       2.102   1.365  -1.264  1.00  0.00     0.003 C 
HETATM    6  C6  UNL     1       3.627   1.432  -1.031  1.00  0.00     0.030 C 
HETATM    7  C7  UNL     1      -0.162   0.158  -0.691  1.00  0.00     0.000 C 
HETATM    8  C8  UNL     1      -0.781  -0.297  -2.043  1.00  0.00     0.000 C 
HETATM    9  C9  UNL     1      -0.086  -1.605  -2.486  1.00  0.00     0.000 C 
HETATM   10  C10 UNL     1       1.434  -1.492  -2.531  1.00  0.00     0.000 C 
HETATM   11  C11 UNL     1      -2.357  -0.514  -1.920  1.00  0.00     0.000 C 
HETATM   12  C12 UNL     1      -2.945   0.227  -0.680  1.00  0.00     0.000 C 
HETATM   13  C13 UNL     1      -2.303   1.609  -0.523  1.00  0.00     0.000 C 
HETATM   14  C14 UNL     1      -0.811   1.479  -0.188  1.00  0.00     0.000 C 
HETATM   15  C15 UNL     1      -4.488   0.182  -0.697  1.00  0.00     0.000 C 
HETATM   16  C16 UNL     1      -5.125   0.721  -1.981  1.00  0.00     0.000 C 
HETATM   17  C17 UNL     1      -4.629  -0.141  -3.145  1.00  0.00     0.000 C 
HETATM   18  C18 UNL     1      -3.094  -0.057  -3.217  1.00  0.00     0.000 C 
HETATM   19  C19 UNL     1      -6.604   0.531  -1.629  1.00  0.00     0.000 C 
HETATM   20  C20 UNL     1      -6.703   0.885  -0.139  1.00  0.00     0.000 C 
HETATM   21  C21 UNL     1      -5.266   0.918   0.396  1.00  0.00     0.000 C 
HETATM   22  C24 UNL     1      -4.889   2.215  -2.219  1.00  0.00     0.000 C 
HETATM   23  C25 UNL     1      -2.705  -2.004  -1.719  1.00  0.00     0.000 C 
HETATM   24  C26 UNL     1      -0.445   0.787  -3.084  1.00  0.00     0.000 C 
HETATM   25  C27 UNL     1       1.680   0.250   0.936  1.00  0.00     0.000 C 
HETATM   26  C28 UNL     1       4.152  -2.400  -0.504  1.00  0.00     0.002 C 
HETATM   27  C29 UNL     1       4.152  -1.225  -2.658  1.00  0.00     0.002 C 
ENDROOT
BRANCH   1  28
HETATM   28  O1  UNL     1       4.289   0.018   0.826  1.00  0.00    -0.304 OA
BRANCH  28  29
HETATM   29  C30 UNL     1       5.125   0.889   1.387  1.00  0.00     0.272 C 
HETATM   30  O2  UNL     1       5.936   1.535   0.768  1.00  0.00    -0.264 OA
BRANCH  29  31
HETATM   31  C31 UNL     1       4.996   1.029   2.879  1.00  0.00     0.096 C 
BRANCH  31  32
HETATM   32  C32 UNL     1       4.981  -0.322   3.594  1.00  0.00     0.010 C 
BRANCH  32  33
HETATM   33  C33 UNL     1       4.760  -0.189   5.102  1.00  0.00     0.001 C 
BRANCH  33  34
HETATM   34  C34 UNL     1       4.668  -1.545   5.805  1.00  0.00     0.000 C 
HETATM   35  C35 UNL     1       4.377  -1.414   7.299  1.00  0.00     0.000 C 
ENDBRANCH  33  34
ENDBRANCH  32  33
ENDBRANCH  31  32
ENDBRANCH  29  31
ENDBRANCH  28  29
ENDBRANCH   1  28
BRANCH  21  36
HETATM   36  C22 UNL     1      -5.129   0.240   1.756  1.00  0.00     0.000 C 
HETATM   37  C23 UNL     1      -4.002   0.908   2.547  1.00  0.00     0.000 C 
ENDBRANCH  21  36
TORSDOF 7
