REMARK  1 active torsions:
REMARK  status: ('A' for Active; 'I' for Inactive)
REMARK    1  A    between atoms: C9_9  and  C11_11 
ROOT
HETATM    1  C1  UNL     1      -2.252   1.014   0.438  1.00  0.00     0.037 C 
HETATM    2  C2  UNL     1      -2.162  -0.474   0.130  1.00  0.00     0.170 C 
HETATM    3  C3  UNL     1      -0.782  -1.064   0.328  1.00  0.00    -0.022 C 
HETATM    4  C4  UNL     1       0.336  -0.307   0.359  1.00  0.00    -0.050 C 
HETATM    5  C5  UNL     1       0.287   1.220   0.329  1.00  0.00     0.015 C 
HETATM    6  C6  UNL     1      -1.069   1.735  -0.207  1.00  0.00     0.007 C 
HETATM    7  C7  UNL     1       1.380   1.789  -0.608  1.00  0.00     0.004 C 
HETATM    8  C8  UNL     1       2.780   1.212  -0.369  1.00  0.00     0.005 C 
HETATM    9  C9  UNL     1       2.736  -0.318  -0.473  1.00  0.00     0.022 C 
HETATM   10  C10 UNL     1       1.730  -0.883   0.545  1.00  0.00     0.025 C 
HETATM   11  C14 UNL     1       0.501   1.754   1.764  1.00  0.00     0.004 C 
HETATM   12  C15 UNL     1      -0.804  -2.577   0.424  1.00  0.00     0.028 C 
HETATM   13  O1  UNL     1      -2.563  -0.703  -1.210  1.00  0.00    -0.219 OA
ENDROOT
BRANCH   9  14
HETATM   14  C11 UNL     1       4.139  -0.891  -0.360  1.00  0.00    -0.044 C 
HETATM   15  C12 UNL     1       4.893  -1.051  -1.660  1.00  0.00     0.026 C 
HETATM   16  C13 UNL     1       4.721  -1.192   0.812  1.00  0.00    -0.009 C 
ENDBRANCH   9  14
TORSDOF 1
