REMARK  1 active torsions:
REMARK  status: ('A' for Active; 'I' for Inactive)
REMARK    1  A    between atoms: C2_2  and  C13_14 
ROOT
HETATM    1  C1  UNL     1      -0.213   1.138  -0.640  1.00  0.00     0.022 C 
HETATM    2  C2  UNL     1      -0.307  -0.269  -0.098  1.00  0.00    -0.045 C 
HETATM    3  C3  UNL     1       0.790  -0.826   0.451  1.00  0.00    -0.013 C 
HETATM    4  C4  UNL     1       2.076  -0.104   0.421  1.00  0.00    -0.025 C 
HETATM    5  C5  UNL     1       2.073   1.414   0.503  1.00  0.00     0.019 C 
HETATM    6  C6  UNL     1       0.653   1.987   0.295  1.00  0.00     0.008 C 
HETATM    7  C7  UNL     1       3.036   1.928  -0.581  1.00  0.00     0.012 C 
HETATM    8  C8  UNL     1       4.461   1.412  -0.346  1.00  0.00     0.069 C 
HETATM    9  C9  UNL     1       4.516  -0.031   0.122  1.00  0.00     0.169 C 
HETATM   10  C10 UNL     1       3.241  -0.786   0.283  1.00  0.00     0.009 C 
HETATM   11  C11 UNL     1       3.345  -2.293   0.217  1.00  0.00     0.034 C 
HETATM   12  O1  UNL     1       5.603  -0.578   0.266  1.00  0.00    -0.292 OA
HETATM   13  C12 UNL     1       2.549   1.854   1.907  1.00  0.00     0.004 C 
ENDROOT
BRANCH   2  14
HETATM   14  C13 UNL     1      -1.620  -1.003  -0.321  1.00  0.00     0.018 C 
HETATM   15  C14 UNL     1      -1.891  -1.149  -1.829  1.00  0.00     0.004 C 
HETATM   16  C15 UNL     1      -1.722  -2.386   0.345  1.00  0.00     0.004 C 
ENDBRANCH   2  14
TORSDOF 1
