REMARK  7 active torsions:
REMARK  status: ('A' for Active; 'I' for Inactive)
REMARK    1  A    between atoms: C15_17  and  C18_20 
REMARK    2  A    between atoms: C18_20  and  C20_22 
REMARK    3  A    between atoms: C20_22  and  C21_23 
REMARK    4  A    between atoms: C21_23  and  C22_24 
REMARK    5  A    between atoms: C22_24  and  C23_25 
REMARK    6  A    between atoms: C23_25  and  C24_26 
REMARK    7  A    between atoms: C23_25  and  C25_28 
ROOT
HETATM    1  C1  UNL     1      -7.203  -0.660  -1.383  1.00  0.00     0.152 C 
HETATM    2  C2  UNL     1      -6.303  -1.666  -0.647  1.00  0.00     0.033 C 
HETATM    3  C3  UNL     1      -4.803  -1.404  -0.887  1.00  0.00     0.005 C 
HETATM    4  C4  UNL     1      -4.385   0.047  -0.520  1.00  0.00     0.000 C 
HETATM    5  C5  UNL     1      -5.281   1.033  -1.311  1.00  0.00     0.003 C 
HETATM    6  C6  UNL     1      -6.785   0.791  -1.092  1.00  0.00     0.033 C 
HETATM    7  C7  UNL     1      -2.877   0.264  -0.858  1.00  0.00     0.005 C 
HETATM    8  C8  UNL     1      -1.981  -0.803  -0.168  1.00  0.00     0.031 C 
HETATM    9  C9  UNL     1      -2.436  -2.254  -0.465  1.00  0.00     0.152 C 
HETATM   10  C10 UNL     1      -3.930  -2.449  -0.164  1.00  0.00     0.033 C 
HETATM   11  O1  UNL     1      -2.223  -2.592  -1.822  1.00  0.00    -0.224 OA
HETATM   12  C11 UNL     1      -0.465  -0.584  -0.381  1.00  0.00     0.005 C 
HETATM   13  C12 UNL     1      -0.020   0.863  -0.104  1.00  0.00     0.028 C 
HETATM   14  C13 UNL     1      -0.902   1.934  -0.799  1.00  0.00     0.152 C 
HETATM   15  C14 UNL     1      -2.391   1.690  -0.504  1.00  0.00     0.033 C 
HETATM   16  O2  UNL     1      -0.725   1.981  -2.203  1.00  0.00    -0.224 OA
HETATM   17  C15 UNL     1       1.441   0.838  -0.604  1.00  0.00     0.002 C 
HETATM   18  C16 UNL     1       1.424  -0.068  -1.840  1.00  0.00     0.000 C 
HETATM   19  C17 UNL     1       0.127  -0.873  -1.764  1.00  0.00     0.000 C 
HETATM   20  C26 UNL     1      -0.055   1.096   1.410  1.00  0.00     0.003 C 
HETATM   21  C27 UNL     1      -4.615   0.281   0.984  1.00  0.00     0.000 C 
HETATM   22  O5  UNL     1      -7.131  -0.894  -2.776  1.00  0.00    -0.224 OA
ENDROOT
BRANCH  17  23
HETATM   23  C18 UNL     1       2.416   0.229   0.410  1.00  0.00     0.000 C 
HETATM   24  C19 UNL     1       2.174  -1.279   0.508  1.00  0.00     0.000 C 
BRANCH  23  25
HETATM   25  C20 UNL     1       3.850   0.570   0.008  1.00  0.00     0.000 C 
BRANCH  25  26
HETATM   26  C21 UNL     1       4.852   0.346   1.141  1.00  0.00     0.000 C 
BRANCH  26  27
HETATM   27  C22 UNL     1       6.279   0.723   0.750  1.00  0.00     0.005 C 
BRANCH  27  28
HETATM   28  C23 UNL     1       7.305   0.344   1.818  1.00  0.00     0.066 C 
BRANCH  28  29
HETATM   29  C24 UNL     1       8.746   0.553   1.355  1.00  0.00     0.185 C 
HETATM   30  O3  UNL     1       9.004  -0.342   0.297  1.00  0.00    -0.221 OA
ENDBRANCH  28  29
BRANCH  28  31
HETATM   31  C25 UNL     1       7.018   0.998   3.170  1.00  0.00     0.185 C 
HETATM   32  O4  UNL     1       6.170   0.145   3.904  1.00  0.00    -0.221 OA
ENDBRANCH  28  31
ENDBRANCH  27  28
ENDBRANCH  26  27
ENDBRANCH  25  26
ENDBRANCH  23  25
ENDBRANCH  17  23
TORSDOF 7
