REMARK  1 active torsions:
REMARK  status: ('A' for Active; 'I' for Inactive)
REMARK    1  A    between atoms: C8_9  and  C11_13 
ROOT
HETATM    1  C1  UNL     1      -3.522   0.375   0.520  1.00  0.00     0.127 A 
HETATM    2  C2  UNL     1      -3.406   1.668   1.088  1.00  0.00     0.029 A 
HETATM    3  C3  UNL     1      -2.131   2.262   1.250  1.00  0.00     0.134 A 
HETATM    4  C4  UNL     1      -0.967   1.559   0.840  1.00  0.00     0.082 A 
HETATM    5  C5  UNL     1      -1.078   0.246   0.305  1.00  0.00     0.097 A 
HETATM    6  C6  UNL     1      -2.360  -0.334   0.129  1.00  0.00     0.026 A 
HETATM    7  C7  UNL     1      -2.481  -1.682  -0.457  1.00  0.00     0.035 C 
HETATM    8  O1  UNL     1       0.019  -0.461  -0.041  1.00  0.00    -0.329 OA
HETATM    9  C8  UNL     1       1.307  -0.109   0.479  1.00  0.00     0.151 C 
HETATM   10  C9  UNL     1       1.533   1.410   0.363  1.00  0.00     0.104 C 
HETATM   11  C10 UNL     1       0.379   2.191   0.957  1.00  0.00     0.180 C 
HETATM   12  O2  UNL     1       0.640   3.256   1.467  1.00  0.00    -0.291 OA
HETATM   13  O5  UNL     1      -2.035   3.490   1.781  1.00  0.00    -0.190 OA
HETATM   14  C17 UNL     1      -4.617   2.396   1.506  1.00  0.00     0.035 C 
HETATM   15  O6  UNL     1      -4.731  -0.182   0.356  1.00  0.00    -0.191 OA
ENDROOT
BRANCH   9  16
HETATM   16  C11 UNL     1       2.349  -0.893  -0.234  1.00  0.00     0.008 A 
HETATM   17  C12 UNL     1       3.314  -1.607   0.496  1.00  0.00     0.000 A 
HETATM   18  C13 UNL     1       4.299  -2.346  -0.180  1.00  0.00     0.029 A 
HETATM   19  C14 UNL     1       4.324  -2.375  -1.586  1.00  0.00     0.156 A 
HETATM   20  C15 UNL     1       3.357  -1.658  -2.316  1.00  0.00     0.156 A 
HETATM   21  O4  UNL     1       5.252  -3.070  -2.213  1.00  0.00    -0.188 OA
HETATM   22  C16 UNL     1       2.373  -0.920  -1.639  1.00  0.00     0.028 A 
HETATM   23  O3  UNL     1       3.373  -1.680  -3.635  1.00  0.00    -0.188 OA
ENDBRANCH   9  16
TORSDOF 1
