REMARK  1 active torsions:
REMARK  status: ('A' for Active; 'I' for Inactive)
REMARK    1  A    between atoms: C9_10  and  C10_11 
ROOT
HETATM    1  C1  UNL     1       2.613   2.174   2.307  1.00  0.00     0.119 A 
HETATM    2  C2  UNL     1       2.793   1.018   1.543  1.00  0.00     0.119 A 
HETATM    3  C3  UNL     1       1.660   0.369   0.982  1.00  0.00     0.024 A 
HETATM    4  C4  UNL     1       0.350   0.865   1.184  1.00  0.00     0.010 A 
HETATM    5  C5  UNL     1       0.176   2.045   1.943  1.00  0.00    -0.020 A 
HETATM    6  C6  UNL     1       1.305   2.685   2.500  1.00  0.00     0.022 A 
HETATM    7  C7  UNL     1      -1.192   2.594   2.133  1.00  0.00     0.061 C 
HETATM    8  C8  UNL     1      -2.346   1.551   2.090  1.00  0.00     0.255 C 
HETATM    9  N1  UNL     1      -1.959   0.201   1.625  1.00  0.00     0.144 N 
HETATM   10  C9  UNL     1      -0.869   0.205   0.633  1.00  0.00     0.273 C 
HETATM   11  C19 UNL     1      -1.719  -0.715   2.742  1.00  0.00     0.286 C 
HETATM   12  O5  UNL     1       4.094   0.728   1.490  1.00  0.00    -0.300 OA
HETATM   13  C20 UNL     1       4.832   1.717   2.244  1.00  0.00     0.304 A 
HETATM   14  O6  UNL     1       3.803   2.603   2.732  1.00  0.00    -0.300 OA
ENDROOT
BRANCH  10  15
HETATM   15  C10 UNL     1      -0.637  -1.215   0.111  1.00  0.00     0.182 A 
HETATM   16  C11 UNL     1      -0.254  -1.233  -1.346  1.00  0.00     0.015 A 
HETATM   17  C12 UNL     1      -1.195  -1.902  -2.094  1.00  0.00     0.086 A 
HETATM   18  C17 UNL     1       0.838  -0.727  -2.117  1.00  0.00     0.001 A 
HETATM   19  C13 UNL     1      -2.209  -2.342  -1.139  1.00  0.00     0.298 A 
HETATM   20  C14 UNL     1      -1.143  -2.096  -3.475  1.00  0.00     0.124 A 
HETATM   21  O1  UNL     1      -1.887  -1.953   0.119  1.00  0.00    -0.294 OA
HETATM   22  O2  UNL     1      -3.193  -2.965  -1.463  1.00  0.00    -0.259 OA
HETATM   23  C15 UNL     1      -0.108  -1.621  -4.270  1.00  0.00     0.119 A 
HETATM   24  O4  UNL     1      -1.988  -2.719  -4.305  1.00  0.00    -0.299 OA
HETATM   25  C16 UNL     1       0.906  -0.916  -3.541  1.00  0.00     0.026 A 
HETATM   26  O3  UNL     1      -0.281  -1.928  -5.551  1.00  0.00    -0.300 OA
HETATM   27  C18 UNL     1      -1.514  -2.660  -5.668  1.00  0.00     0.304 A 
ENDBRANCH  10  15
TORSDOF 1
