REMARK  2 active torsions:
REMARK  status: ('A' for Active; 'I' for Inactive)
REMARK    1  A    between atoms: C3_3  and  O4_11 
REMARK    2  A    between atoms: C5_5  and  O2_8 
ROOT
HETATM    1  C1  UNL     1      -2.035   0.469  -0.590  1.00  0.00     0.217 C 
HETATM    2  C2  UNL     1      -0.983   1.610  -0.596  1.00  0.00     0.214 C 
HETATM    3  C3  UNL     1       0.223   1.291   0.328  1.00  0.00     0.181 C 
HETATM    4  C4  UNL     1       0.881  -0.066  -0.029  1.00  0.00     0.211 C 
HETATM    5  C5  UNL     1      -0.170  -1.207  -0.018  1.00  0.00     0.181 C 
HETATM    6  C6  UNL     1      -1.375  -0.888  -0.946  1.00  0.00     0.214 C 
HETATM    7  O1  UNL     1      -2.338  -1.931  -0.899  1.00  0.00    -0.218 OA
HETATM    8  O3  UNL     1       1.496   0.014  -1.309  1.00  0.00    -0.218 OA
HETATM    9  O5  UNL     1      -1.590   2.840  -0.231  1.00  0.00    -0.218 OA
HETATM   10  O6  UNL     1      -2.654   0.389   0.689  1.00  0.00    -0.218 OA
ENDROOT
BRANCH   3  11
HETATM   11  O4  UNL     1       1.187   2.332   0.281  1.00  0.00    -0.349 OA
HETATM   12  C8  UNL     1       2.226   2.168   1.219  1.00  0.00     0.174 C 
ENDBRANCH   3  11
BRANCH   5  13
HETATM   13  O2  UNL     1       0.437  -2.437  -0.379  1.00  0.00    -0.349 OA
HETATM   14  C7  UNL     1       1.394  -2.881   0.558  1.00  0.00     0.174 C 
ENDBRANCH   5  13
TORSDOF 2
