REMARK  4 active torsions:
REMARK  status: ('A' for Active; 'I' for Inactive)
REMARK    1  A    between atoms: C15_15  and  C18_18 
REMARK    2  A    between atoms: C18_18  and  C20_20 
REMARK    3  A    between atoms: C20_20  and  C21_21 
REMARK    4  A    between atoms: C21_21  and  C22_22 
ROOT
HETATM    1  C1  UNL     1      -5.609  -0.201  -0.594  1.00  0.00     0.152 C 
HETATM    2  C2  UNL     1      -4.943   1.182  -0.799  1.00  0.00     0.028 C 
HETATM    3  C3  UNL     1      -3.408   1.043  -0.574  1.00  0.00     0.002 C 
HETATM    4  C4  UNL     1      -2.732  -0.055  -1.453  1.00  0.00     0.000 C 
HETATM    5  C5  UNL     1      -3.473  -1.397  -1.236  1.00  0.00     0.003 C 
HETATM    6  C6  UNL     1      -4.984  -1.289  -1.477  1.00  0.00     0.033 C 
HETATM    7  C7  UNL     1      -1.230  -0.180  -1.041  1.00  0.00     0.000 C 
HETATM    8  C8  UNL     1      -0.467   1.180  -1.115  1.00  0.00     0.000 C 
HETATM    9  C9  UNL     1      -1.191   2.254  -0.279  1.00  0.00     0.000 C 
HETATM   10  C10 UNL     1      -2.664   2.391  -0.680  1.00  0.00     0.000 C 
HETATM   11  C11 UNL     1       0.965   0.947  -0.559  1.00  0.00     0.000 C 
HETATM   12  C12 UNL     1       1.709  -0.107  -1.395  1.00  0.00     0.004 C 
HETATM   13  C13 UNL     1       0.994  -1.459  -1.316  1.00  0.00     0.000 C 
HETATM   14  C14 UNL     1      -0.461  -1.295  -1.797  1.00  0.00     0.000 C 
HETATM   15  C15 UNL     1       3.174  -0.029  -0.941  1.00  0.00     0.018 C 
HETATM   16  C16 UNL     1       3.338   1.449  -0.553  1.00  0.00     0.004 C 
HETATM   17  C17 UNL     1       1.959   2.104  -0.705  1.00  0.00     0.000 C 
HETATM   18  C26 UNL     1       0.955   0.551   0.928  1.00  0.00     0.000 C 
HETATM   19  C27 UNL     1      -0.348   1.678  -2.568  1.00  0.00     0.000 C 
HETATM   20  C28 UNL     1      -2.830   0.301  -2.945  1.00  0.00     0.000 C 
HETATM   21  C29 UNL     1      -5.527   2.172   0.221  1.00  0.00     0.003 C 
HETATM   22  C30 UNL     1      -5.236   1.732  -2.205  1.00  0.00     0.003 C 
HETATM   23  O1  UNL     1      -6.998  -0.137  -0.861  1.00  0.00    -0.224 OA
ENDROOT
BRANCH  15  24
HETATM   24  C18 UNL     1       3.529  -0.965   0.189  1.00  0.00    -0.044 C 
HETATM   25  C19 UNL     1       3.402  -2.287  -0.008  1.00  0.00    -0.009 C 
BRANCH  24  26
HETATM   26  C20 UNL     1       4.018  -0.484   1.529  1.00  0.00     0.027 C 
BRANCH  26  27
HETATM   27  C21 UNL     1       4.639  -1.606   2.363  1.00  0.00     0.030 C 
BRANCH  27  28
HETATM   28  C22 UNL     1       5.412  -1.084   3.543  1.00  0.00    -0.034 C 
HETATM   29  C23 UNL     1       5.650  -1.916   4.570  1.00  0.00    -0.048 C 
HETATM   30  C24 UNL     1       6.367  -1.377   5.779  1.00  0.00     0.026 C 
HETATM   31  C25 UNL     1       5.190  -3.344   4.461  1.00  0.00     0.026 C 
ENDBRANCH  27  28
ENDBRANCH  26  27
ENDBRANCH  24  26
ENDBRANCH  15  24
TORSDOF 4
