REMARK  2 active torsions:
REMARK  status: ('A' for Active; 'I' for Inactive)
REMARK    1  A    between atoms: C13_14  and  C16_18 
REMARK    2  A    between atoms: C14_15  and  O2_16 
ROOT
HETATM    1  C1  UNL     1       4.608   0.033   0.697  1.00  0.00     0.000 A 
HETATM    2  C2  UNL     1       4.549  -1.371   0.828  1.00  0.00     0.000 A 
HETATM    3  C3  UNL     1       3.305  -2.033   0.758  1.00  0.00     0.003 A 
HETATM    4  C4  UNL     1       2.104  -1.301   0.555  1.00  0.00     0.042 A 
HETATM    5  C5  UNL     1       2.162   0.117   0.426  1.00  0.00     0.042 A 
HETATM    6  C6  UNL     1       3.422   0.771   0.498  1.00  0.00     0.003 A 
HETATM    7  C7  UNL     1       0.932   0.941   0.213  1.00  0.00     0.198 A 
HETATM    8  C8  UNL     1      -0.369   0.197   0.129  1.00  0.00     0.065 A 
HETATM    9  C9  UNL     1      -0.424  -1.223   0.258  1.00  0.00     0.046 A 
HETATM   10  C10 UNL     1       0.809  -2.045   0.485  1.00  0.00     0.196 A 
HETATM   11  O1  UNL     1       0.758  -3.250   0.604  1.00  0.00    -0.287 OA
HETATM   12  C11 UNL     1      -1.676  -1.887   0.168  1.00  0.00     0.031 A 
HETATM   13  C12 UNL     1      -2.867  -1.162  -0.047  1.00  0.00     0.136 A 
HETATM   14  C13 UNL     1      -2.816   0.244  -0.174  1.00  0.00     0.090 A 
HETATM   15  C14 UNL     1      -1.576   0.924  -0.088  1.00  0.00     0.102 A 
HETATM   16  O4  UNL     1      -4.035  -1.816  -0.127  1.00  0.00    -0.190 OA
HETATM   17  O5  UNL     1       0.994   2.147   0.115  1.00  0.00    -0.286 OA
ENDROOT
BRANCH  14  18
HETATM   18  C16 UNL     1      -4.064   1.008  -0.398  1.00  0.00     0.238 C 
HETATM   19  O3  UNL     1      -5.113   0.625  -0.861  1.00  0.00    -0.283 OA
ENDBRANCH  14  18
BRANCH  15  20
HETATM   20  O2  UNL     1      -1.559   2.260  -0.211  1.00  0.00    -0.328 OA
HETATM   21  C15 UNL     1      -1.590   2.809  -1.519  1.00  0.00     0.181 C 
ENDBRANCH  15  20
TORSDOF 2
