REMARK  4 active torsions:
REMARK  status: ('A' for Active; 'I' for Inactive)
REMARK    1  A    between atoms: C2_2  and  O6_29 
REMARK    2  A    between atoms: C5_5  and  C23_27 
REMARK    3  A    between atoms: C15_16  and  C18_19 
REMARK    4  A    between atoms: O6_29  and  C24_30 
ROOT
HETATM    1  C1  UNL     1       2.519   0.583  -1.903  1.00  0.00     0.030 C 
HETATM    2  C2  UNL     1       1.913  -0.508  -1.037  1.00  0.00     0.118 C 
HETATM    3  C3  UNL     1       2.891  -1.691  -1.017  1.00  0.00     0.030 C 
HETATM    4  C4  UNL     1       4.401  -1.334  -1.073  1.00  0.00     0.005 C 
HETATM    5  C5  UNL     1       4.740   0.097  -0.563  1.00  0.00     0.033 C 
HETATM    6  C6  UNL     1       3.809   1.131  -1.276  1.00  0.00     0.005 C 
HETATM    7  C7  UNL     1       6.226   0.501  -0.895  1.00  0.00     0.035 C 
HETATM    8  C8  UNL     1       7.146  -0.712  -1.132  1.00  0.00     0.031 C 
HETATM    9  C9  UNL     1       6.601  -1.614  -2.264  1.00  0.00     0.003 C 
HETATM   10  C10 UNL     1       5.072  -1.571  -2.430  1.00  0.00     0.000 C 
HETATM   11  C11 UNL     1       8.635  -0.374  -1.352  1.00  0.00     0.127 C 
HETATM   12  C12 UNL     1       9.226   0.641  -0.353  1.00  0.00     0.032 C 
HETATM   13  C13 UNL     1       8.280   1.867  -0.265  1.00  0.00     0.036 C 
HETATM   14  C14 UNL     1       6.841   1.506   0.089  1.00  0.00     0.152 C 
HETATM   15  O1  UNL     1       6.068   2.683   0.114  1.00  0.00    -0.224 OA
HETATM   16  C15 UNL     1      10.556   1.108  -1.014  1.00  0.00     0.023 C 
HETATM   17  C16 UNL     1      10.442   0.762  -2.510  1.00  0.00     0.007 C 
HETATM   18  C17 UNL     1       9.017   0.225  -2.712  1.00  0.00     0.031 C 
HETATM   19  C22 UNL     1       9.433   0.060   1.060  1.00  0.00     0.003 C 
HETATM   20  O4  UNL     1       9.346  -1.581  -1.242  1.00  0.00    -0.226 OA
ENDROOT
BRANCH   2  21
HETATM   21  O6  UNL     1       1.686   0.034   0.238  1.00  0.00    -0.332 OA
BRANCH  21  22
HETATM   22  C24 UNL     1       0.579  -0.511   0.924  1.00  0.00     0.270 C 
HETATM   23  O7  UNL     1      -0.533   0.173   0.388  1.00  0.00    -0.329 OA
HETATM   24  C25 UNL     1      -1.744  -0.236   0.960  1.00  0.00     0.151 C 
HETATM   25  C26 UNL     1      -1.761   0.028   2.462  1.00  0.00     0.212 C 
HETATM   26  C29 UNL     1      -2.887   0.474   0.230  1.00  0.00     0.035 C 
HETATM   27  C27 UNL     1      -0.545  -0.571   3.146  1.00  0.00     0.220 C 
HETATM   28  O10 UNL     1      -1.774   1.413   2.717  1.00  0.00    -0.218 OA
HETATM   29  C28 UNL     1       0.717  -0.192   2.397  1.00  0.00     0.241 C 
HETATM   30  O9  UNL     1      -0.634  -1.975   3.151  1.00  0.00    -0.218 OA
HETATM   31  O8  UNL     1       1.785  -0.926   2.945  1.00  0.00    -0.215 OA
ENDBRANCH  21  22
ENDBRANCH   2  21
BRANCH   5  32
HETATM   32  C23 UNL     1       4.522  -0.023   0.967  1.00  0.00     0.182 C 
HETATM   33  O5  UNL     1       3.967   1.144   1.536  1.00  0.00    -0.221 OA
ENDBRANCH   5  32
BRANCH  16  34
HETATM   34  C18 UNL     1      11.837   0.643  -0.362  1.00  0.00    -0.009 A 
HETATM   35  C19 UNL     1      12.541   1.359   0.532  1.00  0.00     0.062 A 
HETATM   36  C20 UNL     1      13.676   0.499   0.912  1.00  0.00     0.296 A 
HETATM   37  O2  UNL     1      13.669  -0.706   0.278  1.00  0.00    -0.294 OA
HETATM   38  O3  UNL     1      14.537   0.835   1.718  1.00  0.00    -0.259 OA
HETATM   39  C21 UNL     1      12.516  -0.696  -0.561  1.00  0.00     0.175 A 
ENDBRANCH  16  34
TORSDOF 4
