REMARK  3 active torsions:
REMARK  status: ('A' for Active; 'I' for Inactive)
REMARK    1  A    between atoms: C10_10  and  C12_13 
REMARK    2  A    between atoms: C14_17  and  C18_21 
REMARK    3  A    between atoms: C21_25  and  C22_28 
ROOT
HETATM    1  C1  UNL     1      -4.047   0.262  -1.361  1.00  0.00     0.199 C 
HETATM    2  C2  UNL     1      -2.691   0.922  -1.213  1.00  0.00     0.217 C 
HETATM    3  C3  UNL     1      -1.961  -0.049  -0.230  1.00  0.00     0.085 C 
HETATM    4  C4  UNL     1      -2.832  -1.289  -0.176  1.00  0.00    -0.022 C 
HETATM    5  C5  UNL     1      -3.998  -1.078  -0.799  1.00  0.00     0.011 C 
HETATM    6  C6  UNL     1      -5.102  -2.098  -0.906  1.00  0.00     0.034 C 
HETATM    7  C7  UNL     1      -0.422  -0.281  -0.377  1.00  0.00     0.109 C 
HETATM    8  C8  UNL     1       0.357   1.025  -0.799  1.00  0.00     0.085 C 
HETATM    9  C9  UNL     1       0.012   2.455  -0.330  1.00  0.00     0.150 A 
HETATM   10  C10 UNL     1      -1.424   3.102  -0.293  1.00  0.00     0.179 A 
HETATM   11  C11 UNL     1      -2.742   2.365  -0.642  1.00  0.00     0.217 C 
HETATM   12  O1  UNL     1      -3.459   3.195  -1.541  1.00  0.00    -0.218 OA
HETATM   13  O3  UNL     1      -0.803   2.479   0.793  1.00  0.00    -0.351 OA
HETATM   14  C13 UNL     1       1.854   0.768  -0.482  1.00  0.00     0.153 C 
HETATM   15  C14 UNL     1       2.318  -0.647  -0.933  1.00  0.00     0.138 C 
HETATM   16  C15 UNL     1       1.365  -1.281  -1.957  1.00  0.00     0.036 C 
HETATM   17  C16 UNL     1      -0.086  -1.402  -1.422  1.00  0.00     0.029 C 
HETATM   18  C17 UNL     1      -0.355  -2.830  -0.924  1.00  0.00     0.003 C 
HETATM   19  O4  UNL     1       2.211  -1.387   0.272  1.00  0.00    -0.308 OA
HETATM   20  C21 UNL     1       1.426  -0.666   1.195  1.00  0.00     0.318 C 
HETATM   21  O5  UNL     1       1.918   0.617   0.916  1.00  0.00    -0.309 OA
HETATM   22  O6  UNL     1       0.018  -0.713   0.936  1.00  0.00    -0.314 OA
HETATM   23  O7  UNL     1      -2.094   0.906  -2.498  1.00  0.00    -0.215 OA
HETATM   24  O8  UNL     1      -5.027   0.764  -1.865  1.00  0.00    -0.289 OA
ENDROOT
BRANCH  20  25
HETATM   25  C22 UNL     1       1.719  -1.072   2.594  1.00  0.00     0.058 A 
HETATM   26  C23 UNL     1       1.979  -2.422   2.895  1.00  0.00     0.003 A 
HETATM   27  C24 UNL     1       2.256  -2.807   4.217  1.00  0.00    -0.000 A 
HETATM   28  C25 UNL     1       2.275  -1.844   5.240  1.00  0.00    -0.000 A 
HETATM   29  C26 UNL     1       2.016  -0.494   4.942  1.00  0.00    -0.000 A 
HETATM   30  C27 UNL     1       1.738  -0.109   3.617  1.00  0.00     0.003 A 
ENDBRANCH  20  25
BRANCH  15  31
HETATM   31  C18 UNL     1       3.756  -0.674  -1.389  1.00  0.00    -0.017 C 
HETATM   32  C19 UNL     1       4.022  -1.033  -2.654  1.00  0.00    -0.007 C 
HETATM   33  C20 UNL     1       4.908  -0.318  -0.486  1.00  0.00     0.029 C 
ENDBRANCH  15  31
BRANCH  10  34
HETATM   34  C12 UNL     1      -1.490   4.592   0.035  1.00  0.00     0.214 C 
HETATM   35  O2  UNL     1      -1.393   5.315  -1.172  1.00  0.00    -0.218 OA
ENDBRANCH  10  34
TORSDOF 3
