REMARK  3 active torsions:
REMARK  status: ('A' for Active; 'I' for Inactive)
REMARK    1  A    between atoms: C2_2  and  O3_12 
REMARK    2  A    between atoms: O3_12  and  C10_13 
REMARK    3  A    between atoms: C11_15  and  C15_22 
ROOT
HETATM    1  C1  UNL     1      -2.047   1.670  -0.649  1.00  0.00     0.176 A 
HETATM    2  C2  UNL     1      -0.867   0.912  -0.844  1.00  0.00     0.124 A 
HETATM    3  C3  UNL     1      -0.945  -0.412  -1.340  1.00  0.00     0.026 A 
HETATM    4  C4  UNL     1      -2.203  -0.984  -1.641  1.00  0.00     0.004 A 
HETATM    5  C5  UNL     1      -3.381  -0.225  -1.445  1.00  0.00     0.025 A 
HETATM    6  C6  UNL     1      -3.309   1.106  -0.949  1.00  0.00     0.131 A 
HETATM    7  O1  UNL     1      -4.438   1.826  -0.764  1.00  0.00    -0.271 OA
HETATM    8  C7  UNL     1      -5.670   1.346  -1.029  1.00  0.00     0.300 A 
HETATM    9  C8  UNL     1      -5.811  -0.035  -1.547  1.00  0.00     0.069 A 
HETATM   10  C9  UNL     1      -4.719  -0.795  -1.752  1.00  0.00     0.007 A 
HETATM   11  O2  UNL     1      -6.670   2.002  -0.859  1.00  0.00    -0.259 OA
HETATM   12  O9  UNL     1      -1.969   2.924  -0.180  1.00  0.00    -0.186 OA
ENDROOT
BRANCH   2  13
HETATM   13  O3  UNL     1       0.330   1.445  -0.559  1.00  0.00    -0.301 OA
BRANCH  13  14
HETATM   14  C10 UNL     1       1.412   0.561  -0.305  1.00  0.00     0.274 C 
HETATM   15  O4  UNL     1       1.043  -0.326   0.742  1.00  0.00    -0.326 OA
HETATM   16  C11 UNL     1       2.019  -1.305   1.072  1.00  0.00     0.184 C 
HETATM   17  C12 UNL     1       3.307  -0.603   1.559  1.00  0.00     0.215 C 
HETATM   18  C13 UNL     1       3.818   0.422   0.521  1.00  0.00     0.220 C 
HETATM   19  O7  UNL     1       4.301  -1.586   1.793  1.00  0.00    -0.218 OA
HETATM   20  C14 UNL     1       2.666   1.361   0.109  1.00  0.00     0.241 C 
HETATM   21  O6  UNL     1       4.881   1.180   1.076  1.00  0.00    -0.218 OA
HETATM   22  O5  UNL     1       3.066   2.168  -0.984  1.00  0.00    -0.215 OA
BRANCH  16  23
HETATM   23  C15 UNL     1       1.393  -2.213   2.135  1.00  0.00     0.214 C 
HETATM   24  O8  UNL     1       0.332  -2.924   1.539  1.00  0.00    -0.218 OA
ENDBRANCH  16  23
ENDBRANCH  13  14
ENDBRANCH   2  13
TORSDOF 3
