REMARK  1 active torsions:
REMARK  status: ('A' for Active; 'I' for Inactive)
REMARK    1  A    between atoms: C3_3  and  C6_6 
ROOT
HETATM    1  C1  UNL     1       0.428   1.365   0.486  1.00  0.00     0.025 C 
HETATM    2  C2  UNL     1       0.018  -0.061  -0.004  1.00  0.00     0.093 C 
HETATM    3  C3  UNL     1       1.312  -0.715  -0.537  1.00  0.00     0.025 C 
HETATM    4  C4  UNL     1       2.422   0.113   0.109  1.00  0.00     0.002 C 
HETATM    5  C5  UNL     1       1.861   1.518  -0.039  1.00  0.00     0.002 C 
HETATM    6  C9  UNL     1      -0.820  -0.889   0.986  1.00  0.00     0.030 C 
HETATM    7  C10 UNL     1      -2.244  -0.344   0.793  1.00  0.00     0.032 C 
HETATM    8  C11 UNL     1      -2.141   0.566  -0.447  1.00  0.00     0.121 C 
HETATM    9  C12 UNL     1      -1.934   2.051  -0.002  1.00  0.00     0.177 C 
HETATM   10  C13 UNL     1      -0.455   2.500  -0.074  1.00  0.00     0.038 C 
HETATM   11  O1  UNL     1      -2.691   2.945  -0.795  1.00  0.00    -0.221 OA
HETATM   12  O2  UNL     1      -0.947   0.084  -1.027  1.00  0.00    -0.361 OA
HETATM   13  C14 UNL     1      -3.293   0.303  -1.418  1.00  0.00     0.032 C 
HETATM   14  C15 UNL     1       0.508   1.449   2.014  1.00  0.00     0.002 C 
ENDROOT
BRANCH   3  15
HETATM   15  C6  UNL     1       1.531  -2.188  -0.195  1.00  0.00     0.002 C 
HETATM   16  C7  UNL     1       3.010  -2.535  -0.359  1.00  0.00     0.000 C 
HETATM   17  C8  UNL     1       0.619  -3.053  -1.066  1.00  0.00     0.000 C 
ENDBRANCH   3  15
TORSDOF 1
