REMARK  8 active torsions:
REMARK  status: ('A' for Active; 'I' for Inactive)
REMARK    1  A    between atoms: C4_4  and  O1_7 
REMARK    2  A    between atoms: O1_7  and  C7_8 
REMARK    3  A    between atoms: C7_8  and  C8_9 
REMARK    4  A    between atoms: C8_9  and  C9_10 
REMARK    5  A    between atoms: C9_10  and  C10_11 
REMARK    6  A    between atoms: C9_10  and  N1_17 
REMARK    7  A    between atoms: C23_26  and  O4_29 
REMARK    8  A    between atoms: O4_29  and  C25_30 
ROOT
HETATM    1  C1  UNL     1       0.867   0.914  -0.576  1.00  0.00     0.040 C 
HETATM    2  C2  UNL     1       1.265  -0.739   0.168  1.00  0.00     0.054 C 
HETATM    3  C3  UNL     1       0.189  -1.663  -0.480  1.00  0.00    -0.015 C 
HETATM    4  C4  UNL     1      -1.241  -1.383  -0.431  1.00  0.00     0.143 C 
HETATM    5  C5  UNL     1      -1.468  -0.157   0.462  1.00  0.00     0.035 C 
HETATM    6  C6  UNL     1      -0.651   1.173  -0.059  1.00  0.00     0.006 C 
HETATM    7  C18 UNL     1       0.529  -2.696  -1.250  1.00  0.00    -0.007 C 
HETATM    8  C19 UNL     1       2.859  -1.608  -0.053  1.00  0.00     0.157 C 
HETATM    9  C20 UNL     1       4.351  -0.914   0.455  1.00  0.00     0.042 C 
HETATM   10  C21 UNL     1       4.177   0.338   0.045  1.00  0.00     0.023 C 
HETATM   11  C22 UNL     1       4.842   1.357   0.028  1.00  0.00    -0.003 C 
HETATM   12  C23 UNL     1       3.747   2.682  -0.257  1.00  0.00     0.107 C 
HETATM   13  C24 UNL     1       1.816   2.511  -0.197  1.00  0.00     0.197 C 
HETATM   14  O3  UNL     1       1.547   2.751   1.168  1.00  0.00    -0.216 OA
HETATM   15  C27 UNL     1       6.173   1.202   0.103  1.00  0.00     0.011 C 
HETATM   16  C28 UNL     1       6.694  -0.297   0.151  1.00  0.00     0.169 C 
HETATM   17  C29 UNL     1       5.636  -1.462  -0.128  1.00  0.00     0.072 C 
HETATM   18  O6  UNL     1       7.902  -0.543   0.136  1.00  0.00    -0.292 OA
HETATM   19  C30 UNL     1       7.132   2.355   0.032  1.00  0.00     0.034 C 
HETATM   20  C31 UNL     1       3.526   0.762   1.499  1.00  0.00     0.004 C 
HETATM   21  C32 UNL     1       3.932   0.437  -1.544  1.00  0.00     0.004 C 
HETATM   22  O7  UNL     1       2.897  -2.905   0.612  1.00  0.00    -0.223 OA
HETATM   23  C33 UNL     1       0.835   0.720  -2.137  1.00  0.00     0.003 C 
ENDROOT
BRANCH   4  24
HETATM   24  O1  UNL     1      -1.739  -2.724  -0.082  1.00  0.00    -0.297 OA
BRANCH  24  25
HETATM   25  C7  UNL     1      -3.095  -3.011   0.023  1.00  0.00     0.294 C 
HETATM   26  O2  UNL     1      -3.933  -2.116  -0.072  1.00  0.00    -0.259 OA
BRANCH  25  27
HETATM   27  C8  UNL     1      -3.441  -4.552   0.072  1.00  0.00     0.079 C 
BRANCH  27  28
HETATM   28  C9  UNL     1      -4.899  -5.212   0.336  1.00  0.00     0.269 C 
BRANCH  28  29
HETATM   29  C10 UNL     1      -4.616  -6.797   0.278  1.00  0.00     0.013 A 
HETATM   30  C11 UNL     1      -3.363  -7.216   0.067  1.00  0.00    -0.002 A 
HETATM   31  C12 UNL     1      -3.044  -8.656  -0.014  1.00  0.00    -0.000 A 
HETATM   32  C13 UNL     1      -4.004  -9.570   0.114  1.00  0.00    -0.000 A 
HETATM   33  C14 UNL     1      -5.375  -9.144   0.355  1.00  0.00    -0.000 A 
HETATM   34  C15 UNL     1      -5.667  -7.847   0.444  1.00  0.00    -0.002 A 
ENDBRANCH  28  29
BRANCH  28  35
HETATM   35  N1  UNL     1      -6.035  -4.792  -0.666  1.00  0.00     0.148 N 
HETATM   36  C16 UNL     1      -7.352  -5.395  -0.371  1.00  0.00     0.286 C 
HETATM   37  C17 UNL     1      -6.330  -3.366  -0.654  1.00  0.00     0.286 C 
ENDBRANCH  28  35
ENDBRANCH  27  28
ENDBRANCH  25  27
ENDBRANCH  24  25
ENDBRANCH   4  24
BRANCH  12  38
HETATM   38  O4  UNL     1       4.362   3.815  -0.950  1.00  0.00    -0.279 OA
BRANCH  38  39
HETATM   39  C25 UNL     1       4.301   5.055  -0.154  1.00  0.00     0.277 C 
HETATM   40  C26 UNL     1       5.018   6.282  -0.636  1.00  0.00     0.107 C 
HETATM   41  O5  UNL     1       3.752   5.114   0.960  1.00  0.00    -0.264 OA
ENDBRANCH  38  39
ENDBRANCH  12  38
TORSDOF 8
