REMARK  11 active torsions:
REMARK  status: ('A' for Active; 'I' for Inactive)
REMARK    1  A    between atoms: C3_3  and  O10_31 
REMARK    2  A    between atoms: C6_6  and  O3_12 
REMARK    3  A    between atoms: C7_7  and  O1_8 
REMARK    4  A    between atoms: O1_8  and  C8_9 
REMARK    5  A    between atoms: O3_12  and  C10_13 
REMARK    6  A    between atoms: C12_16  and  O8_26 
REMARK    7  A    between atoms: C15_19  and  O6_22 
REMARK    8  A    between atoms: O6_22  and  C17_23 
REMARK    9  A    between atoms: O8_26  and  C19_27 
REMARK   10  A    between atoms: O10_31  and  C22_32 
REMARK   11  A    between atoms: C22_32  and  C23_33 
ROOT
HETATM    1  C1  UNL     1       0.904   2.268   0.916  1.00  0.00    -0.016 C 
HETATM    2  C2  UNL     1       0.838   1.824  -0.525  1.00  0.00     0.068 C 
HETATM    3  C3  UNL     1      -0.029   0.579  -0.786  1.00  0.00     0.133 C 
HETATM    4  C4  UNL     1       0.299  -0.694   0.066  1.00  0.00     0.063 C 
HETATM    5  C5  UNL     1      -0.391  -0.718   1.479  1.00  0.00     0.059 C 
HETATM    6  C6  UNL     1       0.104   0.413   2.436  1.00  0.00     0.158 C 
HETATM    7  C7  UNL     1      -0.069   1.877   1.996  1.00  0.00     0.170 C 
HETATM    8  C12 UNL     1      -0.137  -2.068   2.239  1.00  0.00     0.129 C 
HETATM    9  C13 UNL     1       0.087  -3.333   1.393  1.00  0.00     0.062 C 
HETATM   10  C14 UNL     1      -0.339  -3.274  -0.062  1.00  0.00     0.146 C 
HETATM   11  C15 UNL     1       0.042  -1.968  -0.777  1.00  0.00     0.156 C 
HETATM   12  C16 UNL     1      -1.418  -2.260  -1.192  1.00  0.00     0.172 C 
HETATM   13  O5  UNL     1      -1.744  -3.206  -0.194  1.00  0.00    -0.351 OA
HETATM   14  C21 UNL     1      -1.911  -0.556   1.292  1.00  0.00     0.005 C 
HETATM   15  C29 UNL     1       2.347   1.686  -0.848  1.00  0.00     0.042 C 
HETATM   16  C30 UNL     1       2.610   3.111  -0.345  1.00  0.00     0.133 C 
HETATM   17  C31 UNL     1       1.979   3.057   1.023  1.00  0.00    -0.023 C 
HETATM   18  C32 UNL     1       2.491   3.759   2.254  1.00  0.00     0.028 C 
HETATM   19  O12 UNL     1       1.748   3.848  -1.195  1.00  0.00    -0.357 OA
HETATM   20  C33 UNL     1       0.565   3.088  -1.406  1.00  0.00     0.099 C 
HETATM   21  C34 UNL     1      -0.630   3.904  -0.921  1.00  0.00     0.030 C 
HETATM   22  C35 UNL     1       0.472   2.839  -2.910  1.00  0.00     0.030 C 
ENDROOT
BRANCH   3  23
HETATM   23  O10 UNL     1       0.084   0.264  -2.168  1.00  0.00    -0.300 OA
BRANCH  23  24
HETATM   24  C22 UNL     1      -1.101   0.174  -2.766  1.00  0.00     0.296 C 
HETATM   25  O11 UNL     1      -2.111   0.683  -2.338  1.00  0.00    -0.259 OA
BRANCH  24  26
HETATM   26  C23 UNL     1      -1.116  -0.614  -4.034  1.00  0.00     0.063 A 
HETATM   27  C24 UNL     1      -2.339  -0.918  -4.660  1.00  0.00     0.005 A 
HETATM   28  C25 UNL     1      -2.352  -1.661  -5.854  1.00  0.00     0.000 A 
HETATM   29  C26 UNL     1      -1.144  -2.100  -6.422  1.00  0.00     0.000 A 
HETATM   30  C27 UNL     1       0.078  -1.797  -5.798  1.00  0.00     0.000 A 
HETATM   31  C28 UNL     1       0.093  -1.055  -4.604  1.00  0.00     0.005 A 
ENDBRANCH  24  26
ENDBRANCH  23  24
ENDBRANCH   3  23
BRANCH  11  32
HETATM   32  O6  UNL     1       1.040  -2.122  -1.779  1.00  0.00    -0.302 OA
BRANCH  32  33
HETATM   33  C17 UNL     1       1.003  -3.323  -2.350  1.00  0.00     0.272 C 
HETATM   34  C18 UNL     1       2.154  -4.231  -2.007  1.00  0.00     0.106 C 
HETATM   35  O7  UNL     1       0.123  -3.688  -3.093  1.00  0.00    -0.264 OA
ENDBRANCH  32  33
ENDBRANCH  11  32
BRANCH   7  36
HETATM   36  O1  UNL     1      -1.398   2.125   1.561  1.00  0.00    -0.298 OA
BRANCH  36  37
HETATM   37  C8  UNL     1      -1.814   3.349   1.877  1.00  0.00     0.273 C 
HETATM   38  C9  UNL     1      -3.282   3.600   1.665  1.00  0.00     0.106 C 
HETATM   39  O2  UNL     1      -1.089   4.217   2.305  1.00  0.00    -0.264 OA
ENDBRANCH  36  37
ENDBRANCH   7  36
BRANCH   6  40
HETATM   40  O3  UNL     1       1.480   0.215   2.744  1.00  0.00    -0.301 OA
BRANCH  40  41
HETATM   41  C10 UNL     1       1.824   0.766   3.905  1.00  0.00     0.272 C 
HETATM   42  C11 UNL     1       3.289   0.690   4.240  1.00  0.00     0.106 C 
HETATM   43  O4  UNL     1       1.040   1.295   4.657  1.00  0.00    -0.264 OA
ENDBRANCH  40  41
ENDBRANCH   6  40
BRANCH   8  44
HETATM   44  O8  UNL     1      -1.202  -2.315   3.150  1.00  0.00    -0.304 OA
BRANCH  44  45
HETATM   45  C19 UNL     1      -0.861  -3.172   4.108  1.00  0.00     0.272 C 
HETATM   46  C20 UNL     1      -1.943  -3.479   5.108  1.00  0.00     0.106 C 
HETATM   47  O9  UNL     1       0.231  -3.684   4.196  1.00  0.00    -0.264 OA
ENDBRANCH  44  45
ENDBRANCH   8  44
TORSDOF 11
