REMARK  12 active torsions:
REMARK  status: ('A' for Active; 'I' for Inactive)
REMARK    1  A    between atoms: C2_2  and  C33_45 
REMARK    2  A    between atoms: C3_3  and  O9_28 
REMARK    3  A    between atoms: C6_6  and  O3_12 
REMARK    4  A    between atoms: C7_7  and  O1_8 
REMARK    5  A    between atoms: O1_8  and  C8_9 
REMARK    6  A    between atoms: O3_12  and  C10_13 
REMARK    7  A    between atoms: C12_16  and  O7_23 
REMARK    8  A    between atoms: O7_23  and  C17_24 
REMARK    9  A    between atoms: O9_28  and  C20_29 
REMARK   10  A    between atoms: C20_29  and  C21_30 
REMARK   11  A    between atoms: C28_38  and  O11_41 
REMARK   12  A    between atoms: O11_41  and  C31_42 
ROOT
HETATM    1  C1  UNL     1       1.498   0.586  -0.096  1.00  0.00    -0.016 C 
HETATM    2  C2  UNL     1       1.346  -0.785  -0.701  1.00  0.00     0.071 C 
HETATM    3  C3  UNL     1      -0.018  -1.457  -0.463  1.00  0.00     0.133 C 
HETATM    4  C4  UNL     1      -1.283  -1.033  -1.275  1.00  0.00     0.066 C 
HETATM    5  C5  UNL     1      -1.715   0.467  -1.107  1.00  0.00     0.059 C 
HETATM    6  C6  UNL     1      -0.588   1.512  -1.336  1.00  0.00     0.158 C 
HETATM    7  C7  UNL     1       0.482   1.695  -0.244  1.00  0.00     0.170 C 
HETATM    8  C12 UNL     1      -2.375   0.660   0.279  1.00  0.00     0.129 C 
HETATM    9  C13 UNL     1      -3.613  -0.223   0.525  1.00  0.00     0.062 C 
HETATM   10  C14 UNL     1      -3.731  -1.525  -0.285  1.00  0.00     0.148 C 
HETATM   11  C15 UNL     1      -2.481  -2.022  -1.064  1.00  0.00     0.181 C 
HETATM   12  C16 UNL     1      -3.625  -2.012  -2.106  1.00  0.00     0.175 C 
HETATM   13  O5  UNL     1      -4.611  -1.322  -1.375  1.00  0.00    -0.351 OA
HETATM   14  O6  UNL     1      -2.066  -3.338  -0.758  1.00  0.00    -0.221 OA
HETATM   15  C19 UNL     1      -2.758   0.812  -2.186  1.00  0.00     0.005 C 
HETATM   16  C27 UNL     1       2.441  -1.607   0.029  1.00  0.00     0.043 C 
HETATM   17  C28 UNL     1       3.449  -0.566   0.527  1.00  0.00     0.142 C 
HETATM   18  C29 UNL     1       2.645   0.693   0.590  1.00  0.00    -0.022 C 
HETATM   19  C30 UNL     1       3.107   1.912   1.348  1.00  0.00     0.028 C 
ENDROOT
BRANCH   3  20
HETATM   20  O9  UNL     1      -0.320  -1.447   0.926  1.00  0.00    -0.300 OA
BRANCH  20  21
HETATM   21  C20 UNL     1      -0.215  -2.652   1.477  1.00  0.00     0.296 C 
HETATM   22  O10 UNL     1       0.160  -3.635   0.881  1.00  0.00    -0.259 OA
BRANCH  21  23
HETATM   23  C21 UNL     1      -0.598  -2.731   2.918  1.00  0.00     0.063 A 
HETATM   24  C22 UNL     1      -1.020  -1.572   3.600  1.00  0.00     0.005 A 
HETATM   25  C23 UNL     1      -1.379  -1.647   4.955  1.00  0.00     0.000 A 
HETATM   26  C24 UNL     1      -1.316  -2.875   5.635  1.00  0.00     0.000 A 
HETATM   27  C25 UNL     1      -0.897  -4.031   4.957  1.00  0.00     0.000 A 
HETATM   28  C26 UNL     1      -0.537  -3.959   3.600  1.00  0.00     0.005 A 
ENDBRANCH  21  23
ENDBRANCH  20  21
ENDBRANCH   3  20
BRANCH   2  29
HETATM   29  C33 UNL     1       1.750  -0.789  -2.176  1.00  0.00     0.132 C 
HETATM   30  C34 UNL     1       2.637   0.422  -2.465  1.00  0.00     0.033 C 
HETATM   31  O13 UNL     1       0.586  -0.684  -2.963  1.00  0.00    -0.226 OA
HETATM   32  C35 UNL     1       2.434  -2.115  -2.512  1.00  0.00     0.033 C 
ENDBRANCH   2  29
BRANCH   7  33
HETATM   33  O1  UNL     1       1.184   2.896  -0.539  1.00  0.00    -0.298 OA
BRANCH  33  34
HETATM   34  C8  UNL     1       0.514   3.980  -0.160  1.00  0.00     0.273 C 
HETATM   35  C9  UNL     1       1.049   5.283  -0.693  1.00  0.00     0.106 C 
HETATM   36  O2  UNL     1      -0.457   3.955   0.559  1.00  0.00    -0.264 OA
ENDBRANCH  33  34
ENDBRANCH   7  33
BRANCH  17  37
HETATM   37  O11 UNL     1       3.955  -0.924   1.807  1.00  0.00    -0.300 OA
BRANCH  37  38
HETATM   38  C31 UNL     1       5.273  -1.094   1.801  1.00  0.00     0.273 C 
HETATM   39  C32 UNL     1       5.742  -2.463   1.381  1.00  0.00     0.106 C 
HETATM   40  O12 UNL     1       6.066  -0.232   2.105  1.00  0.00    -0.264 OA
ENDBRANCH  37  38
ENDBRANCH  17  37
BRANCH   6  41
HETATM   41  O3  UNL     1       0.031   1.299  -2.598  1.00  0.00    -0.301 OA
BRANCH  41  42
HETATM   42  C10 UNL     1      -0.447   2.107  -3.539  1.00  0.00     0.272 C 
HETATM   43  C11 UNL     1       0.082   3.516  -3.504  1.00  0.00     0.106 C 
HETATM   44  O4  UNL     1      -1.250   1.766  -4.377  1.00  0.00    -0.264 OA
ENDBRANCH  41  42
ENDBRANCH   6  41
BRANCH   8  45
HETATM   45  O7  UNL     1      -2.748   2.023   0.449  1.00  0.00    -0.304 OA
BRANCH  45  46
HETATM   46  C17 UNL     1      -3.285   2.256   1.643  1.00  0.00     0.272 C 
HETATM   47  C18 UNL     1      -4.209   3.443   1.709  1.00  0.00     0.106 C 
HETATM   48  O8  UNL     1      -3.066   1.582   2.623  1.00  0.00    -0.264 OA
ENDBRANCH  45  46
ENDBRANCH   8  45
TORSDOF 12
