REMARK  14 active torsions:
REMARK  status: ('A' for Active; 'I' for Inactive)
REMARK    1  A    between atoms: C4_4  and  O3_11 
REMARK    2  A    between atoms: C6_6  and  O1_7 
REMARK    3  A    between atoms: O1_7  and  C7_8 
REMARK    4  A    between atoms: O3_11  and  C9_12 
REMARK    5  A    between atoms: C9_12  and  C10_13 
REMARK    6  A    between atoms: C10_13  and  C11_14 
REMARK    7  A    between atoms: C11_14  and  N1_15 
REMARK    8  A    between atoms: C11_14  and  C14_18 
REMARK    9  A    between atoms: C26_32  and  O6_33 
REMARK   10  A    between atoms: O6_33  and  C27_34 
REMARK   11  A    between atoms: C30_39  and  O11_45 
REMARK   12  A    between atoms: C31_40  and  O9_41 
REMARK   13  A    between atoms: O9_41  and  C32_42 
REMARK   14  A    between atoms: O11_45  and  C34_46 
ROOT
HETATM    1  C1  UNL     1      -9.051   0.499   0.432  1.00  0.00     0.062 C 
HETATM    2  C2  UNL     1      -9.430  -1.212  -0.043  1.00  0.00     0.026 C 
HETATM    3  C3  UNL     1      -8.185  -2.022   0.418  1.00  0.00    -0.017 C 
HETATM    4  C4  UNL     1      -6.747  -1.638  -0.036  1.00  0.00     0.145 C 
HETATM    5  C5  UNL     1      -6.967  -0.479  -0.962  1.00  0.00     0.065 C 
HETATM    6  C6  UNL     1      -7.691   0.858  -0.444  1.00  0.00     0.130 C 
HETATM    7  C20 UNL     1      -8.403  -2.981   1.328  1.00  0.00    -0.007 C 
HETATM    8  C21 UNL     1     -10.754  -2.094   0.776  1.00  0.00     0.007 C 
HETATM    9  C22 UNL     1     -12.435  -1.769   0.744  1.00  0.00     0.035 C 
HETATM   10  C23 UNL     1     -12.359  -0.429   0.579  1.00  0.00     0.024 C 
HETATM   11  C24 UNL     1     -13.100   0.480   0.547  1.00  0.00     0.009 C 
HETATM   12  C25 UNL     1     -12.114   1.895   0.639  1.00  0.00     0.196 C 
HETATM   13  C26 UNL     1     -10.236   1.954   0.255  1.00  0.00     0.187 C 
HETATM   14  O8  UNL     1     -12.706   2.970   0.760  1.00  0.00    -0.289 OA
HETATM   15  C29 UNL     1     -14.414   0.195   0.361  1.00  0.00    -0.015 C 
HETATM   16  C30 UNL     1     -14.806  -1.460   0.312  1.00  0.00     0.170 C 
HETATM   17  C31 UNL     1     -13.474  -2.342  -0.210  1.00  0.00     0.156 C 
HETATM   18  C36 UNL     1     -15.406   1.320   0.185  1.00  0.00     0.029 C 
HETATM   19  C37 UNL     1     -12.025  -0.102  -1.037  1.00  0.00     0.004 C 
HETATM   20  C38 UNL     1     -11.779  -0.075   2.026  1.00  0.00     0.004 C 
HETATM   21  C39 UNL     1      -8.648   0.314   1.946  1.00  0.00     0.006 C 
ENDROOT
BRANCH   4  22
HETATM   22  O3  UNL     1      -6.220  -2.805  -0.782  1.00  0.00    -0.298 OA
BRANCH  22  23
HETATM   23  C9  UNL     1      -5.787  -3.851   0.069  1.00  0.00     0.305 C 
HETATM   24  O5  UNL     1      -5.669  -3.647   1.283  1.00  0.00    -0.261 OA
BRANCH  23  25
HETATM   25  C10 UNL     1      -5.801  -5.292  -0.420  1.00  0.00     0.273 C 
HETATM   26  O4  UNL     1      -7.150  -5.626  -0.003  1.00  0.00    -0.210 OA
BRANCH  25  27
HETATM   27  C11 UNL     1      -4.658  -6.273   0.276  1.00  0.00     0.281 C 
BRANCH  27  28
HETATM   28  N1  UNL     1      -3.167  -5.900  -0.152  1.00  0.00     0.146 N 
HETATM   29  C12 UNL     1      -2.138  -6.646   0.626  1.00  0.00     0.286 C 
HETATM   30  C13 UNL     1      -2.762  -4.493   0.014  1.00  0.00     0.286 C 
ENDBRANCH  27  28
BRANCH  27  31
HETATM   31  C14 UNL     1      -4.984  -7.832  -0.040  1.00  0.00     0.012 A 
HETATM   32  C15 UNL     1      -4.118  -8.651  -0.653  1.00  0.00    -0.002 A 
HETATM   33  C16 UNL     1      -4.432 -10.073  -0.876  1.00  0.00    -0.000 A 
HETATM   34  C17 UNL     1      -5.603 -10.571  -0.491  1.00  0.00    -0.000 A 
HETATM   35  C18 UNL     1      -6.567  -9.704   0.165  1.00  0.00    -0.000 A 
HETATM   36  C19 UNL     1      -6.270  -8.425   0.393  1.00  0.00    -0.002 A 
ENDBRANCH  27  31
ENDBRANCH  25  27
ENDBRANCH  23  25
ENDBRANCH  22  23
ENDBRANCH   4  22
BRANCH   6  37
HETATM   37  O1  UNL     1      -6.740   1.770   0.240  1.00  0.00    -0.304 OA
BRANCH  37  38
HETATM   38  C7  UNL     1      -7.029   3.150   0.351  1.00  0.00     0.272 C 
HETATM   39  C8  UNL     1      -6.078   4.034   1.101  1.00  0.00     0.106 C 
HETATM   40  O2  UNL     1      -8.000   3.660  -0.207  1.00  0.00    -0.264 OA
ENDBRANCH  37  38
ENDBRANCH   6  37
BRANCH  13  41
HETATM   41  O6  UNL     1     -10.253   2.305  -1.142  1.00  0.00    -0.296 OA
BRANCH  41  42
HETATM   42  C27 UNL     1     -10.736   3.646  -1.285  1.00  0.00     0.273 C 
HETATM   43  O7  UNL     1     -10.995   4.335  -0.288  1.00  0.00    -0.264 OA
HETATM   44  C28 UNL     1     -10.839   4.273  -2.638  1.00  0.00     0.106 C 
ENDBRANCH  41  42
ENDBRANCH  13  41
BRANCH  17  45
HETATM   45  O9  UNL     1     -13.525  -3.790   0.077  1.00  0.00    -0.301 OA
BRANCH  45  46
HETATM   46  C32 UNL     1     -14.345  -4.688  -0.646  1.00  0.00     0.272 C 
HETATM   47  C33 UNL     1     -15.158  -4.299  -1.846  1.00  0.00     0.106 C 
HETATM   48  O10 UNL     1     -14.341  -5.875  -0.294  1.00  0.00    -0.264 OA
ENDBRANCH  45  46
ENDBRANCH  17  45
BRANCH  16  49
HETATM   49  O11 UNL     1     -15.993  -1.821  -0.469  1.00  0.00    -0.298 OA
BRANCH  49  50
HETATM   50  C34 UNL     1     -17.299  -1.544   0.037  1.00  0.00     0.273 C 
HETATM   51  C35 UNL     1     -17.561  -1.021   1.433  1.00  0.00     0.106 C 
HETATM   52  O12 UNL     1     -18.267  -1.828  -0.676  1.00  0.00    -0.264 OA
ENDBRANCH  49  50
ENDBRANCH  16  49
TORSDOF 14
