REMARK  10 active torsions:
REMARK  status: ('A' for Active; 'I' for Inactive)
REMARK    1  A    between atoms: C6_6  and  O1_7 
REMARK    2  A    between atoms: O1_7  and  C7_8 
REMARK    3  A    between atoms: C10_14  and  O11_38 
REMARK    4  A    between atoms: C14_18  and  O7_24 
REMARK    5  A    between atoms: C15_19  and  O5_20 
REMARK    6  A    between atoms: O5_20  and  C16_21 
REMARK    7  A    between atoms: O7_24  and  C18_25 
REMARK    8  A    between atoms: C21_29  and  O9_31 
REMARK    9  A    between atoms: O9_31  and  C23_32 
REMARK   10  A    between atoms: O11_38  and  C28_39 
ROOT
HETATM    1  C1  UNL     1      -1.164  -0.322   0.510  1.00  0.00     0.059 C 
HETATM    2  C2  UNL     1      -0.666   1.049  -0.098  1.00  0.00     0.062 C 
HETATM    3  C3  UNL     1      -1.996   1.711  -0.570  1.00  0.00     0.150 A 
HETATM    4  C4  UNL     1      -2.830   1.000  -1.664  1.00  0.00     0.182 C 
HETATM    5  C5  UNL     1      -2.281  -0.420  -1.861  1.00  0.00     0.066 C 
HETATM    6  C6  UNL     1      -2.014  -1.139  -0.533  1.00  0.00     0.129 C 
HETATM    7  O3  UNL     1      -2.783   1.658  -2.920  1.00  0.00    -0.221 OA
HETATM    8  C9  UNL     1      -2.748   2.768   0.322  1.00  0.00     0.172 A 
HETATM    9  O4  UNL     1      -1.924   3.098  -0.750  1.00  0.00    -0.351 OA
HETATM   10  C10 UNL     1       0.396   1.826   0.779  1.00  0.00     0.127 C 
HETATM   11  C11 UNL     1       1.877   1.797   0.273  1.00  0.00     0.034 C 
HETATM   12  C12 UNL     1       2.584   0.445   0.512  1.00  0.00     0.019 C 
HETATM   13  C13 UNL     1       1.869  -0.514  -0.430  1.00  0.00    -0.021 C 
HETATM   14  C14 UNL     1       1.099  -1.690   0.133  1.00  0.00     0.170 C 
HETATM   15  C15 UNL     1      -0.053  -1.262   1.080  1.00  0.00     0.158 C 
HETATM   16  C20 UNL     1       1.892  -0.233  -1.756  1.00  0.00    -0.022 C 
HETATM   17  C21 UNL     1       2.418   1.119  -2.201  1.00  0.00     0.142 C 
HETATM   18  C22 UNL     1       2.021   2.252  -1.213  1.00  0.00     0.037 C 
HETATM   19  C25 UNL     1       1.369  -1.192  -2.799  1.00  0.00     0.028 C 
HETATM   20  C26 UNL     1       2.568   0.062   1.996  1.00  0.00     0.004 C 
HETATM   21  C27 UNL     1       4.076   0.519   0.148  1.00  0.00     0.004 C 
HETATM   22  C30 UNL     1      -2.045   0.039   1.725  1.00  0.00     0.005 C 
ENDROOT
BRANCH   6  23
HETATM   23  O1  UNL     1      -3.262  -1.529   0.025  1.00  0.00    -0.304 OA
BRANCH  23  24
HETATM   24  C7  UNL     1      -3.863  -2.475  -0.689  1.00  0.00     0.272 C 
HETATM   25  C8  UNL     1      -5.360  -2.543  -0.535  1.00  0.00     0.106 C 
HETATM   26  O2  UNL     1      -3.279  -3.240  -1.420  1.00  0.00    -0.264 OA
ENDBRANCH  23  24
ENDBRANCH   6  23
BRANCH  15  27
HETATM   27  O5  UNL     1      -0.670  -2.451   1.561  1.00  0.00    -0.301 OA
BRANCH  27  28
HETATM   28  C16 UNL     1      -0.350  -2.711   2.824  1.00  0.00     0.272 C 
HETATM   29  O6  UNL     1       0.734  -2.485   3.307  1.00  0.00    -0.264 OA
HETATM   30  C17 UNL     1      -1.451  -3.322   3.650  1.00  0.00     0.106 C 
ENDBRANCH  27  28
ENDBRANCH  15  27
BRANCH  10  31
HETATM   31  O11 UNL     1       0.062   3.199   0.918  1.00  0.00    -0.304 OA
BRANCH  31  32
HETATM   32  C28 UNL     1       0.631   3.754   1.984  1.00  0.00     0.272 C 
HETATM   33  C29 UNL     1       0.133   3.248   3.313  1.00  0.00     0.106 C 
HETATM   34  O12 UNL     1       1.490   4.603   1.926  1.00  0.00    -0.264 OA
ENDBRANCH  31  32
ENDBRANCH  10  31
BRANCH  14  35
HETATM   35  O7  UNL     1       2.004  -2.529   0.840  1.00  0.00    -0.298 OA
BRANCH  35  36
HETATM   36  C18 UNL     1       1.623  -3.803   0.832  1.00  0.00     0.273 C 
HETATM   37  C19 UNL     1       2.490  -4.736   1.631  1.00  0.00     0.106 C 
HETATM   38  O8  UNL     1       0.654  -4.213   0.234  1.00  0.00    -0.264 OA
ENDBRANCH  35  36
ENDBRANCH  14  35
BRANCH  17  39
HETATM   39  O9  UNL     1       1.922   1.443  -3.492  1.00  0.00    -0.300 OA
BRANCH  39  40
HETATM   40  C23 UNL     1       2.199   2.695  -3.842  1.00  0.00     0.273 C 
HETATM   41  O10 UNL     1       3.184   3.295  -3.475  1.00  0.00    -0.264 OA
HETATM   42  C24 UNL     1       1.189   3.348  -4.748  1.00  0.00     0.106 C 
ENDBRANCH  39  40
ENDBRANCH  17  39
TORSDOF 10
