REMARK  9 active torsions:
REMARK  status: ('A' for Active; 'I' for Inactive)
REMARK    1  A    between atoms: C3_3  and  O3_10 
REMARK    2  A    between atoms: O3_10  and  C8_11 
REMARK    3  A    between atoms: C10_14  and  O11_36 
REMARK    4  A    between atoms: C14_18  and  O6_21 
REMARK    5  A    between atoms: O6_21  and  C16_22 
REMARK    6  A    between atoms: C19_26  and  O8_28 
REMARK    7  A    between atoms: O8_28  and  C21_29 
REMARK    8  A    between atoms: O11_36  and  C26_37 
REMARK    9  A    between atoms: C26_37  and  C27_38 
ROOT
HETATM    1  C1  UNL     1       0.529  -1.720   0.005  1.00  0.00     0.064 C 
HETATM    2  C2  UNL     1       1.297  -0.150   0.371  1.00  0.00     0.066 C 
HETATM    3  C3  UNL     1       2.895  -0.324   0.389  1.00  0.00     0.156 C 
HETATM    4  C4  UNL     1       3.381  -1.551   1.027  1.00  0.00     0.146 C 
HETATM    5  C5  UNL     1       2.739  -2.815   0.550  1.00  0.00     0.065 C 
HETATM    6  C6  UNL     1       1.276  -2.816   0.886  1.00  0.00     0.157 C 
HETATM    7  O1  UNL     1       0.835  -4.128   0.525  1.00  0.00    -0.223 OA
HETATM    8  O2  UNL     1       4.599  -1.444   0.283  1.00  0.00    -0.351 OA
HETATM    9  C7  UNL     1       3.818  -0.735  -0.758  1.00  0.00     0.172 C 
HETATM   10  C10 UNL     1       0.767   1.284  -0.593  1.00  0.00     0.155 C 
HETATM   11  C11 UNL     1      -0.739   1.357   0.120  1.00  0.00     0.158 C 
HETATM   12  C12 UNL     1      -1.439   1.101  -1.361  1.00  0.00     0.045 C 
HETATM   13  C13 UNL     1      -2.579   0.278  -0.483  1.00  0.00    -0.018 C 
HETATM   14  C14 UNL     1      -2.409  -1.374  -0.497  1.00  0.00     0.172 C 
HETATM   15  C15 UNL     1      -1.127  -2.001   0.348  1.00  0.00     0.186 C 
HETATM   16  O5  UNL     1      -1.306  -3.408   0.122  1.00  0.00    -0.220 OA
HETATM   17  C18 UNL     1      -3.446   0.914   0.364  1.00  0.00    -0.022 C 
HETATM   18  C19 UNL     1      -3.380   2.355   0.339  1.00  0.00     0.145 C 
HETATM   19  C20 UNL     1      -1.779   2.620   0.625  1.00  0.00     0.068 C 
HETATM   20  C23 UNL     1      -4.383   0.221   1.361  1.00  0.00     0.028 C 
HETATM   21  C24 UNL     1      -1.097   0.147  -2.555  1.00  0.00     0.007 C 
HETATM   22  C25 UNL     1      -1.497   2.518  -2.127  1.00  0.00     0.007 C 
HETATM   23  O10 UNL     1       0.365   1.856   0.881  1.00  0.00    -0.223 OA
HETATM   24  C33 UNL     1       0.810  -2.184  -1.455  1.00  0.00     0.005 C 
ENDROOT
BRANCH  10  25
HETATM   25  O11 UNL     1       1.728   2.482  -0.465  1.00  0.00    -0.298 OA
BRANCH  25  26
HETATM   26  C26 UNL     1       2.911   2.286  -1.449  1.00  0.00     0.296 C 
HETATM   27  O12 UNL     1       2.771   1.415  -2.339  1.00  0.00    -0.259 OA
BRANCH  26  28
HETATM   28  C27 UNL     1       4.418   2.723  -1.213  1.00  0.00     0.063 A 
HETATM   29  C28 UNL     1       5.354   1.898  -1.665  1.00  0.00     0.005 A 
HETATM   30  C29 UNL     1       6.776   2.006  -1.290  1.00  0.00     0.000 A 
HETATM   31  C30 UNL     1       7.153   2.971  -0.457  1.00  0.00     0.000 A 
HETATM   32  C31 UNL     1       6.153   3.937   0.019  1.00  0.00     0.000 A 
HETATM   33  C32 UNL     1       4.854   3.832  -0.325  1.00  0.00     0.005 A 
ENDBRANCH  26  28
ENDBRANCH  25  26
ENDBRANCH  10  25
BRANCH   3  34
HETATM   34  O3  UNL     1       3.655   0.639   1.389  1.00  0.00    -0.302 OA
BRANCH  34  35
HETATM   35  C8  UNL     1       3.453   2.050   1.858  1.00  0.00     0.272 C 
HETATM   36  C9  UNL     1       4.376   2.578   2.924  1.00  0.00     0.106 C 
HETATM   37  O4  UNL     1       2.572   2.821   1.491  1.00  0.00    -0.264 OA
ENDBRANCH  34  35
ENDBRANCH   3  34
BRANCH  18  38
HETATM   38  O8  UNL     1      -4.380   3.118   1.084  1.00  0.00    -0.300 OA
BRANCH  38  39
HETATM   39  C21 UNL     1      -5.671   3.015   0.410  1.00  0.00     0.273 C 
HETATM   40  O9  UNL     1      -5.774   2.384  -0.652  1.00  0.00    -0.264 OA
HETATM   41  C22 UNL     1      -6.893   3.690   0.968  1.00  0.00     0.106 C 
ENDBRANCH  38  39
ENDBRANCH  18  38
BRANCH  14  42
HETATM   42  O6  UNL     1      -3.547  -2.122   0.061  1.00  0.00    -0.297 OA
BRANCH  42  43
HETATM   43  C16 UNL     1      -4.733  -2.257  -0.738  1.00  0.00     0.273 C 
HETATM   44  C17 UNL     1      -4.853  -1.704  -2.138  1.00  0.00     0.106 C 
HETATM   45  O7  UNL     1      -5.682  -2.895  -0.268  1.00  0.00    -0.264 OA
ENDBRANCH  42  43
ENDBRANCH  14  42
TORSDOF 9
