REMARK  8 active torsions:
REMARK  status: ('A' for Active; 'I' for Inactive)
REMARK    1  A    between atoms: C2_2  and  C29_38 
REMARK    2  A    between atoms: C3_3  and  O7_29 
REMARK    3  A    between atoms: C6_6  and  O2_9 
REMARK    4  A    between atoms: O2_9  and  C8_10 
REMARK    5  A    between atoms: C8_10  and  C9_11 
REMARK    6  A    between atoms: C15_18  and  O5_24 
REMARK    7  A    between atoms: O5_24  and  C20_25 
REMARK    8  A    between atoms: O7_29  and  C23_30 
ROOT
HETATM    1  C1  UNL     1      -2.221  -0.566  -0.125  1.00  0.00    -0.013 C 
HETATM    2  C2  UNL     1      -2.309   0.893  -0.492  1.00  0.00     0.071 C 
HETATM    3  C3  UNL     1      -0.963   1.605  -0.734  1.00  0.00     0.134 C 
HETATM    4  C4  UNL     1       0.217   1.182   0.203  1.00  0.00     0.054 C 
HETATM    5  C5  UNL     1       1.000  -0.111  -0.242  1.00  0.00     0.060 C 
HETATM    6  C6  UNL     1       0.170  -1.418  -0.043  1.00  0.00     0.161 C 
HETATM    7  C7  UNL     1      -1.217  -1.523  -0.719  1.00  0.00     0.198 C 
HETATM    8  O1  UNL     1      -1.125  -1.359  -2.119  1.00  0.00    -0.216 OA
HETATM    9  C15 UNL     1       2.330  -0.275   0.586  1.00  0.00     0.130 C 
HETATM   10  C16 UNL     1       2.305   0.486   1.924  1.00  0.00     0.068 C 
HETATM   11  C17 UNL     1       2.166   2.000   1.676  1.00  0.00     0.173 C 
HETATM   12  C18 UNL     1       1.250   2.264   0.500  1.00  0.00    -0.012 C 
HETATM   13  C19 UNL     1       1.402   3.381  -0.238  1.00  0.00    -0.007 C 
HETATM   14  O4  UNL     1       1.666   2.627   2.840  1.00  0.00    -0.219 OA
HETATM   15  C22 UNL     1       1.379   0.002  -1.730  1.00  0.00     0.005 C 
HETATM   16  C25 UNL     1      -3.076   1.484   0.715  1.00  0.00     0.046 C 
HETATM   17  C26 UNL     1      -3.934   0.311   1.217  1.00  0.00     0.171 C 
HETATM   18  C27 UNL     1      -3.131  -0.891   0.805  1.00  0.00    -0.019 C 
HETATM   19  C28 UNL     1      -3.340  -2.266   1.385  1.00  0.00     0.028 C 
HETATM   20  O9  UNL     1      -4.108   0.381   2.617  1.00  0.00    -0.219 OA
ENDROOT
BRANCH   6  21
HETATM   21  O2  UNL     1      -0.008  -1.648   1.350  1.00  0.00    -0.298 OA
BRANCH  21  22
HETATM   22  C8  UNL     1       0.230  -2.912   1.688  1.00  0.00     0.296 C 
HETATM   23  O3  UNL     1      -0.635  -3.736   1.869  1.00  0.00    -0.259 OA
BRANCH  22  24
HETATM   24  C9  UNL     1       1.674  -3.272   1.836  1.00  0.00     0.063 A 
HETATM   25  C10 UNL     1       2.447  -2.672   2.848  1.00  0.00     0.005 A 
HETATM   26  C11 UNL     1       3.805  -3.010   2.986  1.00  0.00     0.000 A 
HETATM   27  C12 UNL     1       4.391  -3.945   2.117  1.00  0.00     0.000 A 
HETATM   28  C13 UNL     1       3.617  -4.543   1.105  1.00  0.00     0.000 A 
HETATM   29  C14 UNL     1       2.260  -4.207   0.965  1.00  0.00     0.005 A 
ENDBRANCH  22  24
ENDBRANCH  21  22
ENDBRANCH   6  21
BRANCH   9  30
HETATM   30  O5  UNL     1       3.451   0.197  -0.154  1.00  0.00    -0.304 OA
BRANCH  30  31
HETATM   31  C20 UNL     1       4.135  -0.793  -0.723  1.00  0.00     0.272 C 
HETATM   32  C21 UNL     1       5.588  -0.498  -0.980  1.00  0.00     0.106 C 
HETATM   33  O6  UNL     1       3.652  -1.859  -1.021  1.00  0.00    -0.264 OA
ENDBRANCH  30  31
ENDBRANCH   9  30
BRANCH   3  34
HETATM   34  O7  UNL     1      -1.221   3.000  -0.619  1.00  0.00    -0.304 OA
BRANCH  34  35
HETATM   35  C23 UNL     1      -1.004   3.652  -1.758  1.00  0.00     0.272 C 
HETATM   36  C24 UNL     1      -1.686   4.988  -1.871  1.00  0.00     0.106 C 
HETATM   37  O8  UNL     1      -0.315   3.229  -2.656  1.00  0.00    -0.264 OA
ENDBRANCH  34  35
ENDBRANCH   3  34
BRANCH   2  38
HETATM   38  C29 UNL     1      -3.233   1.055  -1.701  1.00  0.00     0.132 C 
HETATM   39  C30 UNL     1      -2.391   1.180  -2.973  1.00  0.00     0.033 C 
HETATM   40  O10 UNL     1      -3.973   2.244  -1.545  1.00  0.00    -0.226 OA
HETATM   41  C31 UNL     1      -4.213  -0.117  -1.756  1.00  0.00     0.033 C 
ENDBRANCH   2  38
TORSDOF 8
