REMARK  3 active torsions:
REMARK  status: ('A' for Active; 'I' for Inactive)
REMARK    1  A    between atoms: C5_5  and  C7_7 
REMARK    2  A    between atoms: C7_7  and  C8_8 
REMARK    3  A    between atoms: C8_8  and  N1_9 
ROOT
HETATM    1  C1  UNL     1      -2.178  -1.236  -0.803  1.00  0.00     0.156 A 
HETATM    2  C2  UNL     1      -1.430  -2.428  -0.803  1.00  0.00     0.156 A 
HETATM    3  C3  UNL     1      -0.025  -2.373  -0.803  1.00  0.00     0.029 A 
HETATM    4  C4  UNL     1       0.635  -1.133  -0.803  1.00  0.00     0.001 A 
HETATM    5  C5  UNL     1      -0.109   0.058  -0.803  1.00  0.00     0.012 A 
HETATM    6  C6  UNL     1      -1.516   0.006  -0.803  1.00  0.00     0.028 A 
HETATM    7  O2  UNL     1      -2.041  -3.596  -0.803  1.00  0.00    -0.188 OA
HETATM    8  O3  UNL     1      -3.494  -1.278  -0.803  1.00  0.00    -0.188 OA
ENDROOT
BRANCH   5   9
HETATM    9  C7  UNL     1       0.584   1.373  -0.803  1.00  0.00     0.211 C 
HETATM   10  O1  UNL     1       1.418   1.463  -1.938  1.00  0.00    -0.216 OA
BRANCH   9  11
HETATM   11  C8  UNL     1       1.451   1.551   0.443  1.00  0.00     0.327 C 
BRANCH  11  12
HETATM   12  N1  UNL     1       0.631   1.533   1.640  1.00  0.00     0.344 N 
HETATM   13  C9  UNL     1       1.457   1.672   2.828  1.00  0.00     0.328 C 
ENDBRANCH  11  12
ENDBRANCH   9  11
ENDBRANCH   5   9
TORSDOF 3
