REMARK  7 active torsions:
REMARK  status: ('A' for Active; 'I' for Inactive)
REMARK    1  A    between atoms: C3_3  and  O7_31 
REMARK    2  A    between atoms: C6_6  and  O1_7 
REMARK    3  A    between atoms: N1_16  and  C15_18 
REMARK    4  A    between atoms: C18_22  and  O5_28 
REMARK    5  A    between atoms: C20_24  and  O4_25 
REMARK    6  A    between atoms: O7_31  and  C24_32 
REMARK    7  A    between atoms: C24_32  and  C25_33 
ROOT
HETATM    1  C1  UNL     1      -1.965   0.636  -1.686  1.00  0.00     0.032 C 
HETATM    2  C2  UNL     1      -2.729  -0.784  -1.373  1.00  0.00     0.032 C 
HETATM    3  C3  UNL     1      -3.029  -0.337  -0.084  1.00  0.00     0.133 C 
HETATM    4  C4  UNL     1      -4.263   0.742  -0.820  1.00  0.00     0.034 C 
HETATM    5  C5  UNL     1      -3.709   1.954  -0.292  1.00  0.00     0.062 C 
HETATM    6  C6  UNL     1      -2.369   1.904  -0.448  1.00  0.00     0.117 C 
HETATM    7  C8  UNL     1      -4.088   3.341  -0.882  1.00  0.00     0.037 C 
HETATM    8  C9  UNL     1      -5.471   3.545  -0.981  1.00  0.00     0.179 C 
HETATM    9  C10 UNL     1      -6.149   3.297   0.378  1.00  0.00     0.184 C 
HETATM   10  C11 UNL     1      -5.771   1.732   0.931  1.00  0.00     0.184 C 
HETATM   11  C12 UNL     1      -5.835   0.636  -0.185  1.00  0.00     0.038 C 
HETATM   12  O2  UNL     1      -6.554   1.497   2.093  1.00  0.00    -0.221 OA
HETATM   13  C13 UNL     1      -4.302   1.594   1.278  1.00  0.00     0.252 C 
HETATM   14  N1  UNL     1      -4.056   0.042   1.923  1.00  0.00     0.140 N 
HETATM   15  C14 UNL     1      -3.892  -1.052   0.902  1.00  0.00     0.278 C 
HETATM   16  O3  UNL     1      -7.545   3.504   0.171  1.00  0.00    -0.221 OA
HETATM   17  C17 UNL     1      -5.578   4.246   1.439  1.00  0.00     0.065 C 
HETATM   18  C18 UNL     1      -5.401   5.696   0.998  1.00  0.00     0.120 C 
HETATM   19  C19 UNL     1      -4.616   5.666  -0.385  1.00  0.00     0.057 C 
HETATM   20  C20 UNL     1      -5.428   4.963  -1.532  1.00  0.00     0.148 C 
HETATM   21  C22 UNL     1      -3.473   4.670  -0.131  1.00  0.00     0.008 C 
HETATM   22  O6  UNL     1      -6.075   2.700  -1.967  1.00  0.00    -0.221 OA
ENDROOT
BRANCH   3  23
HETATM   23  O7  UNL     1      -1.124  -0.363   0.125  1.00  0.00    -0.301 OA
BRANCH  23  24
HETATM   24  C24 UNL     1       0.476   0.571  -0.111  1.00  0.00     0.297 C 
HETATM   25  O8  UNL     1       1.448  -0.165   0.014  1.00  0.00    -0.259 OA
BRANCH  24  26
HETATM   26  C25 UNL     1       0.944   2.282  -0.413  1.00  0.00     0.083 A 
HETATM   27  C26 UNL     1       0.178   3.367  -0.273  1.00  0.00     0.007 A 
HETATM   28  C27 UNL     1       0.566   4.757  -0.332  1.00  0.00     0.000 A 
HETATM   29  C28 UNL     1       1.830   5.040  -0.528  1.00  0.00     0.002 A 
HETATM   30  C29 UNL     1       2.738   3.937  -0.753  1.00  0.00     0.021 A 
HETATM   31  C30 UNL     1       2.338   2.644  -0.713  1.00  0.00     0.108 A 
HETATM   32  N2  UNL     1       3.254   1.723  -1.015  1.00  0.00    -0.148 N 
ENDBRANCH  24  26
ENDBRANCH  23  24
ENDBRANCH   3  23
BRANCH  14  33
HETATM   33  C15 UNL     1      -3.069  -0.182   3.005  1.00  0.00     0.251 C 
HETATM   34  C16 UNL     1      -3.452   0.641   4.263  1.00  0.00     0.037 C 
ENDBRANCH  14  33
BRANCH   6  35
HETATM   35  O1  UNL     1      -2.119   1.933   1.189  1.00  0.00    -0.354 OA
HETATM   36  C7  UNL     1      -0.931   2.076   2.151  1.00  0.00     0.174 C 
ENDBRANCH   6  35
BRANCH  20  37
HETATM   37  O4  UNL     1      -6.697   5.548  -1.841  1.00  0.00    -0.351 OA
HETATM   38  C21 UNL     1      -6.516   6.803  -2.522  1.00  0.00     0.174 C 
ENDBRANCH  20  37
BRANCH  18  39
HETATM   39  O5  UNL     1      -6.626   6.425   0.935  1.00  0.00    -0.354 OA
HETATM   40  C23 UNL     1      -6.357   7.837   0.800  1.00  0.00     0.174 C 
ENDBRANCH  18  39
TORSDOF 7
