REMARK  2 active torsions:
REMARK  status: ('A' for Active; 'I' for Inactive)
REMARK    1  A    between atoms: C14_19  and  O8_26 
REMARK    2  A    between atoms: O8_26  and  C19_27 
ROOT
HETATM    1  C1  UNL     1       1.758  -0.057   0.453  1.00  0.00     0.061 C 
HETATM    2  C2  UNL     1       1.544   1.217  -0.274  1.00  0.00     0.040 C 
HETATM    3  C3  UNL     1      -0.063   2.235   0.310  1.00  0.00     0.155 C 
HETATM    4  C4  UNL     1      -1.862   1.546   0.179  1.00  0.00     0.073 C 
HETATM    5  C5  UNL     1      -2.437  -0.001   1.104  1.00  0.00     0.093 C 
HETATM    6  C6  UNL     1      -1.647  -1.706   0.985  1.00  0.00     0.185 C 
HETATM    7  C7  UNL     1       0.016  -2.312   0.301  1.00  0.00     0.239 C 
HETATM    8  C8  UNL     1       1.325  -1.208  -0.432  1.00  0.00     0.186 C 
HETATM    9  C9  UNL     1       0.330  -0.355  -1.593  1.00  0.00     0.129 A 
HETATM   10  C10 UNL     1       0.486  -1.127  -2.431  1.00  0.00     0.179 A 
HETATM   11  C11 UNL     1       1.738   0.424  -1.967  1.00  0.00     0.063 A 
HETATM   12  O1  UNL     1      -0.889  -0.990  -3.003  1.00  0.00    -0.221 OA
HETATM   13  O2  UNL     1      -0.366  -0.317  -0.674  1.00  0.00    -0.356 OA
HETATM   14  C12 UNL     1       0.630  -0.045   0.691  1.00  0.00     0.145 C 
HETATM   15  C13 UNL     1      -0.136   1.022  -2.908  1.00  0.00     0.033 C 
HETATM   16  O3  UNL     1       2.537  -1.988  -0.879  1.00  0.00    -0.220 OA
HETATM   17  O4  UNL     1       0.632  -3.056   1.362  1.00  0.00    -0.213 OA
HETATM   18  O5  UNL     1      -2.207  -2.568   1.684  1.00  0.00    -0.293 OA
HETATM   19  C14 UNL     1      -3.975  -0.157   0.617  1.00  0.00     0.134 C 
HETATM   20  C15 UNL     1      -4.692   1.131   1.020  1.00  0.00     0.063 C 
HETATM   21  C16 UNL     1      -4.218   2.384   0.268  1.00  0.00     0.148 C 
HETATM   22  C17 UNL     1      -2.815   2.708   0.442  1.00  0.00     0.181 C 
HETATM   23  C18 UNL     1      -3.122   3.395   1.725  1.00  0.00     0.175 C 
HETATM   24  O6  UNL     1      -4.519   3.514   1.125  1.00  0.00    -0.351 OA
HETATM   25  O7  UNL     1      -2.465   3.715  -0.501  1.00  0.00    -0.221 OA
HETATM   26  O10 UNL     1      -0.020   3.382  -0.535  1.00  0.00    -0.223 OA
HETATM   27  C21 UNL     1       2.389  -0.138   1.852  1.00  0.00     0.005 C 
ENDROOT
BRANCH  19  28
HETATM   28  O8  UNL     1      -4.733  -1.232   1.246  1.00  0.00    -0.304 OA
BRANCH  28  29
HETATM   29  C19 UNL     1      -4.665  -2.447   0.509  1.00  0.00     0.272 C 
HETATM   30  C20 UNL     1      -5.382  -3.667   1.005  1.00  0.00     0.106 C 
HETATM   31  O9  UNL     1      -4.039  -2.502  -0.558  1.00  0.00    -0.264 OA
ENDBRANCH  28  29
ENDBRANCH  19  28
TORSDOF 2
