REMARK  2 active torsions:
REMARK  status: ('A' for Active; 'I' for Inactive)
REMARK    1  A    between atoms: C16_16  and  C19_19 
REMARK    2  A    between atoms: C21_21  and  C23_25 
ROOT
HETATM    1  C1  UNL     1       5.996  -0.918  -0.854  1.00  0.00     0.152 C 
HETATM    2  C2  UNL     1       5.158  -2.186  -1.209  1.00  0.00     0.029 C 
HETATM    3  C3  UNL     1       3.637  -2.008  -0.863  1.00  0.00     0.007 C 
HETATM    4  C4  UNL     1       3.098  -0.561  -1.031  1.00  0.00     0.004 C 
HETATM    5  C5  UNL     1       3.945   0.441  -0.189  1.00  0.00     0.003 C 
HETATM    6  C6  UNL     1       5.326  -0.082   0.242  1.00  0.00     0.033 C 
HETATM    7  C7  UNL     1       1.627  -0.504  -0.527  1.00  0.00     0.018 C 
HETATM    8  C8  UNL     1       0.740  -1.617  -1.064  1.00  0.00    -0.049 C 
HETATM    9  C9  UNL     1       1.250  -2.785  -1.502  1.00  0.00    -0.035 C 
HETATM   10  C10 UNL     1       2.734  -3.047  -1.578  1.00  0.00     0.025 C 
HETATM   11  C11 UNL     1      -0.752  -1.346  -1.086  1.00  0.00     0.015 C 
HETATM   12  C12 UNL     1      -1.149  -0.369   0.037  1.00  0.00     0.003 C 
HETATM   13  C13 UNL     1      -0.486   0.998  -0.203  1.00  0.00     0.001 C 
HETATM   14  C14 UNL     1       0.957   0.879  -0.752  1.00  0.00     0.004 C 
HETATM   15  C15 UNL     1      -0.750  -0.926   1.416  1.00  0.00     0.000 C 
HETATM   16  C16 UNL     1      -2.680  -0.385  -0.063  1.00  0.00     0.005 C 
HETATM   17  C17 UNL     1      -3.000  -1.865  -0.309  1.00  0.00     0.001 C 
HETATM   18  C18 UNL     1      -1.697  -2.518  -0.793  1.00  0.00     0.004 C 
HETATM   19  C27 UNL     1      -1.121  -0.809  -2.477  1.00  0.00     0.004 C 
HETATM   20  C28 UNL     1       3.156  -0.180  -2.520  1.00  0.00     0.000 C 
HETATM   21  C29 UNL     1       5.686  -3.358  -0.367  1.00  0.00     0.003 C 
HETATM   22  C30 UNL     1       5.379  -2.590  -2.680  1.00  0.00     0.003 C 
HETATM   23  O4  UNL     1       6.199  -0.074  -1.975  1.00  0.00    -0.224 OA
ENDROOT
BRANCH  16  24
HETATM   24  C19 UNL     1      -3.404   0.186   1.156  1.00  0.00     0.062 C 
HETATM   25  C20 UNL     1      -3.108   1.678   1.379  1.00  0.00     0.037 C 
HETATM   26  C21 UNL     1      -4.463   2.307   1.730  1.00  0.00     0.147 C 
HETATM   27  O1  UNL     1      -5.322   1.203   1.869  1.00  0.00    -0.329 OA
HETATM   28  C22 UNL     1      -4.924   0.184   0.988  1.00  0.00     0.269 C 
HETATM   29  O2  UNL     1      -5.485  -1.065   1.336  1.00  0.00    -0.190 OA
BRANCH  26  30
HETATM   30  C23 UNL     1      -4.471   3.107   3.027  1.00  0.00     0.167 A 
HETATM   31  C24 UNL     1      -5.100   4.545   3.102  1.00  0.00     0.120 A 
HETATM   32  C25 UNL     1      -5.731   5.176   1.867  1.00  0.00     0.032 C 
HETATM   33  O3  UNL     1      -3.762   4.285   2.818  1.00  0.00    -0.354 OA
HETATM   34  C26 UNL     1      -5.172   5.270   4.438  1.00  0.00     0.032 C 
ENDBRANCH  26  30
ENDBRANCH  16  24
TORSDOF 2
