REMARK  1 active torsions:
REMARK  status: ('A' for Active; 'I' for Inactive)
REMARK    1  A    between atoms: C13_15  and  C15_18 
ROOT
HETATM    1  C1  UNL     1       4.424   0.453   0.523  1.00  0.00     0.057 A 
HETATM    2  C2  UNL     1       4.367  -0.949   0.654  1.00  0.00     0.158 A 
HETATM    3  C3  UNL     1       3.123  -1.615   0.584  1.00  0.00     0.159 A 
HETATM    4  C4  UNL     1       1.916  -0.883   0.383  1.00  0.00     0.071 A 
HETATM    5  C5  UNL     1       1.975   0.539   0.252  1.00  0.00     0.070 A 
HETATM    6  C6  UNL     1       3.240   1.193   0.324  1.00  0.00     0.136 A 
HETATM    7  O1  UNL     1       3.340   2.525   0.207  1.00  0.00    -0.190 OA
HETATM    8  C7  UNL     1       0.738   1.361   0.039  1.00  0.00     0.200 A 
HETATM    9  C8  UNL     1      -0.563   0.615  -0.047  1.00  0.00     0.068 A 
HETATM   10  C9  UNL     1      -0.615  -0.803   0.082  1.00  0.00     0.044 A 
HETATM   11  C10 UNL     1       0.615  -1.623   0.311  1.00  0.00     0.198 A 
HETATM   12  O2  UNL     1       0.553  -2.828   0.428  1.00  0.00    -0.286 OA
HETATM   13  C11 UNL     1      -1.869  -1.467  -0.006  1.00  0.00    -0.001 A 
HETATM   14  C12 UNL     1      -3.063  -0.744  -0.221  1.00  0.00    -0.014 A 
HETATM   15  C13 UNL     1      -3.012   0.662  -0.348  1.00  0.00     0.086 A 
HETATM   16  C14 UNL     1      -1.772   1.342  -0.262  1.00  0.00     0.140 A 
HETATM   17  O3  UNL     1      -1.754   2.678  -0.385  1.00  0.00    -0.190 OA
HETATM   18  C16 UNL     1      -4.342  -1.469  -0.309  1.00  0.00     0.031 C 
HETATM   19  O6  UNL     1       0.785   2.566  -0.061  1.00  0.00    -0.286 OA
HETATM   20  O7  UNL     1       3.107  -2.951   0.713  1.00  0.00    -0.188 OA
HETATM   21  O8  UNL     1       5.496  -1.645   0.844  1.00  0.00    -0.188 OA
ENDROOT
BRANCH  15  22
HETATM   22  C15 UNL     1      -4.258   1.432  -0.574  1.00  0.00     0.213 C 
HETATM   23  O4  UNL     1      -3.965   2.426  -1.410  1.00  0.00    -0.644 OA
HETATM   24  O5  UNL     1      -5.359   1.242  -0.115  1.00  0.00    -0.644 OA
ENDBRANCH  15  22
TORSDOF 1
