REMARK  7 active torsions:
REMARK  status: ('A' for Active; 'I' for Inactive)
REMARK    1  A    between atoms: C2_2  and  C24_33 
REMARK    2  A    between atoms: C3_3  and  O7_24 
REMARK    3  A    between atoms: C6_6  and  O2_9 
REMARK    4  A    between atoms: O2_9  and  C8_10 
REMARK    5  A    between atoms: C10_13  and  O5_19 
REMARK    6  A    between atoms: O5_19  and  C15_20 
REMARK    7  A    between atoms: O7_24  and  C18_25 
ROOT
HETATM    1  C1  UNL     1      -1.879  -0.865   0.059  1.00  0.00    -0.013 C 
HETATM    2  C2  UNL     1      -1.967   0.594  -0.311  1.00  0.00     0.071 C 
HETATM    3  C3  UNL     1      -0.619   1.307  -0.553  1.00  0.00     0.134 C 
HETATM    4  C4  UNL     1       0.561   0.883   0.385  1.00  0.00     0.054 C 
HETATM    5  C5  UNL     1       1.342  -0.410  -0.059  1.00  0.00     0.060 C 
HETATM    6  C6  UNL     1       0.512  -1.717   0.139  1.00  0.00     0.161 C 
HETATM    7  C7  UNL     1      -0.873  -1.822  -0.537  1.00  0.00     0.198 C 
HETATM    8  O1  UNL     1      -0.783  -1.656  -1.938  1.00  0.00    -0.216 OA
HETATM    9  C10 UNL     1       2.672  -0.574   0.768  1.00  0.00     0.130 C 
HETATM   10  C11 UNL     1       2.648   0.187   2.105  1.00  0.00     0.068 C 
HETATM   11  C12 UNL     1       2.508   1.703   1.857  1.00  0.00     0.173 C 
HETATM   12  C13 UNL     1       1.592   1.967   0.682  1.00  0.00    -0.012 C 
HETATM   13  C14 UNL     1       1.744   3.082  -0.057  1.00  0.00    -0.007 C 
HETATM   14  O4  UNL     1       2.010   2.328   3.022  1.00  0.00    -0.219 OA
HETATM   15  C17 UNL     1       1.721  -0.297  -1.549  1.00  0.00     0.005 C 
HETATM   16  C20 UNL     1      -2.733   1.185   0.898  1.00  0.00     0.046 C 
HETATM   17  C21 UNL     1      -3.590   0.012   1.398  1.00  0.00     0.171 C 
HETATM   18  C22 UNL     1      -2.789  -1.188   0.986  1.00  0.00    -0.019 C 
HETATM   19  C23 UNL     1      -2.998  -2.565   1.566  1.00  0.00     0.028 C 
HETATM   20  O9  UNL     1      -3.766   0.082   2.799  1.00  0.00    -0.219 OA
ENDROOT
BRANCH   2  21
HETATM   21  C24 UNL     1      -2.889   0.756  -1.520  1.00  0.00     0.132 C 
HETATM   22  C25 UNL     1      -2.213   0.174  -2.760  1.00  0.00     0.033 C 
HETATM   23  O10 UNL     1      -3.106   2.133  -1.740  1.00  0.00    -0.226 OA
HETATM   24  C26 UNL     1      -4.238   0.103  -1.223  1.00  0.00     0.033 C 
ENDBRANCH   2  21
BRANCH   3  25
HETATM   25  O7  UNL     1      -0.877   2.703  -0.438  1.00  0.00    -0.304 OA
BRANCH  25  26
HETATM   26  C18 UNL     1      -0.322   3.402  -1.422  1.00  0.00     0.272 C 
HETATM   27  C19 UNL     1      -0.381   2.756  -2.779  1.00  0.00     0.106 C 
HETATM   28  O8  UNL     1       0.197   4.482  -1.270  1.00  0.00    -0.264 OA
ENDBRANCH  25  26
ENDBRANCH   3  25
BRANCH   6  29
HETATM   29  O2  UNL     1       0.336  -1.947   1.531  1.00  0.00    -0.301 OA
BRANCH  29  30
HETATM   30  C8  UNL     1       0.246  -3.242   1.822  1.00  0.00     0.272 C 
HETATM   31  C9  UNL     1       1.428  -4.074   1.410  1.00  0.00     0.106 C 
HETATM   32  O3  UNL     1      -0.705  -3.742   2.379  1.00  0.00    -0.264 OA
ENDBRANCH  29  30
ENDBRANCH   6  29
BRANCH   9  33
HETATM   33  O5  UNL     1       3.793  -0.102   0.027  1.00  0.00    -0.304 OA
BRANCH  33  34
HETATM   34  C15 UNL     1       4.949  -0.512   0.543  1.00  0.00     0.272 C 
HETATM   35  C16 UNL     1       6.174   0.172  -0.006  1.00  0.00     0.106 C 
HETATM   36  O6  UNL     1       5.043  -1.367   1.393  1.00  0.00    -0.264 OA
ENDBRANCH  33  34
ENDBRANCH   9  33
TORSDOF 7
