REMARK  13 active torsions:
REMARK  status: ('A' for Active; 'I' for Inactive)
REMARK    1  A    between atoms: C3_3  and  O3_10 
REMARK    2  A    between atoms: O3_10  and  C8_11 
REMARK    3  A    between atoms: C10_14  and  O12_47 
REMARK    4  A    between atoms: C17_23  and  O7_25 
REMARK    5  A    between atoms: O7_25  and  C19_26 
REMARK    6  A    between atoms: C19_26  and  C20_28 
REMARK    7  A    between atoms: C20_28  and  C21_29 
REMARK    8  A    between atoms: C21_29  and  N1_30 
REMARK    9  A    between atoms: C21_29  and  C26_36 
REMARK       I    between atoms: N1_30  and  C22_31 
REMARK   10  A    between atoms: C22_31  and  C23_32 
REMARK   11  A    between atoms: C23_32  and  C24_33 
REMARK   12  A    between atoms: O12_47  and  C35_48 
REMARK   13  A    between atoms: C35_48  and  C36_49 
ROOT
HETATM    1  C1  UNL     1       1.598  -2.555  -0.523  1.00  0.00     0.087 C 
HETATM    2  C2  UNL     1       1.813  -1.346   0.729  1.00  0.00     0.070 C 
HETATM    3  C3  UNL     1       3.618  -1.201   0.923  1.00  0.00     0.156 C 
HETATM    4  C4  UNL     1       4.450  -1.281  -0.224  1.00  0.00     0.146 C 
HETATM    5  C5  UNL     1       4.064  -2.735  -0.780  1.00  0.00     0.066 C 
HETATM    6  C6  UNL     1       2.640  -3.518  -0.259  1.00  0.00     0.161 C 
HETATM    7  O1  UNL     1       2.532  -4.664  -1.086  1.00  0.00    -0.223 OA
HETATM    8  O2  UNL     1       3.915   0.006  -0.559  1.00  0.00    -0.351 OA
HETATM    9  C7  UNL     1       3.861   0.232   0.909  1.00  0.00     0.172 C 
HETATM   10  C10 UNL     1       0.722  -0.188   0.045  1.00  0.00     0.156 C 
HETATM   11  C11 UNL     1      -1.087   0.032   0.627  1.00  0.00     0.158 C 
HETATM   12  C12 UNL     1      -1.669   0.292  -0.878  1.00  0.00     0.046 C 
HETATM   13  C13 UNL     1      -1.946  -1.534  -1.192  1.00  0.00    -0.011 C 
HETATM   14  C14 UNL     1      -0.895  -2.528  -1.836  1.00  0.00     0.227 C 
HETATM   15  C15 UNL     1       0.139  -2.956  -0.576  1.00  0.00     0.186 C 
HETATM   16  O5  UNL     1      -0.327  -3.551   0.402  1.00  0.00    -0.293 OA
HETATM   17  O6  UNL     1      -0.437  -1.996  -3.099  1.00  0.00    -0.211 OA
HETATM   18  C16 UNL     1      -3.029  -2.178  -0.681  1.00  0.00    -0.022 C 
HETATM   19  C17 UNL     1      -3.824  -1.441   0.009  1.00  0.00     0.145 C 
HETATM   20  C18 UNL     1      -2.665  -0.806   1.111  1.00  0.00     0.068 C 
HETATM   21  C32 UNL     1      -3.391  -3.666  -0.760  1.00  0.00     0.028 C 
HETATM   22  C33 UNL     1      -0.911   0.999  -2.035  1.00  0.00     0.007 C 
HETATM   23  C34 UNL     1      -2.848   1.375  -0.678  1.00  0.00     0.007 C 
HETATM   24  O11 UNL     1      -0.886   0.892   1.777  1.00  0.00    -0.223 OA
HETATM   25  C42 UNL     1       2.007  -2.239  -2.022  1.00  0.00     0.010 C 
ENDROOT
BRANCH  19  26
HETATM   26  O7  UNL     1      -5.134  -2.115   0.323  1.00  0.00    -0.298 OA
BRANCH  26  27
HETATM   27  C19 UNL     1      -6.322  -1.183   0.419  1.00  0.00     0.305 C 
HETATM   28  O8  UNL     1      -6.159   0.043   0.371  1.00  0.00    -0.261 OA
BRANCH  27  29
HETATM   29  C20 UNL     1      -7.764  -1.803   0.144  1.00  0.00     0.264 C 
HETATM   30  O10 UNL     1      -7.950  -1.727  -1.277  1.00  0.00    -0.210 OA
BRANCH  29  31
HETATM   31  C21 UNL     1      -9.111  -1.137   0.751  1.00  0.00     0.169 C 
BRANCH  31  32
HETATM   32  N1  UNL     1      -9.385   0.274   0.336  1.00  0.00    -0.232 NA
HETATM   33  C22 UNL     1     -10.499   0.921   0.774  1.00  0.00     0.252 C 
HETATM   34  O9  UNL     1     -11.287   0.353   1.541  1.00  0.00    -0.271 OA
BRANCH  33  35
HETATM   35  C23 UNL     1     -10.852   2.298   0.270  1.00  0.00     0.090 C 
BRANCH  35  36
HETATM   36  C24 UNL     1     -12.360   2.548   0.567  1.00  0.00     0.010 C 
HETATM   37  C25 UNL     1     -12.815   3.901  -0.020  1.00  0.00     0.001 C 
ENDBRANCH  35  36
ENDBRANCH  33  35
ENDBRANCH  31  32
BRANCH  31  38
HETATM   38  C26 UNL     1     -10.288  -2.062   0.254  1.00  0.00     0.003 A 
HETATM   39  C27 UNL     1     -11.156  -1.668  -0.691  1.00  0.00    -0.002 A 
HETATM   40  C28 UNL     1     -12.256  -2.538  -1.121  1.00  0.00    -0.000 A 
HETATM   41  C29 UNL     1     -12.392  -3.747  -0.585  1.00  0.00    -0.000 A 
HETATM   42  C30 UNL     1     -11.437  -4.202   0.428  1.00  0.00    -0.000 A 
HETATM   43  C31 UNL     1     -10.444  -3.404   0.828  1.00  0.00    -0.002 A 
ENDBRANCH  31  38
ENDBRANCH  29  31
ENDBRANCH  27  29
ENDBRANCH  26  27
ENDBRANCH  19  26
BRANCH  10  44
HETATM   44  O12 UNL     1       1.436   1.209   0.279  1.00  0.00    -0.298 OA
BRANCH  44  45
HETATM   45  C35 UNL     1       1.037   2.595  -0.018  1.00  0.00     0.296 C 
HETATM   46  O13 UNL     1      -0.138   2.905  -0.341  1.00  0.00    -0.259 OA
BRANCH  45  47
HETATM   47  C36 UNL     1       1.933   3.742   0.102  1.00  0.00     0.063 A 
HETATM   48  C37 UNL     1       1.510   4.939  -0.167  1.00  0.00     0.005 A 
HETATM   49  C38 UNL     1       2.404   6.097  -0.088  1.00  0.00     0.000 A 
HETATM   50  C39 UNL     1       3.679   5.912   0.260  1.00  0.00     0.000 A 
HETATM   51  C40 UNL     1       4.166   4.569   0.563  1.00  0.00     0.000 A 
HETATM   52  C41 UNL     1       3.339   3.519   0.493  1.00  0.00     0.005 A 
ENDBRANCH  45  47
ENDBRANCH  44  45
ENDBRANCH  10  44
BRANCH   3  53
HETATM   53  O3  UNL     1       4.325  -1.736   2.208  1.00  0.00    -0.302 OA
BRANCH  53  54
HETATM   54  C8  UNL     1       5.072  -3.012   2.558  1.00  0.00     0.272 C 
HETATM   55  C9  UNL     1       5.453  -4.189   1.673  1.00  0.00     0.106 C 
HETATM   56  O4  UNL     1       5.523  -3.071   3.706  1.00  0.00    -0.264 OA
ENDBRANCH  53  54
ENDBRANCH   3  53
TORSDOF 13
