REMARK  0 active torsions:
REMARK  status: ('A' for Active; 'I' for Inactive)
ROOT
HETATM    1  C1  UNL     1       2.034   2.644  -0.317  1.00  0.00     0.033 C 
HETATM    2  C2  UNL     1       0.708   1.894  -0.450  1.00  0.00     0.003 C 
HETATM    3  C3  UNL     1       0.668   0.587   0.370  1.00  0.00     0.001 C 
HETATM    4  C4  UNL     1       1.962  -0.228   0.075  1.00  0.00     0.006 C 
HETATM    5  C5  UNL     1       3.349   0.486   0.171  1.00  0.00     0.047 C 
HETATM    6  C6  UNL     1       3.228   1.765  -0.693  1.00  0.00     0.156 C 
HETATM    7  O1  UNL     1       4.362   2.596  -0.615  1.00  0.00    -0.223 OA
HETATM    8  C7  UNL     1       4.442  -0.486  -0.327  1.00  0.00    -0.024 A 
HETATM    9  C8  UNL     1       4.230  -1.875  -0.423  1.00  0.00    -0.024 A 
HETATM   10  C9  UNL     1       2.918  -2.525  -0.061  1.00  0.00     0.026 C 
HETATM   11  C10 UNL     1       2.008  -1.605   0.754  1.00  0.00     0.005 C 
HETATM   12  C11 UNL     1       5.257  -2.722  -0.859  1.00  0.00     0.023 A 
HETATM   13  C12 UNL     1       6.533  -2.263  -1.185  1.00  0.00     0.131 A 
HETATM   14  C13 UNL     1       6.766  -0.899  -1.016  1.00  0.00     0.027 A 
HETATM   15  C14 UNL     1       5.749  -0.047  -0.590  1.00  0.00    -0.002 A 
HETATM   16  O2  UNL     1       7.523  -3.104  -1.585  1.00  0.00    -0.190 OA
HETATM   17  C15 UNL     1       3.790   0.839   1.611  1.00  0.00     0.007 C 
HETATM   18  C16 UNL     1      -0.591  -0.185  -0.115  1.00  0.00     0.000 C 
HETATM   19  C17 UNL     1       0.430   0.889   1.864  1.00  0.00     0.000 C 
ENDROOT
TORSDOF 0
