REMARK  1 active torsions:
REMARK  status: ('A' for Active; 'I' for Inactive)
REMARK    1  A    between atoms: C12_13  and  C15_16 
ROOT
HETATM    1  C1  UNL     1       0.420  -0.599  -2.626  1.00  0.00     0.033 C 
HETATM    2  C2  UNL     1      -0.387  -1.470  -1.662  1.00  0.00     0.003 C 
HETATM    3  C3  UNL     1       0.542  -2.305  -0.751  1.00  0.00     0.000 C 
HETATM    4  C4  UNL     1       1.873  -1.542  -0.465  1.00  0.00     0.002 C 
HETATM    5  C5  UNL     1       1.806   0.017  -0.500  1.00  0.00     0.028 C 
HETATM    6  C6  UNL     1       1.244   0.453  -1.881  1.00  0.00     0.152 C 
HETATM    7  O1  UNL     1       0.467   1.623  -1.763  1.00  0.00    -0.224 OA
HETATM    8  C7  UNL     1       3.262   0.584  -0.349  1.00  0.00     0.005 C 
HETATM    9  C8  UNL     1       4.006   0.049   0.894  1.00  0.00     0.031 C 
HETATM   10  C9  UNL     1       4.031  -1.488   0.883  1.00  0.00     0.003 C 
HETATM   11  C10 UNL     1       2.618  -2.072   0.776  1.00  0.00     0.000 C 
HETATM   12  C11 UNL     1       5.431   0.609   1.036  1.00  0.00     0.156 C 
HETATM   13  C12 UNL     1       5.506   2.144   1.002  1.00  0.00     0.047 C 
HETATM   14  C13 UNL     1       4.803   2.631  -0.284  1.00  0.00     0.006 C 
HETATM   15  C14 UNL     1       3.360   2.123  -0.410  1.00  0.00     0.001 C 
HETATM   16  C17 UNL     1       4.852   2.775   2.251  1.00  0.00     0.007 C 
HETATM   17  O2  UNL     1       6.248   0.087   0.012  1.00  0.00    -0.223 OA
HETATM   18  C18 UNL     1       0.912   0.546   0.649  1.00  0.00     0.003 C 
HETATM   19  C19 UNL     1      -0.242  -2.701   0.521  1.00  0.00     0.000 C 
HETATM   20  C20 UNL     1       0.863  -3.633  -1.487  1.00  0.00     0.000 C 
ENDROOT
BRANCH  13  21
HETATM   21  C15 UNL     1       6.962   2.590   0.975  1.00  0.00    -0.024 C 
HETATM   22  C16 UNL     1       7.851   2.364   1.954  1.00  0.00    -0.005 C 
ENDBRANCH  13  21
TORSDOF 1
