REMARK  0 active torsions:
REMARK  status: ('A' for Active; 'I' for Inactive)
ROOT
HETATM    1  C1  UNL     1      -1.681   0.660  -1.528  1.00  0.00     0.035 C 
HETATM    2  C2  UNL     1      -2.099  -0.608  -0.794  1.00  0.00     0.032 C 
HETATM    3  C3  UNL     1      -1.174  -1.762  -1.070  1.00  0.00     0.121 A 
HETATM    4  C4  UNL     1      -0.103  -2.039  -0.106  1.00  0.00     0.174 A 
HETATM    5  C5  UNL     1       0.004  -1.159   1.110  1.00  0.00     0.202 C 
HETATM    6  C6  UNL     1       1.268  -0.357   1.124  1.00  0.00     0.017 A 
HETATM    7  C7  UNL     1       1.268   1.140   1.124  1.00  0.00     0.148 A 
HETATM    8  C8  UNL     1       0.680   1.648  -0.186  1.00  0.00     0.064 C 
HETATM    9  C9  UNL     1      -0.615   2.388   0.015  1.00  0.00     0.120 A 
HETATM   10  C10 UNL     1      -1.812   1.889  -0.670  1.00  0.00     0.140 A 
HETATM   11  O1  UNL     1      -1.616   1.670   0.751  1.00  0.00    -0.357 OA
HETATM   12  C11 UNL     1       0.047   3.737   0.104  1.00  0.00     0.032 C 
HETATM   13  O2  UNL     1       2.628   1.480   1.135  1.00  0.00    -0.297 OA
HETATM   14  C12 UNL     1       3.420   0.168   1.138  1.00  0.00     0.291 A 
HETATM   15  C13 UNL     1       2.516  -0.836   1.124  1.00  0.00     0.038 A 
HETATM   16  C14 UNL     1       2.866  -2.291   1.109  1.00  0.00     0.036 C 
HETATM   17  O3  UNL     1       4.623   0.054   1.152  1.00  0.00    -0.260 OA
HETATM   18  O4  UNL     1      -1.087  -0.279   1.126  1.00  0.00    -0.216 OA
HETATM   19  O5  UNL     1       0.201  -1.393  -1.351  1.00  0.00    -0.354 OA
HETATM   20  C15 UNL     1      -2.242  -2.599  -1.720  1.00  0.00     0.032 C 
ENDROOT
TORSDOF 0
