REMARK  0 active torsions:
REMARK  status: ('A' for Active; 'I' for Inactive)
ROOT
HETATM    1  C1  UNL     1       0.618   2.083  -0.804  1.00  0.00     0.123 A 
HETATM    2  C2  UNL     1      -0.700   1.408  -0.750  1.00  0.00     0.173 A 
HETATM    3  C3  UNL     1      -0.842  -0.120  -0.572  1.00  0.00     0.053 C 
HETATM    4  C4  UNL     1      -0.253  -0.714   0.721  1.00  0.00     0.018 C 
HETATM    5  C5  UNL     1       1.286  -0.866   0.652  1.00  0.00     0.026 C 
HETATM    6  C6  UNL     1       2.088   0.436   0.651  1.00  0.00     0.007 C 
HETATM    7  C7  UNL     1       1.900   1.278  -0.622  1.00  0.00     0.030 C 
HETATM    8  C8  UNL     1       1.568  -1.812   1.797  1.00  0.00     0.012 C 
HETATM    9  C9  UNL     1       0.388  -2.668   2.027  1.00  0.00     0.169 C 
HETATM   10  C10 UNL     1      -0.709  -2.131   1.128  1.00  0.00     0.070 C 
HETATM   11  O1  UNL     1       0.296  -3.631   2.776  1.00  0.00    -0.292 OA
HETATM   12  C11 UNL     1       2.692  -1.935   2.526  1.00  0.00    -0.002 C 
HETATM   13  C12 UNL     1      -2.333  -0.291  -0.842  1.00  0.00    -0.038 C 
HETATM   14  C13 UNL     1      -2.924   0.832  -1.287  1.00  0.00     0.032 C 
HETATM   15  C14 UNL     1      -1.939   1.926  -1.342  1.00  0.00     0.199 C 
HETATM   16  O2  UNL     1      -2.185   3.037  -1.786  1.00  0.00    -0.289 OA
HETATM   17  C15 UNL     1      -3.073  -1.598  -0.787  1.00  0.00     0.026 C 
HETATM   18  O3  UNL     1      -0.202   2.165   0.372  1.00  0.00    -0.351 OA
HETATM   19  C16 UNL     1       0.795   3.399  -1.549  1.00  0.00     0.033 C 
ENDROOT
TORSDOF 0
