REMARK  12 active torsions:
REMARK  status: ('A' for Active; 'I' for Inactive)
REMARK    1  A    between atoms: C4_4  and  C7_7 
REMARK    2  A    between atoms: C7_7  and  C8_8 
REMARK    3  A    between atoms: C8_8  and  C9_9 
REMARK    4  A    between atoms: C9_9  and  O1_10 
REMARK    5  A    between atoms: O1_10  and  C10_11 
REMARK    6  A    between atoms: C13_14  and  O7_35 
REMARK    7  A    between atoms: C16_17  and  O4_26 
REMARK    8  A    between atoms: C17_18  and  O2_22 
REMARK    9  A    between atoms: O2_22  and  C21_23 
REMARK   10  A    between atoms: O4_26  and  C23_27 
REMARK   11  A    between atoms: O7_35  and  C29_36 
REMARK   12  A    between atoms: C29_36  and  C30_38 
ROOT
HETATM    1  C10 UNL     1       2.076   0.687   0.086  1.00  0.00     0.123 C 
HETATM    2  C11 UNL     1       3.335  -0.202   0.185  1.00  0.00     0.035 C 
HETATM    3  C12 UNL     1       3.083  -1.728   0.174  1.00  0.00     0.058 C 
HETATM    4  C13 UNL     1       2.311  -2.031  -1.105  1.00  0.00     0.152 C 
HETATM    5  C14 UNL     1       0.947  -1.492  -0.642  1.00  0.00     0.122 C 
HETATM    6  C15 UNL     1       0.935   0.068  -0.789  1.00  0.00     0.078 C 
HETATM    7  C16 UNL     1      -0.459   0.595  -0.336  1.00  0.00     0.156 C 
HETATM    8  C17 UNL     1      -1.669  -0.037  -1.024  1.00  0.00     0.152 C 
HETATM    9  C18 UNL     1      -1.608  -1.560  -0.865  1.00  0.00     0.035 C 
HETATM   10  C19 UNL     1      -0.269  -2.181  -1.311  1.00  0.00     0.030 C 
HETATM   11  C20 UNL     1      -0.248  -2.392  -2.840  1.00  0.00     0.003 C 
HETATM   12  C25 UNL     1       1.244   0.561  -2.232  1.00  0.00     0.007 C 
HETATM   13  O6  UNL     1       0.865  -1.752   0.748  1.00  0.00    -0.361 OA
HETATM   14  C26 UNL     1       2.086  -2.227   1.225  1.00  0.00     0.095 C 
HETATM   15  C27 UNL     1       1.979  -3.760   1.369  1.00  0.00     0.030 C 
HETATM   16  C28 UNL     1       2.381  -1.740   2.652  1.00  0.00     0.030 C 
ENDROOT
BRANCH   1  17
HETATM   17  O1  UNL     1       1.597   1.024   1.357  1.00  0.00    -0.331 OA
BRANCH  17  18
HETATM   18  C9  UNL     1       2.255   1.954   2.101  1.00  0.00     0.270 C 
HETATM   19  O9  UNL     1       3.263   2.653   1.619  1.00  0.00    -0.190 OA
BRANCH  18  20
HETATM   20  C8  UNL     1       1.887   2.167   3.563  1.00  0.00     0.069 C 
BRANCH  20  21
HETATM   21  C7  UNL     1       0.866   3.205   3.947  1.00  0.00     0.027 C 
BRANCH  21  22
HETATM   22  C4  UNL     1       0.310   3.235   5.348  1.00  0.00    -0.048 C 
HETATM   23  C3  UNL     1      -0.849   2.467   5.642  1.00  0.00     0.022 C 
HETATM   24  C2  UNL     1      -1.325   2.316   7.060  1.00  0.00     0.005 C 
HETATM   25  C1  UNL     1      -0.839   3.331   8.062  1.00  0.00     0.005 C 
HETATM   26  C6  UNL     1       0.457   4.033   7.734  1.00  0.00     0.025 C 
HETATM   27  C5  UNL     1       0.984   3.921   6.331  1.00  0.00    -0.035 C 
ENDBRANCH  21  22
ENDBRANCH  20  21
ENDBRANCH  18  20
ENDBRANCH  17  18
ENDBRANCH   1  17
BRANCH   7  28
HETATM   28  O4  UNL     1      -0.507   1.991  -0.446  1.00  0.00    -0.302 OA
BRANCH  28  29
HETATM   29  C23 UNL     1      -1.236   2.694   0.465  1.00  0.00     0.272 C 
HETATM   30  C24 UNL     1      -1.168   4.175   0.152  1.00  0.00     0.106 C 
HETATM   31  O5  UNL     1      -1.844   2.216   1.396  1.00  0.00    -0.264 OA
ENDBRANCH  28  29
ENDBRANCH   7  28
BRANCH   4  32
HETATM   32  O7  UNL     1       2.331  -3.401  -1.373  1.00  0.00    -0.298 OA
BRANCH  32  33
HETATM   33  C29 UNL     1       2.861  -3.919  -2.522  1.00  0.00     0.296 C 
HETATM   34  O8  UNL     1       2.704  -5.117  -2.742  1.00  0.00    -0.259 OA
BRANCH  33  35
HETATM   35  C30 UNL     1       3.624  -3.173  -3.578  1.00  0.00     0.063 A 
HETATM   36  C31 UNL     1       3.329  -3.420  -4.925  1.00  0.00     0.005 A 
HETATM   37  C32 UNL     1       4.003  -2.723  -5.931  1.00  0.00     0.000 A 
HETATM   38  C33 UNL     1       4.982  -1.786  -5.595  1.00  0.00     0.000 A 
HETATM   39  C34 UNL     1       5.297  -1.557  -4.253  1.00  0.00     0.000 A 
HETATM   40  C35 UNL     1       4.626  -2.252  -3.246  1.00  0.00     0.005 A 
ENDBRANCH  33  35
ENDBRANCH  32  33
ENDBRANCH   4  32
BRANCH   8  41
HETATM   41  O2  UNL     1      -1.728   0.299  -2.377  1.00  0.00    -0.302 OA
BRANCH  41  42
HETATM   42  C21 UNL     1      -2.454   1.378  -2.775  1.00  0.00     0.272 C 
HETATM   43  C22 UNL     1      -2.304   1.569  -4.272  1.00  0.00     0.106 C 
HETATM   44  O3  UNL     1      -3.104   2.097  -2.050  1.00  0.00    -0.264 OA
ENDBRANCH  41  42
ENDBRANCH   8  41
TORSDOF 12
