REMARK  4 active torsions:
REMARK  status: ('A' for Active; 'I' for Inactive)
REMARK    1  A    between atoms: C9_10  and  C11_13 
REMARK    2  A    between atoms: C11_13  and  C12_14 
REMARK    3  A    between atoms: C12_14  and  O3_15 
REMARK    4  A    between atoms: O3_15  and  C13_16 
ROOT
HETATM    1  C1  UNL     1       1.979  -3.033   2.579  1.00  0.00     0.037 C 
HETATM    2  C2  UNL     1       0.591  -2.757   2.026  1.00  0.00     0.025 C 
HETATM    3  C3  UNL     1       0.479  -1.350   1.433  1.00  0.00    -0.042 C 
HETATM    4  C4  UNL     1       1.807  -0.805   0.873  1.00  0.00     0.051 C 
HETATM    5  C5  UNL     1       2.709  -1.944   0.366  1.00  0.00     0.034 C 
HETATM    6  C6  UNL     1       3.058  -2.928   1.499  1.00  0.00     0.153 C 
HETATM    7  O1  UNL     1       3.244  -4.199   0.938  1.00  0.00    -0.223 OA
HETATM    8  C7  UNL     1       3.989  -1.410  -0.293  1.00  0.00     0.003 C 
HETATM    9  C8  UNL     1       3.686  -0.383  -1.379  1.00  0.00     0.007 C 
HETATM   10  C9  UNL     1       2.832   0.760  -0.841  1.00  0.00     0.058 C 
HETATM   11  C10 UNL     1       1.539   0.242  -0.217  1.00  0.00     0.160 C 
HETATM   12  O2  UNL     1       0.848   1.321   0.351  1.00  0.00    -0.223 OA
HETATM   13  C16 UNL     1       1.917  -2.695  -0.697  1.00  0.00     0.003 C 
HETATM   14  C17 UNL     1      -0.664  -0.658   1.405  1.00  0.00    -0.009 C 
ENDROOT
BRANCH  10  15
HETATM   15  C11 UNL     1       2.492   1.686  -1.967  1.00  0.00     0.043 C 
HETATM   16  C15 UNL     1       1.794   1.236  -3.015  1.00  0.00     0.001 C 
BRANCH  15  17
HETATM   17  C12 UNL     1       2.891   2.976  -1.925  1.00  0.00     0.292 C 
HETATM   18  O4  UNL     1       2.617   3.723  -2.833  1.00  0.00    -0.260 OA
BRANCH  17  19
HETATM   19  O3  UNL     1       3.590   3.426  -0.876  1.00  0.00    -0.299 OA
BRANCH  19  20
HETATM   20  C13 UNL     1       4.004   4.764  -0.832  1.00  0.00     0.152 C 
HETATM   21  C14 UNL     1       4.775   5.016   0.457  1.00  0.00     0.035 C 
ENDBRANCH  19  20
ENDBRANCH  17  19
ENDBRANCH  15  17
ENDBRANCH  10  15
TORSDOF 4
