REMARK  7 active torsions:
REMARK  status: ('A' for Active; 'I' for Inactive)
REMARK    1  A    between atoms: C6_6  and  O1_7 
REMARK    2  A    between atoms: O1_7  and  C7_8 
REMARK    3  A    between atoms: C9_11  and  O6_23 
REMARK    4  A    between atoms: C10_12  and  O4_19 
REMARK    5  A    between atoms: O4_19  and  C16_20 
REMARK    6  A    between atoms: O6_23  and  C18_24 
REMARK    7  A    between atoms: C18_24  and  C19_26 
ROOT
HETATM    1  C1  UNL     1      -2.228  -0.511  -1.983  1.00  0.00     0.030 C 
HETATM    2  C2  UNL     1      -2.098  -2.026  -1.783  1.00  0.00     0.005 C 
HETATM    3  C3  UNL     1      -0.674  -2.526  -2.087  1.00  0.00     0.025 C 
HETATM    4  C4  UNL     1       0.380  -1.708  -1.307  1.00  0.00     0.097 C 
HETATM    5  C5  UNL     1       0.256  -0.154  -1.439  1.00  0.00     0.076 C 
HETATM    6  C6  UNL     1      -1.214   0.235  -1.113  1.00  0.00     0.129 C 
HETATM    7  C9  UNL     1       1.231   0.506  -0.416  1.00  0.00     0.157 C 
HETATM    8  C10 UNL     1       2.587  -0.213  -0.319  1.00  0.00     0.154 C 
HETATM    9  C11 UNL     1       2.465  -1.748  -0.306  1.00  0.00     0.058 C 
HETATM   10  C12 UNL     1       1.811  -2.146  -1.632  1.00  0.00     0.032 C 
HETATM   11  C13 UNL     1       1.422  -2.335   0.653  1.00  0.00     0.095 C 
HETATM   12  O3  UNL     1       0.199  -2.026   0.058  1.00  0.00    -0.364 OA
HETATM   13  C14 UNL     1       1.536  -3.868   0.779  1.00  0.00     0.030 C 
HETATM   14  C15 UNL     1       1.469  -1.804   2.093  1.00  0.00     0.030 C 
HETATM   15  C25 UNL     1       0.633   0.383  -2.844  1.00  0.00     0.007 C 
HETATM   16  C26 UNL     1      -0.468  -2.715  -3.601  1.00  0.00     0.002 C 
ENDROOT
BRANCH   7  17
HETATM   17  O6  UNL     1       1.450   1.855  -0.726  1.00  0.00    -0.298 OA
BRANCH  17  18
HETATM   18  C18 UNL     1       1.575   2.816   0.238  1.00  0.00     0.296 C 
HETATM   19  O7  UNL     1       1.918   3.944  -0.106  1.00  0.00    -0.259 OA
BRANCH  18  20
HETATM   20  C19 UNL     1       1.326   2.661   1.714  1.00  0.00     0.063 A 
HETATM   21  C20 UNL     1       2.290   3.131   2.613  1.00  0.00     0.005 A 
HETATM   22  C21 UNL     1       2.084   3.007   3.989  1.00  0.00     0.000 A 
HETATM   23  C22 UNL     1       0.906   2.436   4.471  1.00  0.00     0.000 A 
HETATM   24  C23 UNL     1      -0.074   2.000   3.577  1.00  0.00     0.000 A 
HETATM   25  C24 UNL     1       0.130   2.123   2.201  1.00  0.00     0.005 A 
ENDBRANCH  18  20
ENDBRANCH  17  18
ENDBRANCH   7  17
BRANCH   8  26
HETATM   26  O4  UNL     1       3.265   0.239   0.820  1.00  0.00    -0.302 OA
BRANCH  26  27
HETATM   27  C16 UNL     1       4.620   0.132   0.851  1.00  0.00     0.272 C 
HETATM   28  C17 UNL     1       5.146   0.571   2.203  1.00  0.00     0.106 C 
HETATM   29  O5  UNL     1       5.308  -0.283  -0.054  1.00  0.00    -0.264 OA
ENDBRANCH  26  27
ENDBRANCH   8  26
BRANCH   6  30
HETATM   30  O1  UNL     1      -1.383   1.617  -1.245  1.00  0.00    -0.304 OA
BRANCH  30  31
HETATM   31  C7  UNL     1      -2.420   2.217  -0.603  1.00  0.00     0.272 C 
HETATM   32  C8  UNL     1      -2.376   3.713  -0.844  1.00  0.00     0.106 C 
HETATM   33  O2  UNL     1      -3.239   1.654   0.085  1.00  0.00    -0.264 OA
ENDBRANCH  30  31
ENDBRANCH   6  30
TORSDOF 7
