REMARK  2 active torsions:
REMARK  status: ('A' for Active; 'I' for Inactive)
REMARK    1  A    between atoms: C6_6  and  O1_7 
REMARK    2  A    between atoms: O1_7  and  C7_8 
ROOT
HETATM    1  C1  UNL     1      -2.307  -0.133   0.052  1.00  0.00     0.030 C 
HETATM    2  C2  UNL     1      -1.984  -1.118   1.175  1.00  0.00     0.003 C 
HETATM    3  C3  UNL     1      -0.871  -2.107   0.760  1.00  0.00     0.001 C 
HETATM    4  C4  UNL     1       0.154  -1.420  -0.198  1.00  0.00     0.007 C 
HETATM    5  C5  UNL     1       0.262   0.138  -0.082  1.00  0.00     0.035 C 
HETATM    6  C6  UNL     1      -1.132   0.817  -0.207  1.00  0.00     0.125 C 
HETATM    7  C9  UNL     1       1.100   0.593  -1.308  1.00  0.00     0.089 C 
HETATM    8  C10 UNL     1       2.412  -0.113  -1.344  1.00  0.00     0.042 C 
HETATM    9  C11 UNL     1       2.631  -1.367  -0.924  1.00  0.00    -0.025 C 
HETATM   10  C12 UNL     1       1.525  -2.145  -0.258  1.00  0.00     0.026 C 
HETATM   11  C13 UNL     1       3.381   0.850  -1.881  1.00  0.00     0.294 C 
HETATM   12  O3  UNL     1       2.865   2.105  -1.965  1.00  0.00    -0.269 OA
HETATM   13  C14 UNL     1       1.525   2.052  -1.489  1.00  0.00     0.280 C 
HETATM   14  O4  UNL     1       0.768   2.684  -2.509  1.00  0.00    -0.189 OA
HETATM   15  O5  UNL     1       4.534   0.568  -2.190  1.00  0.00    -0.259 OA
HETATM   16  C15 UNL     1       0.994   0.503   1.232  1.00  0.00     0.003 C 
HETATM   17  C16 UNL     1      -0.254  -2.688   2.054  1.00  0.00     0.000 C 
HETATM   18  C17 UNL     1      -1.526  -3.306   0.024  1.00  0.00     0.000 C 
ENDROOT
BRANCH   6  19
HETATM   19  O1  UNL     1      -1.244   1.917   0.657  1.00  0.00    -0.304 OA
BRANCH  19  20
HETATM   20  C7  UNL     1      -1.369   3.170   0.140  1.00  0.00     0.272 C 
HETATM   21  C8  UNL     1      -1.504   4.186   1.256  1.00  0.00     0.106 C 
HETATM   22  O2  UNL     1      -1.352   3.452  -1.036  1.00  0.00    -0.264 OA
ENDBRANCH  19  20
ENDBRANCH   6  19
TORSDOF 2
