REMARK  14 active torsions:
REMARK  status: ('A' for Active; 'I' for Inactive)
REMARK    1  A    between atoms: C1_1  and  O14_42 
REMARK    2  A    between atoms: C5_5  and  C23_32 
REMARK    3  A    between atoms: C6_6  and  O1_7 
REMARK    4  A    between atoms: O1_7  and  C7_8 
REMARK    5  A    between atoms: C9_11  and  O7_24 
REMARK    6  A    between atoms: C10_12  and  O5_20 
REMARK    7  A    between atoms: C11_13  and  O3_16 
REMARK    8  A    between atoms: O3_16  and  C14_17 
REMARK    9  A    between atoms: O5_20  and  C16_21 
REMARK   10  A    between atoms: O7_24  and  C18_25 
REMARK   11  A    between atoms: C18_25  and  C19_27 
REMARK   12  A    between atoms: C23_32  and  O10_33 
REMARK   13  A    between atoms: O10_33  and  C24_34 
REMARK   14  A    between atoms: O14_42  and  C29_43 
ROOT
HETATM    1  C1  UNL     1       5.203  -0.207   0.625  1.00  0.00     0.157 C 
HETATM    2  C2  UNL     1       4.950  -1.728   0.656  1.00  0.00     0.088 C 
HETATM    3  C3  UNL     1       4.259  -2.067  -0.661  1.00  0.00     0.182 C 
HETATM    4  C4  UNL     1       2.862  -1.550  -0.315  1.00  0.00     0.130 C 
HETATM    5  C5  UNL     1       2.849   0.018  -0.474  1.00  0.00     0.109 C 
HETATM    6  C6  UNL     1       3.906   0.616   0.513  1.00  0.00     0.159 C 
HETATM    7  C9  UNL     1       1.426   0.487  -0.046  1.00  0.00     0.162 C 
HETATM    8  C10 UNL     1       0.278  -0.152  -0.830  1.00  0.00     0.180 C 
HETATM    9  C11 UNL     1       0.312  -1.680  -0.730  1.00  0.00     0.157 C 
HETATM   10  C12 UNL     1       1.702  -2.270  -1.053  1.00  0.00     0.058 C 
HETATM   11  C13 UNL     1       1.852  -2.551  -2.564  1.00  0.00     0.005 C 
HETATM   12  O12 UNL     1       2.687  -1.825   1.063  1.00  0.00    -0.361 OA
HETATM   13  C26 UNL     1       3.889  -2.199   1.659  1.00  0.00     0.098 C 
HETATM   14  C27 UNL     1       3.871  -3.724   1.888  1.00  0.00     0.030 C 
HETATM   15  C28 UNL     1       4.005  -1.598   3.070  1.00  0.00     0.030 C 
HETATM   16  O13 UNL     1       4.315  -3.448  -0.921  1.00  0.00    -0.221 OA
ENDROOT
BRANCH   7  17
HETATM   17  O7  UNL     1       1.304   1.879  -0.074  1.00  0.00    -0.298 OA
BRANCH  17  18
HETATM   18  C18 UNL     1       0.690   2.604   0.910  1.00  0.00     0.298 C 
HETATM   19  O8  UNL     1       0.493   3.799   0.689  1.00  0.00    -0.259 OA
BRANCH  18  20
HETATM   20  C19 UNL     1       0.209   2.165   2.249  1.00  0.00     0.090 A 
HETATM   21  C20 UNL     1      -0.837   2.752   2.909  1.00  0.00     0.128 A 
HETATM   22  O9  UNL     1      -1.058   2.142   4.103  1.00  0.00    -0.303 OA
HETATM   23  C21 UNL     1      -0.114   1.163   4.214  1.00  0.00     0.123 A 
HETATM   24  C22 UNL     1       0.692   1.127   3.117  1.00  0.00     0.034 A 
ENDBRANCH  18  20
ENDBRANCH  17  18
ENDBRANCH   7  17
BRANCH   5  25
HETATM   25  C23 UNL     1       3.244   0.458  -1.912  1.00  0.00     0.159 C 
BRANCH  25  26
HETATM   26  O10 UNL     1       2.825   1.762  -2.222  1.00  0.00    -0.301 OA
BRANCH  26  27
HETATM   27  C24 UNL     1       2.960   2.288  -3.473  1.00  0.00     0.272 C 
HETATM   28  O11 UNL     1       2.576   3.405  -3.749  1.00  0.00    -0.264 OA
HETATM   29  C25 UNL     1       3.620   1.400  -4.514  1.00  0.00     0.106 C 
ENDBRANCH  26  27
ENDBRANCH  25  26
ENDBRANCH   5  25
BRANCH   8  30
HETATM   30  O5  UNL     1       0.317   0.283  -2.158  1.00  0.00    -0.299 OA
BRANCH  30  31
HETATM   31  C16 UNL     1      -0.853   0.502  -2.814  1.00  0.00     0.273 C 
HETATM   32  C17 UNL     1      -0.582   1.184  -4.139  1.00  0.00     0.106 C 
HETATM   33  O6  UNL     1      -1.949   0.221  -2.386  1.00  0.00    -0.264 OA
ENDBRANCH  30  31
ENDBRANCH   8  30
BRANCH   6  34
HETATM   34  O1  UNL     1       4.217   1.935   0.156  1.00  0.00    -0.301 OA
BRANCH  34  35
HETATM   35  C7  UNL     1       4.198   2.914   1.100  1.00  0.00     0.272 C 
HETATM   36  C8  UNL     1       4.485   4.253   0.455  1.00  0.00     0.106 C 
HETATM   37  O2  UNL     1       3.969   2.743   2.275  1.00  0.00    -0.264 OA
ENDBRANCH  34  35
ENDBRANCH   6  34
BRANCH   9  38
HETATM   38  O3  UNL     1      -0.040  -2.052   0.579  1.00  0.00    -0.302 OA
BRANCH  38  39
HETATM   39  C14 UNL     1      -1.261  -2.531   0.954  1.00  0.00     0.272 C 
HETATM   40  O4  UNL     1      -1.500  -2.828   2.105  1.00  0.00    -0.264 OA
HETATM   41  C15 UNL     1      -2.318  -2.671  -0.126  1.00  0.00     0.106 C 
ENDBRANCH  38  39
ENDBRANCH   9  38
BRANCH   1  42
HETATM   42  O14 UNL     1       5.927   0.158   1.768  1.00  0.00    -0.302 OA
BRANCH  42  43
HETATM   43  C29 UNL     1       6.880   1.124   1.670  1.00  0.00     0.272 C 
HETATM   44  C30 UNL     1       7.476   1.401   3.035  1.00  0.00     0.106 C 
HETATM   45  O15 UNL     1       7.193   1.698   0.652  1.00  0.00    -0.264 OA
ENDBRANCH  42  43
ENDBRANCH   1  42
TORSDOF 14
