REMARK  2 active torsions:
REMARK  status: ('A' for Active; 'I' for Inactive)
REMARK    1  A    between atoms: C9_10  and  C11_12 
REMARK    2  A    between atoms: C11_12  and  C13_14 
ROOT
HETATM    1  C1  UNL     1       0.793  -1.973   2.804  1.00  0.00     0.037 C 
HETATM    2  C2  UNL     1      -0.673  -1.796   2.405  1.00  0.00     0.025 C 
HETATM    3  C3  UNL     1      -0.861  -0.560   1.554  1.00  0.00    -0.044 C 
HETATM    4  C4  UNL     1       0.395   0.007   0.908  1.00  0.00     0.021 C 
HETATM    5  C5  UNL     1       1.298  -1.144   0.391  1.00  0.00     0.032 C 
HETATM    6  C6  UNL     1       1.713  -2.047   1.583  1.00  0.00     0.153 C 
HETATM    7  O1  UNL     1       1.831  -3.392   1.179  1.00  0.00    -0.223 OA
HETATM    8  C7  UNL     1       2.585  -0.542  -0.228  1.00  0.00     0.003 C 
HETATM    9  C8  UNL     1       2.318   0.494  -1.328  1.00  0.00     0.005 C 
HETATM   10  C9  UNL     1       1.436   1.629  -0.787  1.00  0.00     0.029 C 
HETATM   11  C10 UNL     1       0.140   1.097  -0.153  1.00  0.00     0.009 C 
HETATM   12  C14 UNL     1       0.559  -1.962  -0.698  1.00  0.00     0.003 C 
HETATM   13  C15 UNL     1      -2.089  -0.033   1.420  1.00  0.00    -0.009 C 
ENDROOT
BRANCH  10  14
HETATM   14  C11 UNL     1       1.165   2.691  -1.842  1.00  0.00     0.042 C 
HETATM   15  C12 UNL     1       1.601   3.956  -1.674  1.00  0.00     0.002 C 
BRANCH  14  16
HETATM   16  C13 UNL     1       0.416   2.379  -3.092  1.00  0.00     0.207 C 
HETATM   17  O2  UNL     1      -0.009   1.252  -3.310  1.00  0.00    -0.644 OA
HETATM   18  O3  UNL     1       0.162   3.300  -4.046  1.00  0.00    -0.644 OA
ENDBRANCH  14  16
ENDBRANCH  10  14
TORSDOF 2
