REMARK  0 active torsions:
REMARK  status: ('A' for Active; 'I' for Inactive)
ROOT
HETATM    1  C3  UNL     1      -0.307   0.891  -0.368  1.00  0.00     0.068 C 
HETATM    2  C4  UNL     1      -0.005  -0.614  -0.210  1.00  0.00     0.135 C 
HETATM    3  C5  UNL     1       0.053  -1.043   1.275  1.00  0.00     0.086 C 
HETATM    4  C6  UNL     1       1.304  -0.344   1.897  1.00  0.00     0.182 C 
HETATM    5  C7  UNL     1       1.619   1.051   1.324  1.00  0.00     0.178 C 
HETATM    6  C8  UNL     1       0.939   1.668   0.106  1.00  0.00     0.072 C 
HETATM    7  O1  UNL     1       2.574   1.607   1.820  1.00  0.00    -0.293 OA
HETATM    8  C9  UNL     1       1.310  -0.249   3.432  1.00  0.00     0.041 C 
HETATM    9  O2  UNL     1       2.459  -1.104   1.590  1.00  0.00    -0.218 OA
HETATM   10  C10 UNL     1      -1.205  -0.745   2.136  1.00  0.00     0.157 C 
HETATM   11  O3  UNL     1      -2.412  -0.650   1.434  1.00  0.00    -0.302 OA
HETATM   12  C11 UNL     1      -2.650   0.433   0.645  1.00  0.00     0.272 C 
HETATM   13  C12 UNL     1      -1.481   1.391   0.510  1.00  0.00     0.101 C 
HETATM   14  O4  UNL     1      -3.708   0.615   0.082  1.00  0.00    -0.264 OA
HETATM   15  C13 UNL     1       0.205  -2.591   1.322  1.00  0.00     0.008 C 
HETATM   16  C14 UNL     1      -0.958  -1.338  -1.170  1.00  0.00     0.033 C 
HETATM   17  C15 UNL     1      -1.383  -0.289  -2.213  1.00  0.00     0.033 C 
HETATM   18  C16 UNL     1      -0.642   1.012  -1.879  1.00  0.00     0.130 C 
HETATM   19  C17 UNL     1      -1.421   2.247  -2.333  1.00  0.00     0.033 C 
HETATM   20  O5  UNL     1       0.543   1.027  -2.638  1.00  0.00    -0.226 OA
HETATM   21  O6  UNL     1       1.280  -0.852  -0.756  1.00  0.00    -0.226 OA
ENDROOT
TORSDOF 0
