REMARK  0 active torsions:
REMARK  status: ('A' for Active; 'I' for Inactive)
ROOT
HETATM    1  C1  UNL     1      -2.276   0.807   0.146  1.00  0.00     0.034 C 
HETATM    2  C2  UNL     1      -2.178  -0.690  -0.167  1.00  0.00     0.007 C 
HETATM    3  C3  UNL     1      -0.831  -1.285   0.269  1.00  0.00     0.018 C 
HETATM    4  C4  UNL     1       0.335  -0.450  -0.236  1.00  0.00    -0.047 C 
HETATM    5  C5  UNL     1       0.282   1.063  -0.078  1.00  0.00     0.045 C 
HETATM    6  C6  UNL     1      -1.116   1.556  -0.507  1.00  0.00     0.155 C 
HETATM    7  O1  UNL     1      -1.252   2.933  -0.244  1.00  0.00    -0.223 OA
HETATM    8  C7  UNL     1       1.326   1.715  -1.020  1.00  0.00     0.037 C 
HETATM    9  C8  UNL     1       2.708   1.074  -1.020  1.00  0.00     0.129 C 
HETATM   10  C9  UNL     1       2.657  -0.424  -1.292  1.00  0.00     0.059 C 
HETATM   11  C10 UNL     1       1.404  -1.072  -0.764  1.00  0.00    -0.032 C 
HETATM   12  C11 UNL     1       3.930  -0.883  -0.569  1.00  0.00     0.093 C 
HETATM   13  C12 UNL     1       4.055   0.130   0.550  1.00  0.00     0.272 C 
HETATM   14  O2  UNL     1       3.377   1.251   0.194  1.00  0.00    -0.304 OA
HETATM   15  O3  UNL     1       4.677  -0.010   1.580  1.00  0.00    -0.264 OA
HETATM   16  C13 UNL     1       3.971  -2.341  -0.102  1.00  0.00     0.011 C 
HETATM   17  C14 UNL     1       0.577   1.469   1.382  1.00  0.00     0.007 C 
HETATM   18  C15 UNL     1      -0.754  -1.564   1.779  1.00  0.00     0.004 C 
ENDROOT
TORSDOF 0
