REMARK  0 active torsions:
REMARK  status: ('A' for Active; 'I' for Inactive)
ROOT
HETATM    1  C1  UNL     1      -1.957   0.636   0.253  1.00  0.00     0.034 C 
HETATM    2  C2  UNL     1      -1.874  -0.835  -0.169  1.00  0.00     0.007 C 
HETATM    3  C3  UNL     1      -0.514  -1.457   0.179  1.00  0.00     0.018 C 
HETATM    4  C4  UNL     1       0.642  -0.592  -0.296  1.00  0.00    -0.046 C 
HETATM    5  C5  UNL     1       0.584   0.915  -0.084  1.00  0.00     0.045 C 
HETATM    6  C6  UNL     1      -0.834   1.429  -0.411  1.00  0.00     0.155 C 
HETATM    7  O1  UNL     1      -0.959   2.785  -0.053  1.00  0.00    -0.223 OA
HETATM    8  C7  UNL     1       1.570   1.601  -1.061  1.00  0.00     0.037 C 
HETATM    9  C8  UNL     1       2.983   1.028  -1.085  1.00  0.00     0.133 C 
HETATM   10  C9  UNL     1       2.993  -0.498  -1.265  1.00  0.00     0.077 C 
HETATM   11  C10 UNL     1       1.734  -1.186  -0.809  1.00  0.00    -0.028 C 
HETATM   12  C11 UNL     1       4.128  -0.903  -0.371  1.00  0.00     0.047 C 
HETATM   13  C12 UNL     1       4.411   0.281   0.455  1.00  0.00     0.292 C 
HETATM   14  O2  UNL     1       3.721   1.381   0.060  1.00  0.00    -0.300 OA
HETATM   15  O3  UNL     1       5.181   0.278   1.411  1.00  0.00    -0.259 OA
HETATM   16  C13 UNL     1       4.765  -2.083  -0.296  1.00  0.00     0.001 C 
HETATM   17  C14 UNL     1       0.968   1.260   1.371  1.00  0.00     0.007 C 
HETATM   18  C15 UNL     1      -0.390  -1.836   1.664  1.00  0.00     0.004 C 
ENDROOT
TORSDOF 0
