REMARK  5 active torsions:
REMARK  status: ('A' for Active; 'I' for Inactive)
REMARK    1  A    between atoms: C8_9  and  O4_18 
REMARK    2  A    between atoms: C9_10  and  C11_12 
REMARK    3  A    between atoms: C11_12  and  C12_13 
REMARK    4  A    between atoms: C12_13  and  O3_15 
REMARK    5  A    between atoms: O4_18  and  C15_19 
ROOT
HETATM    1  C1  UNL     1      -2.127   1.121  -1.784  1.00  0.00     0.058 C 
HETATM    2  C2  UNL     1      -2.094  -0.377  -1.645  1.00  0.00    -0.032 C 
HETATM    3  C3  UNL     1      -0.997  -1.085  -1.327  1.00  0.00    -0.048 C 
HETATM    4  C4  UNL     1       0.342  -0.403  -1.118  1.00  0.00     0.021 C 
HETATM    5  C5  UNL     1       0.182   1.079  -0.696  1.00  0.00     0.034 C 
HETATM    6  C6  UNL     1      -0.731   1.740  -1.748  1.00  0.00     0.157 C 
HETATM    7  O1  UNL     1      -0.854   3.123  -1.512  1.00  0.00    -0.223 OA
HETATM    8  C7  UNL     1       1.583   1.740  -0.723  1.00  0.00     0.033 C 
HETATM    9  C8  UNL     1       2.673   1.029   0.094  1.00  0.00     0.129 C 
HETATM   10  C9  UNL     1       2.713  -0.475  -0.212  1.00  0.00     0.056 C 
HETATM   11  C10 UNL     1       1.321  -1.135  -0.180  1.00  0.00     0.011 C 
HETATM   12  C17 UNL     1      -0.461   1.228   0.702  1.00  0.00     0.003 C 
HETATM   13  C18 UNL     1      -1.043  -2.594  -1.294  1.00  0.00     0.026 C 
ENDROOT
BRANCH  10  14
HETATM   14  C11 UNL     1       3.752  -1.206   0.627  1.00  0.00     0.043 C 
HETATM   15  C14 UNL     1       3.476  -1.679   1.859  1.00  0.00     0.001 C 
BRANCH  14  16
HETATM   16  C12 UNL     1       5.142  -1.389   0.109  1.00  0.00     0.292 C 
HETATM   17  O2  UNL     1       5.404  -0.950  -1.006  1.00  0.00    -0.260 OA
BRANCH  16  18
HETATM   18  O3  UNL     1       6.073  -2.114   0.798  1.00  0.00    -0.296 OA
HETATM   19  C13 UNL     1       7.259  -2.451   0.117  1.00  0.00     0.185 C 
ENDBRANCH  16  18
ENDBRANCH  14  16
ENDBRANCH  10  14
BRANCH   9  20
HETATM   20  O4  UNL     1       2.459   1.264   1.456  1.00  0.00    -0.304 OA
BRANCH  20  21
HETATM   21  C15 UNL     1       3.524   1.517   2.264  1.00  0.00     0.272 C 
HETATM   22  C16 UNL     1       3.047   1.796   3.675  1.00  0.00     0.106 C 
HETATM   23  O5  UNL     1       4.685   1.517   1.923  1.00  0.00    -0.264 OA
ENDBRANCH  20  21
ENDBRANCH   9  20
TORSDOF 5
