REMARK  1 active torsions:
REMARK  status: ('A' for Active; 'I' for Inactive)
REMARK    1  A    between atoms: C14_15  and  O2_16 
ROOT
HETATM    1  C1  UNL     1       1.948  -0.571   0.287  1.00  0.00     0.003 A 
HETATM    2  C2  UNL     1       2.774  -1.816   0.020  1.00  0.00     0.117 C 
HETATM    3  O1  UNL     1       4.091  -1.671   0.480  1.00  0.00    -0.330 OA
HETATM    4  C3  UNL     1       4.741  -0.503   0.180  1.00  0.00     0.118 A 
HETATM    5  C4  UNL     1       4.034   0.702   0.046  1.00  0.00     0.026 A 
HETATM    6  C5  UNL     1       2.580   0.682   0.284  1.00  0.00    -0.000 A 
HETATM    7  C6  UNL     1       1.821   1.841   0.512  1.00  0.00    -0.004 A 
HETATM    8  C7  UNL     1       0.436   1.789   0.692  1.00  0.00    -0.022 A 
HETATM    9  C8  UNL     1      -0.190   0.541   0.643  1.00  0.00    -0.004 A 
HETATM   10  C9  UNL     1       0.557  -0.619   0.443  1.00  0.00    -0.002 A 
HETATM   11  C10 UNL     1      -0.382   3.037   0.912  1.00  0.00     0.031 C 
HETATM   12  C11 UNL     1       4.728   1.868  -0.292  1.00  0.00     0.032 A 
HETATM   13  C12 UNL     1       6.103   1.849  -0.500  1.00  0.00     0.158 A 
HETATM   14  C13 UNL     1       6.804   0.640  -0.398  1.00  0.00     0.180 A 
HETATM   15  C14 UNL     1       6.129  -0.552  -0.070  1.00  0.00     0.144 A 
HETATM   16  O3  UNL     1       8.141   0.700  -0.638  1.00  0.00    -0.186 OA
HETATM   17  O4  UNL     1       6.761   2.994  -0.823  1.00  0.00    -0.188 OA
HETATM   18  C16 UNL     1       2.228  -3.058   0.740  1.00  0.00     0.035 C 
HETATM   19  C17 UNL     1       2.801  -2.079  -1.492  1.00  0.00     0.035 C 
ENDROOT
BRANCH  15  20
HETATM   20  O2  UNL     1       6.709  -1.796   0.045  1.00  0.00    -0.324 OA
HETATM   21  C15 UNL     1       8.088  -1.979  -0.163  1.00  0.00     0.182 C 
ENDBRANCH  15  20
TORSDOF 1
