REMARK  0 active torsions:
REMARK  status: ('A' for Active; 'I' for Inactive)
ROOT
HETATM    1  C1  UNL     1       0.171  -0.433  -0.211  1.00  0.00     0.062 A 
HETATM    2  C2  UNL     1      -0.277   0.771   0.344  1.00  0.00     0.099 A 
HETATM    3  O1  UNL     1       0.337   1.978   0.135  1.00  0.00    -0.327 OA
HETATM    4  C3  UNL     1       1.242   2.001  -0.973  1.00  0.00     0.190 C 
HETATM    5  C4  UNL     1       2.186   0.811  -0.962  1.00  0.00     0.243 C 
HETATM    6  C5  UNL     1       1.372  -0.465  -1.112  1.00  0.00     0.208 C 
HETATM    7  O2  UNL     1       1.652  -1.377  -1.853  1.00  0.00    -0.288 OA
HETATM    8  O3  UNL     1       3.092   0.920  -2.027  1.00  0.00    -0.212 OA
HETATM    9  C6  UNL     1      -1.385   0.787   1.192  1.00  0.00     0.054 A 
HETATM   10  C7  UNL     1      -2.073  -0.395   1.468  1.00  0.00     0.158 A 
HETATM   11  C8  UNL     1      -1.648  -1.595   0.900  1.00  0.00     0.156 A 
HETATM   12  C9  UNL     1      -0.532  -1.615   0.062  1.00  0.00     0.034 A 
HETATM   13  O4  UNL     1      -2.320  -2.742   1.161  1.00  0.00    -0.188 OA
HETATM   14  O5  UNL     1      -3.151  -0.376   2.288  1.00  0.00    -0.188 OA
ENDROOT
TORSDOF 0
