REMARK  0 active torsions:
REMARK  status: ('A' for Active; 'I' for Inactive)
ROOT
HETATM    1  C1  UNL     1      -0.953   0.749  -0.736  1.00  0.00     0.073 C 
HETATM    2  C2  UNL     1      -1.129  -0.786  -0.571  1.00  0.00     0.153 C 
HETATM    3  C3  UNL     1      -0.710  -1.433   0.753  1.00  0.00     0.095 C 
HETATM    4  C4  UNL     1       0.630  -0.838   1.216  1.00  0.00     0.233 C 
HETATM    5  C5  UNL     1       0.885   0.646   0.888  1.00  0.00     0.162 C 
HETATM    6  C6  UNL     1       0.537   1.049  -0.549  1.00  0.00     0.039 C 
HETATM    7  O1  UNL     1       0.239   1.444   1.835  1.00  0.00    -0.299 OA
HETATM    8  C7  UNL     1      -1.010   1.914   1.627  1.00  0.00     0.303 C 
HETATM    9  C8  UNL     1      -1.623   1.701   0.262  1.00  0.00     0.240 C 
HETATM   10  O2  UNL     1      -3.000   1.439   0.455  1.00  0.00    -0.213 OA
HETATM   11  O3  UNL     1      -1.676   2.490   2.461  1.00  0.00    -0.261 OA
HETATM   12  C9  UNL     1       0.542  -1.082   2.712  1.00  0.00     0.302 C 
HETATM   13  O4  UNL     1      -0.750  -1.223   3.095  1.00  0.00    -0.300 OA
HETATM   14  C10 UNL     1      -1.602  -1.207   1.977  1.00  0.00     0.158 C 
HETATM   15  O5  UNL     1       1.528  -1.134   3.413  1.00  0.00    -0.261 OA
HETATM   16  O6  UNL     1       1.747  -1.582   0.773  1.00  0.00    -0.213 OA
HETATM   17  C11 UNL     1      -0.636  -2.980   0.604  1.00  0.00     0.008 C 
HETATM   18  C12 UNL     1      -2.520  -0.955  -1.108  1.00  0.00    -0.001 C 
HETATM   19  C13 UNL     1      -2.744  -0.020  -2.041  1.00  0.00    -0.028 C 
HETATM   20  C14 UNL     1      -1.591   0.960  -2.147  1.00  0.00     0.027 C 
HETATM   21  C15 UNL     1      -2.050   2.359  -2.575  1.00  0.00     0.005 C 
HETATM   22  O7  UNL     1      -0.305  -1.399  -1.554  1.00  0.00    -0.221 OA
ENDROOT
TORSDOF 0
