REMARK  5 active torsions:
REMARK  status: ('A' for Active; 'I' for Inactive)
REMARK    1  A    between atoms: C7_8  and  C10_12 
REMARK    2  A    between atoms: C8_9  and  C9_10 
REMARK    3  A    between atoms: C15_17  and  C16_18 
REMARK    4  A    between atoms: C20_22  and  O11_41 
REMARK    5  A    between atoms: C24_28  and  C25_30 
ROOT
HETATM    1  C1  UNL     1       0.237   1.297   2.021  1.00  0.00    -0.003 A 
HETATM    2  C2  UNL     1       1.056   2.421   2.123  1.00  0.00     0.106 A 
HETATM    3  C3  UNL     1       1.673   2.936   0.984  1.00  0.00     0.077 A 
HETATM    4  C4  UNL     1       1.465   2.333  -0.257  1.00  0.00     0.049 A 
HETATM    5  C5  UNL     1       0.634   1.209  -0.369  1.00  0.00     0.062 A 
HETATM    6  C6  UNL     1       0.038   0.684   0.783  1.00  0.00     0.037 A 
HETATM    7  O1  UNL     1      -0.785  -0.411   0.780  1.00  0.00     0.000 OA
HETATM    8  C7  UNL     1      -0.712  -1.207  -0.406  1.00  0.00     0.033 A 
HETATM    9  C8  UNL     1      -0.789  -0.362  -1.665  1.00  0.00     0.062 A 
HETATM   10  C9  UNL     1       0.414   0.567  -1.709  1.00  0.00     0.107 A 
HETATM   11  O2  UNL     1       1.099   0.762  -2.685  1.00  0.00    -0.303 OA
HETATM   12  C16 UNL     1       1.742   0.050  -0.406  1.00  0.00     0.060 A 
HETATM   13  C17 UNL     1       0.584   0.718  -0.406  1.00  0.00     0.064 A 
HETATM   14  C18 UNL     1       0.584   2.055  -0.406  1.00  0.00     0.087 A 
HETATM   15  C19 UNL     1       1.742   2.724  -0.406  1.00  0.00     0.121 A 
HETATM   16  C20 UNL     1       2.900   2.055  -0.406  1.00  0.00     0.061 A 
HETATM   17  C21 UNL     1       2.900   0.718  -0.406  1.00  0.00     0.159 C 
HETATM   18  O3  UNL     1       4.073   0.041  -0.406  1.00  0.00    -0.223 OA
HETATM   19  O4  UNL     1       1.742   4.079  -0.406  1.00  0.00    -0.227 OA
HETATM   20  C22 UNL     1      -0.613   2.681  -0.394  1.00  0.00     0.175 C 
HETATM   21  C23 UNL     1      -1.619   1.979   0.172  1.00  0.00     0.037 C 
HETATM   22  C24 UNL     1      -1.629   0.664  -0.025  1.00  0.00     0.003 C 
HETATM   23  O5  UNL     1      -0.535  -0.045  -0.394  1.00  0.00     0.000 OA
HETATM   24  O8  UNL     1      -0.772   3.786  -0.855  1.00  0.00    -0.291 OA
HETATM   25  O11 UNL     1       2.069   2.836  -1.360  1.00  0.00     0.000 OA
HETATM   26  O12 UNL     1       1.251   3.011   3.326  1.00  0.00    -0.195 OA
ENDROOT
BRANCH  22  27
HETATM   27  C25 UNL     1      -2.780   0.006   0.150  1.00  0.00     0.002 A 
HETATM   28  C26 UNL     1      -3.929   0.418  -0.527  1.00  0.00     0.002 A 
HETATM   29  C27 UNL     1      -5.129  -0.268  -0.344  1.00  0.00     0.029 A 
HETATM   30  C28 UNL     1      -5.182  -1.365   0.515  1.00  0.00     0.156 A 
HETATM   31  C29 UNL     1      -4.034  -1.777   1.192  1.00  0.00     0.156 A 
HETATM   32  O7  UNL     1      -6.348  -2.031   0.693  1.00  0.00    -0.188 OA
HETATM   33  C30 UNL     1      -2.833  -1.091   1.009  1.00  0.00     0.029 A 
HETATM   34  O6  UNL     1      -4.085  -2.843   2.026  1.00  0.00    -0.188 OA
ENDBRANCH  22  27
BRANCH   8  35
HETATM   35  C10 UNL     1       0.584  -1.956  -0.406  1.00  0.00    -0.023 A 
HETATM   36  C11 UNL     1       0.584  -3.293  -0.406  1.00  0.00     0.025 A 
HETATM   37  C12 UNL     1       1.742  -3.961  -0.406  1.00  0.00     0.156 A 
HETATM   38  C13 UNL     1       2.900  -3.293  -0.406  1.00  0.00     0.156 A 
HETATM   39  O10 UNL     1       1.742  -5.316  -0.406  1.00  0.00    -0.188 OA
HETATM   40  C14 UNL     1       2.900  -1.956  -0.406  1.00  0.00     0.025 A 
HETATM   41  O9  UNL     1       4.073  -3.970  -0.406  1.00  0.00    -0.188 OA
HETATM   42  C15 UNL     1       1.742  -1.287  -0.406  1.00  0.00    -0.021 A 
ENDBRANCH   8  35
TORSDOF 5
