REMARK  0 active torsions:
REMARK  status: ('A' for Active; 'I' for Inactive)
ROOT
HETATM    1  C1  UNL     1       2.280  -1.467  -0.198  1.00  0.00     0.002 A 
HETATM    2  C2  UNL     1       2.737  -0.223  -0.631  1.00  0.00     0.002 A 
HETATM    3  C3  UNL     1       1.843   0.839  -0.761  1.00  0.00     0.026 A 
HETATM    4  C4  UNL     1       0.493   0.654  -0.460  1.00  0.00     0.116 A 
HETATM    5  C5  UNL     1       0.008  -0.611  -0.072  1.00  0.00     0.116 A 
HETATM    6  C6  UNL     1       0.925  -1.656   0.090  1.00  0.00     0.022 A 
HETATM    7  N1  UNL     1      -1.347  -0.824   0.271  1.00  0.00    -0.146 N 
HETATM    8  C7  UNL     1      -2.201   0.237  -0.260  1.00  0.00     0.323 C 
HETATM    9  C8  UNL     1      -1.580   1.598   0.045  1.00  0.00     0.356 C 
HETATM   10  O1  UNL     1      -0.313   1.760  -0.607  1.00  0.00    -0.295 OA
HETATM   11  O2  UNL     1      -1.396   1.712   1.431  1.00  0.00    -0.179 OA
HETATM   12  O3  UNL     1      -3.241   0.063  -0.850  1.00  0.00    -0.264 OA
HETATM   13  O4  UNL     1      -1.783  -1.845   0.977  1.00  0.00    -0.077 OA
ENDROOT
TORSDOF 0
