REMARK  3 active torsions:
REMARK  status: ('A' for Active; 'I' for Inactive)
REMARK    1  A    between atoms: C9_9  and  O1_11 
REMARK    2  A    between atoms: O1_11  and  C11_12 
REMARK    3  A    between atoms: C12_14  and  C16_21 
ROOT
HETATM    1  C19 UNL     1       5.394   0.365  -0.157  1.00  0.00    -0.030 C 
HETATM    2  C20 UNL     1       5.521  -0.929   0.182  1.00  0.00    -0.030 C 
HETATM    3  C21 UNL     1       4.422  -1.947   0.318  1.00  0.00     0.030 C 
HETATM    4  C22 UNL     1       4.123   1.103  -0.486  1.00  0.00     0.030 C 
ENDROOT
TORSDOF 3
