REMARK  3 active torsions:
REMARK  status: ('A' for Active; 'I' for Inactive)
REMARK    1  A    between atoms: C5_5  and  C7_7 
REMARK    2  A    between atoms: C7_7  and  C8_8 
REMARK    3  A    between atoms: C11_12  and  O3_16 
ROOT
HETATM    1  C8  UNL     1       2.054   0.534  -0.361  1.00  0.00     0.090 A 
HETATM    2  C9  UNL     1       0.729   0.840  -0.013  1.00  0.00     0.138 A 
HETATM    3  O1  UNL     1       0.246   2.110  -0.015  1.00  0.00    -0.190 OA
HETATM    4  C10 UNL     1      -0.118  -0.209   0.357  1.00  0.00     0.052 A 
HETATM    5  C11 UNL     1       0.279  -1.549   0.395  1.00  0.00     0.098 A 
HETATM    6  C12 UNL     1       1.623  -1.792   0.078  1.00  0.00     0.052 A 
HETATM    7  C13 UNL     1       2.523  -0.788  -0.299  1.00  0.00     0.138 A 
HETATM    8  O2  UNL     1       3.788  -1.145  -0.657  1.00  0.00    -0.190 OA
ENDROOT
BRANCH   1   9
HETATM    9  C7  UNL     1       2.930   1.665  -0.819  1.00  0.00     0.200 C 
HETATM   10  O4  UNL     1       2.482   2.516  -1.580  1.00  0.00    -0.286 OA
BRANCH   9  11
HETATM   11  C5  UNL     1       4.375   1.692  -0.450  1.00  0.00     0.039 A 
HETATM   12  C4  UNL     1       4.847   1.088   0.723  1.00  0.00     0.003 A 
HETATM   13  C3  UNL     1       6.216   1.064   0.991  1.00  0.00     0.000 A 
HETATM   14  C2  UNL     1       7.120   1.660   0.106  1.00  0.00     0.000 A 
HETATM   15  C1  UNL     1       6.650   2.286  -1.048  1.00  0.00     0.000 A 
HETATM   16  C6  UNL     1       5.282   2.295  -1.331  1.00  0.00     0.003 A 
ENDBRANCH   9  11
ENDBRANCH   1   9
BRANCH   5  17
HETATM   17  O3  UNL     1      -0.642  -2.498   0.761  1.00  0.00    -0.328 OA
HETATM   18  C14 UNL     1      -0.204  -3.822   0.950  1.00  0.00     0.181 C 
ENDBRANCH   5  17
TORSDOF 3
