REMARK  6 active torsions:
REMARK  status: ('A' for Active; 'I' for Inactive)
REMARK    1  A    between atoms: C1_1  and  C11_13 
REMARK    2  A    between atoms: C5_5  and  C7_8 
REMARK    3  A    between atoms: C7_8  and  C8_9 
REMARK    4  A    between atoms: C8_9  and  C9_10 
REMARK    5  A    between atoms: C11_13  and  C12_14 
REMARK    6  A    between atoms: C12_14  and  C13_15 
ROOT
HETATM    1  C1  UNL     1       3.683  -0.865  -0.042  1.00  0.00     0.005 A 
HETATM    2  C2  UNL     1       4.212  -2.096   0.369  1.00  0.00     0.025 A 
HETATM    3  C3  UNL     1       3.417  -3.184   0.724  1.00  0.00     0.131 A 
HETATM    4  C4  UNL     1       2.037  -3.002   0.667  1.00  0.00     0.025 A 
HETATM    5  C5  UNL     1       1.454  -1.793   0.266  1.00  0.00     0.005 A 
HETATM    6  C6  UNL     1       2.284  -0.715  -0.101  1.00  0.00     0.123 A 
HETATM    7  O1  UNL     1       1.722   0.437  -0.542  1.00  0.00    -0.191 OA
HETATM    8  O2  UNL     1       3.955  -4.371   1.109  1.00  0.00    -0.190 OA
ENDROOT
BRANCH   1   9
HETATM    9  C11 UNL     1       4.726   0.196  -0.372  1.00  0.00     0.029 C 
BRANCH   9  10
HETATM   10  C12 UNL     1       4.319   1.634  -0.724  1.00  0.00     0.005 C 
BRANCH  10  11
HETATM   11  C13 UNL     1       5.536   2.567  -0.852  1.00  0.00     0.000 C 
HETATM   12  C14 UNL     1       5.121   3.997  -1.228  1.00  0.00     0.000 C 
ENDBRANCH  10  11
ENDBRANCH   9  10
ENDBRANCH   1   9
BRANCH   5  13
HETATM   13  C7  UNL     1      -0.068  -1.749   0.246  1.00  0.00     0.029 C 
BRANCH  13  14
HETATM   14  C8  UNL     1      -0.778  -0.396   0.420  1.00  0.00     0.005 C 
BRANCH  14  15
HETATM   15  C9  UNL     1      -2.288  -0.556   0.670  1.00  0.00     0.000 C 
HETATM   16  C10 UNL     1      -2.998   0.803   0.748  1.00  0.00     0.000 C 
ENDBRANCH  14  15
ENDBRANCH  13  14
ENDBRANCH   5  13
TORSDOF 6
