REMARK  1 active torsions:
REMARK  status: ('A' for Active; 'I' for Inactive)
REMARK    1  A    between atoms: C13_14  and  O2_15 
ROOT
HETATM    1  C1  UNL     1      -0.745   3.920  -0.736  1.00  0.00     0.131 A 
HETATM    2  C2  UNL     1      -0.799   4.141   0.643  1.00  0.00     0.029 A 
HETATM    3  C3  UNL     1      -0.759   3.074   1.542  1.00  0.00     0.027 A 
HETATM    4  C4  UNL     1      -0.662   1.745   1.113  1.00  0.00     0.103 A 
HETATM    5  C5  UNL     1      -0.605   1.523  -0.265  1.00  0.00     0.064 A 
HETATM    6  C6  UNL     1      -0.646   2.596  -1.170  1.00  0.00     0.033 A 
HETATM    7  C7  UNL     1      -0.499   0.130  -0.767  1.00  0.00     0.201 A 
HETATM    8  C8  UNL     1      -0.462  -0.981   0.232  1.00  0.00     0.086 A 
HETATM    9  C9  UNL     1      -0.532  -0.555   1.582  1.00  0.00     0.105 A 
HETATM   10  O1  UNL     1      -0.625   0.737   2.019  1.00  0.00    -0.307 OA
HETATM   11  C10 UNL     1      -0.505  -1.516   2.594  1.00  0.00     0.027 A 
HETATM   12  C11 UNL     1      -0.413  -2.868   2.301  1.00  0.00     0.032 A 
HETATM   13  C12 UNL     1      -0.344  -3.290   0.977  1.00  0.00     0.153 A 
HETATM   14  C13 UNL     1      -0.362  -2.368  -0.093  1.00  0.00     0.124 A 
HETATM   15  O3  UNL     1      -0.253  -4.629   0.735  1.00  0.00    -0.188 OA
HETATM   16  O4  UNL     1      -0.452   0.010  -1.983  1.00  0.00    -0.286 OA
HETATM   17  O5  UNL     1      -0.782   4.944  -1.628  1.00  0.00    -0.190 OA
ENDROOT
BRANCH  14  18
HETATM   18  O2  UNL     1      -0.279  -3.034  -1.298  1.00  0.00    -0.326 OA
HETATM   19  C14 UNL     1      -0.291  -2.461  -2.574  1.00  0.00     0.181 C 
ENDBRANCH  14  18
TORSDOF 1
