REMARK  21 active torsions:
REMARK  status: ('A' for Active; 'I' for Inactive)
REMARK    1  A    between atoms: C1_1  and  C2_2 
REMARK    2  A    between atoms: C1_1  and  C33_39 
REMARK    3  A    between atoms: C2_2  and  C3_3 
REMARK    4  A    between atoms: C3_3  and  C4_4 
REMARK    5  A    between atoms: C4_4  and  C5_5 
REMARK    6  A    between atoms: C5_5  and  C6_6 
REMARK    7  A    between atoms: C6_6  and  C7_7 
REMARK    8  A    between atoms: C7_7  and  C8_8 
REMARK    9  A    between atoms: C8_8  and  C9_9 
REMARK   10  A    between atoms: C11_12  and  O2_13 
REMARK   11  A    between atoms: C20_23  and  C22_26 
REMARK   12  A    between atoms: C22_26  and  C23_27 
REMARK   13  A    between atoms: C23_27  and  C24_28 
REMARK   14  A    between atoms: C24_28  and  C25_29 
REMARK   15  A    between atoms: C25_29  and  C26_30 
REMARK   16  A    between atoms: C26_30  and  C27_31 
REMARK   17  A    between atoms: C27_31  and  C28_32 
REMARK   18  A    between atoms: C28_32  and  C29_33 
REMARK   19  A    between atoms: C29_33  and  C30_34 
REMARK   20  A    between atoms: C30_34  and  C31_35 
REMARK   21  A    between atoms: C33_39  and  C34_40 
ROOT
HETATM    1  C9  UNL     1      13.022  -1.362  -0.234  1.00  0.00     0.028 A 
HETATM    2  C10 UNL     1      13.851  -2.427   0.133  1.00  0.00     0.151 A 
HETATM    3  O1  UNL     1      15.199  -2.241   0.201  1.00  0.00    -0.188 OA
HETATM    4  C11 UNL     1      13.351  -3.724   0.437  1.00  0.00     0.119 A 
HETATM    5  C13 UNL     1      11.974  -3.933   0.410  1.00  0.00     0.028 A 
HETATM    6  C14 UNL     1      11.133  -2.873   0.040  1.00  0.00     0.030 A 
HETATM    7  C15 UNL     1      11.637  -1.610  -0.272  1.00  0.00     0.098 A 
HETATM    8  O3  UNL     1      10.610  -0.741  -0.583  1.00  0.00    -0.304 OA
HETATM    9  C16 UNL     1       9.447  -1.469  -0.458  1.00  0.00     0.142 A 
HETATM   10  C17 UNL     1       9.706  -2.756  -0.109  1.00  0.00     0.069 A 
HETATM   11  C18 UNL     1       8.659  -3.779   0.038  1.00  0.00     0.223 A 
HETATM   12  C19 UNL     1       7.267  -3.342  -0.291  1.00  0.00     0.169 A 
HETATM   13  C20 UNL     1       6.981  -2.055  -0.626  1.00  0.00     0.047 A 
HETATM   14  C21 UNL     1       8.061  -1.018  -0.696  1.00  0.00     0.216 A 
HETATM   15  O4  UNL     1       7.825   0.159  -0.952  1.00  0.00    -0.285 OA
HETATM   16  O5  UNL     1       6.361  -4.355  -0.241  1.00  0.00    -0.187 OA
HETATM   17  O6  UNL     1       8.933  -4.924   0.383  1.00  0.00    -0.284 OA
ENDROOT
BRANCH   1  18
HETATM   18  C8  UNL     1      13.649  -0.021  -0.563  1.00  0.00     0.030 C 
BRANCH  18  19
HETATM   19  C7  UNL     1      12.712   1.105  -1.023  1.00  0.00     0.005 C 
BRANCH  19  20
HETATM   20  C6  UNL     1      13.466   2.405  -1.347  1.00  0.00     0.000 C 
BRANCH  20  21
HETATM   21  C5  UNL     1      12.490   3.527  -1.740  1.00  0.00     0.000 C 
BRANCH  21  22
HETATM   22  C4  UNL     1      13.214   4.844  -2.057  1.00  0.00     0.000 C 
BRANCH  22  23
HETATM   23  C3  UNL     1      12.221   5.985  -2.342  1.00  0.00     0.000 C 
BRANCH  23  24
HETATM   24  C2  UNL     1      12.891   7.360  -2.516  1.00  0.00     0.000 C 
BRANCH  24  25
HETATM   25  C1  UNL     1      12.954   8.218  -1.238  1.00  0.00     0.000 C 
BRANCH  25  26
HETATM   26  C33 UNL     1      13.758   7.588  -0.092  1.00  0.00     0.000 C 
BRANCH  26  27
HETATM   27  C34 UNL     1      13.931   8.548   1.097  1.00  0.00     0.000 C 
HETATM   28  C35 UNL     1      14.726   7.896   2.236  1.00  0.00     0.000 C 
ENDBRANCH  26  27
ENDBRANCH  25  26
ENDBRANCH  24  25
ENDBRANCH  23  24
ENDBRANCH  22  23
ENDBRANCH  21  22
ENDBRANCH  20  21
ENDBRANCH  19  20
ENDBRANCH  18  19
ENDBRANCH   1  18
BRANCH   4  29
HETATM   29  O2  UNL     1      14.262  -4.679   0.818  1.00  0.00    -0.326 OA
HETATM   30  C12 UNL     1      13.798  -5.828   1.487  1.00  0.00     0.181 C 
ENDBRANCH   4  29
BRANCH  13  31
HETATM   31  C22 UNL     1       5.605  -1.485  -0.943  1.00  0.00     0.032 C 
BRANCH  31  32
HETATM   32  C23 UNL     1       4.372  -2.393  -0.937  1.00  0.00     0.005 C 
BRANCH  32  33
HETATM   33  C24 UNL     1       3.050  -1.616  -1.072  1.00  0.00     0.000 C 
BRANCH  33  34
HETATM   34  C25 UNL     1       1.849  -2.579  -1.054  1.00  0.00     0.000 C 
BRANCH  34  35
HETATM   35  C26 UNL     1       0.541  -1.907  -0.602  1.00  0.00     0.000 C 
BRANCH  35  36
HETATM   36  C27 UNL     1      -0.541  -2.916  -0.176  1.00  0.00     0.000 C 
BRANCH  36  37
HETATM   37  C28 UNL     1      -0.536  -3.325   1.312  1.00  0.00     0.000 C 
BRANCH  37  38
HETATM   38  C29 UNL     1       0.668  -4.151   1.802  1.00  0.00     0.000 C 
BRANCH  38  39
HETATM   39  C30 UNL     1       1.818  -3.301   2.374  1.00  0.00     0.000 C 
BRANCH  39  40
HETATM   40  C31 UNL     1       3.095  -4.128   2.596  1.00  0.00     0.000 C 
HETATM   41  C32 UNL     1       4.256  -3.271   3.118  1.00  0.00     0.000 C 
ENDBRANCH  39  40
ENDBRANCH  38  39
ENDBRANCH  37  38
ENDBRANCH  36  37
ENDBRANCH  35  36
ENDBRANCH  34  35
ENDBRANCH  33  34
ENDBRANCH  32  33
ENDBRANCH  31  32
ENDBRANCH  13  31
TORSDOF 21
