REMARK  3 active torsions:
REMARK  status: ('A' for Active; 'I' for Inactive)
REMARK    1  A    between atoms: C2_2  and  O2_21 
REMARK    2  A    between atoms: C12_12  and  O1_18 
REMARK    3  A    between atoms: C14_14  and  C15_15 
ROOT
HETATM    1  C1  UNL     1      -2.683  -1.135   0.553  1.00  0.00     0.024 C 
HETATM    2  C2  UNL     1      -3.461  -0.093   0.214  1.00  0.00     0.090 C 
HETATM    3  C3  UNL     1      -2.815   1.044  -0.134  1.00  0.00     0.001 C 
HETATM    4  C4  UNL     1      -1.461   1.096  -0.183  1.00  0.00    -0.002 C 
HETATM    5  C5  UNL     1      -0.688   0.006   0.031  1.00  0.00    -0.000 C 
HETATM    6  C6  UNL     1      -1.348  -1.076   0.486  1.00  0.00     0.002 C 
HETATM    7  C7  UNL     1       0.668   0.034  -0.088  1.00  0.00    -0.000 C 
HETATM    8  C8  UNL     1       1.243   1.251  -0.143  1.00  0.00     0.002 C 
HETATM    9  C9  UNL     1       0.497   2.350  -0.336  1.00  0.00     0.000 C 
HETATM   10  C10 UNL     1      -0.835   2.263  -0.415  1.00  0.00    -0.000 C 
HETATM   11  C11 UNL     1       2.568   1.394   0.005  1.00  0.00     0.024 C 
HETATM   12  C12 UNL     1       3.384   0.352   0.239  1.00  0.00     0.090 C 
HETATM   13  C13 UNL     1       2.827  -0.878   0.153  1.00  0.00     0.001 C 
HETATM   14  C14 UNL     1       1.504  -1.038  -0.116  1.00  0.00    -0.002 C 
HETATM   15  C17 UNL     1       3.774  -2.069   0.285  1.00  0.00     0.033 C 
HETATM   16  C19 UNL     1      -3.653   2.275  -0.453  1.00  0.00     0.033 C 
ENDROOT
BRANCH   2  17
HETATM   17  O2  UNL     1      -4.836  -0.121   0.253  1.00  0.00    -0.328 OA
HETATM   18  C20 UNL     1      -5.495  -1.324   0.577  1.00  0.00     0.181 C 
ENDBRANCH   2  17
BRANCH  14  19
HETATM   19  C15 UNL     1       1.122  -2.272  -0.530  1.00  0.00    -0.000 C 
HETATM   20  C16 UNL     1       0.086  -2.578  -1.332  1.00  0.00    -0.000 C 
ENDBRANCH  14  19
BRANCH  12  21
HETATM   21  O1  UNL     1       4.742   0.482   0.431  1.00  0.00    -0.328 OA
HETATM   22  C18 UNL     1       5.362   1.729   0.216  1.00  0.00     0.181 C 
ENDBRANCH  12  21
TORSDOF 3
