REMARK  21 active torsions:
REMARK  status: ('A' for Active; 'I' for Inactive)
REMARK    1  A    between atoms: O1_1  and  C1_2 
REMARK    2  A    between atoms: C5_6  and  C7_9 
REMARK    3  A    between atoms: C7_9  and  C8_10 
REMARK    4  A    between atoms: C8_10  and  C9_11 
REMARK    5  A    between atoms: C9_11  and  C10_12 
REMARK    6  A    between atoms: C10_12  and  C11_13 
REMARK    7  A    between atoms: C11_13  and  C12_14 
REMARK    8  A    between atoms: C12_14  and  C13_15 
REMARK    9  A    between atoms: C13_15  and  C14_16 
REMARK   10  A    between atoms: C14_16  and  C15_17 
REMARK   11  A    between atoms: C15_17  and  C16_18 
REMARK   12  A    between atoms: C21_24  and  C24_29 
REMARK   13  A    between atoms: C24_29  and  C25_30 
REMARK   14  A    between atoms: C25_30  and  C26_31 
REMARK   15  A    between atoms: C26_31  and  C27_32 
REMARK   16  A    between atoms: C27_32  and  C28_33 
REMARK   17  A    between atoms: C28_33  and  C29_34 
REMARK   18  A    between atoms: C29_34  and  C30_35 
REMARK   19  A    between atoms: C30_35  and  C31_36 
REMARK   20  A    between atoms: C31_36  and  C32_37 
REMARK   21  A    between atoms: C32_37  and  C33_38 
ROOT
HETATM    1  C1  UNL     1      13.975   2.692   0.701  1.00  0.00     0.121 A 
HETATM    2  C2  UNL     1      13.032   3.709   0.585  1.00  0.00     0.051 A 
HETATM    3  C3  UNL     1      11.666   3.415   0.505  1.00  0.00     0.102 A 
HETATM    4  C4  UNL     1      11.199   2.100   0.528  1.00  0.00     0.026 A 
HETATM    5  C5  UNL     1      12.133   1.044   0.665  1.00  0.00     0.007 A 
HETATM    6  C6  UNL     1      13.499   1.346   0.716  1.00  0.00     0.149 A 
HETATM    7  O2  UNL     1      14.381   0.311   0.786  1.00  0.00    -0.188 OA
HETATM    8  C18 UNL     1       9.765   2.253   0.354  1.00  0.00     0.069 A 
HETATM    9  C19 UNL     1       9.507   3.589   0.274  1.00  0.00     0.142 A 
HETATM   10  O3  UNL     1      10.656   4.335   0.364  1.00  0.00    -0.304 OA
HETATM   11  C20 UNL     1       8.141   4.112   0.053  1.00  0.00     0.216 A 
HETATM   12  C21 UNL     1       7.050   3.117  -0.176  1.00  0.00     0.047 A 
HETATM   13  C22 UNL     1       7.313   1.787  -0.108  1.00  0.00     0.169 A 
HETATM   14  C23 UNL     1       8.679   1.262   0.208  1.00  0.00     0.223 A 
HETATM   15  O4  UNL     1       8.844   0.053   0.312  1.00  0.00    -0.284 OA
HETATM   16  O5  UNL     1       6.407   0.796  -0.332  1.00  0.00    -0.187 OA
HETATM   17  O6  UNL     1       7.929   5.321   0.043  1.00  0.00    -0.285 OA
ENDROOT
BRANCH   5  18
HETATM   18  C7  UNL     1      11.693  -0.401   0.757  1.00  0.00     0.029 C 
BRANCH  18  19
HETATM   19  C8  UNL     1      11.548  -1.018  -0.641  1.00  0.00     0.005 C 
BRANCH  19  20
HETATM   20  C9  UNL     1      11.096  -2.484  -0.569  1.00  0.00     0.000 C 
BRANCH  20  21
HETATM   21  C10 UNL     1      10.659  -3.024  -1.940  1.00  0.00     0.000 C 
BRANCH  21  22
HETATM   22  C11 UNL     1      10.240  -4.501  -1.856  1.00  0.00     0.000 C 
BRANCH  22  23
HETATM   23  C12 UNL     1       9.400  -4.945  -3.065  1.00  0.00     0.000 C 
BRANCH  23  24
HETATM   24  C13 UNL     1       8.679  -6.287  -2.851  1.00  0.00     0.000 C 
BRANCH  24  25
HETATM   25  C14 UNL     1       7.270  -6.206  -2.227  1.00  0.00     0.000 C 
BRANCH  25  26
HETATM   26  C15 UNL     1       7.194  -5.728  -0.766  1.00  0.00     0.000 C 
BRANCH  26  27
HETATM   27  C16 UNL     1       6.969  -4.212  -0.615  1.00  0.00     0.000 C 
HETATM   28  C17 UNL     1       7.166  -3.745   0.834  1.00  0.00     0.000 C 
ENDBRANCH  26  27
ENDBRANCH  25  26
ENDBRANCH  24  25
ENDBRANCH  23  24
ENDBRANCH  22  23
ENDBRANCH  21  22
ENDBRANCH  20  21
ENDBRANCH  19  20
ENDBRANCH  18  19
ENDBRANCH   5  18
BRANCH   1  29
HETATM   29  O1  UNL     1      15.290   3.097   0.720  1.00  0.00    -0.326 OA
HETATM   30  C35 UNL     1      16.331   2.185   0.477  1.00  0.00     0.181 C 
ENDBRANCH   1  29
BRANCH  12  31
HETATM   31  C24 UNL     1       5.697   3.762  -0.454  1.00  0.00     0.032 C 
BRANCH  31  32
HETATM   32  C25 UNL     1       4.471   2.866  -0.659  1.00  0.00     0.005 C 
BRANCH  32  33
HETATM   33  C26 UNL     1       3.128   3.617  -0.690  1.00  0.00     0.000 C 
BRANCH  33  34
HETATM   34  C27 UNL     1       1.971   2.610  -0.833  1.00  0.00     0.000 C 
BRANCH  34  35
HETATM   35  C28 UNL     1       0.636   3.100  -0.247  1.00  0.00     0.000 C 
BRANCH  35  36
HETATM   36  C29 UNL     1      -0.323   1.943   0.091  1.00  0.00     0.000 C 
BRANCH  36  37
HETATM   37  C30 UNL     1      -0.221   1.370   1.522  1.00  0.00     0.000 C 
BRANCH  37  38
HETATM   38  C31 UNL     1       1.088   0.655   1.905  1.00  0.00     0.000 C 
BRANCH  38  39
HETATM   39  C32 UNL     1       2.151   1.581   2.523  1.00  0.00     0.000 C 
BRANCH  39  40
HETATM   40  C33 UNL     1       3.500   0.874   2.733  1.00  0.00     0.000 C 
HETATM   41  C34 UNL     1       4.569   1.834   3.275  1.00  0.00     0.000 C 
ENDBRANCH  39  40
ENDBRANCH  38  39
ENDBRANCH  37  38
ENDBRANCH  36  37
ENDBRANCH  35  36
ENDBRANCH  34  35
ENDBRANCH  33  34
ENDBRANCH  32  33
ENDBRANCH  31  32
ENDBRANCH  12  31
TORSDOF 21
