REMARK  0 active torsions:
REMARK  status: ('A' for Active; 'I' for Inactive)
ROOT
HETATM    1  C1  UNL     1       2.484  -1.409   0.522  1.00  0.00     0.175 C 
HETATM    2  C2  UNL     1       1.917  -0.039   0.597  1.00  0.00     0.033 C 
HETATM    3  C3  UNL     1       2.386   0.996  -0.127  1.00  0.00    -0.024 C 
HETATM    4  C4  UNL     1       1.705   2.356  -0.182  1.00  0.00     0.023 C 
HETATM    5  C5  UNL     1       0.501   2.285  -1.160  1.00  0.00     0.029 C 
HETATM    6  C6  UNL     1      -0.202   0.946  -1.179  1.00  0.00    -0.034 C 
HETATM    7  C7  UNL     1      -1.252   0.547  -0.440  1.00  0.00    -0.048 C 
HETATM    8  C8  UNL     1      -1.741  -0.891  -0.492  1.00  0.00     0.024 C 
HETATM    9  C9  UNL     1      -0.977  -1.802   0.492  1.00  0.00     0.038 C 
HETATM   10  C10 UNL     1       0.277  -2.466  -0.104  1.00  0.00     0.160 C 
HETATM   11  C11 UNL     1       1.501  -2.543   0.838  1.00  0.00     0.092 C 
HETATM   12  C12 UNL     1       2.226  -3.902   0.805  1.00  0.00     0.011 C 
HETATM   13  O1  UNL     1      -0.095  -3.752  -0.551  1.00  0.00    -0.223 OA
HETATM   14  C13 UNL     1      -1.978   1.429   0.549  1.00  0.00     0.026 C 
HETATM   15  C14 UNL     1       2.715   3.405  -0.699  1.00  0.00     0.005 C 
HETATM   16  C15 UNL     1       1.260   2.816   1.223  1.00  0.00     0.005 C 
HETATM   17  O2  UNL     1       3.648  -1.607   0.198  1.00  0.00    -0.291 OA
ENDROOT
TORSDOF 0
