REMARK  2 active torsions:
REMARK  status: ('A' for Active; 'I' for Inactive)
REMARK    1  A    between atoms: C1_1  and  O3_23 
REMARK    2  A    between atoms: O3_23  and  C21_24 
ROOT
HETATM    1  C1  UNL     1      -1.077  -0.127  -2.175  1.00  0.00     0.133 C 
HETATM    2  C2  UNL     1      -1.794  -1.229  -1.475  1.00  0.00     0.195 C 
HETATM    3  C3  UNL     1      -1.058  -2.071  -0.429  1.00  0.00     0.058 C 
HETATM    4  C4  UNL     1       0.316  -1.449  -0.055  1.00  0.00     0.011 C 
HETATM    5  C5  UNL     1       0.403   0.098  -0.144  1.00  0.00     0.022 C 
HETATM    6  C6  UNL     1      -0.032   0.451  -1.554  1.00  0.00     0.001 C 
HETATM    7  C7  UNL     1       1.875   0.564   0.096  1.00  0.00     0.015 C 
HETATM    8  C8  UNL     1       2.555  -0.065   1.338  1.00  0.00     0.020 C 
HETATM    9  C9  UNL     1       2.363  -1.581   1.425  1.00  0.00     0.004 C 
HETATM   10  C10 UNL     1       0.892  -1.976   1.271  1.00  0.00     0.001 C 
HETATM   11  C11 UNL     1       4.065   0.293   1.304  1.00  0.00     0.015 C 
HETATM   12  C12 UNL     1       4.050   1.772   1.734  1.00  0.00     0.070 C 
HETATM   13  C13 UNL     1       3.481   2.538   0.544  1.00  0.00     0.153 C 
HETATM   14  C14 UNL     1       2.104   2.096   0.062  1.00  0.00     0.066 C 
HETATM   15  O1  UNL     1       4.059   3.475   0.041  1.00  0.00    -0.296 OA
HETATM   16  C15 UNL     1       3.005   1.704   2.819  1.00  0.00    -0.024 C 
HETATM   17  C16 UNL     1       2.179   0.673   2.604  1.00  0.00    -0.031 C 
HETATM   18  C17 UNL     1       5.406   2.293   2.212  1.00  0.00     0.012 C 
HETATM   19  C18 UNL     1      -0.606   0.809   0.784  1.00  0.00     0.004 C 
HETATM   20  C19 UNL     1      -0.839  -3.450  -1.101  1.00  0.00     0.008 C 
HETATM   21  C20 UNL     1      -1.990  -2.305   0.782  1.00  0.00     0.008 C 
HETATM   22  O2  UNL     1      -2.926  -1.521  -1.841  1.00  0.00    -0.289 OA
ENDROOT
BRANCH   1  23
HETATM   23  O3  UNL     1      -1.498   0.241  -3.424  1.00  0.00    -0.274 OA
BRANCH  23  24
HETATM   24  C21 UNL     1      -2.290   1.349  -3.450  1.00  0.00     0.277 C 
HETATM   25  C22 UNL     1      -3.361   1.224  -4.514  1.00  0.00     0.107 C 
HETATM   26  O4  UNL     1      -2.145   2.308  -2.725  1.00  0.00    -0.264 OA
ENDBRANCH  23  24
ENDBRANCH   1  23
TORSDOF 2
