REMARK  7 active torsions:
REMARK  status: ('A' for Active; 'I' for Inactive)
REMARK    1  A    between atoms: C1_1  and  C2_2 
REMARK    2  A    between atoms: C1_1  and  O4_9 
REMARK    3  A    between atoms: C2_2  and  C3_3 
REMARK    4  A    between atoms: C3_3  and  C4_4 
REMARK    5  A    between atoms: O4_9  and  C6_10 
REMARK    6  A    between atoms: C6_10  and  C11_19 
REMARK    7  A    between atoms: C7_12  and  C10_17 
ROOT
HETATM    1  C6  UNL     1      -0.468  -0.656  -1.768  1.00  0.00     0.250 C 
HETATM    2  O5  UNL     1      -1.409   0.379  -1.611  1.00  0.00    -0.328 OA
HETATM    3  C7  UNL     1      -2.544  -0.111  -0.945  1.00  0.00     0.184 C 
HETATM    4  C8  UNL     1      -2.279  -1.563  -0.589  1.00  0.00     0.217 C 
HETATM    5  C9  UNL     1      -1.247  -1.944  -1.623  1.00  0.00     0.238 C 
HETATM    6  O6  UNL     1      -0.432  -2.990  -1.155  1.00  0.00    -0.215 OA
HETATM    7  O7  UNL     1      -3.421  -2.372  -0.728  1.00  0.00    -0.218 OA
ENDROOT
BRANCH   1   8
HETATM    8  O4  UNL     1       0.392  -0.586  -0.649  1.00  0.00    -0.328 OA
BRANCH   8   9
HETATM    9  C1  UNL     1       1.361   0.431  -0.681  1.00  0.00     0.178 C 
BRANCH   9  10
HETATM   10  C2  UNL     1       2.039   0.559   0.687  1.00  0.00     0.184 C 
HETATM   11  C5  UNL     1       3.251   1.489   0.557  1.00  0.00     0.038 C 
HETATM   12  O3  UNL     1       2.526  -0.711   1.040  1.00  0.00    -0.221 OA
BRANCH  10  13
HETATM   13  C3  UNL     1       1.055   1.012   1.767  1.00  0.00     0.215 C 
HETATM   14  O2  UNL     1       0.525   2.276   1.445  1.00  0.00    -0.218 OA
BRANCH  13  15
HETATM   15  C4  UNL     1       1.619   1.123   3.173  1.00  0.00     0.218 C 
HETATM   16  O1  UNL     1       0.600   1.647   4.003  1.00  0.00    -0.218 OA
ENDBRANCH  13  15
ENDBRANCH  10  13
ENDBRANCH   9  10
ENDBRANCH   8   9
ENDBRANCH   1   8
BRANCH   1  17
HETATM   17  C11 UNL     1       0.263  -0.536  -3.092  1.00  0.00     0.241 C 
HETATM   18  O9  UNL     1      -0.620  -0.755  -4.174  1.00  0.00    -0.215 OA
ENDBRANCH   1  17
BRANCH   3  19
HETATM   19  C10 UNL     1      -2.846   0.774   0.253  1.00  0.00     0.214 C 
HETATM   20  O8  UNL     1      -3.969   0.280   0.953  1.00  0.00    -0.218 OA
ENDBRANCH   3  19
TORSDOF 7
