REMARK  6 active torsions:
REMARK  status: ('A' for Active; 'I' for Inactive)
REMARK    1  A    between atoms: C1_1  and  C2_2 
REMARK    2  A    between atoms: C1_1  and  O4_9 
REMARK    3  A    between atoms: C2_2  and  C3_3 
REMARK    4  A    between atoms: C3_3  and  C4_4 
REMARK    5  A    between atoms: O4_9  and  C6_10 
REMARK    6  A    between atoms: C7_12  and  C11_19 
ROOT
HETATM    1  C6  UNL     1      -0.750  -0.440  -1.856  1.00  0.00     0.270 C 
HETATM    2  O5  UNL     1      -1.150   0.913  -1.894  1.00  0.00    -0.326 OA
HETATM    3  C7  UNL     1      -2.076   1.334  -0.925  1.00  0.00     0.184 C 
HETATM    4  C8  UNL     1      -3.258   0.387  -0.760  1.00  0.00     0.215 C 
HETATM    5  C9  UNL     1      -2.861  -1.076  -0.691  1.00  0.00     0.220 C 
HETATM    6  C10 UNL     1      -1.921  -1.396  -1.832  1.00  0.00     0.241 C 
HETATM    7  O6  UNL     1      -2.617  -1.295  -3.054  1.00  0.00    -0.215 OA
HETATM    8  O7  UNL     1      -2.230  -1.375   0.535  1.00  0.00    -0.218 OA
HETATM    9  O8  UNL     1      -4.143   0.559  -1.847  1.00  0.00    -0.218 OA
ENDROOT
BRANCH   1  10
HETATM   10  O4  UNL     1       0.075  -0.642  -0.730  1.00  0.00    -0.326 OA
BRANCH  10  11
HETATM   11  C1  UNL     1       1.443  -0.444  -0.989  1.00  0.00     0.178 C 
BRANCH  11  12
HETATM   12  C2  UNL     1       2.273  -0.670   0.280  1.00  0.00     0.184 C 
HETATM   13  C5  UNL     1       3.762  -0.647  -0.082  1.00  0.00     0.038 C 
HETATM   14  O3  UNL     1       1.978  -1.960   0.753  1.00  0.00    -0.221 OA
BRANCH  12  15
HETATM   15  C3  UNL     1       1.919   0.330   1.380  1.00  0.00     0.215 C 
HETATM   16  O2  UNL     1       2.148   1.644   0.931  1.00  0.00    -0.218 OA
BRANCH  15  17
HETATM   17  C4  UNL     1       2.662   0.182   2.695  1.00  0.00     0.218 C 
HETATM   18  O1  UNL     1       2.224   1.226   3.544  1.00  0.00    -0.218 OA
ENDBRANCH  15  17
ENDBRANCH  12  15
ENDBRANCH  11  12
ENDBRANCH  10  11
ENDBRANCH   1  10
BRANCH   3  19
HETATM   19  C11 UNL     1      -1.406   1.726   0.386  1.00  0.00     0.214 C 
HETATM   20  O9  UNL     1      -2.247   2.593   1.122  1.00  0.00    -0.218 OA
ENDBRANCH   3  19
TORSDOF 6
