REMARK  6 active torsions:
REMARK  status: ('A' for Active; 'I' for Inactive)
REMARK    1  A    between atoms: C1_1  and  C2_2 
REMARK    2  A    between atoms: C2_2  and  C3_3 
REMARK    3  A    between atoms: C3_3  and  C4_4 
REMARK    4  A    between atoms: C3_3  and  O2_6 
REMARK    5  A    between atoms: O2_6  and  C5_7 
REMARK    6  A    between atoms: C6_9  and  C10_16 
ROOT
HETATM    1  C5  UNL     1      -0.501   0.008  -1.337  1.00  0.00     0.270 C 
HETATM    2  O3  UNL     1      -0.869   1.369  -1.308  1.00  0.00    -0.326 OA
HETATM    3  C6  UNL     1      -1.820   1.756  -0.351  1.00  0.00     0.184 C 
HETATM    4  C7  UNL     1      -3.050   0.857  -0.320  1.00  0.00     0.215 C 
HETATM    5  C8  UNL     1      -2.712  -0.621  -0.297  1.00  0.00     0.220 C 
HETATM    6  C9  UNL     1      -1.693  -0.921  -1.375  1.00  0.00     0.241 C 
HETATM    7  O4  UNL     1      -2.317  -0.806  -2.635  1.00  0.00    -0.215 OA
HETATM    8  O5  UNL     1      -2.202  -0.990   0.961  1.00  0.00    -0.218 OA
HETATM    9  O6  UNL     1      -3.825   1.115  -1.470  1.00  0.00    -0.218 OA
ENDROOT
BRANCH   1  10
HETATM   10  O2  UNL     1       0.338  -0.284  -0.242  1.00  0.00    -0.326 OA
BRANCH  10  11
HETATM   11  C3  UNL     1       1.719  -0.284  -0.502  1.00  0.00     0.181 C 
BRANCH  11  12
HETATM   12  C2  UNL     1       2.448  -0.359   0.854  1.00  0.00     0.184 C 
HETATM   13  C11 UNL     1       2.106  -1.639   1.625  1.00  0.00     0.038 C 
HETATM   14  O8  UNL     1       3.834  -0.352   0.622  1.00  0.00    -0.221 OA
BRANCH  12  15
HETATM   15  C1  UNL     1       2.179   0.868   1.718  1.00  0.00     0.215 C 
HETATM   16  O9  UNL     1       3.141   0.915   2.754  1.00  0.00    -0.218 OA
ENDBRANCH  12  15
ENDBRANCH  11  12
BRANCH  11  17
HETATM   17  C4  UNL     1       2.129  -1.447  -1.411  1.00  0.00     0.214 C 
HETATM   18  O1  UNL     1       2.103  -1.073  -2.775  1.00  0.00    -0.218 OA
ENDBRANCH  11  17
ENDBRANCH  10  11
ENDBRANCH   1  10
BRANCH   3  19
HETATM   19  C10 UNL     1      -1.193   2.029   1.009  1.00  0.00     0.214 C 
HETATM   20  O7  UNL     1      -2.078   2.801   1.798  1.00  0.00    -0.218 OA
ENDBRANCH   3  19
TORSDOF 6
