REMARK  5 active torsions:
REMARK  status: ('A' for Active; 'I' for Inactive)
REMARK    1  A    between atoms: C5_5  and  O3_16 
REMARK    2  A    between atoms: C6_6  and  O1_9 
REMARK    3  A    between atoms: O1_9  and  C9_10 
REMARK    4  A    between atoms: C9_10  and  C10_12 
REMARK    5  A    between atoms: O3_16  and  C14_17 
ROOT
HETATM    1  C1  UNL     1      -1.171  -1.229   0.368  1.00  0.00    -0.012 A 
HETATM    2  C2  UNL     1       0.006  -2.184   0.266  1.00  0.00     0.182 A 
HETATM    3  C3  UNL     1       1.055  -1.756   1.280  1.00  0.00     0.166 C 
HETATM    4  C4  UNL     1       1.958  -0.583   0.844  1.00  0.00     0.089 C 
HETATM    5  C5  UNL     1       1.291   0.800   0.797  1.00  0.00     0.162 C 
HETATM    6  C6  UNL     1       0.149   0.851  -0.237  1.00  0.00     0.170 C 
HETATM    7  C7  UNL     1      -1.110   0.106   0.207  1.00  0.00    -0.019 C 
HETATM    8  C8  UNL     1      -2.333   0.968   0.459  1.00  0.00     0.028 C 
HETATM    9  C16 UNL     1       3.131  -0.821   1.766  1.00  0.00     0.046 C 
HETATM   10  C17 UNL     1       3.076  -2.272   2.023  1.00  0.00     0.292 C 
HETATM   11  O5  UNL     1       1.888  -2.822   1.664  1.00  0.00    -0.298 OA
HETATM   12  O6  UNL     1       4.004  -2.927   2.490  1.00  0.00    -0.260 OA
HETATM   13  C18 UNL     1       4.066  -0.002   2.273  1.00  0.00     0.001 C 
HETATM   14  C19 UNL     1      -0.657  -3.514   0.535  1.00  0.00    -0.015 A 
HETATM   15  C20 UNL     1      -1.960  -3.387   0.806  1.00  0.00    -0.027 A 
HETATM   16  C21 UNL     1      -2.425  -1.965   0.793  1.00  0.00     0.050 A 
HETATM   17  C22 UNL     1       0.055  -4.833   0.441  1.00  0.00     0.029 C 
HETATM   18  O7  UNL     1       0.520  -2.207  -1.050  1.00  0.00    -0.215 OA
ENDROOT
BRANCH   6  19
HETATM   19  O1  UNL     1      -0.176   2.198  -0.509  1.00  0.00    -0.294 OA
BRANCH  19  20
HETATM   20  C9  UNL     1       0.286   2.875  -1.604  1.00  0.00     0.292 C 
HETATM   21  O2  UNL     1       0.068   4.080  -1.665  1.00  0.00    -0.260 OA
BRANCH  20  22
HETATM   22  C10 UNL     1       1.105   2.309  -2.737  1.00  0.00     0.037 C 
HETATM   23  C11 UNL     1       2.416   2.999  -3.032  1.00  0.00     0.036 C 
HETATM   24  C12 UNL     1       0.657   1.298  -3.503  1.00  0.00    -0.025 C 
HETATM   25  C13 UNL     1      -0.685   0.621  -3.423  1.00  0.00     0.030 C 
ENDBRANCH  20  22
ENDBRANCH  19  20
ENDBRANCH   6  19
BRANCH   5  26
HETATM   26  O3  UNL     1       2.272   1.720   0.393  1.00  0.00    -0.301 OA
BRANCH  26  27
HETATM   27  C14 UNL     1       2.506   2.924   0.993  1.00  0.00     0.272 C 
HETATM   28  O4  UNL     1       3.376   3.671   0.597  1.00  0.00    -0.264 OA
HETATM   29  C15 UNL     1       1.640   3.290   2.184  1.00  0.00     0.106 C 
ENDBRANCH  26  27
ENDBRANCH   5  26
TORSDOF 5
