REMARK  0 active torsions:
REMARK  status: ('A' for Active; 'I' for Inactive)
ROOT
HETATM    1  C1  UNL     1      -1.155  -0.872   0.375  1.00  0.00     0.063 C 
HETATM    2  C2  UNL     1      -2.058   0.092  -0.405  1.00  0.00     0.079 C 
HETATM    3  C3  UNL     1      -1.545   1.516  -0.392  1.00  0.00     0.198 C 
HETATM    4  C4  UNL     1      -0.084   1.706  -0.601  1.00  0.00     0.164 C 
HETATM    5  C5  UNL     1       0.767   0.659  -0.491  1.00  0.00     0.041 C 
HETATM    6  C6  UNL     1       0.288  -0.694  -0.086  1.00  0.00     0.171 C 
HETATM    7  O1  UNL     1       1.068  -1.637  -0.062  1.00  0.00    -0.292 OA
HETATM    8  C7  UNL     1       2.253   0.789  -0.741  1.00  0.00     0.036 C 
HETATM    9  O2  UNL     1       0.316   2.959  -0.951  1.00  0.00    -0.187 OA
HETATM   10  O3  UNL     1      -2.320   2.460  -0.312  1.00  0.00    -0.289 OA
HETATM   11  C8  UNL     1      -1.617  -2.322   0.124  1.00  0.00     0.008 C 
HETATM   12  C9  UNL     1      -1.205  -0.573   1.885  1.00  0.00     0.008 C 
ENDROOT
TORSDOF 0
