REMARK  2 active torsions:
REMARK  status: ('A' for Active; 'I' for Inactive)
REMARK    1  A    between atoms: C2_2  and  O3_18 
REMARK    2  A    between atoms: C13_13  and  O1_15 
ROOT
HETATM    1  C1  UNL     1       3.269  -2.876   0.000  1.00  0.00     0.024 A 
HETATM    2  C2  UNL     1       4.684  -2.856  -0.005  1.00  0.00     0.094 A 
HETATM    3  C3  UNL     1       5.267  -1.596  -0.004  1.00  0.00     0.024 A 
HETATM    4  C4  UNL     1       4.505  -0.400  -0.002  1.00  0.00     0.002 A 
HETATM    5  C5  UNL     1       3.100  -0.441  -0.001  1.00  0.00     0.000 A 
HETATM    6  C6  UNL     1       2.502  -1.726   0.002  1.00  0.00     0.002 A 
HETATM    7  C7  UNL     1       2.348   0.807  -0.001  1.00  0.00     0.002 A 
HETATM    8  C8  UNL     1       3.050   2.023   0.001  1.00  0.00     0.002 A 
HETATM    9  C9  UNL     1       4.493   2.038   0.000  1.00  0.00     0.000 A 
HETATM   10  C10 UNL     1       5.192   0.871  -0.002  1.00  0.00     0.000 A 
HETATM   11  C11 UNL     1       2.336   3.244   0.002  1.00  0.00     0.029 A 
HETATM   12  C12 UNL     1       0.954   3.276  -0.000  1.00  0.00     0.153 A 
HETATM   13  C13 UNL     1       0.216   2.065  -0.008  1.00  0.00     0.119 A 
HETATM   14  C14 UNL     1       0.930   0.873  -0.006  1.00  0.00     0.026 A 
HETATM   15  O2  UNL     1       0.285   4.460   0.001  1.00  0.00    -0.188 OA
ENDROOT
BRANCH   2  16
HETATM   16  O3  UNL     1       5.360  -4.051  -0.005  1.00  0.00    -0.328 OA
HETATM   17  C16 UNL     1       6.769  -4.026   0.004  1.00  0.00     0.181 C 
ENDBRANCH   2  16
BRANCH  13  18
HETATM   18  O1  UNL     1      -1.154   2.168  -0.011  1.00  0.00    -0.326 OA
HETATM   19  C15 UNL     1      -1.928   0.991   0.001  1.00  0.00     0.181 C 
ENDBRANCH  13  18
TORSDOF 2
