REMARK  2 active torsions:
REMARK  status: ('A' for Active; 'I' for Inactive)
REMARK    1  A    between atoms: C2_2  and  O4_11 
REMARK    2  A    between atoms: C5_5  and  C7_7 
ROOT
HETATM    1  C1  UNL     1       2.139   1.520  -0.140  1.00  0.00     0.025 A 
HETATM    2  C2  UNL     1       2.728   0.274   0.094  1.00  0.00     0.096 A 
HETATM    3  C3  UNL     1       1.837  -0.804   0.230  1.00  0.00     0.052 A 
HETATM    4  C4  UNL     1       0.444  -0.689   0.180  1.00  0.00     0.139 A 
HETATM    5  C5  UNL     1      -0.106   0.594  -0.010  1.00  0.00     0.090 A 
HETATM    6  C6  UNL     1       0.754   1.687  -0.179  1.00  0.00     0.010 A 
HETATM    7  O3  UNL     1      -0.307  -1.808   0.377  1.00  0.00    -0.190 OA
ENDROOT
BRANCH   5   8
HETATM    8  C7  UNL     1      -1.574   0.835  -0.089  1.00  0.00     0.213 C 
HETATM    9  O1  UNL     1      -2.013   1.974  -0.200  1.00  0.00    -0.644 OA
HETATM   10  O2  UNL     1      -2.498  -0.144  -0.050  1.00  0.00    -0.644 OA
ENDBRANCH   5   8
BRANCH   2  11
HETATM   11  O4  UNL     1       4.097   0.178   0.095  1.00  0.00    -0.328 OA
HETATM   12  C8  UNL     1       4.677  -1.102  -0.012  1.00  0.00     0.181 C 
ENDBRANCH   2  11
TORSDOF 2
