REMARK  2 active torsions:
REMARK  status: ('A' for Active; 'I' for Inactive)
REMARK    1  A    between atoms: C9_9  and  C10_11 
REMARK    2  A    between atoms: C10_11  and  C11_12 
ROOT
HETATM    1  C1  UNL     1      -1.471  -3.242  -0.771  1.00  0.00     0.000 A 
HETATM    2  C2  UNL     1      -0.159  -3.413  -0.990  1.00  0.00     0.002 A 
HETATM    3  C3  UNL     1       0.689  -2.389  -0.805  1.00  0.00     0.019 A 
HETATM    4  C4  UNL     1       0.239  -1.187  -0.402  1.00  0.00     0.081 A 
HETATM    5  C5  UNL     1      -1.080  -1.020  -0.182  1.00  0.00     0.018 A 
HETATM    6  C6  UNL     1      -1.929  -2.047  -0.367  1.00  0.00     0.002 A 
HETATM    7  C7  UNL     1      -1.510   0.189   0.217  1.00  0.00     0.003 A 
HETATM    8  C8  UNL     1      -0.606   1.166   0.373  1.00  0.00     0.015 A 
HETATM    9  C9  UNL     1       0.690   0.905   0.129  1.00  0.00     0.059 A 
HETATM   10  N1  UNL     1       1.072  -0.243  -0.244  1.00  0.00    -0.250 NA
ENDROOT
BRANCH   9  11
HETATM   11  C10 UNL     1       1.755   1.971   0.278  1.00  0.00     0.046 C 
BRANCH  11  12
HETATM   12  C11 UNL     1       3.167   1.451   0.597  1.00  0.00     0.006 C 
HETATM   13  C12 UNL     1       4.168   2.603   0.767  1.00  0.00     0.000 C 
ENDBRANCH  11  12
ENDBRANCH   9  11
TORSDOF 2
