REMARK  7 active torsions:
REMARK  status: ('A' for Active; 'I' for Inactive)
REMARK    1  A    between atoms: C4_4  and  O3_9 
REMARK    2  A    between atoms: C5_6  and  C6_7 
REMARK    3  A    between atoms: O3_9  and  C7_10 
REMARK    4  A    between atoms: C9_12  and  O6_21 
REMARK    5  A    between atoms: C12_15  and  C13_16 
REMARK    6  A    between atoms: C13_16  and  C14_17 
REMARK    7  A    between atoms: C14_17  and  C15_18 
ROOT
HETATM    1  C7  UNL     1       1.634  -0.233   0.467  1.00  0.00     0.095 A 
HETATM    2  C8  UNL     1       1.999   0.003   1.743  1.00  0.00     0.048 A 
HETATM    3  C9  UNL     1       2.630   1.109   2.181  1.00  0.00     0.096 A 
HETATM    4  C10 UNL     1       2.945   2.010   1.234  1.00  0.00     0.024 A 
HETATM    5  C11 UNL     1       2.625   1.804  -0.051  1.00  0.00    -0.000 A 
HETATM    6  C12 UNL     1       1.993   0.688  -0.455  1.00  0.00     0.001 A 
ENDROOT
BRANCH   1   7
HETATM    7  O3  UNL     1       1.036  -1.432   0.166  1.00  0.00    -0.304 OA
BRANCH   7   8
HETATM    8  C4  UNL     1      -0.303  -1.423  -0.280  1.00  0.00     0.274 C 
HETATM    9  C3  UNL     1      -0.916  -2.768   0.028  1.00  0.00     0.241 C 
HETATM   10  C2  UNL     1      -2.354  -2.761  -0.440  1.00  0.00     0.220 C 
HETATM   11  O7  UNL     1      -0.214  -3.776  -0.654  1.00  0.00    -0.215 OA
HETATM   12  C1  UNL     1      -3.072  -1.608   0.231  1.00  0.00     0.215 C 
HETATM   13  O8  UNL     1      -2.973  -3.973  -0.091  1.00  0.00    -0.218 OA
HETATM   14  C5  UNL     1      -2.333  -0.301  -0.033  1.00  0.00     0.184 C 
HETATM   15  O9  UNL     1      -4.381  -1.563  -0.283  1.00  0.00    -0.218 OA
HETATM   16  O1  UNL     1      -1.001  -0.409   0.404  1.00  0.00    -0.326 OA
BRANCH  14  17
HETATM   17  C6  UNL     1      -2.981   0.876   0.679  1.00  0.00     0.214 C 
HETATM   18  O2  UNL     1      -2.335   2.076   0.300  1.00  0.00    -0.218 OA
ENDBRANCH  14  17
ENDBRANCH   7   8
ENDBRANCH   1   7
BRANCH   6  19
HETATM   19  C13 UNL     1       1.720   0.523  -1.937  1.00  0.00     0.040 C 
BRANCH  19  20
HETATM   20  C14 UNL     1       0.519   1.379  -2.370  1.00  0.00     0.102 C 
BRANCH  20  21
HETATM   21  C15 UNL     1       0.020   0.991  -3.747  1.00  0.00     0.186 C 
HETATM   22  O4  UNL     1      -0.581  -0.019  -4.026  1.00  0.00    -0.647 OA
HETATM   23  O5  UNL     1       0.337   1.908  -4.679  1.00  0.00    -0.647 OA
ENDBRANCH  20  21
ENDBRANCH  19  20
ENDBRANCH   6  19
BRANCH   3  24
HETATM   24  O6  UNL     1       2.961   1.208   3.512  1.00  0.00    -0.328 OA
HETATM   25  C16 UNL     1       3.911   2.176   3.896  1.00  0.00     0.181 C 
ENDBRANCH   3  24
TORSDOF 7
