REMARK  4 active torsions:
REMARK  status: ('A' for Active; 'I' for Inactive)
REMARK    1  A    between atoms: C3_3  and  O2_9 
REMARK    2  A    between atoms: C5_6  and  C6_7 
REMARK    3  A    between atoms: O2_9  and  C7_10 
REMARK    4  A    between atoms: C8_12  and  C12_19 
ROOT
HETATM    1  C7  UNL     1       0.361  -0.616   1.414  1.00  0.00     0.270 C 
HETATM    2  O3  UNL     1      -0.395  -1.712   1.886  1.00  0.00    -0.326 OA
HETATM    3  C8  UNL     1      -0.406  -2.834   1.042  1.00  0.00     0.184 C 
HETATM    4  C9  UNL     1       1.000  -3.310   0.699  1.00  0.00     0.215 C 
HETATM    5  C10 UNL     1       1.834  -2.176   0.147  1.00  0.00     0.220 C 
HETATM    6  C11 UNL     1       1.789  -1.005   1.103  1.00  0.00     0.241 C 
HETATM    7  O4  UNL     1       2.487   0.068   0.513  1.00  0.00    -0.215 OA
HETATM    8  O5  UNL     1       3.168  -2.599   0.019  1.00  0.00    -0.218 OA
HETATM    9  O6  UNL     1       1.653  -3.814   1.840  1.00  0.00    -0.218 OA
ENDROOT
BRANCH   1  10
HETATM   10  O2  UNL     1      -0.278  -0.117   0.261  1.00  0.00    -0.327 OA
BRANCH  10  11
HETATM   11  C3  UNL     1      -0.985   1.079   0.437  1.00  0.00     0.187 C 
HETATM   12  C2  UNL     1      -1.816   1.318  -0.821  1.00  0.00     0.214 C 
HETATM   13  C1  UNL     1      -0.967   1.650  -2.045  1.00  0.00     0.221 C 
HETATM   14  O8  UNL     1      -2.732   2.360  -0.578  1.00  0.00    -0.218 OA
HETATM   15  C5  UNL     1       0.164   2.650  -1.789  1.00  0.00     0.322 C 
HETATM   16  O9  UNL     1      -0.386   0.459  -2.526  1.00  0.00    -0.218 OA
HETATM   17  N1  UNL     1       0.868   2.304  -0.553  1.00  0.00     0.345 N 
HETATM   18  C4  UNL     1      -0.008   2.244   0.614  1.00  0.00     0.322 C 
BRANCH  15  19
HETATM   19  C6  UNL     1      -0.287   4.111  -1.800  1.00  0.00     0.221 C 
HETATM   20  O1  UNL     1      -0.568   4.507  -3.128  1.00  0.00    -0.218 OA
ENDBRANCH  15  19
ENDBRANCH  10  11
ENDBRANCH   1  10
BRANCH   3  21
HETATM   21  C12 UNL     1      -1.212  -3.936   1.718  1.00  0.00     0.214 C 
HETATM   22  O7  UNL     1      -2.570  -3.552   1.818  1.00  0.00    -0.218 OA
ENDBRANCH   3  21
TORSDOF 4
