REMARK  2 active torsions:
REMARK  status: ('A' for Active; 'I' for Inactive)
REMARK    1  A    between atoms: C14_15  and  O2_18 
REMARK    2  A    between atoms: O2_18  and  C16_19 
ROOT
HETATM    1  C1  UNL     1      -0.657  -0.855   0.224  1.00  0.00     0.119 A 
HETATM    2  C2  UNL     1      -0.590  -2.228   0.407  1.00  0.00     0.119 A 
HETATM    3  C3  UNL     1       0.634  -2.877   0.532  1.00  0.00     0.024 A 
HETATM    4  C4  UNL     1       1.808  -2.112   0.468  1.00  0.00     0.009 A 
HETATM    5  C5  UNL     1       1.740  -0.712   0.269  1.00  0.00    -0.018 A 
HETATM    6  C6  UNL     1       0.494  -0.076   0.155  1.00  0.00     0.022 A 
HETATM    7  C7  UNL     1       3.019   0.104   0.215  1.00  0.00     0.091 C 
HETATM    8  C8  UNL     1       4.130  -0.857  -0.185  1.00  0.00     0.244 C 
HETATM    9  N1  UNL     1       4.233  -1.933   0.763  1.00  0.00     0.144 N 
HETATM   10  C9  UNL     1       3.131  -2.856   0.600  1.00  0.00     0.277 C 
HETATM   11  C10 UNL     1       5.572  -2.461   0.539  1.00  0.00     0.255 C 
HETATM   12  C11 UNL     1       6.462  -1.205   0.346  1.00  0.00     0.059 C 
HETATM   13  C12 UNL     1       5.463  -0.206  -0.173  1.00  0.00    -0.013 C 
HETATM   14  C13 UNL     1       5.622   1.079  -0.502  1.00  0.00    -0.001 C 
HETATM   15  C14 UNL     1       4.446   1.958  -0.886  1.00  0.00     0.176 C 
HETATM   16  C15 UNL     1       3.064   1.290  -0.754  1.00  0.00     0.190 C 
HETATM   17  O1  UNL     1       2.633   0.821  -2.010  1.00  0.00    -0.220 OA
HETATM   18  O4  UNL     1      -1.870  -2.747   0.443  1.00  0.00    -0.300 OA
HETATM   19  C18 UNL     1      -2.783  -1.653   0.286  1.00  0.00     0.304 A 
HETATM   20  O5  UNL     1      -1.982  -0.473   0.147  1.00  0.00    -0.300 OA
ENDROOT
BRANCH  15  21
HETATM   21  O2  UNL     1       4.506   3.121  -0.088  1.00  0.00    -0.297 OA
BRANCH  21  22
HETATM   22  C16 UNL     1       3.877   4.241  -0.538  1.00  0.00     0.273 C 
HETATM   23  C17 UNL     1       4.088   5.389   0.429  1.00  0.00     0.106 C 
HETATM   24  O3  UNL     1       3.244   4.320  -1.567  1.00  0.00    -0.264 OA
ENDBRANCH  21  22
ENDBRANCH  15  21
TORSDOF 2
