REMARK  1 active torsions:
REMARK  status: ('A' for Active; 'I' for Inactive)
REMARK    1  A    between atoms: C12_12  and  C15_15 
ROOT
HETATM    1  C1  UNL     1       3.537   0.920   0.187  1.00  0.00     0.033 C 
HETATM    2  C2  UNL     1       3.697  -0.481   0.795  1.00  0.00     0.152 C 
HETATM    3  C3  UNL     1       2.744  -1.516   0.144  1.00  0.00     0.029 C 
HETATM    4  C4  UNL     1       1.281  -0.992   0.244  1.00  0.00     0.006 C 
HETATM    5  C5  UNL     1       1.062   0.441  -0.346  1.00  0.00     0.019 C 
HETATM    6  C6  UNL     1       2.088   1.408   0.305  1.00  0.00     0.007 C 
HETATM    7  C7  UNL     1      -0.365   0.842  -0.100  1.00  0.00    -0.027 A 
HETATM    8  C8  UNL     1      -1.389  -0.108  -0.377  1.00  0.00    -0.026 A 
HETATM    9  C9  UNL     1      -1.014  -1.432  -0.928  1.00  0.00     0.026 C 
HETATM   10  C10 UNL     1       0.240  -2.031  -0.262  1.00  0.00     0.005 C 
HETATM   11  C11 UNL     1      -2.750   0.211  -0.137  1.00  0.00    -0.009 A 
HETATM   12  C12 UNL     1      -3.102   1.482   0.371  1.00  0.00    -0.023 A 
HETATM   13  C13 UNL     1      -2.094   2.437   0.635  1.00  0.00    -0.005 A 
HETATM   14  C14 UNL     1      -0.736   2.123   0.398  1.00  0.00    -0.005 A 
HETATM   15  C18 UNL     1       1.293   0.451  -1.865  1.00  0.00     0.004 C 
HETATM   16  C19 UNL     1       2.855  -2.850   0.896  1.00  0.00     0.003 C 
HETATM   17  C20 UNL     1       3.129  -1.766  -1.322  1.00  0.00     0.003 C 
HETATM   18  O1  UNL     1       5.047  -0.887   0.662  1.00  0.00    -0.224 OA
ENDROOT
BRANCH  12  19
HETATM   19  C15 UNL     1      -4.514   1.810   0.623  1.00  0.00     0.022 C 
HETATM   20  C16 UNL     1      -5.334   1.797  -0.666  1.00  0.00     0.005 C 
HETATM   21  C17 UNL     1      -5.111   0.918   1.711  1.00  0.00     0.005 C 
ENDBRANCH  12  19
TORSDOF 1
