REMARK  4 active torsions:
REMARK  status: ('A' for Active; 'I' for Inactive)
REMARK    1  A    between atoms: C2_3  and  C5_6 
REMARK    2  A    between atoms: C5_6  and  O1_7 
REMARK    3  A    between atoms: O1_7  and  C6_8 
REMARK    4  A    between atoms: C7_9  and  C23_31 
ROOT
HETATM    1  C6  UNL     1       3.246  -0.426  -0.317  1.00  0.00     0.155 C 
HETATM    2  C7  UNL     1       3.207   1.024  -1.044  1.00  0.00     0.159 C 
HETATM    3  C8  UNL     1       2.087   1.285  -0.073  1.00  0.00     0.106 C 
HETATM    4  C9  UNL     1       1.245  -0.009  -0.582  1.00  0.00     0.163 C 
HETATM    5  C10 UNL     1       1.818  -0.889   0.495  1.00  0.00     0.064 C 
HETATM    6  C11 UNL     1       0.560  -0.182   1.369  1.00  0.00     0.038 C 
HETATM    7  C12 UNL     1      -0.661  -0.549   0.499  1.00  0.00     0.154 C 
HETATM    8  C13 UNL     1      -0.254   0.240  -0.729  1.00  0.00     0.174 C 
HETATM    9  O2  UNL     1      -0.257   1.629  -0.702  1.00  0.00    -0.330 OA
HETATM   10  C14 UNL     1       0.772   2.002   0.139  1.00  0.00     0.224 C 
HETATM   11  O3  UNL     1       0.824   3.401   0.103  1.00  0.00    -0.195 OA
HETATM   12  C15 UNL     1       0.355   1.391   1.489  1.00  0.00     0.062 C 
HETATM   13  C16 UNL     1      -1.142  -0.136  -1.930  1.00  0.00     0.181 C 
HETATM   14  C17 UNL     1      -2.643  -0.200  -1.567  1.00  0.00     0.033 C 
HETATM   15  C18 UNL     1      -2.935   0.364  -0.161  1.00  0.00     0.005 C 
HETATM   16  C19 UNL     1      -2.106  -0.311   0.943  1.00  0.00     0.033 C 
HETATM   17  C20 UNL     1      -3.293  -1.588  -1.732  1.00  0.00     0.003 C 
HETATM   18  O4  UNL     1      -0.735  -1.320  -2.578  1.00  0.00    -0.221 OA
HETATM   19  O5  UNL     1      -0.549  -1.921   0.196  1.00  0.00    -0.223 OA
HETATM   20  C21 UNL     1       0.424  -0.837   2.760  1.00  0.00     0.003 C 
HETATM   21  O6  UNL     1       1.425  -0.715  -1.799  1.00  0.00    -0.223 OA
HETATM   22  C22 UNL     1       2.864   1.646   1.269  1.00  0.00     0.010 C 
HETATM   23  O7  UNL     1       2.722   1.099  -2.361  1.00  0.00    -0.223 OA
ENDROOT
BRANCH   1  24
HETATM   24  O1  UNL     1       4.396  -0.597   0.478  1.00  0.00    -0.297 OA
BRANCH  24  25
HETATM   25  C5  UNL     1       4.699  -1.852   0.925  1.00  0.00     0.314 C 
HETATM   26  O8  UNL     1       3.922  -2.791   0.774  1.00  0.00    -0.257 OA
BRANCH  25  27
HETATM   27  C2  UNL     1       6.020  -2.140   1.517  1.00  0.00     0.144 A 
HETATM   28  N1  UNL     1       7.043  -1.229   1.705  1.00  0.00    -0.239 NA
HETATM   29  C1  UNL     1       8.110  -1.865   2.278  1.00  0.00     0.099 A 
HETATM   30  C4  UNL     1       7.767  -3.193   2.460  1.00  0.00     0.022 A 
HETATM   31  C3  UNL     1       6.453  -3.372   1.984  1.00  0.00     0.026 A 
ENDBRANCH  25  27
ENDBRANCH  24  25
ENDBRANCH   1  24
BRANCH   2  32
HETATM   32  C23 UNL     1       4.547   1.792  -1.092  1.00  0.00     0.031 C 
HETATM   33  C24 UNL     1       5.463   1.259  -2.215  1.00  0.00     0.003 C 
HETATM   34  C25 UNL     1       4.336   3.308  -1.262  1.00  0.00     0.003 C 
ENDBRANCH   2  32
TORSDOF 4
