REMARK  3 active torsions:
REMARK  status: ('A' for Active; 'I' for Inactive)
REMARK    1  A    between atoms: C16_18  and  C19_23 
REMARK    2  A    between atoms: C16_18  and  O3_25 
REMARK    3  A    between atoms: O3_25  and  C21_26 
ROOT
HETATM    1  C1  UNL     1      -2.112  -0.273   0.034  1.00  0.00     0.000 A 
HETATM    2  C2  UNL     1      -1.452  -1.463   0.444  1.00  0.00     0.002 A 
HETATM    3  C3  UNL     1      -0.080  -1.507   0.512  1.00  0.00     0.019 A 
HETATM    4  C4  UNL     1       0.701  -0.361   0.170  1.00  0.00     0.081 A 
HETATM    5  C5  UNL     1       0.041   0.820  -0.240  1.00  0.00     0.018 A 
HETATM    6  C6  UNL     1      -1.385   0.845  -0.300  1.00  0.00     0.002 A 
HETATM    7  C7  UNL     1       0.810   1.969  -0.594  1.00  0.00     0.001 A 
HETATM    8  C8  UNL     1       2.174   1.849  -0.512  1.00  0.00     0.020 A 
HETATM    9  C9  UNL     1       2.753   0.624  -0.091  1.00  0.00     0.095 A 
HETATM   10  N1  UNL     1       2.072  -0.447   0.244  1.00  0.00    -0.244 NA
HETATM   11  C10 UNL     1       4.197   0.839  -0.144  1.00  0.00     0.080 A 
HETATM   12  N2  UNL     1       4.477   2.126  -0.579  1.00  0.00    -0.290 N 
HETATM   13  C11 UNL     1       3.231   2.872  -0.831  1.00  0.00     0.138 A 
HETATM   14  C12 UNL     1       5.710   2.653  -0.777  1.00  0.00     0.259 A 
HETATM   15  C13 UNL     1       6.844   1.749  -0.491  1.00  0.00     0.063 A 
HETATM   16  C14 UNL     1       6.602   0.480  -0.051  1.00  0.00     0.016 A 
HETATM   17  C15 UNL     1       5.240   0.005   0.127  1.00  0.00     0.017 A 
HETATM   18  C16 UNL     1       7.796  -0.442   0.173  1.00  0.00     0.197 C 
HETATM   19  C17 UNL     1       8.998   0.373   0.697  1.00  0.00     0.301 C 
HETATM   20  O1  UNL     1       9.156   1.638   0.223  1.00  0.00    -0.295 OA
HETATM   21  C18 UNL     1       8.260   2.193  -0.711  1.00  0.00     0.183 C 
HETATM   22  O2  UNL     1       9.756  -0.089   1.524  1.00  0.00    -0.261 OA
HETATM   23  O5  UNL     1       5.873   3.807  -1.185  1.00  0.00    -0.267 OA
ENDROOT
BRANCH  18  24
HETATM   24  C19 UNL     1       8.177  -1.101  -1.166  1.00  0.00     0.042 C 
HETATM   25  C20 UNL     1       7.124  -2.071  -1.724  1.00  0.00     0.003 C 
ENDBRANCH  18  24
BRANCH  18  26
HETATM   26  O3  UNL     1       7.423  -1.383   1.171  1.00  0.00    -0.293 OA
BRANCH  26  27
HETATM   27  C21 UNL     1       8.139  -2.512   1.430  1.00  0.00     0.273 C 
HETATM   28  C22 UNL     1       7.527  -3.244   2.608  1.00  0.00     0.106 C 
HETATM   29  O4  UNL     1       9.117  -2.895   0.832  1.00  0.00    -0.264 OA
ENDBRANCH  26  27
ENDBRANCH  18  26
TORSDOF 3
