REMARK  3 active torsions:
REMARK  status: ('A' for Active; 'I' for Inactive)
REMARK    1  A    between atoms: C5_5  and  C9_9 
REMARK    2  A    between atoms: C10_10  and  C11_11 
REMARK    3  A    between atoms: C12_12  and  C13_13 
ROOT
HETATM    1  C1  UNL     1      -2.353  -0.646   1.303  1.00  0.00     0.003 C 
HETATM    2  C2  UNL     1      -1.779  -1.932   1.916  1.00  0.00     0.003 C 
HETATM    3  C3  UNL     1      -0.346  -2.205   1.432  1.00  0.00     0.033 C 
HETATM    4  C4  UNL     1       0.602  -1.006   1.660  1.00  0.00     0.156 C 
HETATM    5  C5  UNL     1      -0.010   0.309   1.066  1.00  0.00     0.170 C 
HETATM    6  C6  UNL     1      -1.465   0.590   1.568  1.00  0.00     0.032 C 
HETATM    7  C7  UNL     1      -2.078   1.799   0.844  1.00  0.00     0.003 C 
HETATM    8  C8  UNL     1      -1.502   0.908   3.072  1.00  0.00     0.003 C 
HETATM    9  O3  UNL     1       0.817   1.416   1.404  1.00  0.00    -0.219 OA
HETATM   10  C15 UNL     1       1.996  -1.316   1.094  1.00  0.00     0.036 C 
HETATM   11  O4  UNL     1       0.795  -0.887   3.061  1.00  0.00    -0.223 OA
ENDROOT
BRANCH   5  12
HETATM   12  C9  UNL     1       0.016   0.234  -0.445  1.00  0.00     0.005 C 
HETATM   13  C10 UNL     1       1.110   0.670  -1.092  1.00  0.00    -0.006 C 
BRANCH  13  14
HETATM   14  C11 UNL     1       1.182   0.619  -2.557  1.00  0.00    -0.016 C 
HETATM   15  C12 UNL     1       2.360   0.434  -3.176  1.00  0.00     0.066 C 
HETATM   16  C14 UNL     1      -0.057   0.774  -3.397  1.00  0.00     0.031 C 
BRANCH  15  17
HETATM   17  C13 UNL     1       2.432   0.381  -4.643  1.00  0.00     0.211 C 
HETATM   18  O1  UNL     1       1.867  -0.494  -5.252  1.00  0.00    -0.644 OA
HETATM   19  O2  UNL     1       3.147   1.344  -5.219  1.00  0.00    -0.644 OA
ENDBRANCH  15  17
ENDBRANCH  13  14
ENDBRANCH   5  12
TORSDOF 3
