REMARK  2 active torsions:
REMARK  status: ('A' for Active; 'I' for Inactive)
REMARK    1  A    between atoms: C13_14  and  O2_15 
REMARK    2  A    between atoms: O2_15  and  C14_16 
ROOT
HETATM    1  C1  UNL     1       0.580   1.048  -0.147  1.00  0.00     0.035 C 
HETATM    2  C2  UNL     1       0.994  -0.101   0.875  1.00  0.00     0.026 C 
HETATM    3  C3  UNL     1      -0.026  -1.307   0.817  1.00  0.00    -0.015 C 
HETATM    4  C4  UNL     1      -1.491  -1.127   0.328  1.00  0.00     0.171 C 
HETATM    5  C5  UNL     1      -1.904   0.317   0.686  1.00  0.00     0.037 C 
HETATM    6  C6  UNL     1      -0.922   1.477   0.166  1.00  0.00     0.006 C 
HETATM    7  O1  UNL     1      -2.382  -2.123   0.836  1.00  0.00    -0.219 OA
HETATM    8  C7  UNL     1       0.356  -2.485   1.307  1.00  0.00    -0.007 C 
HETATM    9  C8  UNL     1       2.533  -0.693   0.704  1.00  0.00     0.035 C 
HETATM   10  C9  UNL     1       3.416  -1.215  -0.669  1.00  0.00     0.133 C 
HETATM   11  C10 UNL     1       3.908  -0.025  -1.766  1.00  0.00     0.046 C 
HETATM   12  C11 UNL     1       4.368   0.996  -0.595  1.00  0.00    -0.002 C 
HETATM   13  C12 UNL     1       3.377   2.218   0.015  1.00  0.00     0.132 C 
HETATM   14  C13 UNL     1       1.683   2.433  -0.245  1.00  0.00     0.171 C 
HETATM   15  O4  UNL     1       3.977   3.517  -0.174  1.00  0.00    -0.193 OA
HETATM   16  C16 UNL     1       5.444   0.648   0.238  1.00  0.00    -0.016 C 
HETATM   17  C17 UNL     1       6.082  -0.647   0.005  1.00  0.00     0.173 C 
HETATM   18  C18 UNL     1       4.864  -1.750  -0.050  1.00  0.00     0.068 C 
HETATM   19  O5  UNL     1       7.147  -1.002   0.895  1.00  0.00    -0.219 OA
HETATM   20  C19 UNL     1       5.873   1.441   1.455  1.00  0.00     0.029 C 
HETATM   21  C20 UNL     1       3.125   0.794  -2.773  1.00  0.00     0.007 C 
HETATM   22  C21 UNL     1       4.851  -0.719  -2.844  1.00  0.00     0.007 C 
HETATM   23  O6  UNL     1       2.731  -2.328  -1.243  1.00  0.00    -0.226 OA
HETATM   24  C22 UNL     1       0.457   0.412  -1.515  1.00  0.00     0.003 C 
ENDROOT
BRANCH  14  25
HETATM   25  O2  UNL     1       1.499   3.423   0.822  1.00  0.00    -0.298 OA
BRANCH  25  26
HETATM   26  C14 UNL     1       0.434   4.328   0.570  1.00  0.00     0.273 C 
HETATM   27  C15 UNL     1       0.094   5.390   1.573  1.00  0.00     0.106 C 
HETATM   28  O3  UNL     1      -0.187   4.284  -0.499  1.00  0.00    -0.264 OA
ENDBRANCH  25  26
ENDBRANCH  14  25
TORSDOF 2
