REMARK  5 active torsions:
REMARK  status: ('A' for Active; 'I' for Inactive)
REMARK    1  A    between atoms: C3_3  and  O3_10 
REMARK    2  A    between atoms: O3_10  and  C8_11 
REMARK    3  A    between atoms: C10_14  and  O9_30 
REMARK    4  A    between atoms: O9_30  and  C22_31 
REMARK    5  A    between atoms: C22_31  and  C23_33 
ROOT
HETATM    1  C1  UNL     1       1.356  -2.527  -0.663  1.00  0.00     0.087 C 
HETATM    2  C2  UNL     1       1.665  -1.382   0.604  1.00  0.00     0.070 C 
HETATM    3  C3  UNL     1       3.399  -1.141   0.758  1.00  0.00     0.156 C 
HETATM    4  C4  UNL     1       4.191  -1.210  -0.454  1.00  0.00     0.146 C 
HETATM    5  C5  UNL     1       3.819  -2.644  -1.058  1.00  0.00     0.066 C 
HETATM    6  C6  UNL     1       2.449  -3.449  -0.506  1.00  0.00     0.161 C 
HETATM    7  O1  UNL     1       2.300  -4.577  -1.336  1.00  0.00    -0.223 OA
HETATM    8  O2  UNL     1       3.629   0.051  -0.827  1.00  0.00    -0.351 OA
HETATM    9  C7  UNL     1       3.595   0.340   0.606  1.00  0.00     0.172 C 
HETATM   10  C10 UNL     1       0.682  -0.099   0.209  1.00  0.00     0.156 C 
HETATM   11  C11 UNL     1      -1.074  -0.364   0.350  1.00  0.00     0.158 C 
HETATM   12  C12 UNL     1      -1.773  -0.170  -0.992  1.00  0.00     0.046 C 
HETATM   13  C13 UNL     1      -2.245  -1.850  -0.964  1.00  0.00    -0.011 C 
HETATM   14  C14 UNL     1      -1.324  -3.013  -1.596  1.00  0.00     0.227 C 
HETATM   15  C15 UNL     1      -0.054  -3.175  -0.533  1.00  0.00     0.186 C 
HETATM   16  O5  UNL     1      -0.275  -3.786   0.518  1.00  0.00    -0.293 OA
HETATM   17  O6  UNL     1      -1.079  -2.840  -3.007  1.00  0.00    -0.211 OA
HETATM   18  C16 UNL     1      -3.223  -2.288  -0.123  1.00  0.00    -0.019 C 
HETATM   19  C17 UNL     1      -3.736  -1.356   0.783  1.00  0.00     0.173 C 
HETATM   20  C18 UNL     1      -2.261  -0.834   1.496  1.00  0.00     0.070 C 
HETATM   21  O7  UNL     1      -4.758  -1.868   1.643  1.00  0.00    -0.219 OA
HETATM   22  C19 UNL     1      -3.671  -3.742   0.073  1.00  0.00     0.028 C 
HETATM   23  C20 UNL     1      -0.984   0.268  -2.228  1.00  0.00     0.007 C 
HETATM   24  C21 UNL     1      -2.747   1.103  -0.820  1.00  0.00     0.007 C 
HETATM   25  O8  UNL     1      -0.826   0.644   1.257  1.00  0.00    -0.223 OA
HETATM   26  C27 UNL     1       1.566  -2.071  -2.136  1.00  0.00     0.010 C 
ENDROOT
BRANCH  10  27
HETATM   27  O9  UNL     1       1.056   1.200   0.909  1.00  0.00    -0.298 OA
BRANCH  27  28
HETATM   28  C22 UNL     1       0.714   2.486   0.233  1.00  0.00     0.295 C 
HETATM   29  O10 UNL     1       0.054   2.504  -0.808  1.00  0.00    -0.259 OA
BRANCH  28  30
HETATM   30  C23 UNL     1       1.326   3.733   0.765  1.00  0.00     0.060 C 
HETATM   31  C24 UNL     1       1.154   4.979   0.292  1.00  0.00    -0.038 C 
HETATM   32  C25 UNL     1       1.936   6.090   0.929  1.00  0.00     0.026 C 
HETATM   33  C26 UNL     1       0.232   5.317  -0.857  1.00  0.00     0.026 C 
ENDBRANCH  28  30
ENDBRANCH  27  28
ENDBRANCH  10  27
BRANCH   3  34
HETATM   34  O3  UNL     1       4.075  -1.592   2.062  1.00  0.00    -0.302 OA
BRANCH  34  35
HETATM   35  C8  UNL     1       4.804  -2.870   2.399  1.00  0.00     0.272 C 
HETATM   36  C9  UNL     1       5.237  -3.995   1.474  1.00  0.00     0.106 C 
HETATM   37  O4  UNL     1       5.180  -2.991   3.567  1.00  0.00    -0.264 OA
ENDBRANCH  34  35
ENDBRANCH   3  34
TORSDOF 5
