REMARK  2 active torsions:
REMARK  status: ('A' for Active; 'I' for Inactive)
REMARK    1  A    between atoms: C6_6  and  C7_7 
REMARK    2  A    between atoms: C10_10  and  O4_19 
ROOT
HETATM    1  C7  UNL     1       0.873  -0.242  -0.211  1.00  0.00     0.005 C 
HETATM    2  C8  UNL     1      -0.195   0.527   0.084  1.00  0.00     0.067 A 
HETATM    3  C9  UNL     1      -1.609   0.182   0.072  1.00  0.00     0.051 A 
HETATM    4  C10 UNL     1      -2.191  -1.072  -0.260  1.00  0.00     0.098 A 
HETATM    5  C11 UNL     1      -3.602  -1.168  -0.199  1.00  0.00     0.052 A 
HETATM    6  C12 UNL     1      -4.387  -0.057   0.176  1.00  0.00     0.135 A 
HETATM    7  C13 UNL     1      -3.758   1.166   0.498  1.00  0.00     0.052 A 
HETATM    8  C14 UNL     1      -2.348   1.303   0.449  1.00  0.00     0.107 A 
HETATM    9  O1  UNL     1      -1.551   2.353   0.709  1.00  0.00    -0.273 OA
HETATM   10  C15 UNL     1      -0.262   1.957   0.512  1.00  0.00     0.300 A 
HETATM   11  O2  UNL     1       0.711   2.662   0.658  1.00  0.00    -0.259 OA
HETATM   12  O3  UNL     1      -5.723  -0.162   0.228  1.00  0.00    -0.190 OA
ENDROOT
BRANCH   1  13
HETATM   13  C6  UNL     1       2.273   0.269  -0.148  1.00  0.00     0.000 A 
HETATM   14  C1  UNL     1       3.256  -0.443   0.564  1.00  0.00     0.002 A 
HETATM   15  C2  UNL     1       4.572   0.041   0.621  1.00  0.00     0.027 A 
HETATM   16  C3  UNL     1       4.916   1.240  -0.029  1.00  0.00     0.131 A 
HETATM   17  C4  UNL     1       3.934   1.951  -0.740  1.00  0.00     0.027 A 
HETATM   18  O5  UNL     1       6.152   1.693   0.025  1.00  0.00    -0.190 OA
HETATM   19  C5  UNL     1       2.615   1.469  -0.801  1.00  0.00     0.002 A 
ENDBRANCH   1  13
BRANCH   4  20
HETATM   20  O4  UNL     1      -1.572  -2.203  -0.631  1.00  0.00    -0.328 OA
HETATM   21  C16 UNL     1      -2.133  -3.438  -0.213  1.00  0.00     0.181 C 
ENDBRANCH   4  20
TORSDOF 2
