REMARK  9 active torsions:
REMARK  status: ('A' for Active; 'I' for Inactive)
REMARK    1  A    between atoms: C1_1  and  O5_22 
REMARK    2  A    between atoms: C14_16  and  O4_20 
REMARK    3  A    between atoms: C15_17  and  O3_18 
REMARK    4  A    between atoms: O5_22  and  C18_23 
REMARK    5  A    between atoms: C22_30  and  C23_32 
REMARK    6  A    between atoms: C23_32  and  O10_33 
REMARK    7  A    between atoms: O10_33  and  C24_34 
REMARK    8  A    between atoms: C24_34  and  C25_35 
REMARK    9  A    between atoms: C25_35  and  C26_36 
ROOT
HETATM    1  C1  UNL     1       2.650   0.973  -1.342  1.00  0.00     0.099 A 
HETATM    2  C2  UNL     1       2.045   2.230  -1.566  1.00  0.00     0.024 A 
HETATM    3  C3  UNL     1       0.685   2.303  -1.943  1.00  0.00     0.002 A 
HETATM    4  C4  UNL     1      -0.076   1.117  -2.098  1.00  0.00     0.028 A 
HETATM    5  C5  UNL     1       0.521  -0.143  -1.832  1.00  0.00     0.094 A 
HETATM    6  C6  UNL     1       1.891  -0.213  -1.475  1.00  0.00     0.048 A 
HETATM    7  O1  UNL     1      -0.191  -1.283  -1.916  1.00  0.00    -0.331 OA
HETATM    8  C7  UNL     1      -1.611  -1.246  -1.758  1.00  0.00     0.156 C 
HETATM    9  C8  UNL     1      -2.246  -0.170  -2.650  1.00  0.00     0.086 C 
HETATM   10  C9  UNL     1      -1.486   1.195  -2.555  1.00  0.00     0.152 C 
HETATM   11  O2  UNL     1      -2.289   2.035  -1.709  1.00  0.00    -0.327 OA
HETATM   12  C10 UNL     1      -3.510   1.519  -1.563  1.00  0.00     0.115 A 
HETATM   13  C11 UNL     1      -3.604   0.232  -2.117  1.00  0.00     0.007 A 
HETATM   14  C12 UNL     1      -4.834  -0.465  -2.096  1.00  0.00    -0.000 A 
HETATM   15  C13 UNL     1      -5.973   0.109  -1.498  1.00  0.00     0.026 A 
HETATM   16  C14 UNL     1      -5.875   1.387  -0.916  1.00  0.00     0.118 A 
HETATM   17  C15 UNL     1      -4.651   2.102  -0.938  1.00  0.00     0.138 A 
ENDROOT
BRANCH   1  18
HETATM   18  O5  UNL     1       3.945   0.902  -1.000  1.00  0.00    -0.304 OA
BRANCH  18  19
HETATM   19  C18 UNL     1       4.406  -0.283  -0.369  1.00  0.00     0.274 C 
HETATM   20  C19 UNL     1       5.887  -0.125   0.037  1.00  0.00     0.241 C 
HETATM   21  O6  UNL     1       6.662   0.019  -1.139  1.00  0.00    -0.215 OA
HETATM   22  C20 UNL     1       6.377  -1.346   0.846  1.00  0.00     0.220 C 
HETATM   23  O7  UNL     1       7.672  -1.090   1.365  1.00  0.00    -0.218 OA
HETATM   24  C21 UNL     1       5.395  -1.631   2.002  1.00  0.00     0.215 C 
HETATM   25  O8  UNL     1       5.729  -2.859   2.625  1.00  0.00    -0.218 OA
HETATM   26  C22 UNL     1       3.936  -1.713   1.496  1.00  0.00     0.181 C 
HETATM   27  O9  UNL     1       3.615  -0.524   0.787  1.00  0.00    -0.326 OA
BRANCH  26  28
HETATM   28  C23 UNL     1       2.914  -1.838   2.633  1.00  0.00     0.184 C 
BRANCH  28  29
HETATM   29  O10 UNL     1       1.605  -1.902   2.086  1.00  0.00    -0.299 OA
BRANCH  29  30
HETATM   30  C24 UNL     1       0.670  -2.012   3.025  1.00  0.00     0.283 C 
HETATM   31  O13 UNL     1       0.908  -2.055   4.211  1.00  0.00    -0.264 OA
BRANCH  30  32
HETATM   32  C25 UNL     1      -0.744  -2.084   2.516  1.00  0.00     0.193 C 
BRANCH  32  33
HETATM   33  C26 UNL     1      -1.518  -0.861   2.932  1.00  0.00     0.196 C 
HETATM   34  O11 UNL     1      -1.154   0.244   2.607  1.00  0.00    -0.647 OA
HETATM   35  O12 UNL     1      -2.602  -1.102   3.664  1.00  0.00    -0.647 OA
ENDBRANCH  32  33
ENDBRANCH  30  32
ENDBRANCH  29  30
ENDBRANCH  28  29
ENDBRANCH  26  28
ENDBRANCH  18  19
ENDBRANCH   1  18
BRANCH  17  36
HETATM   36  O3  UNL     1      -4.699   3.303  -0.348  1.00  0.00    -0.324 OA
HETATM   37  C16 UNL     1      -3.506   4.072  -0.299  1.00  0.00     0.182 C 
ENDBRANCH  17  36
BRANCH  16  38
HETATM   38  O4  UNL     1      -6.957   1.926  -0.338  1.00  0.00    -0.326 OA
HETATM   39  C17 UNL     1      -8.186   1.219  -0.430  1.00  0.00     0.181 C 
ENDBRANCH  16  38
TORSDOF 9
