REMARK  7 active torsions:
REMARK  status: ('A' for Active; 'I' for Inactive)
REMARK    1  A    between atoms: C9_10  and  C11_13 
REMARK    2  A    between atoms: C11_13  and  C12_14 
REMARK    3  A    between atoms: C11_13  and  O3_19 
REMARK    4  A    between atoms: C12_14  and  C13_15 
REMARK    5  A    between atoms: O3_19  and  C17_20 
REMARK    6  A    between atoms: C17_20  and  C18_21 
REMARK    7  A    between atoms: C18_21  and  C19_22 
ROOT
HETATM    1  C1  UNL     1      -5.516  -1.707   1.049  1.00  0.00     0.030 A 
HETATM    2  C2  UNL     1      -5.594  -0.318   0.795  1.00  0.00     0.030 A 
HETATM    3  C3  UNL     1      -4.420   0.426   0.539  1.00  0.00     0.134 A 
HETATM    4  C4  UNL     1      -3.154  -0.221   0.537  1.00  0.00     0.069 A 
HETATM    5  C5  UNL     1      -3.074  -1.619   0.795  1.00  0.00     0.069 A 
HETATM    6  C6  UNL     1      -4.262  -2.359   1.051  1.00  0.00     0.134 A 
HETATM    7  O1  UNL     1      -4.215  -3.678   1.295  1.00  0.00    -0.190 OA
HETATM    8  C7  UNL     1      -1.748  -2.307   0.799  1.00  0.00     0.198 A 
HETATM    9  C8  UNL     1      -0.553  -1.481   0.535  1.00  0.00     0.043 A 
HETATM   10  C9  UNL     1      -0.621  -0.158   0.289  1.00  0.00     0.048 A 
HETATM   11  C10 UNL     1      -1.912   0.568   0.266  1.00  0.00     0.196 A 
HETATM   12  O2  UNL     1      -1.854   1.752   0.029  1.00  0.00    -0.287 OA
HETATM   13  O6  UNL     1      -1.541  -3.483   0.998  1.00  0.00    -0.286 OA
HETATM   14  O7  UNL     1      -4.524   1.740   0.299  1.00  0.00    -0.190 OA
ENDROOT
BRANCH  10  15
HETATM   15  C11 UNL     1       0.660   0.596   0.029  1.00  0.00     0.154 C 
BRANCH  15  16
HETATM   16  C12 UNL     1       1.482   0.805   1.301  1.00  0.00     0.060 C 
BRANCH  16  17
HETATM   17  C13 UNL     1       0.746   1.615   2.334  1.00  0.00    -0.032 C 
HETATM   18  C14 UNL     1       1.131   1.521   3.617  1.00  0.00    -0.048 C 
HETATM   19  C15 UNL     1       0.344   2.268   4.660  1.00  0.00     0.026 C 
HETATM   20  C16 UNL     1       2.332   0.676   3.947  1.00  0.00     0.026 C 
ENDBRANCH  16  17
ENDBRANCH  15  16
BRANCH  15  21
HETATM   21  O3  UNL     1       1.439  -0.109  -0.926  1.00  0.00    -0.299 OA
BRANCH  21  22
HETATM   22  C17 UNL     1       2.346   0.666  -1.514  1.00  0.00     0.275 C 
HETATM   23  O5  UNL     1       2.434   1.857  -1.328  1.00  0.00    -0.264 OA
BRANCH  22  24
HETATM   24  C18 UNL     1       3.285  -0.043  -2.451  1.00  0.00     0.126 C 
BRANCH  24  25
HETATM   25  C19 UNL     1       2.760  -0.082  -3.887  1.00  0.00     0.136 C 
HETATM   26  O4  UNL     1       2.726   1.289  -4.211  1.00  0.00    -0.226 OA
HETATM   27  C20 UNL     1       3.723  -0.777  -4.848  1.00  0.00     0.034 C 
HETATM   28  C21 UNL     1       1.336  -0.631  -3.977  1.00  0.00     0.034 C 
ENDBRANCH  24  25
ENDBRANCH  22  24
ENDBRANCH  21  22
ENDBRANCH  15  21
ENDBRANCH  10  15
TORSDOF 7
