REMARK  4 active torsions:
REMARK  status: ('A' for Active; 'I' for Inactive)
REMARK    1  A    between atoms: C1_1  and  C2_2 
REMARK    2  A    between atoms: C1_1  and  C10_13 
REMARK    3  A    between atoms: C2_2  and  C3_3 
REMARK    4  A    between atoms: C3_3  and  C4_4 
ROOT
HETATM    1  C1  UNL     1       0.121  -1.020   0.100  1.00  0.00     0.205 C 
HETATM    2  O3  UNL     1       1.311  -1.035  -0.119  1.00  0.00    -0.289 OA
ENDROOT
BRANCH   1   3
HETATM    3  C2  UNL     1      -0.867  -0.797  -1.012  1.00  0.00     0.217 C 
HETATM    4  O2  UNL     1      -1.678  -1.941  -1.156  1.00  0.00    -0.215 OA
BRANCH   3   5
HETATM    5  C3  UNL     1      -0.186  -0.521  -2.353  1.00  0.00     0.067 C 
BRANCH   5   6
HETATM    6  C4  UNL     1       0.510   0.791  -2.353  1.00  0.00    -0.019 A 
HETATM    7  C5  UNL     1      -0.236   1.984  -2.353  1.00  0.00    -0.002 A 
HETATM    8  C6  UNL     1       0.424   3.225  -2.353  1.00  0.00     0.027 A 
HETATM    9  C7  UNL     1       1.828   3.279  -2.353  1.00  0.00     0.131 A 
HETATM   10  C8  UNL     1       2.572   2.086  -2.353  1.00  0.00     0.027 A 
HETATM   11  O1  UNL     1       2.445   4.445  -2.353  1.00  0.00    -0.190 OA
HETATM   12  C9  UNL     1       1.914   0.844  -2.353  1.00  0.00    -0.002 A 
ENDBRANCH   5   6
ENDBRANCH   3   5
ENDBRANCH   1   3
BRANCH   1  13
HETATM   13  C10 UNL     1      -0.408  -1.225   1.483  1.00  0.00     0.063 A 
HETATM   14  C11 UNL     1      -1.480  -0.438   1.940  1.00  0.00     0.007 A 
HETATM   15  C12 UNL     1      -1.984  -0.621   3.238  1.00  0.00     0.028 A 
HETATM   16  C13 UNL     1      -1.424  -1.592   4.084  1.00  0.00     0.133 A 
HETATM   17  C14 UNL     1      -0.352  -2.379   3.625  1.00  0.00     0.055 A 
HETATM   18  O5  UNL     1      -1.897  -1.764   5.301  1.00  0.00    -0.190 OA
HETATM   19  C15 UNL     1       0.158  -2.199   2.326  1.00  0.00     0.136 A 
HETATM   20  O4  UNL     1       1.164  -2.947   1.912  1.00  0.00    -0.190 OA
ENDBRANCH   1  13
TORSDOF 4
