REMARK  7 active torsions:
REMARK  status: ('A' for Active; 'I' for Inactive)
REMARK    1  A    between atoms: C4_4  and  C7_8 
REMARK    2  A    between atoms: C8_9  and  C9_10 
REMARK    3  A    between atoms: C9_10  and  C10_12 
REMARK    4  A    between atoms: C10_12  and  C11_13 
REMARK    5  A    between atoms: C11_13  and  C12_14 
REMARK    6  A    between atoms: C11_13  and  C19_23 
REMARK    7  A    between atoms: C12_14  and  C13_15 
ROOT
HETATM    1  C10 UNL     1       0.965   0.006   1.231  1.00  0.00     0.080 C 
ENDROOT
BRANCH   1   2
HETATM    2  C9  UNL     1       1.574   0.285  -0.117  1.00  0.00     0.174 C 
HETATM    3  O2  UNL     1       2.189  -0.570  -0.711  1.00  0.00    -0.291 OA
BRANCH   2   4
HETATM    4  C8  UNL     1       1.408   1.621  -0.701  1.00  0.00     0.037 C 
HETATM    5  C7  UNL     1       1.935   1.916  -1.900  1.00  0.00     0.003 C 
BRANCH   5   6
HETATM    6  C4  UNL     1       1.738   3.289  -2.451  1.00  0.00     0.002 A 
HETATM    7  C3  UNL     1       0.590   4.025  -2.117  1.00  0.00     0.002 A 
HETATM    8  C2  UNL     1       0.408   5.318  -2.639  1.00  0.00     0.029 A 
HETATM    9  C1  UNL     1       1.373   5.879  -3.494  1.00  0.00     0.156 A 
HETATM   10  C6  UNL     1       2.523   5.141  -3.832  1.00  0.00     0.156 A 
HETATM   11  O7  UNL     1       1.195   7.092  -3.978  1.00  0.00    -0.188 OA
HETATM   12  C5  UNL     1       2.703   3.848  -3.309  1.00  0.00     0.029 A 
HETATM   13  O1  UNL     1       3.432   5.658  -4.635  1.00  0.00    -0.188 OA
ENDBRANCH   5   6
ENDBRANCH   2   4
ENDBRANCH   1   2
BRANCH   1  14
HETATM   14  C11 UNL     1       0.111  -1.264   1.233  1.00  0.00     0.100 C 
BRANCH  14  15
HETATM   15  C12 UNL     1      -0.389  -1.637   2.629  1.00  0.00     0.038 C 
BRANCH  15  16
HETATM   16  C13 UNL     1      -1.082  -2.951   2.629  1.00  0.00    -0.019 A 
HETATM   17  C14 UNL     1      -0.338  -4.143   2.629  1.00  0.00    -0.002 A 
HETATM   18  C15 UNL     1      -0.996  -5.383   2.629  1.00  0.00     0.029 A 
HETATM   19  C16 UNL     1      -2.403  -5.438   2.629  1.00  0.00     0.156 A 
HETATM   20  C17 UNL     1      -3.149  -4.244   2.629  1.00  0.00     0.156 A 
HETATM   21  O4  UNL     1      -3.014  -6.604   2.629  1.00  0.00    -0.188 OA
HETATM   22  C18 UNL     1      -2.488  -3.004   2.629  1.00  0.00     0.025 A 
HETATM   23  O3  UNL     1      -4.467  -4.287   2.629  1.00  0.00    -0.188 OA
ENDBRANCH  15  16
ENDBRANCH  14  15
BRANCH  14  24
HETATM   24  C19 UNL     1      -1.002  -1.207   0.221  1.00  0.00     0.185 C 
HETATM   25  O5  UNL     1      -1.293  -2.365  -0.363  1.00  0.00    -0.647 OA
HETATM   26  O6  UNL     1      -1.572  -0.170  -0.019  1.00  0.00    -0.647 OA
ENDBRANCH  14  24
ENDBRANCH   1  14
TORSDOF 7
