REMARK  6 active torsions:
REMARK  status: ('A' for Active; 'I' for Inactive)
REMARK    1  A    between atoms: C1_1  and  O5_22 
REMARK    2  A    between atoms: C8_9  and  C10_11 
REMARK    3  A    between atoms: C12_13  and  O3_19 
REMARK    4  A    between atoms: C13_14  and  O2_17 
REMARK    5  A    between atoms: O5_22  and  C18_23 
REMARK    6  A    between atoms: C19_25  and  C23_32 
ROOT
HETATM    1  C1  UNL     1       1.135  -1.168   0.916  1.00  0.00     0.099 A 
HETATM    2  C2  UNL     1       1.432   0.186   1.188  1.00  0.00     0.024 A 
HETATM    3  C3  UNL     1       0.391   1.094   1.484  1.00  0.00    -0.000 A 
HETATM    4  C4  UNL     1      -0.957   0.650   1.512  1.00  0.00     0.001 A 
HETATM    5  C5  UNL     1      -1.254  -0.719   1.250  1.00  0.00     0.092 A 
HETATM    6  C6  UNL     1      -0.205  -1.617   0.945  1.00  0.00     0.048 A 
HETATM    7  O1  UNL     1      -2.522  -1.184   1.275  1.00  0.00    -0.331 OA
HETATM    8  C7  UNL     1      -3.588  -0.383   1.803  1.00  0.00     0.153 C 
HETATM    9  C8  UNL     1      -3.438   1.086   1.365  1.00  0.00     0.059 C 
HETATM   10  C9  UNL     1      -2.053   1.607   1.809  1.00  0.00     0.035 C 
ENDROOT
BRANCH   1  11
HETATM   11  O5  UNL     1       2.123  -2.027   0.629  1.00  0.00    -0.304 OA
BRANCH  11  12
HETATM   12  C18 UNL     1       3.451  -1.523   0.584  1.00  0.00     0.275 C 
HETATM   13  O6  UNL     1       4.207  -2.320  -0.330  1.00  0.00    -0.318 OA
HETATM   14  C19 UNL     1       5.625  -2.383  -0.137  1.00  0.00     0.237 C 
HETATM   15  C20 UNL     1       6.195  -1.143   0.598  1.00  0.00     0.223 C 
HETATM   16  C21 UNL     1       5.494  -0.883   1.957  1.00  0.00     0.221 C 
HETATM   17  O9  UNL     1       6.045  -0.004  -0.234  1.00  0.00    -0.217 OA
HETATM   18  C22 UNL     1       4.080  -1.516   1.992  1.00  0.00     0.241 C 
HETATM   19  O8  UNL     1       6.270  -1.441   3.002  1.00  0.00    -0.218 OA
HETATM   20  O7  UNL     1       3.254  -0.779   2.875  1.00  0.00    -0.215 OA
BRANCH  14  21
HETATM   21  C23 UNL     1       5.945  -3.664   0.590  1.00  0.00     0.217 C 
HETATM   22  O10 UNL     1       6.830  -3.707   1.414  1.00  0.00    -0.646 OA
HETATM   23  O11 UNL     1       5.193  -4.709   0.256  1.00  0.00    -0.646 OA
ENDBRANCH  14  21
ENDBRANCH  11  12
ENDBRANCH   1  11
BRANCH   9  24
HETATM   24  C10 UNL     1      -3.656   1.248  -0.104  1.00  0.00     0.008 A 
HETATM   25  C11 UNL     1      -4.942   1.086  -0.654  1.00  0.00     0.151 A 
HETATM   26  C12 UNL     1      -5.135   1.240  -2.041  1.00  0.00     0.141 A 
HETATM   27  O4  UNL     1      -5.965   0.793   0.123  1.00  0.00    -0.188 OA
HETATM   28  C13 UNL     1      -4.045   1.555  -2.873  1.00  0.00     0.118 A 
HETATM   29  C14 UNL     1      -2.764   1.715  -2.318  1.00  0.00     0.026 A 
HETATM   30  C15 UNL     1      -2.568   1.561  -0.936  1.00  0.00     0.000 A 
BRANCH  26  31
HETATM   31  O3  UNL     1      -6.338   1.092  -2.559  1.00  0.00    -0.324 OA
HETATM   32  C17 UNL     1      -6.953   2.225  -3.152  1.00  0.00     0.182 C 
ENDBRANCH  26  31
BRANCH  28  33
HETATM   33  O2  UNL     1      -4.221   1.699  -4.172  1.00  0.00    -0.326 OA
HETATM   34  C16 UNL     1      -3.158   2.264  -4.930  1.00  0.00     0.181 C 
ENDBRANCH  28  33
ENDBRANCH   9  24
TORSDOF 6
