REMARK  6 active torsions:
REMARK  status: ('A' for Active; 'I' for Inactive)
REMARK    1  A    between atoms: C3_3  and  O4_22 
REMARK    2  A    between atoms: C4_4  and  C16_18 
REMARK    3  A    between atoms: C6_6  and  C7_7 
REMARK    4  A    between atoms: C9_9  and  C13_14 
REMARK    5  A    between atoms: C14_15  and  C15_16 
REMARK    6  A    between atoms: C17_19  and  C18_20 
ROOT
HETATM    1  C1  UNL     1       0.625   1.719   1.655  1.00  0.00     0.002 A 
HETATM    2  C2  UNL     1      -0.135   2.901   1.653  1.00  0.00     0.024 A 
HETATM    3  C3  UNL     1      -0.947   3.221   0.551  1.00  0.00     0.094 A 
HETATM    4  C4  UNL     1      -0.996   2.352  -0.556  1.00  0.00     0.022 A 
HETATM    5  C5  UNL     1      -0.234   1.168  -0.554  1.00  0.00     0.002 A 
HETATM    6  C6  UNL     1       0.576   0.850   0.549  1.00  0.00     0.002 A 
ENDROOT
BRANCH   6   7
HETATM    7  C7  UNL     1       1.365  -0.377   0.549  1.00  0.00     0.025 A 
HETATM    8  C8  UNL     1       0.709  -1.623   0.549  1.00  0.00     0.002 A 
HETATM    9  C9  UNL     1       1.455  -2.814   0.549  1.00  0.00     0.000 A 
HETATM   10  C10 UNL     1       2.859  -2.762   0.549  1.00  0.00     0.002 A 
HETATM   11  C11 UNL     1       3.516  -1.521   0.549  1.00  0.00     0.027 A 
HETATM   12  C12 UNL     1       2.775  -0.324   0.549  1.00  0.00     0.131 A 
HETATM   13  O1  UNL     1       3.414   0.830   0.549  1.00  0.00    -0.190 OA
BRANCH   9  14
HETATM   14  C13 UNL     1       0.756  -4.135   0.549  1.00  0.00     0.003 C 
HETATM   15  C14 UNL     1       1.494  -5.256   0.549  1.00  0.00     0.045 C 
BRANCH  15  16
HETATM   16  C15 UNL     1       0.852  -6.576   0.549  1.00  0.00     0.234 C 
HETATM   17  O2  UNL     1       1.522  -7.582   0.549  1.00  0.00    -0.283 OA
ENDBRANCH  15  16
ENDBRANCH   9  14
ENDBRANCH   6   7
BRANCH   4  18
HETATM   18  C16 UNL     1      -1.855   2.676  -1.736  1.00  0.00     0.005 C 
HETATM   19  C17 UNL     1      -2.248   1.676  -2.541  1.00  0.00     0.045 C 
BRANCH  19  20
HETATM   20  C18 UNL     1      -3.092   1.947  -3.713  1.00  0.00     0.234 C 
HETATM   21  O3  UNL     1      -3.443   1.045  -4.435  1.00  0.00    -0.283 OA
ENDBRANCH  19  20
ENDBRANCH   4  18
BRANCH   3  22
HETATM   22  O4  UNL     1      -1.656   4.334   0.565  1.00  0.00    -0.328 OA
HETATM   23  C19 UNL     1      -3.047   4.236   0.832  1.00  0.00     0.181 C 
ENDBRANCH   3  22
TORSDOF 6
