REMARK  17 active torsions:
REMARK  status: ('A' for Active; 'I' for Inactive)
REMARK    1  A    between atoms: C1_1  and  O16_43 
REMARK    2  A    between atoms: C2_2  and  O14_39 
REMARK    3  A    between atoms: C4_4  and  O4_12 
REMARK    4  A    between atoms: C5_6  and  C6_7 
REMARK    5  A    between atoms: C6_7  and  O2_8 
REMARK    6  A    between atoms: O2_8  and  C7_9 
REMARK    7  A    between atoms: O4_12  and  C9_13 
REMARK    8  A    between atoms: C9_13  and  C25_36 
REMARK    9  A    between atoms: C11_15  and  O9_31 
REMARK   10  A    between atoms: C12_16  and  C13_18 
REMARK   11  A    between atoms: C13_18  and  O6_19 
REMARK   12  A    between atoms: O6_19  and  C14_20 
REMARK   13  A    between atoms: C14_20  and  C15_22 
REMARK   14  A    between atoms: C16_23  and  C17_24 
REMARK   15  A    between atoms: O9_31  and  C23_32 
REMARK   16  A    between atoms: O14_39  and  C26_40 
REMARK   17  A    between atoms: O16_43  and  C28_44 
ROOT
HETATM    1  C9  UNL     1       1.075   1.820  -1.975  1.00  0.00     0.252 C 
HETATM    2  C10 UNL     1       2.593   2.028  -1.810  1.00  0.00     0.236 C 
HETATM    3  C11 UNL     1       3.133   0.690  -2.346  1.00  0.00     0.189 C 
HETATM    4  C12 UNL     1       1.969  -0.304  -2.186  1.00  0.00     0.178 C 
HETATM    5  O5  UNL     1       0.907   0.459  -1.654  1.00  0.00    -0.328 OA
HETATM    6  O11 UNL     1       2.977   2.170  -0.449  1.00  0.00    -0.215 OA
ENDROOT
BRANCH   1   7
HETATM    7  O4  UNL     1       0.298   2.662  -1.145  1.00  0.00    -0.304 OA
BRANCH   7   8
HETATM    8  C4  UNL     1      -0.929   2.073  -0.744  1.00  0.00     0.272 C 
HETATM    9  C3  UNL     1      -2.031   3.138  -0.503  1.00  0.00     0.238 C 
HETATM   10  C2  UNL     1      -1.745   3.986   0.746  1.00  0.00     0.190 C 
HETATM   11  O13 UNL     1      -2.183   3.977  -1.634  1.00  0.00    -0.215 OA
HETATM   12  C1  UNL     1      -1.484   3.058   1.940  1.00  0.00     0.184 C 
HETATM   13  C5  UNL     1      -0.403   2.007   1.615  1.00  0.00     0.178 C 
HETATM   14  O1  UNL     1      -0.761   1.288   0.436  1.00  0.00    -0.326 OA
BRANCH  10  15
HETATM   15  O14 UNL     1      -2.856   4.825   1.033  1.00  0.00    -0.299 OA
BRANCH  15  16
HETATM   16  C26 UNL     1      -2.807   5.976   0.368  1.00  0.00     0.273 C 
HETATM   17  O15 UNL     1      -1.841   6.354  -0.254  1.00  0.00    -0.264 OA
HETATM   18  C27 UNL     1      -4.060   6.807   0.433  1.00  0.00     0.106 C 
ENDBRANCH  15  16
ENDBRANCH  10  15
BRANCH  12  19
HETATM   19  O16 UNL     1      -1.069   3.834   3.056  1.00  0.00    -0.299 OA
BRANCH  19  20
HETATM   20  C28 UNL     1      -1.467   3.311   4.212  1.00  0.00     0.273 C 
HETATM   21  O17 UNL     1      -2.187   2.344   4.301  1.00  0.00    -0.264 OA
HETATM   22  C29 UNL     1      -0.956   4.013   5.442  1.00  0.00     0.106 C 
ENDBRANCH  19  20
ENDBRANCH  12  19
BRANCH  13  23
HETATM   23  C6  UNL     1      -0.237   0.980   2.737  1.00  0.00     0.184 C 
BRANCH  23  24
HETATM   24  O2  UNL     1       0.724   0.008   2.351  1.00  0.00    -0.299 OA
BRANCH  24  25
HETATM   25  C7  UNL     1       0.989  -0.856   3.327  1.00  0.00     0.273 C 
HETATM   26  O3  UNL     1       0.454  -0.834   4.410  1.00  0.00    -0.264 OA
HETATM   27  C8  UNL     1       2.026  -1.896   2.996  1.00  0.00     0.106 C 
ENDBRANCH  24  25
ENDBRANCH  23  24
ENDBRANCH  13  23
ENDBRANCH   7   8
ENDBRANCH   1   7
BRANCH   1  28
HETATM   28  C25 UNL     1       0.625   2.051  -3.416  1.00  0.00     0.241 C 
HETATM   29  O12 UNL     1      -0.485   1.219  -3.671  1.00  0.00    -0.215 OA
ENDBRANCH   1  28
BRANCH   3  30
HETATM   30  O9  UNL     1       3.443   0.829  -3.728  1.00  0.00    -0.299 OA
BRANCH  30  31
HETATM   31  C23 UNL     1       4.057  -0.244  -4.220  1.00  0.00     0.273 C 
HETATM   32  O10 UNL     1       4.342  -1.217  -3.562  1.00  0.00    -0.264 OA
HETATM   33  C24 UNL     1       4.387  -0.176  -5.687  1.00  0.00     0.106 C 
ENDBRANCH  30  31
ENDBRANCH   3  30
BRANCH   4  34
HETATM   34  C13 UNL     1       2.269  -1.447  -1.223  1.00  0.00     0.184 C 
BRANCH  34  35
HETATM   35  O6  UNL     1       1.169  -2.345  -1.197  1.00  0.00    -0.296 OA
BRANCH  35  36
HETATM   36  C14 UNL     1       1.384  -3.385  -0.396  1.00  0.00     0.296 C 
HETATM   37  O7  UNL     1       2.406  -3.556   0.227  1.00  0.00    -0.259 OA
BRANCH  36  38
HETATM   38  C15 UNL     1       0.284  -4.352  -0.298  1.00  0.00     0.068 C 
HETATM   39  C16 UNL     1       0.363  -5.396   0.543  1.00  0.00     0.005 C 
BRANCH  39  40
HETATM   40  C17 UNL     1      -0.782  -6.353   0.607  1.00  0.00     0.000 A 
HETATM   41  C18 UNL     1      -1.034  -7.070   1.790  1.00  0.00     0.002 A 
HETATM   42  C19 UNL     1      -2.112  -7.971   1.849  1.00  0.00     0.027 A 
HETATM   43  C20 UNL     1      -2.941  -8.157   0.729  1.00  0.00     0.131 A 
HETATM   44  C21 UNL     1      -2.687  -7.438  -0.453  1.00  0.00     0.027 A 
HETATM   45  O8  UNL     1      -3.952  -9.002   0.786  1.00  0.00    -0.190 OA
HETATM   46  C22 UNL     1      -1.610  -6.538  -0.515  1.00  0.00     0.002 A 
ENDBRANCH  39  40
ENDBRANCH  36  38
ENDBRANCH  35  36
ENDBRANCH  34  35
ENDBRANCH   4  34
TORSDOF 17
