REMARK  3 active torsions:
REMARK  status: ('A' for Active; 'I' for Inactive)
REMARK    1  A    between atoms: C8_9  and  C10_11 
REMARK    2  A    between atoms: C12_13  and  O3_19 
REMARK    3  A    between atoms: C13_14  and  O2_17 
ROOT
HETATM    1  C1  UNL     1       3.813  -1.912   1.580  1.00  0.00     0.133 A 
HETATM    2  C2  UNL     1       4.110  -0.559   1.851  1.00  0.00     0.027 A 
HETATM    3  C3  UNL     1       3.067   0.350   2.148  1.00  0.00    -0.000 A 
HETATM    4  C4  UNL     1       1.721  -0.094   2.176  1.00  0.00     0.001 A 
HETATM    5  C5  UNL     1       1.424  -1.463   1.914  1.00  0.00     0.092 A 
HETATM    6  C6  UNL     1       2.471  -2.361   1.609  1.00  0.00     0.051 A 
HETATM    7  O1  UNL     1       0.154  -1.928   1.939  1.00  0.00    -0.331 OA
HETATM    8  C7  UNL     1      -0.912  -1.127   2.467  1.00  0.00     0.153 C 
HETATM    9  C8  UNL     1      -0.762   0.342   2.029  1.00  0.00     0.059 C 
HETATM   10  C9  UNL     1       0.623   0.863   2.473  1.00  0.00     0.035 C 
HETATM   11  O5  UNL     1       4.801  -2.772   1.293  1.00  0.00    -0.190 OA
ENDROOT
BRANCH   9  12
HETATM   12  C10 UNL     1      -0.978   0.504   0.560  1.00  0.00     0.008 A 
HETATM   13  C11 UNL     1      -2.275   0.408   0.019  1.00  0.00     0.151 A 
HETATM   14  C12 UNL     1      -2.467   0.561  -1.367  1.00  0.00     0.141 A 
HETATM   15  O4  UNL     1      -3.309   0.176   0.805  1.00  0.00    -0.188 OA
HETATM   16  C13 UNL     1      -1.367   0.811  -2.209  1.00  0.00     0.118 A 
HETATM   17  C14 UNL     1      -0.076   0.904  -1.662  1.00  0.00     0.026 A 
HETATM   18  C15 UNL     1       0.119   0.752  -0.281  1.00  0.00     0.000 A 
BRANCH  14  19
HETATM   19  O3  UNL     1      -3.680   0.473  -1.879  1.00  0.00    -0.324 OA
HETATM   20  C17 UNL     1      -3.824   0.635  -3.281  1.00  0.00     0.182 C 
ENDBRANCH  14  19
BRANCH  16  21
HETATM   21  O2  UNL     1      -1.543   0.953  -3.508  1.00  0.00    -0.326 OA
HETATM   22  C16 UNL     1      -0.412   1.289  -4.301  1.00  0.00     0.181 C 
ENDBRANCH  16  21
ENDBRANCH   9  12
TORSDOF 3
