REMARK  1 active torsions:
REMARK  status: ('A' for Active; 'I' for Inactive)
REMARK    1  A    between atoms: C4_4  and  C7_9 
ROOT
HETATM    1  C1  UNL     1      -1.600  -0.531   0.525  1.00  0.00     0.213 C 
HETATM    2  C2  UNL     1      -0.664  -1.479  -0.268  1.00  0.00     0.188 C 
HETATM    3  C3  UNL     1       0.809  -1.317   0.174  1.00  0.00     0.077 C 
HETATM    4  C4  UNL     1       1.301   0.152   0.168  1.00  0.00     0.209 C 
HETATM    5  C5  UNL     1       0.342   1.059   0.971  1.00  0.00     0.077 C 
HETATM    6  C6  UNL     1      -1.117   0.939   0.486  1.00  0.00     0.188 C 
HETATM    7  O1  UNL     1      -1.928   1.742   1.324  1.00  0.00    -0.221 OA
HETATM    8  O2  UNL     1       2.564   0.189   0.799  1.00  0.00    -0.215 OA
HETATM    9  O5  UNL     1      -0.756  -1.244  -1.662  1.00  0.00    -0.221 OA
HETATM   10  O6  UNL     1      -2.932  -0.639   0.043  1.00  0.00    -0.218 OA
ENDROOT
BRANCH   4  11
HETATM   11  C7  UNL     1       1.504   0.682  -1.232  1.00  0.00     0.214 C 
HETATM   12  O3  UNL     1       1.117   1.783  -1.545  1.00  0.00    -0.646 OA
HETATM   13  O4  UNL     1       2.129  -0.149  -2.064  1.00  0.00    -0.646 OA
ENDBRANCH   4  11
TORSDOF 1
