REMARK  3 active torsions:
REMARK  status: ('A' for Active; 'I' for Inactive)
REMARK    1  A    between atoms: C1_1  and  C2_2 
REMARK    2  A    between atoms: C2_2  and  O1_3 
REMARK    3  A    between atoms: O1_3  and  C3_4 
ROOT
HETATM    1  C3  UNL     1      -0.033   0.473   0.133  1.00  0.00     0.105 A 
HETATM    2  C4  UNL     1      -0.178   1.861   0.332  1.00  0.00     0.081 A 
HETATM    3  C5  UNL     1       0.949   2.703   0.258  1.00  0.00     0.025 A 
HETATM    4  C6  UNL     1       2.219   2.162  -0.013  1.00  0.00     0.059 A 
HETATM    5  C7  UNL     1       2.361   0.777  -0.213  1.00  0.00     0.013 A 
HETATM    6  C8  UNL     1       1.238  -0.063  -0.138  1.00  0.00     0.026 A 
HETATM    7 CL1  UNL     1       3.592   3.188  -0.101  1.00  0.00    -0.082 Cl
HETATM    8 CL2  UNL     1      -1.719   2.545   0.662  1.00  0.00    -0.080 Cl
ENDROOT
BRANCH   1   9
HETATM    9  O1  UNL     1      -1.074  -0.336   0.201  1.00  0.00    -0.319 OA
BRANCH   9  10
HETATM   10  C2  UNL     1      -0.854  -1.723  -0.004  1.00  0.00     0.246 C 
BRANCH  10  11
HETATM   11  C1  UNL     1      -2.160  -2.461   0.121  1.00  0.00     0.217 C 
HETATM   12  O2  UNL     1      -2.397  -3.150   1.084  1.00  0.00    -0.645 OA
HETATM   13  O3  UNL     1      -3.004  -2.291  -0.894  1.00  0.00    -0.645 OA
ENDBRANCH  10  11
ENDBRANCH   9  10
ENDBRANCH   1   9
TORSDOF 3
