REMARK  2 active torsions:
REMARK  status: ('A' for Active; 'I' for Inactive)
REMARK    1  A    between atoms: C22_25  and  O4_30 
REMARK    2  A    between atoms: C23_26  and  O3_28 
ROOT
HETATM    1  O1  UNL     1       1.346   3.738  -0.014  1.00  0.00    -0.304 OA
HETATM    2  C1  UNL     1       2.629   3.465   0.277  1.00  0.00     0.272 C 
HETATM    3  C2  UNL     1       3.047   3.035   1.672  1.00  0.00     0.101 C 
HETATM    4  C3  UNL     1       3.691   1.635   1.791  1.00  0.00     0.037 C 
HETATM    5  C4  UNL     1       2.676   0.535   1.814  1.00  0.00    -0.021 A 
HETATM    6  C5  UNL     1       2.219  -0.021   0.609  1.00  0.00    -0.002 A 
HETATM    7  C6  UNL     1       1.168  -0.959   0.602  1.00  0.00     0.025 A 
HETATM    8  C7  UNL     1       0.646  -1.430   1.828  1.00  0.00     0.131 A 
HETATM    9  C8  UNL     1       1.148  -0.920   3.039  1.00  0.00     0.027 A 
HETATM   10  C9  UNL     1       2.148   0.067   3.033  1.00  0.00    -0.002 A 
HETATM   11  O2  UNL     1      -0.307  -2.340   1.855  1.00  0.00    -0.190 OA
HETATM   12  C10 UNL     1       0.629  -1.430  -0.680  1.00  0.00     0.002 A 
HETATM   13  C11 UNL     1      -0.258  -0.641  -1.473  1.00  0.00     0.011 A 
HETATM   14  C12 UNL     1      -0.779   0.725  -1.047  1.00  0.00     0.244 C 
HETATM   15  N1  UNL     1      -1.502   0.740   0.260  1.00  0.00     0.137 N 
HETATM   16  C13 UNL     1      -2.023   2.088   0.641  1.00  0.00     0.222 C 
HETATM   17  C14 UNL     1      -0.990   3.229   0.437  1.00  0.00     0.064 C 
HETATM   18  C15 UNL     1       0.402   2.676   0.160  1.00  0.00     0.129 C 
HETATM   19  C16 UNL     1       0.316   1.826  -1.121  1.00  0.00     0.068 C 
HETATM   20  C17 UNL     1      -2.535   2.067   2.094  1.00  0.00     0.033 C 
HETATM   21  C18 UNL     1      -3.611   0.996   2.301  1.00  0.00     0.004 C 
HETATM   22  C19 UNL     1      -3.098  -0.363   1.824  1.00  0.00     0.035 C 
HETATM   23  C20 UNL     1      -2.557  -0.291   0.389  1.00  0.00     0.251 C 
HETATM   24  C21 UNL     1      -0.688  -1.158  -2.715  1.00  0.00     0.024 A 
HETATM   25  C22 UNL     1      -0.289  -2.430  -3.154  1.00  0.00     0.116 A 
HETATM   26  C23 UNL     1       0.557  -3.211  -2.354  1.00  0.00     0.116 A 
HETATM   27  C24 UNL     1       1.014  -2.711  -1.127  1.00  0.00     0.026 A 
HETATM   28  O5  UNL     1       3.494   3.586  -0.559  1.00  0.00    -0.264 OA
ENDROOT
BRANCH  25  29
HETATM   29  O4  UNL     1      -0.713  -2.887  -4.317  1.00  0.00    -0.326 OA
HETATM   30  C26 UNL     1      -1.711  -2.144  -5.000  1.00  0.00     0.181 C 
ENDBRANCH  25  29
BRANCH  26  31
HETATM   31  O3  UNL     1       0.924  -4.412  -2.754  1.00  0.00    -0.326 OA
HETATM   32  C25 UNL     1       1.793  -5.158  -1.912  1.00  0.00     0.181 C 
ENDBRANCH  26  31
TORSDOF 2
