REMARK  11 active torsions:
REMARK  status: ('A' for Active; 'I' for Inactive)
REMARK    1  A    between atoms: C1_1  and  C30_43 
REMARK    2  A    between atoms: C6_6  and  O1_7 
REMARK    3  A    between atoms: O1_7  and  C7_8 
REMARK    4  A    between atoms: C10_13  and  O12_39 
REMARK    5  A    between atoms: C13_16  and  O10_34 
REMARK    6  A    between atoms: C14_17  and  O6_23 
REMARK    7  A    between atoms: C15_18  and  O4_19 
REMARK    8  A    between atoms: O4_19  and  C16_20 
REMARK    9  A    between atoms: O6_23  and  C18_24 
REMARK   10  A    between atoms: O10_34  and  C25_35 
REMARK   11  A    between atoms: O12_39  and  C28_40 
ROOT
HETATM    1  C1  UNL     1       1.307  -0.209  -0.367  1.00  0.00     0.090 C 
HETATM    2  C2  UNL     1       0.973   1.195  -1.123  1.00  0.00     0.056 C 
HETATM    3  C3  UNL     1       2.084   1.752  -2.035  1.00  0.00    -0.012 C 
HETATM    4  C4  UNL     1       3.537   1.506  -1.715  1.00  0.00     0.173 C 
HETATM    5  C5  UNL     1       3.756   0.074  -1.250  1.00  0.00     0.068 C 
HETATM    6  C6  UNL     1       2.848  -0.267  -0.070  1.00  0.00     0.132 C 
HETATM    7  O3  UNL     1       3.963   2.412  -0.717  1.00  0.00    -0.219 OA
HETATM    8  C9  UNL     1       1.824   2.483  -3.139  1.00  0.00    -0.007 C 
HETATM    9  C10 UNL     1      -0.410   1.381  -1.918  1.00  0.00     0.129 C 
HETATM   10  C11 UNL     1      -1.541   0.465  -1.469  1.00  0.00     0.040 C 
HETATM   11  C12 UNL     1      -1.814   0.547   0.033  1.00  0.00     0.059 C 
HETATM   12  C13 UNL     1      -1.822  -0.982   0.375  1.00  0.00     0.160 C 
HETATM   13  C14 UNL     1      -0.809  -0.969   1.512  1.00  0.00     0.180 C 
HETATM   14  C15 UNL     1       0.676  -0.517   1.106  1.00  0.00     0.159 C 
HETATM   15  C20 UNL     1      -3.342  -1.133   0.096  1.00  0.00     0.169 C 
HETATM   16  C21 UNL     1      -3.656  -0.898  -1.404  1.00  0.00     0.177 C 
HETATM   17  C22 UNL     1      -2.900   0.217  -2.156  1.00  0.00     0.070 C 
HETATM   18  O8  UNL     1      -4.473  -1.578  -1.984  1.00  0.00    -0.293 OA
HETATM   19  C23 UNL     1      -3.891  -2.445   0.649  1.00  0.00     0.040 C 
HETATM   20  O9  UNL     1      -3.924  -0.086   0.803  1.00  0.00    -0.350 OA
HETATM   21  C24 UNL     1      -3.191   1.076   0.565  1.00  0.00     0.145 C 
HETATM   22  C27 UNL     1      -1.060   1.666   0.777  1.00  0.00     0.005 C 
ENDROOT
BRANCH   6  23
HETATM   23  O1  UNL     1       3.225  -1.566   0.377  1.00  0.00    -0.304 OA
BRANCH  23  24
HETATM   24  C7  UNL     1       3.717  -1.553   1.613  1.00  0.00     0.272 C 
HETATM   25  C8  UNL     1       5.053  -0.875   1.764  1.00  0.00     0.106 C 
HETATM   26  O2  UNL     1       3.156  -2.041   2.567  1.00  0.00    -0.264 OA
ENDBRANCH  23  24
ENDBRANCH   6  23
BRANCH   1  27
HETATM   27  C30 UNL     1       1.098  -1.371  -1.348  1.00  0.00     0.187 C 
HETATM   28  O14 UNL     1       1.682  -1.019  -2.582  1.00  0.00    -0.221 OA
ENDBRANCH   1  27
BRANCH  14  29
HETATM   29  O4  UNL     1       1.053   0.543   1.977  1.00  0.00    -0.301 OA
BRANCH  29  30
HETATM   30  C16 UNL     1       0.922   0.215   3.258  1.00  0.00     0.272 C 
HETATM   31  C17 UNL     1       1.104   1.350   4.233  1.00  0.00     0.106 C 
HETATM   32  O5  UNL     1       0.674  -0.902   3.647  1.00  0.00    -0.264 OA
ENDBRANCH  29  30
ENDBRANCH  14  29
BRANCH   9  33
HETATM   33  O12 UNL     1      -0.842   2.735  -1.834  1.00  0.00    -0.304 OA
BRANCH  33  34
HETATM   34  C28 UNL     1       0.170   3.594  -1.898  1.00  0.00     0.272 C 
HETATM   35  C29 UNL     1       0.197   4.461  -3.129  1.00  0.00     0.106 C 
HETATM   36  O13 UNL     1       1.022   3.695  -1.045  1.00  0.00    -0.264 OA
ENDBRANCH  33  34
ENDBRANCH   9  33
BRANCH  13  37
HETATM   37  O6  UNL     1      -0.766  -2.277   2.072  1.00  0.00    -0.299 OA
BRANCH  37  38
HETATM   38  C18 UNL     1      -1.545  -2.394   3.143  1.00  0.00     0.273 C 
HETATM   39  C19 UNL     1      -2.490  -1.246   3.377  1.00  0.00     0.106 C 
HETATM   40  O7  UNL     1      -1.519  -3.342   3.893  1.00  0.00    -0.264 OA
ENDBRANCH  37  38
ENDBRANCH  13  37
BRANCH  12  41
HETATM   41  O10 UNL     1      -1.264  -1.965  -0.496  1.00  0.00    -0.301 OA
BRANCH  41  42
HETATM   42  C25 UNL     1      -1.701  -3.191  -0.225  1.00  0.00     0.272 C 
HETATM   43  C26 UNL     1      -2.215  -3.965  -1.410  1.00  0.00     0.106 C 
HETATM   44  O11 UNL     1      -1.699  -3.676   0.883  1.00  0.00    -0.264 OA
ENDBRANCH  41  42
ENDBRANCH  12  41
TORSDOF 11
