REMARK  8 active torsions:
REMARK  status: ('A' for Active; 'I' for Inactive)
REMARK    1  A    between atoms: C6_6  and  O1_7 
REMARK    2  A    between atoms: O1_7  and  C7_8 
REMARK    3  A    between atoms: C10_13  and  O11_36 
REMARK    4  A    between atoms: C14_17  and  O6_23 
REMARK    5  A    between atoms: C15_18  and  O4_19 
REMARK    6  A    between atoms: O4_19  and  C16_20 
REMARK    7  A    between atoms: O6_23  and  C18_24 
REMARK    8  A    between atoms: O11_36  and  C26_37 
ROOT
HETATM    1  C1  UNL     1       1.367  -0.057  -0.291  1.00  0.00     0.060 C 
HETATM    2  C2  UNL     1       1.223   1.320   0.555  1.00  0.00     0.053 C 
HETATM    3  C3  UNL     1       2.524   2.109   0.654  1.00  0.00    -0.012 C 
HETATM    4  C4  UNL     1       3.527   1.910  -0.457  1.00  0.00     0.173 C 
HETATM    5  C5  UNL     1       3.943   0.432  -0.525  1.00  0.00     0.068 C 
HETATM    6  C6  UNL     1       2.842  -0.537  -0.037  1.00  0.00     0.130 C 
HETATM    7  O3  UNL     1       4.682   2.721  -0.332  1.00  0.00    -0.219 OA
HETATM    8  C9  UNL     1       2.750   2.930   1.701  1.00  0.00    -0.007 C 
HETATM    9  C10 UNL     1       0.102   2.398   0.207  1.00  0.00     0.129 C 
HETATM   10  C11 UNL     1      -1.133   1.807  -0.475  1.00  0.00     0.040 C 
HETATM   11  C12 UNL     1      -1.727   0.619   0.293  1.00  0.00     0.061 C 
HETATM   12  C13 UNL     1      -1.896  -0.445  -0.853  1.00  0.00     0.185 C 
HETATM   13  C14 UNL     1      -1.123  -1.592  -0.180  1.00  0.00     0.182 C 
HETATM   14  C15 UNL     1       0.443  -1.342   0.092  1.00  0.00     0.157 C 
HETATM   15  C20 UNL     1      -3.322   0.076  -1.221  1.00  0.00     0.171 C 
HETATM   16  C21 UNL     1      -3.287   1.533  -1.768  1.00  0.00     0.177 C 
HETATM   17  C22 UNL     1      -2.322   2.551  -1.117  1.00  0.00     0.070 C 
HETATM   18  O8  UNL     1      -3.990   1.869  -2.691  1.00  0.00    -0.293 OA
HETATM   19  C23 UNL     1      -4.106  -0.893  -2.105  1.00  0.00     0.040 C 
HETATM   20  O9  UNL     1      -3.988   0.135   0.000  1.00  0.00    -0.349 OA
HETATM   21  C24 UNL     1      -3.154   0.740   0.936  1.00  0.00     0.145 C 
HETATM   22  O10 UNL     1      -1.262  -0.400  -2.133  1.00  0.00    -0.220 OA
HETATM   23  C25 UNL     1      -1.127   0.379   1.695  1.00  0.00     0.005 C 
HETATM   24  C28 UNL     1       1.348   0.219  -1.801  1.00  0.00     0.005 C 
ENDROOT
BRANCH   6  25
HETATM   25  O1  UNL     1       3.094  -1.795  -0.652  1.00  0.00    -0.304 OA
BRANCH  25  26
HETATM   26  C7  UNL     1       4.170  -2.397  -0.150  1.00  0.00     0.272 C 
HETATM   27  C8  UNL     1       4.590  -3.656  -0.861  1.00  0.00     0.106 C 
HETATM   28  O2  UNL     1       4.787  -1.986   0.805  1.00  0.00    -0.264 OA
ENDBRANCH  25  26
ENDBRANCH   6  25
BRANCH  14  29
HETATM   29  O4  UNL     1       0.701  -1.674   1.451  1.00  0.00    -0.302 OA
BRANCH  29  30
HETATM   30  C16 UNL     1       0.508  -2.967   1.701  1.00  0.00     0.272 C 
HETATM   31  C17 UNL     1       0.592  -3.358   3.152  1.00  0.00     0.106 C 
HETATM   32  O5  UNL     1       0.279  -3.791   0.848  1.00  0.00    -0.264 OA
ENDBRANCH  29  30
ENDBRANCH  14  29
BRANCH   9  33
HETATM   33  O11 UNL     1      -0.297   3.086   1.387  1.00  0.00    -0.304 OA
BRANCH  33  34
HETATM   34  C26 UNL     1      -0.891   4.246   1.123  1.00  0.00     0.272 C 
HETATM   35  C27 UNL     1      -1.533   4.920   2.305  1.00  0.00     0.106 C 
HETATM   36  O12 UNL     1      -0.930   4.746   0.023  1.00  0.00    -0.264 OA
ENDBRANCH  33  34
ENDBRANCH   9  33
BRANCH  13  37
HETATM   37  O6  UNL     1      -1.283  -2.781  -0.949  1.00  0.00    -0.299 OA
BRANCH  37  38
HETATM   38  C18 UNL     1      -2.475  -3.344  -0.771  1.00  0.00     0.273 C 
HETATM   39  C19 UNL     1      -2.811  -4.449  -1.736  1.00  0.00     0.106 C 
HETATM   40  O7  UNL     1      -3.252  -3.016   0.094  1.00  0.00    -0.264 OA
ENDBRANCH  37  38
ENDBRANCH  13  37
TORSDOF 8
