REMARK  8 active torsions:
REMARK  status: ('A' for Active; 'I' for Inactive)
REMARK    1  A    between atoms: C8_9  and  O8_33 
REMARK    2  A    between atoms: C12_13  and  O4_19 
REMARK    3  A    between atoms: C13_14  and  O2_15 
REMARK    4  A    between atoms: O2_15  and  C14_16 
REMARK    5  A    between atoms: O4_19  and  C16_20 
REMARK    6  A    between atoms: C19_24  and  O6_26 
REMARK    7  A    between atoms: O6_26  and  C21_27 
REMARK    8  A    between atoms: O8_33  and  C26_34 
ROOT
HETATM    1  C1  UNL     1       0.560   0.792  -0.520  1.00  0.00     0.037 C 
HETATM    2  C2  UNL     1       0.720  -0.797   0.396  1.00  0.00     0.051 C 
HETATM    3  C3  UNL     1      -0.564  -1.625   0.013  1.00  0.00    -0.012 C 
HETATM    4  C4  UNL     1      -1.935  -0.971  -0.027  1.00  0.00     0.171 C 
HETATM    5  C5  UNL     1      -1.850   0.431   0.527  1.00  0.00     0.037 C 
HETATM    6  C6  UNL     1      -0.863   1.379  -0.216  1.00  0.00     0.006 C 
HETATM    7  O1  UNL     1      -2.877  -1.742   0.736  1.00  0.00    -0.219 OA
HETATM    8  C7  UNL     1      -0.462  -2.875  -0.439  1.00  0.00    -0.007 C 
HETATM    9  C8  UNL     1       2.241  -1.889  -0.005  1.00  0.00     0.128 C 
HETATM   10  C9  UNL     1       4.041  -1.323   0.208  1.00  0.00     0.035 C 
HETATM   11  C10 UNL     1       3.887  -0.059  -0.197  1.00  0.00     0.022 C 
HETATM   12  C11 UNL     1       4.624   0.973  -0.384  1.00  0.00    -0.007 C 
HETATM   13  C12 UNL     1       3.672   2.370  -0.248  1.00  0.00     0.104 C 
HETATM   14  C13 UNL     1       1.769   2.343  -0.503  1.00  0.00     0.169 C 
HETATM   15  C18 UNL     1       5.937   0.759  -0.610  1.00  0.00    -0.019 C 
HETATM   16  C19 UNL     1       6.471  -0.758  -0.588  1.00  0.00     0.142 C 
HETATM   17  C20 UNL     1       5.197  -1.850  -0.729  1.00  0.00     0.037 C 
HETATM   18  C23 UNL     1       6.898   1.892  -0.819  1.00  0.00     0.029 C 
HETATM   19  C24 UNL     1       3.432  -0.143  -1.703  1.00  0.00     0.004 C 
HETATM   20  C25 UNL     1       3.292   0.278   1.284  1.00  0.00     0.004 C 
HETATM   21  C28 UNL     1       0.425   0.308  -2.020  1.00  0.00     0.003 C 
ENDROOT
BRANCH   9  22
HETATM   22  O8  UNL     1       2.071  -3.156   0.714  1.00  0.00    -0.304 OA
BRANCH  22  23
HETATM   23  C26 UNL     1       2.784  -4.257   0.238  1.00  0.00     0.272 C 
HETATM   24  C27 UNL     1       2.653  -5.569   0.956  1.00  0.00     0.106 C 
HETATM   25  O9  UNL     1       3.455  -4.192  -0.793  1.00  0.00    -0.264 OA
ENDBRANCH  22  23
ENDBRANCH   9  22
BRANCH  14  26
HETATM   26  O2  UNL     1       1.461   3.324   0.536  1.00  0.00    -0.298 OA
BRANCH  26  27
HETATM   27  C14 UNL     1       0.400   4.216   0.234  1.00  0.00     0.273 C 
HETATM   28  O3  UNL     1      -0.159   4.182  -0.870  1.00  0.00    -0.264 OA
HETATM   29  C15 UNL     1      -0.019   5.241   1.244  1.00  0.00     0.106 C 
ENDBRANCH  26  27
ENDBRANCH  14  26
BRANCH  16  30
HETATM   30  O6  UNL     1       7.215  -0.871   0.630  1.00  0.00    -0.300 OA
BRANCH  30  31
HETATM   31  C21 UNL     1       8.028  -2.014   0.614  1.00  0.00     0.273 C 
HETATM   32  C22 UNL     1       8.953  -2.277   1.763  1.00  0.00     0.106 C 
HETATM   33  O7  UNL     1       8.065  -2.752  -0.379  1.00  0.00    -0.264 OA
ENDBRANCH  30  31
ENDBRANCH  16  30
BRANCH  13  34
HETATM   34  O4  UNL     1       4.361   3.566  -0.700  1.00  0.00    -0.279 OA
BRANCH  34  35
HETATM   35  C16 UNL     1       4.064   4.735   0.021  1.00  0.00     0.277 C 
HETATM   36  C17 UNL     1       4.744   6.016  -0.354  1.00  0.00     0.107 C 
HETATM   37  O5  UNL     1       3.333   4.711   1.015  1.00  0.00    -0.264 OA
ENDBRANCH  34  35
ENDBRANCH  13  34
TORSDOF 8
