REMARK  2 active torsions:
REMARK  status: ('A' for Active; 'I' for Inactive)
REMARK    1  A    between atoms: C3_3  and  C20_20 
REMARK    2  A    between atoms: C12_12  and  C15_15 
ROOT
HETATM    1  C1  UNL     1      -3.494  -0.900   0.338  1.00  0.00     0.001 C 
HETATM    2  C2  UNL     1      -3.881   0.463  -0.246  1.00  0.00     0.010 C 
HETATM    3  C3  UNL     1      -2.889   1.582   0.166  1.00  0.00     0.079 C 
HETATM    4  C4  UNL     1      -1.467   0.998   0.439  1.00  0.00     0.014 C 
HETATM    5  C5  UNL     1      -1.117  -0.207  -0.481  1.00  0.00     0.019 C 
HETATM    6  C6  UNL     1      -2.103  -1.367  -0.139  1.00  0.00     0.004 C 
HETATM    7  C7  UNL     1       0.315  -0.646  -0.348  1.00  0.00    -0.027 A 
HETATM    8  C8  UNL     1       1.297   0.152   0.322  1.00  0.00    -0.026 A 
HETATM    9  C9  UNL     1       0.955   1.459   0.941  1.00  0.00     0.026 C 
HETATM   10  C10 UNL     1      -0.355   2.059   0.420  1.00  0.00     0.005 C 
HETATM   11  C11 UNL     1       2.637  -0.303   0.410  1.00  0.00    -0.009 A 
HETATM   12  C12 UNL     1       3.016  -1.541  -0.154  1.00  0.00    -0.023 A 
HETATM   13  C13 UNL     1       2.053  -2.334  -0.818  1.00  0.00    -0.005 A 
HETATM   14  C14 UNL     1       0.717  -1.887  -0.914  1.00  0.00    -0.005 A 
HETATM   15  C18 UNL     1      -1.310   0.209  -1.949  1.00  0.00     0.004 C 
HETATM   16  C19 UNL     1      -2.867   2.658  -0.930  1.00  0.00     0.011 C 
ENDROOT
BRANCH   3  17
HETATM   17  C20 UNL     1      -3.391   2.256   1.422  1.00  0.00     0.184 C 
HETATM   18  O1  UNL     1      -3.277   3.449   1.576  1.00  0.00    -0.647 OA
HETATM   19  O2  UNL     1      -3.949   1.443   2.316  1.00  0.00    -0.647 OA
ENDBRANCH   3  17
BRANCH  12  20
HETATM   20  C15 UNL     1       4.408  -2.004  -0.053  1.00  0.00     0.022 C 
HETATM   21  C16 UNL     1       5.365  -1.074  -0.801  1.00  0.00     0.005 C 
HETATM   22  C17 UNL     1       4.822  -2.231   1.400  1.00  0.00     0.005 C 
ENDBRANCH  12  20
TORSDOF 2
