REMARK  12 active torsions:
REMARK  status: ('A' for Active; 'I' for Inactive)
REMARK    1  A    between atoms: C1_1  and  C32_47 
REMARK    2  A    between atoms: C5_5  and  O2_7 
REMARK    3  A    between atoms: O2_7  and  C6_8 
REMARK    4  A    between atoms: C7_9  and  O12_42 
REMARK    5  A    between atoms: C10_12  and  C12_14 
REMARK    6  A    between atoms: C13_15  and  C30_40 
REMARK    7  A    between atoms: C16_19  and  O10_38 
REMARK    8  A    between atoms: C18_21  and  C20_23 
REMARK    9  A    between atoms: C21_24  and  C22_25 
REMARK   10  A    between atoms: C22_25  and  O4_26 
REMARK   11  A    between atoms: O4_26  and  C23_27 
REMARK   12  A    between atoms: C27_31  and  C28_33 
ROOT
HETATM    1  C12 UNL     1      -1.766   0.908   0.264  1.00  0.00     0.150 A 
HETATM    2  C13 UNL     1      -1.256  -0.551   0.537  1.00  0.00     0.089 A 
HETATM    3  C14 UNL     1       0.238  -0.338   0.570  1.00  0.00     0.007 A 
HETATM    4  C15 UNL     1       0.518   1.012   0.305  1.00  0.00     0.113 A 
HETATM    5  O3  UNL     1      -0.590   1.725   0.113  1.00  0.00    -0.327 OA
HETATM    6  C16 UNL     1       1.871   1.457   0.268  1.00  0.00     0.116 A 
HETATM    7  C17 UNL     1       2.920   0.535   0.504  1.00  0.00     0.026 A 
HETATM    8  C18 UNL     1       2.633  -0.814   0.779  1.00  0.00     0.002 A 
HETATM    9  C19 UNL     1       1.295  -1.248   0.814  1.00  0.00    -0.002 A 
ENDROOT
BRANCH   1  10
HETATM   10  C10 UNL     1      -2.635   1.064  -0.939  1.00  0.00     0.008 A 
HETATM   11  C9  UNL     1      -2.063   1.102  -2.223  1.00  0.00     0.000 A 
HETATM   12  C8  UNL     1      -2.883   1.248  -3.352  1.00  0.00     0.026 A 
HETATM   13  C7  UNL     1      -4.277   1.357  -3.205  1.00  0.00     0.116 A 
HETATM   14  C6  UNL     1      -4.852   1.320  -1.920  1.00  0.00     0.119 A 
HETATM   15  C11 UNL     1      -4.027   1.174  -0.789  1.00  0.00     0.024 A 
BRANCH  13  16
HETATM   16  O12 UNL     1      -5.043   1.494  -4.270  1.00  0.00    -0.326 OA
HETATM   17  C31 UNL     1      -4.416   1.490  -5.545  1.00  0.00     0.181 C 
ENDBRANCH  13  16
BRANCH  14  18
HETATM   18  O2  UNL     1      -6.158   1.422  -1.773  1.00  0.00    -0.302 OA
BRANCH  18  19
HETATM   19  C5  UNL     1      -6.779   2.639  -2.158  1.00  0.00     0.274 C 
HETATM   20  C4  UNL     1      -6.443   3.762  -1.146  1.00  0.00     0.241 C 
HETATM   21  C3  UNL     1      -7.221   5.053  -1.494  1.00  0.00     0.220 C 
HETATM   22  O13 UNL     1      -6.760   3.316   0.166  1.00  0.00    -0.215 OA
HETATM   23  C2  UNL     1      -8.725   4.738  -1.658  1.00  0.00     0.215 C 
HETATM   24  O14 UNL     1      -7.012   6.051  -0.508  1.00  0.00    -0.218 OA
HETATM   25  C1  UNL     1      -8.947   3.578  -2.658  1.00  0.00     0.184 C 
HETATM   26  O15 UNL     1      -9.428   5.883  -2.109  1.00  0.00    -0.218 OA
HETATM   27  O1  UNL     1      -8.190   2.441  -2.250  1.00  0.00    -0.326 OA
BRANCH  25  28
HETATM   28  C32 UNL     1      -8.582   3.920  -4.113  1.00  0.00     0.214 C 
HETATM   29  O16 UNL     1      -8.819   2.779  -4.906  1.00  0.00    -0.218 OA
ENDBRANCH  25  28
ENDBRANCH  18  19
ENDBRANCH  14  18
ENDBRANCH   1  10
BRANCH   2  30
HETATM   30  C30 UNL     1      -1.629  -1.611  -0.500  1.00  0.00     0.190 C 
HETATM   31  O11 UNL     1      -1.311  -2.879   0.031  1.00  0.00    -0.220 OA
ENDBRANCH   2  30
BRANCH   6  32
HETATM   32  O10 UNL     1       2.289   2.707   0.022  1.00  0.00    -0.326 OA
HETATM   33  C29 UNL     1       1.309   3.697  -0.256  1.00  0.00     0.181 C 
ENDBRANCH   6  32
BRANCH   8  34
HETATM   34  C20 UNL     1       3.731  -1.772   1.031  1.00  0.00    -0.002 C 
HETATM   35  C21 UNL     1       4.924  -1.295   1.424  1.00  0.00     0.006 C 
BRANCH  35  36
HETATM   36  C22 UNL     1       6.039  -2.272   1.678  1.00  0.00     0.171 C 
BRANCH  36  37
HETATM   37  O4  UNL     1       5.914  -2.801   2.979  1.00  0.00    -0.324 OA
BRANCH  37  38
HETATM   38  C23 UNL     1       6.867  -3.805   3.268  1.00  0.00     0.270 C 
HETATM   39  C24 UNL     1       6.553  -4.453   4.647  1.00  0.00     0.241 C 
HETATM   40  C25 UNL     1       7.805  -5.078   5.328  1.00  0.00     0.220 C 
HETATM   41  O9  UNL     1       5.586  -5.471   4.447  1.00  0.00    -0.215 OA
HETATM   42  C26 UNL     1       8.916  -5.379   4.297  1.00  0.00     0.215 C 
HETATM   43  O8  UNL     1       8.324  -4.156   6.270  1.00  0.00    -0.218 OA
HETATM   44  C27 UNL     1       9.242  -4.160   3.377  1.00  0.00     0.184 C 
HETATM   45  O7  UNL     1       8.496  -6.492   3.527  1.00  0.00    -0.218 OA
HETATM   46  O5  UNL     1       8.164  -3.229   3.305  1.00  0.00    -0.326 OA
BRANCH  44  47
HETATM   47  C28 UNL     1       9.666  -4.514   1.941  1.00  0.00     0.214 C 
HETATM   48  O6  UNL     1      10.176  -3.348   1.334  1.00  0.00    -0.218 OA
ENDBRANCH  44  47
ENDBRANCH  37  38
ENDBRANCH  36  37
ENDBRANCH  35  36
ENDBRANCH   8  34
TORSDOF 12
