REMARK  4 active torsions:
REMARK  status: ('A' for Active; 'I' for Inactive)
REMARK    1  A    between atoms: C1_1  and  O4_25 
REMARK    2  A    between atoms: C2_2  and  O3_23 
REMARK    3  A    between atoms: C15_16  and  O2_20 
REMARK    4  A    between atoms: C16_17  and  O1_18 
ROOT
HETATM    1  C1  UNL     1      -3.449   0.348   0.562  1.00  0.00     0.116 A 
HETATM    2  C2  UNL     1      -3.269   1.361   1.523  1.00  0.00     0.116 A 
HETATM    3  C3  UNL     1      -1.971   1.820   1.818  1.00  0.00     0.026 A 
HETATM    4  C4  UNL     1      -0.848   1.264   1.152  1.00  0.00     0.004 A 
HETATM    5  C5  UNL     1      -1.000   0.228   0.172  1.00  0.00     0.004 A 
HETATM    6  C6  UNL     1      -2.336  -0.213  -0.104  1.00  0.00     0.026 A 
HETATM    7  C7  UNL     1       0.178  -0.311  -0.473  1.00  0.00     0.025 A 
HETATM    8  C8  UNL     1       1.475   0.195  -0.082  1.00  0.00     0.014 A 
HETATM    9  C9  UNL     1       1.598   1.262   0.871  1.00  0.00     0.056 A 
HETATM   10  C10 UNL     1       0.428   1.767   1.486  1.00  0.00     0.017 A 
HETATM   11  N1  UNL     1       2.815   1.801   1.185  1.00  0.00    -0.346 N 
HETATM   12  C11 UNL     1       3.992   1.527   0.328  1.00  0.00     0.106 C 
HETATM   13  C12 UNL     1       4.002   0.078  -0.178  1.00  0.00     0.051 C 
HETATM   14  C13 UNL     1       2.664  -0.373  -0.641  1.00  0.00    -0.017 A 
HETATM   15  C14 UNL     1       2.582  -1.377  -1.625  1.00  0.00     0.022 A 
HETATM   16  C15 UNL     1       1.328  -1.844  -2.051  1.00  0.00     0.116 A 
HETATM   17  C16 UNL     1       0.139  -1.328  -1.488  1.00  0.00     0.116 A 
HETATM   18  C19 UNL     1       3.016   2.676   2.361  1.00  0.00     0.126 C 
ENDROOT
BRANCH   1  19
HETATM   19  O4  UNL     1      -4.685  -0.090   0.277  1.00  0.00    -0.326 OA
HETATM   20  C21 UNL     1      -4.822  -1.096  -0.715  1.00  0.00     0.181 C 
ENDBRANCH   1  19
BRANCH   2  21
HETATM   21  O3  UNL     1      -4.324   1.892   2.154  1.00  0.00    -0.326 OA
HETATM   22  C20 UNL     1      -4.078   2.828   3.193  1.00  0.00     0.181 C 
ENDBRANCH   2  21
BRANCH  17  23
HETATM   23  O1  UNL     1      -0.998  -1.852  -1.971  1.00  0.00    -0.326 OA
HETATM   24  C17 UNL     1      -1.197  -3.250  -1.834  1.00  0.00     0.181 C 
ENDBRANCH  17  23
BRANCH  16  25
HETATM   25  O2  UNL     1       1.268  -2.791  -2.998  1.00  0.00    -0.326 OA
HETATM   26  C18 UNL     1       2.485  -3.221  -3.588  1.00  0.00     0.181 C 
ENDBRANCH  16  25
TORSDOF 4
