REMARK  1 active torsions:
REMARK  status: ('A' for Active; 'I' for Inactive)
REMARK    1  A    between atoms: C9_9  and  C11_11 
ROOT
HETATM    1  C1  UNL     1       3.307   1.891   0.111  1.00  0.00    -0.026 C 
HETATM    2  C2  UNL     1       3.459   0.436  -0.279  1.00  0.00     0.026 C 
HETATM    3  C3  UNL     1       2.123  -0.301  -0.545  1.00  0.00     0.008 C 
HETATM    4  C4  UNL     1       1.053   0.065   0.517  1.00  0.00     0.019 C 
HETATM    5  C5  UNL     1       0.883   1.582   0.445  1.00  0.00    -0.027 C 
HETATM    6  C6  UNL     1       2.108   2.404   0.447  1.00  0.00    -0.009 C 
HETATM    7  C7  UNL     1      -0.328   2.174   0.349  1.00  0.00    -0.030 C 
HETATM    8  C8  UNL     1      -1.602   1.377   0.215  1.00  0.00     0.028 C 
HETATM    9  C9  UNL     1      -1.336   0.039  -0.485  1.00  0.00     0.033 C 
HETATM   10  C10 UNL     1      -0.275  -0.725   0.314  1.00  0.00     0.007 C 
HETATM   11  C14 UNL     1       1.594  -0.277   1.916  1.00  0.00     0.004 C 
HETATM   12  C15 UNL     1       2.377  -1.811  -0.649  1.00  0.00     0.001 C 
ENDROOT
BRANCH   9  13
HETATM   13  C11 UNL     1      -2.621  -0.777  -0.635  1.00  0.00     0.127 C 
HETATM   14  C12 UNL     1      -3.096  -1.383   0.687  1.00  0.00     0.033 C 
HETATM   15  C13 UNL     1      -3.727  -0.008  -1.362  1.00  0.00     0.033 C 
HETATM   16  O1  UNL     1      -2.191  -1.826  -1.471  1.00  0.00    -0.226 OA
ENDBRANCH   9  13
TORSDOF 1
