REMARK  5 active torsions:
REMARK  status: ('A' for Active; 'I' for Inactive)
REMARK    1  A    between atoms: C7_7  and  C12_13 
REMARK    2  A    between atoms: C12_13  and  C13_14 
REMARK    3  A    between atoms: C14_15  and  C15_16 
REMARK    4  A    between atoms: C14_15  and  C17_19 
REMARK    5  A    between atoms: C15_16  and  C16_17 
ROOT
HETATM    1  C1  UNL     1      -2.895   0.772  -1.799  1.00  0.00     0.000 C 
HETATM    2  C2  UNL     1      -3.191  -0.654  -1.299  1.00  0.00     0.000 C 
HETATM    3  C3  UNL     1      -1.973  -1.584  -1.418  1.00  0.00     0.000 C 
HETATM    4  C4  UNL     1      -0.805  -1.049  -0.527  1.00  0.00     0.000 C 
HETATM    5  C5  UNL     1      -0.738   0.518  -0.424  1.00  0.00     0.003 C 
HETATM    6  C6  UNL     1      -1.412   1.166  -1.654  1.00  0.00     0.000 C 
HETATM    7  C7  UNL     1       0.719   1.035  -0.295  1.00  0.00     0.032 C 
HETATM    8  C8  UNL     1       1.516   0.500  -1.496  1.00  0.00     0.120 A 
HETATM    9  C9  UNL     1       1.383  -0.969  -1.916  1.00  0.00     0.030 C 
HETATM   10  C10 UNL     1       0.553  -1.719  -0.865  1.00  0.00     0.003 C 
HETATM   11  O1  UNL     1       2.856   0.895  -1.441  1.00  0.00    -0.354 OA
HETATM   12  C11 UNL     1       2.189   1.514  -2.492  1.00  0.00     0.169 A 
HETATM   13  C18 UNL     1      -1.512   0.990   0.820  1.00  0.00     0.000 C 
HETATM   14  C19 UNL     1      -2.369  -2.992  -0.953  1.00  0.00     0.000 C 
HETATM   15  C20 UNL     1      -1.576  -1.689  -2.899  1.00  0.00     0.000 C 
ENDROOT
BRANCH   7  16
HETATM   16  C12 UNL     1       1.383   0.615   1.029  1.00  0.00     0.028 C 
BRANCH  16  17
HETATM   17  C13 UNL     1       1.422   1.738   2.031  1.00  0.00    -0.027 C 
HETATM   18  C14 UNL     1       1.809   1.461   3.287  1.00  0.00     0.024 C 
BRANCH  18  19
HETATM   19  C15 UNL     1       2.186   0.043   3.627  1.00  0.00     0.102 C 
BRANCH  19  20
HETATM   20  C16 UNL     1       3.281   0.022   4.658  1.00  0.00     0.212 C 
HETATM   21  O2  UNL     1       3.076  -0.387   5.777  1.00  0.00    -0.288 OA
ENDBRANCH  19  20
ENDBRANCH  18  19
BRANCH  18  22
HETATM   22  C17 UNL     1       1.883   2.479   4.344  1.00  0.00     0.230 C 
HETATM   23  O3  UNL     1       1.844   2.154   5.508  1.00  0.00    -0.283 OA
ENDBRANCH  18  22
ENDBRANCH  16  17
ENDBRANCH   7  16
TORSDOF 5
