REMARK  5 active torsions:
REMARK  status: ('A' for Active; 'I' for Inactive)
REMARK    1  A    between atoms: C2_3  and  O5_16 
REMARK    2  A    between atoms: C5_6  and  C6_7 
REMARK    3  A    between atoms: C6_7  and  O2_8 
REMARK    4  A    between atoms: O5_16  and  C12_17 
REMARK    5  A    between atoms: C13_19  and  C17_26 
ROOT
HETATM    1  C1  UNL     1      -0.049   1.684  -1.615  1.00  0.00     0.120 C 
HETATM    2  O1  UNL     1       0.068   0.344  -1.561  1.00  0.00    -0.304 OA
HETATM    3  C2  UNL     1      -0.639  -0.361  -0.531  1.00  0.00     0.242 C 
HETATM    4  C3  UNL     1      -2.068   0.174  -0.373  1.00  0.00     0.069 C 
HETATM    5  C4  UNL     1      -2.053   1.697  -0.133  1.00  0.00     0.042 C 
HETATM    6  C5  UNL     1      -0.992   2.401  -0.965  1.00  0.00     0.066 C 
HETATM    7  C8  UNL     1      -3.492   2.084  -0.498  1.00  0.00     0.069 C 
HETATM    8  C9  UNL     1      -3.885   1.127  -1.582  1.00  0.00     0.151 C 
HETATM    9  C10 UNL     1      -2.918  -0.016  -1.641  1.00  0.00     0.063 C 
HETATM   10  C11 UNL     1      -3.603  -1.379  -1.645  1.00  0.00     0.008 C 
HETATM   11  O4  UNL     1      -4.842   1.264  -2.307  1.00  0.00    -0.296 OA
ENDROOT
BRANCH   3  12
HETATM   12  O5  UNL     1       0.053  -0.258   0.699  1.00  0.00    -0.304 OA
BRANCH  12  13
HETATM   13  C12 UNL     1       1.363  -0.789   0.648  1.00  0.00     0.272 C 
HETATM   14  O6  UNL     1       1.274  -2.201   0.510  1.00  0.00    -0.326 OA
HETATM   15  C13 UNL     1       2.520  -2.877   0.396  1.00  0.00     0.184 C 
HETATM   16  C14 UNL     1       3.352  -2.639   1.676  1.00  0.00     0.215 C 
HETATM   17  C15 UNL     1       3.522  -1.131   1.965  1.00  0.00     0.220 C 
HETATM   18  O9  UNL     1       4.621  -3.244   1.514  1.00  0.00    -0.218 OA
HETATM   19  C16 UNL     1       2.143  -0.433   1.939  1.00  0.00     0.241 C 
HETATM   20  O8  UNL     1       4.133  -0.949   3.232  1.00  0.00    -0.218 OA
HETATM   21  O7  UNL     1       2.324   0.973   2.012  1.00  0.00    -0.215 OA
BRANCH  15  22
HETATM   22  C17 UNL     1       2.205  -4.357   0.158  1.00  0.00     0.214 C 
HETATM   23  O10 UNL     1       1.592  -4.480  -1.104  1.00  0.00    -0.218 OA
ENDBRANCH  15  22
ENDBRANCH  12  13
ENDBRANCH   3  12
BRANCH   6  24
HETATM   24  C6  UNL     1      -1.016   3.869  -1.055  1.00  0.00     0.294 C 
HETATM   25  O3  UNL     1      -0.539   4.432  -2.012  1.00  0.00    -0.259 OA
BRANCH  24  26
HETATM   26  O2  UNL     1      -1.582   4.502  -0.029  1.00  0.00    -0.296 OA
HETATM   27  C7  UNL     1      -1.559   5.912  -0.186  1.00  0.00     0.185 C 
ENDBRANCH  24  26
ENDBRANCH   6  24
TORSDOF 5
