REMARK  30 active torsions:
REMARK  status: ('A' for Active; 'I' for Inactive)
REMARK    1  A    between atoms: C1_1  and  C2_2 
REMARK    2  A    between atoms: C1_1  and  C38_38 
REMARK    3  A    between atoms: C2_2  and  C3_3 
REMARK    4  A    between atoms: C3_3  and  C4_4 
REMARK    5  A    between atoms: C4_4  and  C5_5 
REMARK    6  A    between atoms: C5_5  and  C6_6 
REMARK    7  A    between atoms: C6_6  and  C7_7 
REMARK    8  A    between atoms: C7_7  and  C8_8 
REMARK    9  A    between atoms: C8_8  and  C9_9 
REMARK   10  A    between atoms: C9_9  and  C10_10 
REMARK   11  A    between atoms: C10_10  and  C11_11 
REMARK   12  A    between atoms: C11_11  and  C12_12 
REMARK   13  A    between atoms: C12_12  and  C13_13 
REMARK   14  A    between atoms: C13_13  and  C14_14 
REMARK   15  A    between atoms: C14_14  and  C15_15 
REMARK   16  A    between atoms: C15_15  and  C16_16 
REMARK   17  A    between atoms: C16_16  and  C17_17 
REMARK   18  A    between atoms: C17_17  and  C18_18 
REMARK   19  A    between atoms: C18_18  and  C19_19 
REMARK   20  A    between atoms: C19_19  and  C20_20 
REMARK   21  A    between atoms: C20_20  and  C21_21 
REMARK   22  A    between atoms: C21_21  and  C22_22 
REMARK   23  A    between atoms: C22_22  and  C23_23 
REMARK   24  A    between atoms: C23_23  and  C24_24 
REMARK   25  A    between atoms: C24_24  and  C25_25 
REMARK   26  A    between atoms: C25_25  and  C26_26 
REMARK   27  A    between atoms: C26_26  and  C27_27 
REMARK   28  A    between atoms: C27_27  and  C28_28 
REMARK   29  A    between atoms: C28_28  and  C29_29 
REMARK   30  A    between atoms: C38_38  and  C40_40 
ROOT
HETATM    1  C14 UNL     1       1.072   1.600  -1.240  1.00  0.00    -0.000 C 
ENDROOT
BRANCH   1   2
HETATM    2  C13 UNL     1       1.949   2.342  -0.328  1.00  0.00    -0.004 C 
BRANCH   2   3
HETATM    3  C12 UNL     1       2.955   3.092  -0.803  1.00  0.00    -0.022 C 
HETATM    4  C35 UNL     1       3.162   3.154  -2.293  1.00  0.00     0.031 C 
BRANCH   3   5
HETATM    5  C11 UNL     1       3.863   3.856   0.062  1.00  0.00    -0.004 C 
BRANCH   5   6
HETATM    6  C10 UNL     1       5.104   3.406   0.318  1.00  0.00    -0.001 C 
BRANCH   6   7
HETATM    7  C9  UNL     1       5.576   2.145  -0.264  1.00  0.00    -0.004 C 
BRANCH   7   8
HETATM    8  C8  UNL     1       6.639   1.508   0.256  1.00  0.00    -0.022 C 
HETATM    9  C36 UNL     1       7.084   0.217  -0.377  1.00  0.00     0.031 C 
BRANCH   8  10
HETATM   10  C7  UNL     1       7.387   2.014   1.414  1.00  0.00    -0.004 C 
BRANCH  10  11
HETATM   11  C6  UNL     1       8.678   1.690   1.590  1.00  0.00    -0.001 C 
BRANCH  11  12
HETATM   12  C5  UNL     1       9.426   2.195   2.748  1.00  0.00    -0.004 C 
BRANCH  12  13
HETATM   13  C4  UNL     1      10.738   2.463   2.652  1.00  0.00    -0.022 C 
HETATM   14  C37 UNL     1      11.424   2.233   1.332  1.00  0.00     0.031 C 
BRANCH  13  15
HETATM   15  C3  UNL     1      11.535   2.969   3.775  1.00  0.00    -0.004 C 
BRANCH  15  16
HETATM   16  C2  UNL     1      12.615   2.299   4.207  1.00  0.00    -0.001 C 
BRANCH  16  17
HETATM   17  C1  UNL     1      13.022   1.043   3.562  1.00  0.00    -0.001 C 
BRANCH  17  18
HETATM   18  C38 UNL     1      14.309   0.820   3.250  1.00  0.00     0.020 C 
HETATM   19  C39 UNL     1      15.322   1.887   3.574  1.00  0.00     0.035 C 
BRANCH  18  20
HETATM   20  C40 UNL     1      14.774  -0.414   2.605  1.00  0.00     0.230 C 
HETATM   21  O1  UNL     1      13.979  -1.225   2.191  1.00  0.00    -0.283 OA
ENDBRANCH  18  20
ENDBRANCH  17  18
ENDBRANCH  16  17
ENDBRANCH  15  16
ENDBRANCH  13  15
ENDBRANCH  12  13
ENDBRANCH  11  12
ENDBRANCH  10  11
ENDBRANCH   8  10
ENDBRANCH   7   8
ENDBRANCH   6   7
ENDBRANCH   5   6
ENDBRANCH   3   5
ENDBRANCH   2   3
ENDBRANCH   1   2
BRANCH   1  22
HETATM   22  C15 UNL     1      -0.037   0.994  -0.785  1.00  0.00    -0.000 C 
BRANCH  22  23
HETATM   23  C16 UNL     1      -0.914   0.252  -1.697  1.00  0.00    -0.004 C 
BRANCH  23  24
HETATM   24  C17 UNL     1      -2.049  -0.310  -1.252  1.00  0.00    -0.022 C 
HETATM   25  C34 UNL     1      -2.398  -0.162   0.205  1.00  0.00     0.031 C 
BRANCH  24  26
HETATM   26  C18 UNL     1      -2.926  -1.051  -2.166  1.00  0.00    -0.004 C 
BRANCH  26  27
HETATM   27  C19 UNL     1      -4.209  -0.689  -2.328  1.00  0.00    -0.001 C 
BRANCH  27  28
HETATM   28  C20 UNL     1      -4.762   0.457  -1.596  1.00  0.00    -0.004 C 
BRANCH  28  29
HETATM   29  C21 UNL     1      -5.928   0.354  -0.940  1.00  0.00    -0.022 C 
HETATM   30  C33 UNL     1      -6.449   1.561  -0.205  1.00  0.00     0.031 C 
BRANCH  29  31
HETATM   31  C22 UNL     1      -6.676  -0.910  -0.940  1.00  0.00    -0.004 C 
BRANCH  31  32
HETATM   32  C23 UNL     1      -8.020  -0.910  -0.940  1.00  0.00    -0.001 C 
BRANCH  32  33
HETATM   33  C24 UNL     1      -8.768  -2.172  -0.940  1.00  0.00    -0.009 C 
BRANCH  33  34
HETATM   34  C25 UNL     1     -10.110  -2.172  -0.957  1.00  0.00    -0.044 C 
HETATM   35  C32 UNL     1     -10.828  -0.850  -0.977  1.00  0.00     0.026 C 
BRANCH  34  36
HETATM   36  C26 UNL     1     -10.828  -3.494  -0.957  1.00  0.00     0.027 C 
BRANCH  36  37
HETATM   37  C27 UNL     1     -11.844  -3.607  -2.094  1.00  0.00     0.030 C 
BRANCH  37  38
HETATM   38  C28 UNL     1     -12.436  -4.988  -2.201  1.00  0.00    -0.034 C 
BRANCH  38  39
HETATM   39  C29 UNL     1     -13.539  -5.268  -1.488  1.00  0.00    -0.048 C 
HETATM   40  C30 UNL     1     -14.207  -4.152  -0.731  1.00  0.00     0.026 C 
HETATM   41  C31 UNL     1     -14.053  -6.684  -1.486  1.00  0.00     0.026 C 
ENDBRANCH  38  39
ENDBRANCH  37  38
ENDBRANCH  36  37
ENDBRANCH  34  36
ENDBRANCH  33  34
ENDBRANCH  32  33
ENDBRANCH  31  32
ENDBRANCH  29  31
ENDBRANCH  28  29
ENDBRANCH  27  28
ENDBRANCH  26  27
ENDBRANCH  24  26
ENDBRANCH  23  24
ENDBRANCH  22  23
ENDBRANCH   1  22
TORSDOF 30
