REMARK  1 active torsions:
REMARK  status: ('A' for Active; 'I' for Inactive)
REMARK    1  A    between atoms: C12_12  and  C15_17 
ROOT
HETATM    1  C1  UNL     1      -3.432  -1.951   0.398  1.00  0.00    -0.026 C 
HETATM    2  C2  UNL     1      -4.158  -0.635   0.518  1.00  0.00     0.030 C 
HETATM    3  C3  UNL     1      -3.520   0.487  -0.336  1.00  0.00     0.023 C 
HETATM    4  C4  UNL     1      -2.025   0.506  -0.186  1.00  0.00    -0.022 A 
HETATM    5  C5  UNL     1      -1.311  -0.703   0.084  1.00  0.00    -0.001 A 
HETATM    6  C6  UNL     1      -2.098  -1.971   0.229  1.00  0.00    -0.005 C 
HETATM    7  C7  UNL     1       0.121  -0.683   0.197  1.00  0.00     0.042 A 
HETATM    8  C8  UNL     1       0.811   0.555   0.027  1.00  0.00     0.003 A 
HETATM    9  C9  UNL     1       0.096   1.744  -0.232  1.00  0.00    -0.000 A 
HETATM   10  C10 UNL     1      -1.309   1.721  -0.338  1.00  0.00    -0.004 A 
HETATM   11  C11 UNL     1       2.295   0.615   0.119  1.00  0.00    -0.001 A 
HETATM   12  C12 UNL     1       3.035  -0.482   0.361  1.00  0.00     0.020 A 
HETATM   13  C13 UNL     1       2.397  -1.795   0.557  1.00  0.00     0.230 A 
HETATM   14  C14 UNL     1       0.920  -1.924   0.502  1.00  0.00     0.234 A 
HETATM   15  O1  UNL     1       0.508  -3.039   0.719  1.00  0.00    -0.283 OA
HETATM   16  O2  UNL     1       3.084  -2.769   0.764  1.00  0.00    -0.283 OA
HETATM   17  C18 UNL     1      -3.848   0.248  -1.816  1.00  0.00     0.005 C 
HETATM   18  C19 UNL     1      -4.164   1.815   0.092  1.00  0.00     0.005 C 
ENDROOT
BRANCH  12  19
HETATM   19  C15 UNL     1       4.537  -0.361   0.432  1.00  0.00     0.026 C 
HETATM   20  C16 UNL     1       4.988   0.733   1.400  1.00  0.00     0.005 C 
HETATM   21  C17 UNL     1       5.178  -0.226  -0.951  1.00  0.00     0.005 C 
ENDBRANCH  12  19
TORSDOF 1
