REMARK  0 active torsions:
REMARK  status: ('A' for Active; 'I' for Inactive)
ROOT
HETATM    1  C1  UNL     1       1.516  -2.326  -0.986  1.00  0.00     0.035 C 
HETATM    2  C2  UNL     1       2.291  -1.000  -0.965  1.00  0.00     0.251 C 
HETATM    3  N1  UNL     1       2.246  -0.379   0.371  1.00  0.00     0.139 N 
HETATM    4  C3  UNL     1       0.883  -0.152   0.895  1.00  0.00     0.244 C 
HETATM    5  C4  UNL     1       0.078  -1.461   0.895  1.00  0.00     0.058 C 
HETATM    6  C5  UNL     1       0.080  -2.135  -0.490  1.00  0.00     0.006 C 
HETATM    7  C6  UNL     1      -1.334  -1.207   1.436  1.00  0.00     0.111 C 
HETATM    8  N2  UNL     1      -2.053  -0.125   0.703  1.00  0.00    -0.296 N 
HETATM    9  C7  UNL     1      -1.352   0.926   0.100  1.00  0.00     0.060 A 
HETATM   10  C8  UNL     1       0.150   0.978   0.180  1.00  0.00     0.020 C 
HETATM   11  C9  UNL     1       0.891   1.984  -0.353  1.00  0.00    -0.025 C 
HETATM   12  C10 UNL     1       2.404   1.980  -0.346  1.00  0.00     0.061 C 
HETATM   13  C11 UNL     1       3.039   0.848   0.479  1.00  0.00     0.255 C 
HETATM   14  C12 UNL     1      -2.051   1.891  -0.561  1.00  0.00     0.017 A 
HETATM   15  C13 UNL     1      -3.521   1.873  -0.658  1.00  0.00     0.006 A 
HETATM   16  C14 UNL     1      -4.191   0.867  -0.076  1.00  0.00     0.061 A 
HETATM   17  C15 UNL     1      -3.441  -0.182   0.639  1.00  0.00     0.261 A 
HETATM   18  O1  UNL     1      -4.055  -1.084   1.164  1.00  0.00    -0.267 OA
ENDROOT
TORSDOF 0
