REMARK  7 active torsions:
REMARK  status: ('A' for Active; 'I' for Inactive)
REMARK    1  A    between atoms: C3_3  and  O3_10 
REMARK    2  A    between atoms: O3_10  and  C8_11 
REMARK    3  A    between atoms: C10_14  and  O9_32 
REMARK    4  A    between atoms: C14_18  and  O6_21 
REMARK    5  A    between atoms: O6_21  and  C16_22 
REMARK    6  A    between atoms: O9_32  and  C24_33 
REMARK    7  A    between atoms: C24_33  and  C25_34 
ROOT
HETATM    1  C1  UNL     1      -0.010  -0.241   0.135  1.00  0.00     0.087 C 
HETATM    2  C2  UNL     1       1.082  -1.236  -0.644  1.00  0.00     0.067 C 
HETATM    3  C3  UNL     1       2.570  -0.417  -0.739  1.00  0.00     0.156 C 
HETATM    4  C4  UNL     1       2.449   0.981  -1.238  1.00  0.00     0.146 C 
HETATM    5  C5  UNL     1       1.328   1.773  -0.557  1.00  0.00     0.066 C 
HETATM    6  C6  UNL     1      -0.039   1.115  -0.663  1.00  0.00     0.161 C 
HETATM    7  O1  UNL     1      -1.012   2.010  -0.095  1.00  0.00    -0.223 OA
HETATM    8  O2  UNL     1       3.611   1.358  -0.473  1.00  0.00    -0.351 OA
HETATM    9  C7  UNL     1       3.387   0.141   0.439  1.00  0.00     0.172 C 
HETATM   10  C10 UNL     1       1.317  -2.785   0.018  1.00  0.00     0.128 C 
HETATM   11  C11 UNL     1       0.192  -3.987   0.327  1.00  0.00     0.034 C 
HETATM   12  C12 UNL     1      -0.855  -3.695   1.459  1.00  0.00     0.020 C 
HETATM   13  C13 UNL     1      -1.988  -2.886   0.787  1.00  0.00    -0.016 C 
HETATM   14  C14 UNL     1      -2.338  -1.454   1.188  1.00  0.00     0.199 C 
HETATM   15  C15 UNL     1      -1.478  -0.722   0.064  1.00  0.00     0.184 C 
HETATM   16  O5  UNL     1      -2.039  -0.525  -1.028  1.00  0.00    -0.293 OA
HETATM   17  C18 UNL     1      -2.628  -3.470  -0.306  1.00  0.00    -0.019 C 
HETATM   18  C19 UNL     1      -2.075  -4.788  -0.935  1.00  0.00     0.170 C 
HETATM   19  C20 UNL     1      -0.534  -4.430  -1.079  1.00  0.00     0.040 C 
HETATM   20  O8  UNL     1      -2.725  -5.113  -2.180  1.00  0.00    -0.219 OA
HETATM   21  C21 UNL     1      -3.801  -2.814  -1.035  1.00  0.00     0.028 C 
HETATM   22  C22 UNL     1      -0.124  -3.164   2.713  1.00  0.00     0.004 C 
HETATM   23  C23 UNL     1      -1.477  -5.016   2.088  1.00  0.00     0.004 C 
HETATM   24  C31 UNL     1       0.433   0.009   1.605  1.00  0.00     0.010 C 
ENDROOT
BRANCH  10  25
HETATM   25  O9  UNL     1       2.226  -3.597  -0.728  1.00  0.00    -0.301 OA
BRANCH  25  26
HETATM   26  C24 UNL     1       3.462  -3.690  -0.112  1.00  0.00     0.296 C 
HETATM   27  O10 UNL     1       3.766  -2.915   0.851  1.00  0.00    -0.259 OA
BRANCH  26  28
HETATM   28  C25 UNL     1       4.368  -4.744  -0.359  1.00  0.00     0.063 A 
HETATM   29  C26 UNL     1       3.980  -5.738  -1.219  1.00  0.00     0.005 A 
HETATM   30  C27 UNL     1       4.850  -6.896  -1.381  1.00  0.00     0.000 A 
HETATM   31  C28 UNL     1       5.985  -6.995  -0.696  1.00  0.00     0.000 A 
HETATM   32  C29 UNL     1       6.386  -5.918   0.218  1.00  0.00     0.000 A 
HETATM   33  C30 UNL     1       5.608  -4.860   0.358  1.00  0.00     0.005 A 
ENDBRANCH  26  28
ENDBRANCH  25  26
ENDBRANCH  10  25
BRANCH   3  34
HETATM   34  O3  UNL     1       3.572  -1.232  -1.525  1.00  0.00    -0.302 OA
BRANCH  34  35
HETATM   35  C8  UNL     1       4.990  -0.798  -1.735  1.00  0.00     0.272 C 
HETATM   36  C9  UNL     1       5.909  -1.710  -2.484  1.00  0.00     0.106 C 
HETATM   37  O4  UNL     1       5.486   0.254  -1.303  1.00  0.00    -0.264 OA
ENDBRANCH  34  35
ENDBRANCH   3  34
BRANCH  14  38
HETATM   38  O6  UNL     1      -1.994  -1.106   2.578  1.00  0.00    -0.292 OA
BRANCH  38  39
HETATM   39  C16 UNL     1      -2.413   0.203   3.049  1.00  0.00     0.273 C 
HETATM   40  C17 UNL     1      -3.246   1.156   2.219  1.00  0.00     0.106 C 
HETATM   41  O7  UNL     1      -2.051   0.564   4.175  1.00  0.00    -0.264 OA
ENDBRANCH  38  39
ENDBRANCH  14  38
TORSDOF 7
