REMARK  6 active torsions:
REMARK  status: ('A' for Active; 'I' for Inactive)
REMARK    1  A    between atoms: C6_6  and  O1_7 
REMARK    2  A    between atoms: N1_15  and  C15_17 
REMARK    3  A    between atoms: C18_20  and  O5_34 
REMARK    4  A    between atoms: C20_22  and  O2_23 
REMARK    5  A    between atoms: O2_23  and  C21_24 
REMARK    6  A    between atoms: C21_24  and  C22_26 
ROOT
HETATM    1  C1  UNL     1      -2.086   1.413   2.180  1.00  0.00     0.030 C 
HETATM    2  C2  UNL     1      -2.612  -0.150   1.822  1.00  0.00     0.004 C 
HETATM    3  C3  UNL     1      -1.863  -1.007   0.589  1.00  0.00     0.034 C 
HETATM    4  C4  UNL     1      -0.524  -0.561   0.782  1.00  0.00     0.006 C 
HETATM    5  C5  UNL     1      -0.476   1.044   0.422  1.00  0.00     0.055 C 
HETATM    6  C6  UNL     1      -1.745   1.944   0.880  1.00  0.00     0.117 C 
HETATM    7  C8  UNL     1       0.907   1.669   1.034  1.00  0.00     0.012 C 
HETATM    8  C9  UNL     1       2.061   0.851   0.684  1.00  0.00     0.059 C 
HETATM    9  C10 UNL     1       2.148   0.593  -0.814  1.00  0.00     0.133 C 
HETATM   10  C11 UNL     1       0.784  -0.076  -1.295  1.00  0.00     0.060 C 
HETATM   11  C12 UNL     1       0.426  -1.306  -0.330  1.00  0.00     0.005 C 
HETATM   12  C13 UNL     1      -0.464   0.975  -1.064  1.00  0.00     0.224 C 
HETATM   13  N1  UNL     1      -1.827   0.467  -1.505  1.00  0.00     0.135 N 
HETATM   14  C14 UNL     1      -2.151  -0.843  -0.961  1.00  0.00     0.250 C 
HETATM   15  C17 UNL     1       2.220   1.853  -1.616  1.00  0.00     0.063 C 
HETATM   16  C18 UNL     1       3.224   2.814  -1.145  1.00  0.00     0.148 C 
HETATM   17  C19 UNL     1       2.952   3.004   0.430  1.00  0.00     0.177 C 
HETATM   18  C20 UNL     1       3.183   1.664   1.229  1.00  0.00     0.157 C 
HETATM   19  C28 UNL     1       1.359   3.201   0.603  1.00  0.00     0.036 C 
HETATM   20  O4  UNL     1       3.764   4.079   0.902  1.00  0.00    -0.221 OA
HETATM   21  O6  UNL     1       3.313  -0.222  -1.017  1.00  0.00    -0.226 OA
ENDROOT
BRANCH  18  22
HETATM   22  O2  UNL     1       4.399   0.951   0.992  1.00  0.00    -0.298 OA
BRANCH  22  23
HETATM   23  C21 UNL     1       5.632   1.465   1.289  1.00  0.00     0.296 C 
HETATM   24  O3  UNL     1       5.801   2.590   1.773  1.00  0.00    -0.259 OA
BRANCH  23  25
HETATM   25  C22 UNL     1       6.731   0.627   0.847  1.00  0.00     0.063 A 
HETATM   26  C23 UNL     1       7.993   1.045   0.850  1.00  0.00     0.005 A 
HETATM   27  C24 UNL     1       9.046   0.155   0.331  1.00  0.00     0.000 A 
HETATM   28  C25 UNL     1       8.737  -1.057  -0.134  1.00  0.00     0.000 A 
HETATM   29  C26 UNL     1       7.349  -1.511  -0.130  1.00  0.00     0.000 A 
HETATM   30  C27 UNL     1       6.397  -0.707   0.333  1.00  0.00     0.005 A 
ENDBRANCH  23  25
ENDBRANCH  22  23
ENDBRANCH  18  22
BRANCH  16  31
HETATM   31  O5  UNL     1       4.571   2.403  -1.492  1.00  0.00    -0.351 OA
HETATM   32  C29 UNL     1       5.515   3.494  -1.366  1.00  0.00     0.174 C 
ENDBRANCH  16  31
BRANCH   6  33
HETATM   33  O1  UNL     1      -2.987   1.755   0.134  1.00  0.00    -0.354 OA
HETATM   34  C7  UNL     1      -4.023   2.687   0.559  1.00  0.00     0.174 C 
ENDBRANCH   6  33
BRANCH  13  35
HETATM   35  C15 UNL     1      -1.995   0.437  -2.980  1.00  0.00     0.250 C 
HETATM   36  C16 UNL     1      -2.008   1.877  -3.563  1.00  0.00     0.037 C 
ENDBRANCH  13  35
TORSDOF 6
