REMARK  6 active torsions:
REMARK  status: ('A' for Active; 'I' for Inactive)
REMARK    1  A    between atoms: C2_2  and  O5_36 
REMARK    2  A    between atoms: C3_3  and  C30_32 
REMARK    3  A    between atoms: C15_15  and  C18_18 
REMARK    4  A    between atoms: C18_18  and  C20_20 
REMARK    5  A    between atoms: O5_36  and  C32_37 
REMARK    6  A    between atoms: C33_39  and  C37_46 
ROOT
HETATM    1  C1  UNL     1       2.687  -0.826  -0.605  1.00  0.00     0.030 C 
HETATM    2  C2  UNL     1       2.965  -0.022  -1.891  1.00  0.00     0.128 C 
HETATM    3  C3  UNL     1       2.064   1.236  -2.004  1.00  0.00     0.103 C 
HETATM    4  C4  UNL     1       2.090   2.078  -0.689  1.00  0.00     0.012 C 
HETATM    5  C5  UNL     1       1.957   1.254   0.615  1.00  0.00     0.001 A 
HETATM    6  C6  UNL     1       2.869   0.019   0.658  1.00  0.00     0.003 C 
HETATM    7  C7  UNL     1       0.682   1.307   1.475  1.00  0.00     0.000 A 
HETATM    8  C8  UNL     1      -0.545   2.090   0.949  1.00  0.00     0.000 C 
HETATM    9  C9  UNL     1      -0.330   2.945  -0.332  1.00  0.00     0.000 C 
HETATM   10  C10 UNL     1       1.125   3.291  -0.682  1.00  0.00     0.001 C 
HETATM   11  C11 UNL     1      -1.815   1.205   0.764  1.00  0.00     0.000 C 
HETATM   12  C12 UNL     1      -2.074   0.201   1.910  1.00  0.00     0.000 C 
HETATM   13  C13 UNL     1      -0.805  -0.619   2.219  1.00  0.00     0.000 C 
HETATM   14  C14 UNL     1       0.344   0.311   2.594  1.00  0.00     0.000 C 
HETATM   15  C15 UNL     1      -3.133  -0.773   1.356  1.00  0.00     0.002 C 
HETATM   16  C16 UNL     1      -2.795  -0.877  -0.135  1.00  0.00     0.000 C 
HETATM   17  C17 UNL     1      -1.777   0.225  -0.420  1.00  0.00     0.000 C 
HETATM   18  C27 UNL     1      -2.572   0.912   3.170  1.00  0.00     0.000 C 
HETATM   19  C28 UNL     1      -3.047   2.094   0.549  1.00  0.00     0.000 C 
HETATM   20  C29 UNL     1       1.924   2.082   1.883  1.00  0.00     0.000 A 
HETATM   21  C31 UNL     1       2.508   2.105  -3.189  1.00  0.00     0.013 C 
ENDROOT
BRANCH   2  22
HETATM   22  O5  UNL     1       4.334   0.338  -1.904  1.00  0.00    -0.331 OA
BRANCH  22  23
HETATM   23  C32 UNL     1       4.918   0.260  -3.189  1.00  0.00     0.270 C 
HETATM   24  O6  UNL     1       5.244  -1.082  -3.563  1.00  0.00    -0.326 OA
HETATM   25  C33 UNL     1       6.330  -1.705  -2.867  1.00  0.00     0.184 C 
HETATM   26  C34 UNL     1       7.629  -0.859  -2.967  1.00  0.00     0.215 C 
HETATM   27  C35 UNL     1       7.412   0.625  -2.594  1.00  0.00     0.220 C 
HETATM   28  O9  UNL     1       8.119  -0.924  -4.295  1.00  0.00    -0.218 OA
HETATM   29  C36 UNL     1       6.166   1.172  -3.330  1.00  0.00     0.241 C 
HETATM   30  O8  UNL     1       7.264   0.723  -1.187  1.00  0.00    -0.218 OA
HETATM   31  O7  UNL     1       5.883   2.508  -2.947  1.00  0.00    -0.215 OA
BRANCH  25  32
HETATM   32  C37 UNL     1       5.924  -2.018  -1.422  1.00  0.00     0.214 C 
HETATM   33  O10 UNL     1       4.953  -3.039  -1.449  1.00  0.00    -0.218 OA
ENDBRANCH  25  32
ENDBRANCH  22  23
ENDBRANCH   2  22
BRANCH   3  34
HETATM   34  C30 UNL     1       0.678   0.768  -2.363  1.00  0.00     0.186 C 
HETATM   35  O3  UNL     1       0.330  -0.369  -2.145  1.00  0.00    -0.647 OA
HETATM   36  O4  UNL     1      -0.102   1.687  -2.926  1.00  0.00    -0.647 OA
ENDBRANCH   3  34
BRANCH  15  37
HETATM   37  C18 UNL     1      -4.572  -0.279   1.520  1.00  0.00     0.026 C 
HETATM   38  C19 UNL     1      -5.113   0.176   0.164  1.00  0.00     0.002 C 
BRANCH  37  39
HETATM   39  C20 UNL     1      -5.420  -1.383   2.154  1.00  0.00     0.105 C 
HETATM   40  C21 UNL     1      -6.916  -1.012   2.106  1.00  0.00     0.054 C 
HETATM   41  C22 UNL     1      -7.772  -2.184   2.520  1.00  0.00    -0.023 C 
HETATM   42  C23 UNL     1      -7.326  -3.428   2.273  1.00  0.00     0.037 C 
HETATM   43  C24 UNL     1      -6.018  -3.631   1.611  1.00  0.00     0.291 C 
HETATM   44  C25 UNL     1      -8.168  -4.613   2.674  1.00  0.00     0.036 C 
HETATM   45  O1  UNL     1      -5.188  -2.588   1.410  1.00  0.00    -0.303 OA
HETATM   46  O2  UNL     1      -5.725  -4.746   1.252  1.00  0.00    -0.260 OA
HETATM   47  C26 UNL     1      -4.953  -1.609   3.600  1.00  0.00     0.031 C 
ENDBRANCH  37  39
ENDBRANCH  15  37
TORSDOF 6
