REMARK  13 active torsions:
REMARK  status: ('A' for Active; 'I' for Inactive)
REMARK    1  A    between atoms: C4_4  and  C7_7 
REMARK    2  A    between atoms: C7_7  and  O1_8 
REMARK    3  A    between atoms: O1_8  and  C8_9 
REMARK    4  A    between atoms: C9_10  and  O2_11 
REMARK    5  A    between atoms: O2_11  and  C10_12 
REMARK    6  A    between atoms: C12_15  and  C41_52 
REMARK    7  A    between atoms: C15_18  and  O4_19 
REMARK    8  A    between atoms: O4_19  and  C16_20 
REMARK    9  A    between atoms: C24_30  and  O8_40 
REMARK   10  A    between atoms: C29_35  and  O6_36 
REMARK   11  A    between atoms: O6_36  and  C30_37 
REMARK   12  A    between atoms: O8_40  and  C32_41 
REMARK   13  A    between atoms: C32_41  and  C33_42 
ROOT
HETATM    1  C8  UNL     1       2.523  -1.434   1.379  1.00  0.00     0.180 C 
HETATM    2  C9  UNL     1       2.680   0.142   1.259  1.00  0.00     0.161 C 
HETATM    3  C12 UNL     1       4.306   0.309   0.815  1.00  0.00     0.088 C 
HETATM    4  C13 UNL     1       4.813  -0.815  -0.501  1.00  0.00     0.048 C 
HETATM    5  C14 UNL     1       4.682  -2.206   0.035  1.00  0.00     0.062 C 
HETATM    6  C15 UNL     1       3.143  -2.388   0.493  1.00  0.00     0.156 C 
HETATM    7  C18 UNL     1       4.888  -3.463  -0.706  1.00  0.00     0.035 C 
HETATM    8  C19 UNL     1       6.167  -3.506  -1.406  1.00  0.00     0.040 C 
HETATM    9  C20 UNL     1       6.411  -2.159  -2.145  1.00  0.00     0.184 C 
HETATM   10  C21 UNL     1       6.286  -0.954  -1.146  1.00  0.00     0.250 C 
HETATM   11  N1  UNL     1       7.173  -1.352  -0.117  1.00  0.00     0.138 N 
HETATM   12  C22 UNL     1       6.321  -2.422   0.655  1.00  0.00     0.224 C 
HETATM   13  C23 UNL     1       7.008  -3.755  -0.215  1.00  0.00     0.062 C 
HETATM   14  C24 UNL     1       6.783  -5.453   0.139  1.00  0.00     0.133 C 
HETATM   15  C25 UNL     1       5.391  -5.846  -0.091  1.00  0.00     0.074 C 
HETATM   16  C26 UNL     1       5.298  -5.849  -1.603  1.00  0.00    -0.040 C 
HETATM   17  C27 UNL     1       6.083  -4.710  -2.378  1.00  0.00     0.025 C 
HETATM   18  C28 UNL     1       4.843  -6.923  -2.243  1.00  0.00    -0.009 C 
HETATM   19  C29 UNL     1       4.769  -4.780   0.554  1.00  0.00     0.130 C 
HETATM   20  C39 UNL     1       7.675  -0.239   0.696  1.00  0.00     0.285 C 
HETATM   21  O10 UNL     1       7.722  -2.217  -2.677  1.00  0.00    -0.221 OA
HETATM   22  C40 UNL     1       4.947   0.088   2.233  1.00  0.00     0.010 C 
ENDROOT
BRANCH   1  23
HETATM   23  O1  UNL     1       1.025  -2.070   1.639  1.00  0.00    -0.296 OA
BRANCH  23  24
HETATM   24  C7  UNL     1       0.798  -3.688   1.460  1.00  0.00     0.296 C 
HETATM   25  O12 UNL     1       1.716  -4.498   1.315  1.00  0.00    -0.259 OA
BRANCH  24  26
HETATM   26  C4  UNL     1      -0.463  -4.403   1.193  1.00  0.00     0.063 A 
HETATM   27  C3  UNL     1      -1.691  -3.917   1.320  1.00  0.00     0.005 A 
HETATM   28  C2  UNL     1      -2.838  -4.788   0.929  1.00  0.00     0.000 A 
HETATM   29  C1  UNL     1      -2.642  -6.009   0.418  1.00  0.00     0.000 A 
HETATM   30  C6  UNL     1      -1.295  -6.521   0.251  1.00  0.00     0.000 A 
HETATM   31  C5  UNL     1      -0.269  -5.770   0.631  1.00  0.00     0.005 A 
ENDBRANCH  24  26
ENDBRANCH  23  24
ENDBRANCH   1  23
BRANCH   2  32
HETATM   32  O2  UNL     1       1.789   0.642   0.182  1.00  0.00    -0.301 OA
BRANCH  32  33
HETATM   33  C10 UNL     1       1.496   2.115   0.195  1.00  0.00     0.272 C 
HETATM   34  C11 UNL     1       1.901   3.077   1.330  1.00  0.00     0.106 C 
HETATM   35  O3  UNL     1       0.821   2.594  -0.722  1.00  0.00    -0.264 OA
ENDBRANCH  32  33
ENDBRANCH   2  32
BRANCH   6  36
HETATM   36  O4  UNL     1       2.396  -2.334  -0.926  1.00  0.00    -0.302 OA
BRANCH  36  37
HETATM   37  C16 UNL     1       0.936  -2.047  -1.219  1.00  0.00     0.272 C 
HETATM   38  C17 UNL     1       0.428  -2.172  -2.622  1.00  0.00     0.106 C 
HETATM   39  O5  UNL     1       0.137  -1.622  -0.377  1.00  0.00    -0.264 OA
ENDBRANCH  36  37
ENDBRANCH   6  36
BRANCH   3  40
HETATM   40  C41 UNL     1       4.643   1.704   0.398  1.00  0.00     0.209 C 
HETATM   41  O11 UNL     1       4.780   1.960  -0.807  1.00  0.00    -0.288 OA
ENDBRANCH   3  40
BRANCH  19  42
HETATM   42  O6  UNL     1       5.353  -4.719   2.231  1.00  0.00    -0.304 OA
BRANCH  42  43
HETATM   43  C30 UNL     1       6.753  -4.411   3.052  1.00  0.00     0.272 C 
HETATM   44  C31 UNL     1       6.859  -4.642   4.527  1.00  0.00     0.106 C 
HETATM   45  O7  UNL     1       7.808  -4.059   2.491  1.00  0.00    -0.264 OA
ENDBRANCH  42  43
ENDBRANCH  19  42
BRANCH  14  46
HETATM   46  O8  UNL     1       7.642  -6.470  -0.531  1.00  0.00    -0.300 OA
BRANCH  46  47
HETATM   47  C32 UNL     1       7.473  -7.802   0.156  1.00  0.00     0.296 C 
HETATM   48  O9  UNL     1       6.666  -7.961   1.084  1.00  0.00    -0.259 OA
BRANCH  47  49
HETATM   49  C33 UNL     1       8.284  -8.972  -0.122  1.00  0.00     0.063 A 
HETATM   50  C34 UNL     1       7.917 -10.128   0.435  1.00  0.00     0.005 A 
HETATM   51  C35 UNL     1       8.724 -11.328   0.258  1.00  0.00     0.000 A 
HETATM   52  C36 UNL     1       9.860 -11.254  -0.429  1.00  0.00     0.000 A 
HETATM   53  C37 UNL     1      10.273  -9.975  -1.028  1.00  0.00     0.000 A 
HETATM   54  C38 UNL     1       9.510  -8.889  -0.895  1.00  0.00     0.005 A 
ENDBRANCH  47  49
ENDBRANCH  46  47
ENDBRANCH  14  46
TORSDOF 13
