REMARK  5 active torsions:
REMARK  status: ('A' for Active; 'I' for Inactive)
REMARK    1  A    between atoms: C3_3  and  C23_30 
REMARK    2  A    between atoms: C11_12  and  O2_13 
REMARK    3  A    between atoms: N1_16  and  C15_18 
REMARK    4  A    between atoms: C18_23  and  O6_28 
REMARK    5  A    between atoms: C23_30  and  O7_31 
ROOT
HETATM    1  C1  UNL     1      -2.687   0.763   2.038  1.00  0.00     0.033 C 
HETATM    2  C2  UNL     1      -2.792  -0.724   1.510  1.00  0.00     0.007 C 
HETATM    3  C3  UNL     1      -2.068  -0.577   0.236  1.00  0.00     0.050 C 
HETATM    4  C4  UNL     1      -0.382  -0.629   0.949  1.00  0.00     0.038 C 
HETATM    5  C5  UNL     1      -0.140   0.788   0.764  1.00  0.00     0.052 C 
HETATM    6  C6  UNL     1      -1.271   1.552   1.790  1.00  0.00     0.154 C 
HETATM    7  O1  UNL     1      -1.652   2.905   1.524  1.00  0.00    -0.223 OA
HETATM    8  C7  UNL     1       1.168   1.546   1.253  1.00  0.00     0.009 C 
HETATM    9  C8  UNL     1       2.317   0.767   1.043  1.00  0.00     0.061 C 
HETATM   10  C9  UNL     1       2.534   0.369  -0.402  1.00  0.00     0.161 C 
HETATM   11  C10 UNL     1       1.244  -0.488  -0.985  1.00  0.00     0.195 C 
HETATM   12  C11 UNL     1       0.796  -1.529   0.014  1.00  0.00     0.148 C 
HETATM   13  C13 UNL     1      -0.019   0.414  -1.020  1.00  0.00     0.112 C 
HETATM   14  N1  UNL     1      -1.266  -0.462  -1.676  1.00  0.00    -0.368 N 
HETATM   15  C14 UNL     1      -1.975  -1.520  -0.810  1.00  0.00     0.099 C 
HETATM   16  O3  UNL     1       1.724  -1.011  -2.229  1.00  0.00    -0.219 OA
HETATM   17  O4  UNL     1       3.745  -0.409  -0.366  1.00  0.00    -0.223 OA
HETATM   18  C17 UNL     1       2.677   1.564  -1.305  1.00  0.00     0.063 C 
HETATM   19  C18 UNL     1       3.607   2.626  -0.777  1.00  0.00     0.120 C 
HETATM   20  C19 UNL     1       3.133   2.937   0.720  1.00  0.00     0.058 C 
HETATM   21  C20 UNL     1       3.342   1.715   1.645  1.00  0.00     0.157 C 
HETATM   22  O5  UNL     1       4.700   1.213   1.741  1.00  0.00    -0.223 OA
HETATM   23  C21 UNL     1       1.522   3.045   0.707  1.00  0.00     0.005 C 
ENDROOT
BRANCH   3  24
HETATM   24  C23 UNL     1      -3.095   0.685  -0.553  1.00  0.00     0.144 C 
BRANCH  24  25
HETATM   25  O7  UNL     1      -2.706   1.317  -1.827  1.00  0.00    -0.351 OA
HETATM   26  C24 UNL     1      -2.811   2.752  -1.805  1.00  0.00     0.174 C 
ENDBRANCH  24  25
ENDBRANCH   3  24
BRANCH  12  27
HETATM   27  O2  UNL     1       2.010  -2.047   0.589  1.00  0.00    -0.351 OA
HETATM   28  C12 UNL     1       1.697  -3.030   1.591  1.00  0.00     0.174 C 
ENDBRANCH  12  27
BRANCH  14  29
HETATM   29  C15 UNL     1      -1.070  -0.937  -3.110  1.00  0.00     0.097 C 
HETATM   30  C16 UNL     1      -0.810   0.246  -4.085  1.00  0.00     0.026 C 
ENDBRANCH  14  29
BRANCH  19  31
HETATM   31  O6  UNL     1       5.007   2.247  -0.858  1.00  0.00    -0.354 OA
HETATM   32  C22 UNL     1       5.882   3.339  -0.494  1.00  0.00     0.174 C 
ENDBRANCH  19  31
TORSDOF 5
