REMARK  1 active torsions:
REMARK  status: ('A' for Active; 'I' for Inactive)
REMARK    1  A    between atoms: C9_9  and  C10_11 
ROOT
HETATM    1  C1  UNL     1      -3.455  -2.035   0.016  1.00  0.00     0.135 A 
HETATM    2  C2  UNL     1      -4.619  -1.231   0.014  1.00  0.00     0.055 A 
HETATM    3  C3  UNL     1      -4.514   0.180  -0.008  1.00  0.00     0.135 A 
HETATM    4  C4  UNL     1      -3.240   0.797  -0.025  1.00  0.00     0.052 A 
HETATM    5  C5  UNL     1      -2.070   0.004  -0.023  1.00  0.00     0.104 A 
HETATM    6  C6  UNL     1      -2.176  -1.418  -0.002  1.00  0.00     0.050 A 
HETATM    7  C7  UNL     1      -0.982  -2.186   0.000  1.00  0.00     0.034 A 
HETATM    8  C8  UNL     1       0.281  -1.549  -0.018  1.00  0.00     0.154 A 
HETATM    9  C9  UNL     1       0.340  -0.135  -0.037  1.00  0.00     0.125 A 
HETATM   10  O1  UNL     1      -0.828   0.596  -0.039  1.00  0.00    -0.305 OA
HETATM   11  O5  UNL     1       1.399  -2.293  -0.018  1.00  0.00    -0.188 OA
HETATM   12  O6  UNL     1      -5.621   0.933  -0.012  1.00  0.00    -0.190 OA
HETATM   13  O7  UNL     1      -3.582  -3.371   0.037  1.00  0.00    -0.190 OA
ENDROOT
BRANCH   9  14
HETATM   14  C10 UNL     1       1.609   0.578  -0.055  1.00  0.00     0.029 A 
HETATM   15  C11 UNL     1       2.650   0.189   0.809  1.00  0.00     0.032 A 
HETATM   16  C12 UNL     1       3.875   0.877   0.793  1.00  0.00     0.158 A 
HETATM   17  C13 UNL     1       4.065   1.955  -0.090  1.00  0.00     0.181 A 
HETATM   18  O4  UNL     1       4.846   0.508   1.605  1.00  0.00    -0.188 OA
HETATM   19  C14 UNL     1       3.025   2.348  -0.955  1.00  0.00     0.158 A 
HETATM   20  O3  UNL     1       5.213   2.601  -0.106  1.00  0.00    -0.186 OA
HETATM   21  C15 UNL     1       1.801   1.658  -0.938  1.00  0.00     0.032 A 
HETATM   22  O2  UNL     1       3.197   3.357  -1.783  1.00  0.00    -0.188 OA
ENDBRANCH   9  14
TORSDOF 1
