REMARK  0 active torsions:
REMARK  status: ('A' for Active; 'I' for Inactive)
ROOT
HETATM    1  C1  UNL     1      -2.436   1.847   0.297  1.00  0.00     0.022 C 
HETATM    2  C2  UNL     1      -3.537   1.012   0.413  1.00  0.00     0.119 A 
HETATM    3  C3  UNL     1      -3.367  -0.356   0.556  1.00  0.00     0.119 A 
HETATM    4  C4  UNL     1      -2.099  -0.921   0.525  1.00  0.00     0.022 C 
HETATM    5  C5  UNL     1      -0.965  -0.113   0.299  1.00  0.00    -0.019 C 
HETATM    6  C6  UNL     1      -1.144   1.287   0.270  1.00  0.00    -0.022 C 
HETATM    7  C7  UNL     1      -0.004   2.274   0.322  1.00  0.00     0.061 C 
HETATM    8  C8  UNL     1       1.173   1.765   1.155  1.00  0.00     0.255 C 
HETATM    9  N1  UNL     1       2.132   1.037   0.359  1.00  0.00     0.134 N 
HETATM   10  C9  UNL     1       1.668  -0.161  -0.331  1.00  0.00     0.205 C 
HETATM   11  C10 UNL     1       0.355  -0.870   0.114  1.00  0.00     0.090 C 
HETATM   12  C11 UNL     1       0.131  -1.849  -1.069  1.00  0.00     0.215 C 
HETATM   13  O1  UNL     1       0.749  -3.100  -0.836  1.00  0.00    -0.215 OA
HETATM   14  C12 UNL     1       0.754  -1.177  -2.277  1.00  0.00     0.183 C 
HETATM   15  C13 UNL     1       1.435   0.099  -1.837  1.00  0.00     0.099 C 
HETATM   16  O2  UNL     1       0.709  -1.630  -3.396  1.00  0.00    -0.293 OA
HETATM   17  C14 UNL     1       2.879  -1.142  -0.220  1.00  0.00     0.034 C 
HETATM   18  C15 UNL     1       4.060  -0.276   0.225  1.00  0.00     0.037 C 
HETATM   19  C16 UNL     1       3.307   0.690   1.139  1.00  0.00     0.250 C 
HETATM   20  O3  UNL     1      -4.603  -0.953   0.712  1.00  0.00    -0.300 OA
HETATM   21  C17 UNL     1      -5.593   0.082   0.649  1.00  0.00     0.304 A 
HETATM   22  O4  UNL     1      -4.883   1.315   0.479  1.00  0.00    -0.300 OA
ENDROOT
TORSDOF 0
