REMARK  15 active torsions:
REMARK  status: ('A' for Active; 'I' for Inactive)
REMARK    1  A    between atoms: C4_4  and  O1_7 
REMARK    2  A    between atoms: O1_7  and  C7_8 
REMARK    3  A    between atoms: C7_8  and  C8_9 
REMARK    4  A    between atoms: C8_9  and  C9_10 
REMARK    5  A    between atoms: C9_10  and  C10_11 
REMARK    6  A    between atoms: C9_10  and  N1_17 
REMARK    7  A    between atoms: C18_22  and  O10_51 
REMARK    8  A    between atoms: C22_26  and  O6_37 
REMARK    9  A    between atoms: C23_27  and  O4_28 
REMARK   10  A    between atoms: O4_28  and  C24_29 
REMARK   11  A    between atoms: C24_29  and  C25_30 
REMARK   12  A    between atoms: O6_37  and  C30_38 
REMARK   13  A    between atoms: C33_42  and  O8_44 
REMARK   14  A    between atoms: O8_44  and  C35_45 
REMARK   15  A    between atoms: O10_51  and  C40_52 
ROOT
HETATM    1  C1  UNL     1       0.157   0.409   0.603  1.00  0.00     0.036 C 
HETATM    2  C2  UNL     1      -0.415  -0.603  -0.426  1.00  0.00     0.060 C 
HETATM    3  C3  UNL     1       0.654  -0.889  -1.496  1.00  0.00     0.148 A 
HETATM    4  C4  UNL     1       1.081   0.324  -2.341  1.00  0.00     0.151 C 
HETATM    5  C5  UNL     1       1.105   1.582  -1.460  1.00  0.00     0.033 C 
HETATM    6  C6  UNL     1       1.383   1.141  -0.021  1.00  0.00     0.005 C 
HETATM    7  C17 UNL     1       1.452  -2.075  -1.383  1.00  0.00     0.172 A 
HETATM    8  O3  UNL     1       0.531  -2.170  -2.442  1.00  0.00    -0.351 OA
HETATM    9  C18 UNL     1      -1.279  -1.727   0.208  1.00  0.00     0.127 C 
HETATM   10  C19 UNL     1      -0.987  -2.371   1.620  1.00  0.00     0.034 C 
HETATM   11  C20 UNL     1      -1.030  -1.478   2.912  1.00  0.00     0.019 C 
HETATM   12  C21 UNL     1      -2.184  -0.572   2.538  1.00  0.00    -0.021 C 
HETATM   13  C22 UNL     1      -1.920   0.911   2.354  1.00  0.00     0.170 C 
HETATM   14  C23 UNL     1      -0.872   1.374   1.287  1.00  0.00     0.156 C 
HETATM   15  C32 UNL     1      -3.379  -1.165   2.288  1.00  0.00    -0.022 C 
HETATM   16  C33 UNL     1      -3.491  -2.679   2.021  1.00  0.00     0.142 C 
HETATM   17  C34 UNL     1      -2.126  -3.397   1.884  1.00  0.00     0.037 C 
HETATM   18  C37 UNL     1      -4.666  -0.401   2.072  1.00  0.00     0.028 C 
HETATM   19  C38 UNL     1      -1.469  -2.166   4.252  1.00  0.00     0.004 C 
HETATM   20  C39 UNL     1       0.321  -0.874   3.403  1.00  0.00     0.004 C 
ENDROOT
BRANCH   4  21
HETATM   21  O1  UNL     1       2.315   0.166  -3.007  1.00  0.00    -0.302 OA
BRANCH  21  22
HETATM   22  C7  UNL     1       2.612   1.073  -3.979  1.00  0.00     0.274 C 
HETATM   23  O2  UNL     1       1.869   1.966  -4.325  1.00  0.00    -0.264 OA
BRANCH  22  24
HETATM   24  C8  UNL     1       3.980   0.865  -4.609  1.00  0.00     0.124 C 
BRANCH  24  25
HETATM   25  C9  UNL     1       5.004  -0.057  -3.919  1.00  0.00     0.130 C 
BRANCH  25  26
HETATM   26  C10 UNL     1       5.417   0.479  -2.555  1.00  0.00    -0.000 A 
HETATM   27  C11 UNL     1       6.302   1.492  -2.492  1.00  0.00    -0.002 A 
HETATM   28  C12 UNL     1       6.707   2.004  -1.319  1.00  0.00    -0.000 A 
HETATM   29  C13 UNL     1       6.226   1.508  -0.170  1.00  0.00    -0.000 A 
HETATM   30  C14 UNL     1       5.343   0.500  -0.209  1.00  0.00    -0.000 A 
HETATM   31  C15 UNL     1       4.950  -0.004  -1.388  1.00  0.00    -0.002 A 
ENDBRANCH  25  26
BRANCH  25  32
HETATM   32  N1  UNL     1       4.470  -1.419  -3.863  1.00  0.00    -0.290 NA
HETATM   33  C16 UNL     1       5.453  -2.455  -3.556  1.00  0.00     0.146 C 
ENDBRANCH  25  32
ENDBRANCH  24  25
ENDBRANCH  22  24
ENDBRANCH  21  22
ENDBRANCH   4  21
BRANCH   9  34
HETATM   34  O10 UNL     1      -1.506  -2.770  -0.702  1.00  0.00    -0.304 OA
BRANCH  34  35
HETATM   35  C40 UNL     1      -2.311  -2.559  -1.782  1.00  0.00     0.272 C 
HETATM   36  C41 UNL     1      -2.454  -3.838  -2.581  1.00  0.00     0.106 C 
HETATM   37  O11 UNL     1      -2.865  -1.517  -2.051  1.00  0.00    -0.264 OA
ENDBRANCH  34  35
ENDBRANCH   9  34
BRANCH  14  38
HETATM   38  O4  UNL     1      -0.181   2.466   1.830  1.00  0.00    -0.298 OA
BRANCH  38  39
HETATM   39  C24 UNL     1      -0.042   3.721   1.280  1.00  0.00     0.297 C 
HETATM   40  O5  UNL     1       0.945   4.315   1.674  1.00  0.00    -0.259 OA
BRANCH  39  41
HETATM   41  C25 UNL     1      -0.828   4.425   0.404  1.00  0.00     0.082 A 
HETATM   42  C26 UNL     1      -2.056   4.065  -0.022  1.00  0.00     0.104 A 
HETATM   43  N2  UNL     1      -2.775   4.714  -0.838  1.00  0.00    -0.242 NA
HETATM   44  C27 UNL     1      -2.325   5.801  -1.300  1.00  0.00     0.099 A 
HETATM   45  C28 UNL     1      -1.132   6.301  -0.952  1.00  0.00     0.021 A 
HETATM   46  C29 UNL     1      -0.384   5.604  -0.082  1.00  0.00     0.009 A 
ENDBRANCH  39  41
ENDBRANCH  38  39
ENDBRANCH  14  38
BRANCH  13  47
HETATM   47  O6  UNL     1      -1.706   1.449   3.646  1.00  0.00    -0.298 OA
BRANCH  47  48
HETATM   48  C30 UNL     1      -2.149   2.710   3.912  1.00  0.00     0.273 C 
HETATM   49  C31 UNL     1      -1.818   3.092   5.340  1.00  0.00     0.106 C 
HETATM   50  O7  UNL     1      -2.722   3.429   3.125  1.00  0.00    -0.264 OA
ENDBRANCH  47  48
ENDBRANCH  13  47
BRANCH  16  51
HETATM   51  O8  UNL     1      -4.189  -2.902   0.810  1.00  0.00    -0.300 OA
BRANCH  51  52
HETATM   52  C35 UNL     1      -5.471  -3.355   0.837  1.00  0.00     0.273 C 
HETATM   53  C36 UNL     1      -5.983  -3.522  -0.580  1.00  0.00     0.106 C 
HETATM   54  O9  UNL     1      -6.113  -3.598   1.833  1.00  0.00    -0.264 OA
ENDBRANCH  51  52
ENDBRANCH  16  51
TORSDOF 15
