REMARK  11 active torsions:
REMARK  status: ('A' for Active; 'I' for Inactive)
REMARK    1  A    between atoms: C2_3  and  C13_17 
REMARK    2  A    between atoms: C6_7  and  O3_15 
REMARK    3  A    between atoms: C7_8  and  O2_13 
REMARK    4  A    between atoms: C8_9  and  O1_11 
REMARK    5  A    between atoms: C13_17  and  C14_18 
REMARK    6  A    between atoms: C17_21  and  O8_48 
REMARK    7  A    between atoms: C18_22  and  O4_24 
REMARK    8  A    between atoms: O4_24  and  C20_25 
REMARK    9  A    between atoms: C23_28  and  C26_31 
REMARK   10  A    between atoms: C26_31  and  C27_32 
REMARK   11  A    between atoms: C33_39  and  O7_46 
ROOT
HETATM    1  C14 UNL     1      -2.182  -0.897   1.329  1.00  0.00    -0.018 A 
HETATM    2  C15 UNL     1      -3.390  -1.501   1.674  1.00  0.00    -0.002 A 
HETATM    3  C16 UNL     1      -3.445  -2.345   2.782  1.00  0.00     0.026 A 
HETATM    4  C17 UNL     1      -2.335  -2.661   3.582  1.00  0.00     0.117 A 
HETATM    5  C18 UNL     1      -1.096  -2.100   3.200  1.00  0.00     0.122 A 
HETATM    6  C19 UNL     1      -1.069  -1.218   2.109  1.00  0.00     0.022 A 
ENDROOT
BRANCH   5   7
HETATM    7  O4  UNL     1       0.083  -2.358   3.847  1.00  0.00    -0.305 OA
BRANCH   7   8
HETATM    8  C20 UNL     1       1.076  -2.823   3.027  1.00  0.00     0.100 A 
HETATM    9  C21 UNL     1       0.906  -3.963   2.232  1.00  0.00     0.024 A 
HETATM   10  C22 UNL     1       1.909  -4.417   1.375  1.00  0.00    -0.002 A 
HETATM   11  C23 UNL     1       3.135  -3.751   1.279  1.00  0.00    -0.020 A 
HETATM   12  C24 UNL     1       3.324  -2.625   2.087  1.00  0.00    -0.002 A 
HETATM   13  C25 UNL     1       2.312  -2.172   2.936  1.00  0.00     0.024 A 
BRANCH  11  14
HETATM   14  C26 UNL     1       4.209  -4.240   0.330  1.00  0.00     0.064 C 
BRANCH  14  15
HETATM   15  C27 UNL     1       4.570  -3.213  -0.772  1.00  0.00     0.246 C 
HETATM   16  C28 UNL     1       3.311  -2.560  -1.336  1.00  0.00     0.009 A 
HETATM   17  C29 UNL     1       3.145  -1.165  -1.412  1.00  0.00     0.002 A 
HETATM   18  C36 UNL     1       2.284  -3.394  -1.803  1.00  0.00     0.024 A 
HETATM   19  C30 UNL     1       4.295  -0.296  -0.971  1.00  0.00     0.064 C 
HETATM   20  C33 UNL     1       1.975  -0.539  -1.901  1.00  0.00     0.114 A 
HETATM   21  C31 UNL     1       5.615  -1.056  -1.116  1.00  0.00     0.255 C 
HETATM   22  N2  UNL     1       5.580  -2.260  -0.306  1.00  0.00     0.142 N 
HETATM   23  C32 UNL     1       6.914  -2.854  -0.270  1.00  0.00     0.286 C 
HETATM   24  C34 UNL     1       0.977  -1.418  -2.333  1.00  0.00     0.141 A 
HETATM   25  C35 UNL     1       1.126  -2.800  -2.284  1.00  0.00     0.121 A 
HETATM   26  O6  UNL     1      -0.268  -1.151  -2.874  1.00  0.00    -0.298 OA
HETATM   27  O5  UNL     1      -0.007  -3.417  -2.778  1.00  0.00    -0.299 OA
HETATM   28  C37 UNL     1      -0.926  -2.389  -3.158  1.00  0.00     0.304 A 
BRANCH  20  29
HETATM   29  O7  UNL     1       1.906   0.833  -1.927  1.00  0.00    -0.326 OA
HETATM   30  C38 UNL     1       0.752   1.462  -2.430  1.00  0.00     0.181 C 
ENDBRANCH  20  29
ENDBRANCH  14  15
ENDBRANCH  11  14
ENDBRANCH   7   8
ENDBRANCH   5   7
BRANCH   4  31
HETATM   31  O8  UNL     1      -2.575  -3.527   4.624  1.00  0.00    -0.326 OA
HETATM   32  C39 UNL     1      -1.522  -4.067   5.382  1.00  0.00     0.181 C 
ENDBRANCH   4  31
BRANCH   1  33
HETATM   33  C13 UNL     1      -2.037   0.034   0.146  1.00  0.00     0.064 C 
BRANCH  33  34
HETATM   34  C2  UNL     1      -3.223   0.995  -0.103  1.00  0.00     0.246 C 
HETATM   35  N1  UNL     1      -4.051   0.579  -1.231  1.00  0.00     0.142 N 
HETATM   36  C1  UNL     1      -3.380   0.821  -2.500  1.00  0.00     0.255 C 
HETATM   37  C40 UNL     1      -5.365   1.205  -1.193  1.00  0.00     0.286 C 
HETATM   38  C5  UNL     1      -3.057   2.297  -2.756  1.00  0.00     0.064 C 
HETATM   39  C4  UNL     1      -2.588   3.032  -1.520  1.00  0.00     0.002 A 
HETATM   40  C3  UNL     1      -2.703   2.411  -0.278  1.00  0.00     0.009 A 
HETATM   41  C6  UNL     1      -2.073   4.337  -1.635  1.00  0.00     0.114 A 
HETATM   42  C9  UNL     1      -2.311   3.130   0.849  1.00  0.00     0.024 A 
HETATM   43  C8  UNL     1      -1.812   4.436   0.798  1.00  0.00     0.118 A 
HETATM   44  C7  UNL     1      -1.722   5.062  -0.468  1.00  0.00     0.138 A 
BRANCH  43  45
HETATM   45  O1  UNL     1      -1.484   5.125   1.940  1.00  0.00    -0.326 OA
HETATM   46  C10 UNL     1      -1.804   4.587   3.202  1.00  0.00     0.181 C 
ENDBRANCH  43  45
BRANCH  44  47
HETATM   47  O2  UNL     1      -1.214   6.327  -0.652  1.00  0.00    -0.324 OA
HETATM   48  C11 UNL     1      -0.409   6.960   0.313  1.00  0.00     0.182 C 
ENDBRANCH  44  47
BRANCH  41  49
HETATM   49  O3  UNL     1      -2.043   4.850  -2.916  1.00  0.00    -0.326 OA
HETATM   50  C12 UNL     1      -2.221   6.227  -3.147  1.00  0.00     0.181 C 
ENDBRANCH  41  49
ENDBRANCH  33  34
ENDBRANCH   1  33
TORSDOF 11
