REMARK  1 active torsions:
REMARK  status: ('A' for Active; 'I' for Inactive)
REMARK    1  A    between atoms: C11_12  and  C12_13 
ROOT
HETATM    1  C1  UNL     1       2.697   1.430   0.164  1.00  0.00     0.196 C 
HETATM    2  C2  UNL     1       2.537  -0.131   0.078  1.00  0.00     0.037 C 
HETATM    3  C3  UNL     1       1.086  -0.664   0.305  1.00  0.00     0.007 C 
HETATM    4  C4  UNL     1       0.088   0.055  -0.635  1.00  0.00     0.025 C 
HETATM    5  C5  UNL     1       0.199   1.531  -0.342  1.00  0.00     0.003 A 
HETATM    6  C6  UNL     1       1.385   2.164  -0.069  1.00  0.00     0.104 A 
HETATM    7  O1  UNL     1       1.119   3.535   0.019  1.00  0.00    -0.307 OA
HETATM    8  C7  UNL     1      -0.273   3.691  -0.129  1.00  0.00     0.125 A 
HETATM    9  C8  UNL     1      -0.811   2.418  -0.287  1.00  0.00     0.057 A 
HETATM   10  C9  UNL     1      -2.221   1.992  -0.344  1.00  0.00     0.175 C 
HETATM   11  C10 UNL     1      -2.475   0.508  -0.131  1.00  0.00     0.070 C 
HETATM   12  C11 UNL     1      -1.395  -0.434  -0.736  1.00  0.00     0.012 C 
HETATM   13  O2  UNL     1      -3.117   2.785  -0.526  1.00  0.00    -0.291 OA
HETATM   14  C15 UNL     1       3.527  -0.836   1.012  1.00  0.00     0.003 C 
HETATM   15  O3  UNL     1       3.660   1.875  -0.768  1.00  0.00    -0.216 OA
ENDROOT
BRANCH  12  16
HETATM   16  C12 UNL     1      -1.576  -1.877  -0.254  1.00  0.00     0.001 C 
HETATM   17  C13 UNL     1      -1.748  -1.977   1.262  1.00  0.00     0.000 C 
HETATM   18  C14 UNL     1      -2.668  -2.623  -1.024  1.00  0.00     0.000 C 
ENDBRANCH  12  16
TORSDOF 1
