REMARK  1 active torsions:
REMARK  status: ('A' for Active; 'I' for Inactive)
REMARK    1  A    between atoms: C3_3  and  C15_19 
ROOT
HETATM    1  C1  UNL     1      -1.672   1.027   0.073  1.00  0.00     0.014 C 
HETATM    2  C2  UNL     1      -1.752  -0.500  -0.112  1.00  0.00     0.089 C 
HETATM    3  C3  UNL     1      -0.641  -1.188   0.691  1.00  0.00     0.042 C 
HETATM    4  C4  UNL     1       0.493  -0.823  -0.275  1.00  0.00     0.180 C 
HETATM    5  C5  UNL     1       0.933   0.621   0.038  1.00  0.00     0.310 C 
HETATM    6  C6  UNL     1      -0.241   1.618   0.051  1.00  0.00     0.057 C 
HETATM    7  C7  UNL     1      -0.094   2.321  -1.340  1.00  0.00     0.038 C 
HETATM    8  C8  UNL     1       1.185   1.758  -2.004  1.00  0.00     0.253 C 
HETATM    9  N1  UNL     1       1.861   1.326  -0.815  1.00  0.00     0.163 N 
HETATM   10  C9  UNL     1       3.060   0.546  -0.798  1.00  0.00     0.285 C 
HETATM   11  C10 UNL     1       3.055   0.260   0.715  1.00  0.00     0.180 C 
HETATM   12  O1  UNL     1       1.742   0.546   1.187  1.00  0.00    -0.328 OA
HETATM   13  C11 UNL     1      -1.404   2.127  -2.109  1.00  0.00     0.002 C 
HETATM   14  C12 UNL     1      -2.431   1.817  -1.011  1.00  0.00     0.001 C 
HETATM   15  C13 UNL     1      -0.087   2.657   1.182  1.00  0.00     0.004 C 
HETATM   16  O2  UNL     1      -0.032  -0.981  -1.557  1.00  0.00    -0.300 OA
HETATM   17  C14 UNL     1      -1.383  -0.927  -1.514  1.00  0.00     0.272 C 
HETATM   18  O3  UNL     1      -2.131  -1.141  -2.441  1.00  0.00    -0.264 OA
ENDROOT
BRANCH   3  19
HETATM   19  C15 UNL     1      -0.891  -2.699   0.910  1.00  0.00     0.003 C 
HETATM   20  C16 UNL     1       0.380  -3.464   1.323  1.00  0.00     0.000 C 
HETATM   21  C17 UNL     1      -1.963  -2.915   1.998  1.00  0.00     0.000 C 
ENDBRANCH   3  19
TORSDOF 1
