REMARK  10 active torsions:
REMARK  status: ('A' for Active; 'I' for Inactive)
REMARK    1  A    between atoms: C4_4  and  O1_7 
REMARK    2  A    between atoms: O1_7  and  C7_8 
REMARK    3  A    between atoms: C7_8  and  C8_9 
REMARK    4  A    between atoms: C8_9  and  C9_10 
REMARK    5  A    between atoms: C9_10  and  N1_11 
REMARK    6  A    between atoms: C9_10  and  C12_14 
REMARK    7  A    between atoms: C23_26  and  O4_29 
REMARK    8  A    between atoms: O4_29  and  C25_30 
REMARK    9  A    between atoms: C28_34  and  O6_36 
REMARK   10  A    between atoms: O6_36  and  C30_37 
ROOT
HETATM    1  C1  UNL     1       0.525   0.966   1.570  1.00  0.00     0.048 C 
HETATM    2  C2  UNL     1       0.473  -0.542   1.118  1.00  0.00    -0.012 C 
HETATM    3  C3  UNL     1       1.804  -1.208   1.433  1.00  0.00    -0.000 C 
HETATM    4  C4  UNL     1       3.026  -0.590   0.763  1.00  0.00     0.146 C 
HETATM    5  C5  UNL     1       3.035   0.941   0.872  1.00  0.00     0.035 C 
HETATM    6  C6  UNL     1       1.651   1.587   0.658  1.00  0.00     0.009 C 
HETATM    7  C18 UNL     1       1.942  -2.272   2.239  1.00  0.00    -0.003 C 
HETATM    8  C19 UNL     1      -0.780  -1.456   0.906  1.00  0.00     0.198 C 
HETATM    9  C20 UNL     1      -1.812  -1.930   1.971  1.00  0.00     0.164 C 
HETATM   10  C21 UNL     1      -2.222  -0.883   3.019  1.00  0.00     0.046 C 
HETATM   11  C22 UNL     1      -2.654   0.299   2.147  1.00  0.00    -0.018 C 
HETATM   12  C23 UNL     1      -1.995   1.661   2.272  1.00  0.00     0.173 C 
HETATM   13  C24 UNL     1      -0.755   1.815   1.377  1.00  0.00     0.187 C 
HETATM   14  O3  UNL     1      -1.176   1.736   0.033  1.00  0.00    -0.220 OA
HETATM   15  C27 UNL     1      -3.594   0.065   1.197  1.00  0.00    -0.022 C 
HETATM   16  C28 UNL     1      -4.069  -1.346   0.851  1.00  0.00     0.145 C 
HETATM   17  C29 UNL     1      -3.107  -2.451   1.318  1.00  0.00     0.068 C 
HETATM   18  C32 UNL     1      -4.256   1.118   0.326  1.00  0.00     0.028 C 
HETATM   19  C33 UNL     1      -3.438  -1.248   3.917  1.00  0.00     0.007 C 
HETATM   20  C34 UNL     1      -1.088  -0.800   4.062  1.00  0.00     0.007 C 
HETATM   21  O8  UNL     1      -1.282  -3.061   2.617  1.00  0.00    -0.223 OA
HETATM   22  O9  UNL     1      -1.484  -0.958  -0.216  1.00  0.00    -0.216 OA
HETATM   23  C35 UNL     1       1.096   1.243   2.992  1.00  0.00     0.007 C 
ENDROOT
BRANCH   4  24
HETATM   24  O1  UNL     1       3.101  -0.975  -0.593  1.00  0.00    -0.300 OA
BRANCH  24  25
HETATM   25  C7  UNL     1       4.319  -0.839  -1.190  1.00  0.00     0.275 C 
HETATM   26  O2  UNL     1       5.349  -0.577  -0.608  1.00  0.00    -0.264 OA
BRANCH  25  27
HETATM   27  C8  UNL     1       4.240  -0.999  -2.699  1.00  0.00     0.134 C 
BRANCH  27  28
HETATM   28  C9  UNL     1       3.217  -0.066  -3.385  1.00  0.00     0.252 C 
BRANCH  28  29
HETATM   29  N1  UNL     1       3.140   1.260  -2.768  1.00  0.00     0.144 N 
HETATM   30  C10 UNL     1       1.991   2.019  -3.240  1.00  0.00     0.286 C 
HETATM   31  C11 UNL     1       4.351   2.056  -2.884  1.00  0.00     0.286 C 
ENDBRANCH  28  29
BRANCH  28  32
HETATM   32  C12 UNL     1       3.392  -0.001  -4.899  1.00  0.00     0.009 A 
HETATM   33  C13 UNL     1       2.292  -0.185  -5.747  1.00  0.00    -0.002 A 
HETATM   34  C14 UNL     1       2.422  -0.129  -7.137  1.00  0.00    -0.000 A 
HETATM   35  C15 UNL     1       3.669   0.109  -7.714  1.00  0.00    -0.000 A 
HETATM   36  C16 UNL     1       4.780   0.286  -6.889  1.00  0.00    -0.000 A 
HETATM   37  C17 UNL     1       4.638   0.227  -5.502  1.00  0.00    -0.002 A 
ENDBRANCH  28  32
ENDBRANCH  27  28
ENDBRANCH  25  27
ENDBRANCH  24  25
ENDBRANCH   4  24
BRANCH  12  38
HETATM   38  O4  UNL     1      -1.769   2.093   3.588  1.00  0.00    -0.297 OA
BRANCH  38  39
HETATM   39  C25 UNL     1      -2.853   2.399   4.352  1.00  0.00     0.273 C 
HETATM   40  C26 UNL     1      -2.408   2.894   5.713  1.00  0.00     0.106 C 
HETATM   41  O5  UNL     1      -4.006   2.295   3.998  1.00  0.00    -0.264 OA
ENDBRANCH  38  39
ENDBRANCH  12  38
BRANCH  16  42
HETATM   42  O6  UNL     1      -4.272  -1.474  -0.542  1.00  0.00    -0.300 OA
BRANCH  42  43
HETATM   43  C30 UNL     1      -5.014  -2.530  -0.973  1.00  0.00     0.273 C 
HETATM   44  C31 UNL     1      -5.166  -2.483  -2.479  1.00  0.00     0.106 C 
HETATM   45  O7  UNL     1      -5.491  -3.382  -0.258  1.00  0.00    -0.264 OA
ENDBRANCH  42  43
ENDBRANCH  16  42
TORSDOF 10
