REMARK  14 active torsions:
REMARK  status: ('A' for Active; 'I' for Inactive)
REMARK    1  A    between atoms: C3_3  and  O3_10 
REMARK    2  A    between atoms: O3_10  and  C8_11 
REMARK    3  A    between atoms: C10_14  and  O13_53 
REMARK    4  A    between atoms: C14_18  and  O6_21 
REMARK    5  A    between atoms: O6_21  and  C16_22 
REMARK    6  A    between atoms: C19_26  and  O8_28 
REMARK    7  A    between atoms: O8_28  and  C21_29 
REMARK    8  A    between atoms: C21_29  and  C22_30 
REMARK    9  A    between atoms: C22_30  and  C23_31 
REMARK   10  A    between atoms: C23_31  and  C24_32 
REMARK   11  A    between atoms: C23_31  and  N1_38 
REMARK       I    between atoms: N1_38  and  C30_39 
REMARK   12  A    between atoms: C30_39  and  C31_41 
REMARK   13  A    between atoms: O13_53  and  C40_54 
REMARK   14  A    between atoms: C40_54  and  C41_55 
ROOT
HETATM    1  C1  UNL     1       2.363   2.500  -1.195  1.00  0.00     0.064 C 
HETATM    2  C2  UNL     1       1.547   1.150  -1.016  1.00  0.00     0.066 C 
HETATM    3  C3  UNL     1       0.363   0.991  -2.038  1.00  0.00     0.156 C 
HETATM    4  C4  UNL     1       0.845   1.124  -3.494  1.00  0.00     0.146 C 
HETATM    5  C5  UNL     1       2.182   1.818  -3.636  1.00  0.00     0.065 C 
HETATM    6  C6  UNL     1       2.145   2.994  -2.658  1.00  0.00     0.157 C 
HETATM    7  O1  UNL     1       3.086   3.961  -3.067  1.00  0.00    -0.223 OA
HETATM    8  O2  UNL     1       0.854  -0.273  -3.658  1.00  0.00    -0.351 OA
HETATM    9  C7  UNL     1      -0.090  -0.372  -2.602  1.00  0.00     0.172 C 
HETATM   10  C10 UNL     1       2.304  -0.047  -0.346  1.00  0.00     0.154 C 
HETATM   11  C11 UNL     1       2.118  -0.339   1.185  1.00  0.00     0.158 C 
HETATM   12  C12 UNL     1       2.492   0.789   2.180  1.00  0.00     0.045 C 
HETATM   13  C13 UNL     1       1.556   1.965   1.858  1.00  0.00    -0.018 C 
HETATM   14  C14 UNL     1       2.056   3.332   1.377  1.00  0.00     0.172 C 
HETATM   15  C15 UNL     1       1.938   3.586  -0.153  1.00  0.00     0.186 C 
HETATM   16  O5  UNL     1       0.621   4.008  -0.427  1.00  0.00    -0.220 OA
HETATM   17  C18 UNL     1       0.222   1.696   1.867  1.00  0.00    -0.022 C 
HETATM   18  C19 UNL     1      -0.335   0.269   1.757  1.00  0.00     0.145 C 
HETATM   19  C20 UNL     1       0.722  -0.835   1.582  1.00  0.00     0.068 C 
HETATM   20  C37 UNL     1      -0.879   2.736   1.833  1.00  0.00     0.028 C 
HETATM   21  C38 UNL     1       2.160   0.454   3.674  1.00  0.00     0.007 C 
HETATM   22  C39 UNL     1       4.035   0.923   2.286  1.00  0.00     0.007 C 
HETATM   23  O12 UNL     1       2.985  -1.423   1.442  1.00  0.00    -0.223 OA
HETATM   24  C47 UNL     1       3.903   2.391  -1.063  1.00  0.00     0.005 C 
ENDROOT
BRANCH  18  25
HETATM   25  O8  UNL     1      -1.184   0.126   0.632  1.00  0.00    -0.298 OA
BRANCH  25  26
HETATM   26  C21 UNL     1      -2.531   0.072   0.784  1.00  0.00     0.305 C 
HETATM   27  O11 UNL     1      -3.133   0.377   1.789  1.00  0.00    -0.261 OA
BRANCH  26  28
HETATM   28  C22 UNL     1      -3.181  -0.570  -0.444  1.00  0.00     0.264 C 
HETATM   29  O10 UNL     1      -3.841   0.429  -1.199  1.00  0.00    -0.210 OA
BRANCH  28  30
HETATM   30  C23 UNL     1      -4.206  -1.653  -0.085  1.00  0.00     0.169 C 
BRANCH  30  31
HETATM   31  C24 UNL     1      -3.527  -2.876   0.497  1.00  0.00     0.003 A 
HETATM   32  C25 UNL     1      -3.306  -4.004  -0.304  1.00  0.00    -0.002 A 
HETATM   33  C26 UNL     1      -2.719  -5.158   0.218  1.00  0.00    -0.000 A 
HETATM   34  C27 UNL     1      -2.331  -5.198   1.558  1.00  0.00    -0.000 A 
HETATM   35  C28 UNL     1      -2.528  -4.077   2.365  1.00  0.00    -0.000 A 
HETATM   36  C29 UNL     1      -3.123  -2.930   1.836  1.00  0.00    -0.002 A 
ENDBRANCH  30  31
BRANCH  30  37
HETATM   37  N1  UNL     1      -5.187  -1.087   0.845  1.00  0.00    -0.229 NA
HETATM   38  C30 UNL     1      -6.249  -1.760   1.372  1.00  0.00     0.275 C 
HETATM   39  O9  UNL     1      -6.977  -1.207   2.179  1.00  0.00    -0.266 OA
BRANCH  38  40
HETATM   40  C31 UNL     1      -6.429  -3.214   1.028  1.00  0.00     0.058 A 
HETATM   41  C32 UNL     1      -6.800  -3.599  -0.263  1.00  0.00     0.005 A 
HETATM   42  C33 UNL     1      -6.941  -4.956  -0.563  1.00  0.00     0.000 A 
HETATM   43  C34 UNL     1      -6.723  -5.919   0.426  1.00  0.00     0.000 A 
HETATM   44  C35 UNL     1      -6.371  -5.528   1.720  1.00  0.00     0.000 A 
HETATM   45  C36 UNL     1      -6.229  -4.173   2.024  1.00  0.00     0.005 A 
ENDBRANCH  38  40
ENDBRANCH  30  37
ENDBRANCH  28  30
ENDBRANCH  26  28
ENDBRANCH  25  26
ENDBRANCH  18  25
BRANCH  14  46
HETATM   46  O6  UNL     1       3.344   3.690   1.810  1.00  0.00    -0.297 OA
BRANCH  46  47
HETATM   47  C16 UNL     1       3.599   4.190   3.058  1.00  0.00     0.273 C 
HETATM   48  O7  UNL     1       4.719   4.500   3.405  1.00  0.00    -0.264 OA
HETATM   49  C17 UNL     1       2.418   4.341   4.003  1.00  0.00     0.106 C 
ENDBRANCH  46  47
ENDBRANCH  14  46
BRANCH  10  50
HETATM   50  O13 UNL     1       2.040  -1.248  -1.004  1.00  0.00    -0.309 OA
BRANCH  50  51
HETATM   51  C40 UNL     1       2.934  -1.900  -1.794  1.00  0.00     0.228 C 
HETATM   52  O14 UNL     1       2.594  -3.075  -2.299  1.00  0.00    -0.163 OA
BRANCH  51  53
HETATM   53  C41 UNL     1       4.296  -1.378  -2.224  1.00  0.00     0.044 C 
HETATM   54  C42 UNL     1       4.480  -1.094  -3.538  1.00  0.00    -0.022 C 
HETATM   55  C43 UNL     1       5.820  -0.630  -4.008  1.00  0.00     0.031 C 
HETATM   56  C44 UNL     1       6.762  -0.143  -2.940  1.00  0.00     0.031 C 
HETATM   57  C45 UNL     1       6.577  -0.721  -1.574  1.00  0.00    -0.026 C 
HETATM   58  C46 UNL     1       5.392  -1.289  -1.244  1.00  0.00    -0.001 C 
ENDBRANCH  51  53
ENDBRANCH  50  51
ENDBRANCH  10  50
BRANCH   3  59
HETATM   59  O3  UNL     1      -0.628   1.937  -1.763  1.00  0.00    -0.302 OA
BRANCH  59  60
HETATM   60  C8  UNL     1      -1.835   2.067  -2.366  1.00  0.00     0.272 C 
HETATM   61  C9  UNL     1      -2.547   3.300  -1.840  1.00  0.00     0.106 C 
HETATM   62  O4  UNL     1      -2.324   1.333  -3.193  1.00  0.00    -0.264 OA
ENDBRANCH  59  60
ENDBRANCH   3  59
TORSDOF 14
