REMARK  3 active torsions:
REMARK  status: ('A' for Active; 'I' for Inactive)
REMARK    1  A    between atoms: C3_4  and  C5_7 
REMARK    2  A    between atoms: C6_8  and  C7_9 
REMARK    3  A    between atoms: C14_16  and  C19_22 
ROOT
HETATM    1  C7  UNL     1      -0.034   0.590  -1.234  1.00  0.00     0.040 C 
HETATM    2  C8  UNL     1       0.471  -0.490  -0.227  1.00  0.00     0.007 C 
HETATM    3  C9  UNL     1       0.972   0.272   1.035  1.00  0.00     0.006 C 
HETATM    4  C10 UNL     1       1.954   1.426   0.714  1.00  0.00     0.004 C 
HETATM    5  C11 UNL     1       2.266   1.647  -0.774  1.00  0.00     0.022 C 
HETATM    6  C12 UNL     1       1.035   1.579  -1.641  1.00  0.00    -0.041 C 
HETATM    7  C13 UNL     1       0.881   2.401  -2.691  1.00  0.00    -0.009 C 
HETATM    8  C14 UNL     1       1.256  -0.579   2.312  1.00  0.00     0.059 C 
HETATM    9  C15 UNL     1      -0.017  -1.413   2.599  1.00  0.00     0.154 C 
HETATM   10  C16 UNL     1      -0.485  -2.246   1.408  1.00  0.00     0.033 C 
HETATM   11  C17 UNL     1      -0.741  -1.371   0.173  1.00  0.00     0.003 C 
HETATM   12  O3  UNL     1       0.171  -2.270   3.701  1.00  0.00    -0.223 OA
HETATM   13  C18 UNL     1       1.472   0.366   3.524  1.00  0.00     0.005 C 
HETATM   14  C20 UNL     1       1.563  -1.384  -0.860  1.00  0.00     0.001 C 
ENDROOT
BRANCH   1  15
HETATM   15  C6  UNL     1      -0.745   0.003  -2.435  1.00  0.00    -0.026 C 
HETATM   16  C5  UNL     1      -2.017   0.219  -2.812  1.00  0.00    -0.016 C 
BRANCH  16  17
HETATM   17  C3  UNL     1      -3.035   1.097  -2.135  1.00  0.00     0.132 A 
HETATM   18  C2  UNL     1      -4.256   0.299  -1.738  1.00  0.00     0.015 A 
HETATM   19  C1  UNL     1      -5.385   0.674  -2.360  1.00  0.00     0.122 A 
HETATM   20  O1  UNL     1      -5.192   1.723  -3.236  1.00  0.00    -0.274 OA
HETATM   21  C4  UNL     1      -3.691   2.069  -3.110  1.00  0.00     0.284 A 
HETATM   22  O2  UNL     1      -3.143   3.005  -3.675  1.00  0.00    -0.263 OA
ENDBRANCH  16  17
ENDBRANCH   1  15
BRANCH   8  23
HETATM   23  C19 UNL     1       2.475  -1.518   2.234  1.00  0.00     0.185 C 
HETATM   24  O4  UNL     1       3.665  -0.834   1.906  1.00  0.00    -0.221 OA
ENDBRANCH   8  23
TORSDOF 3
