REMARK  3 active torsions:
REMARK  status: ('A' for Active; 'I' for Inactive)
REMARK    1  A    between atoms: C2_2  and  C3_3 
REMARK    2  A    between atoms: C3_3  and  O1_4 
REMARK    3  A    between atoms: O1_4  and  C4_5 
ROOT
HETATM    1  C4  UNL     1       0.372  -0.479  -0.705  1.00  0.00     0.136 C 
HETATM    2  C5  UNL     1      -0.165  -0.066   0.685  1.00  0.00     0.088 C 
HETATM    3  C6  UNL     1       0.154  -0.863   1.927  1.00  0.00     0.046 C 
HETATM    4  C7  UNL     1       0.380   0.130   2.994  1.00  0.00     0.292 C 
HETATM    5  O2  UNL     1       0.370   1.413   2.552  1.00  0.00    -0.296 OA
HETATM    6  C8  UNL     1       0.282   1.350   1.143  1.00  0.00     0.152 C 
HETATM    7  C9  UNL     1      -0.546   2.457   0.533  1.00  0.00    -0.004 C 
HETATM    8  C10 UNL     1      -1.874   2.633   0.654  1.00  0.00    -0.043 C 
HETATM    9  C11 UNL     1      -2.751   1.890   1.636  1.00  0.00     0.026 C 
HETATM   10  C12 UNL     1      -2.616   3.495  -0.356  1.00  0.00     0.057 C 
HETATM   11  C13 UNL     1      -2.564   2.863  -1.761  1.00  0.00     0.150 C 
HETATM   12  C14 UNL     1      -2.503   1.353  -1.652  1.00  0.00     0.005 C 
HETATM   13  C15 UNL     1      -1.287   0.910  -2.007  1.00  0.00     0.042 C 
HETATM   14  C16 UNL     1      -0.709  -0.458  -1.807  1.00  0.00     0.062 C 
HETATM   15  C17 UNL     1      -0.618   2.114  -2.537  1.00  0.00     0.292 C 
HETATM   16  O3  UNL     1      -1.370   3.247  -2.429  1.00  0.00    -0.296 OA
HETATM   17  O4  UNL     1       0.512   2.094  -3.011  1.00  0.00    -0.260 OA
HETATM   18  O5  UNL     1       0.506  -0.161   4.179  1.00  0.00    -0.259 OA
HETATM   19  C18 UNL     1       0.132  -2.190   2.147  1.00  0.00     0.001 C 
ENDROOT
BRANCH   1  20
HETATM   20  O1  UNL     1       0.923  -1.764  -0.709  1.00  0.00    -0.300 OA
BRANCH  20  21
HETATM   21  C3  UNL     1       2.200  -1.936  -0.257  1.00  0.00     0.292 C 
HETATM   22  O6  UNL     1       2.811  -1.003   0.254  1.00  0.00    -0.260 OA
BRANCH  21  23
HETATM   23  C2  UNL     1       2.914  -3.234  -0.421  1.00  0.00     0.041 C 
HETATM   24  C1  UNL     1       4.368  -3.336  -0.032  1.00  0.00     0.037 C 
HETATM   25  C19 UNL     1       2.241  -4.289  -0.922  1.00  0.00     0.001 C 
ENDBRANCH  21  23
ENDBRANCH  20  21
ENDBRANCH   1  20
TORSDOF 3
