REMARK  4 active torsions:
REMARK  status: ('A' for Active; 'I' for Inactive)
REMARK    1  A    between atoms: C1_1  and  C9_11 
REMARK    2  A    between atoms: C2_2  and  C7_8 
REMARK    3  A    between atoms: C5_5  and  C6_6 
REMARK    4  A    between atoms: C7_8  and  C8_9 
ROOT
HETATM    1  C1  UNL     1      -0.726  -0.617  -0.297  1.00  0.00    -0.017 C 
HETATM    2  C2  UNL     1       0.756  -0.480  -0.558  1.00  0.00     0.023 C 
HETATM    3  C3  UNL     1       1.345  -1.059   0.749  1.00  0.00     0.009 C 
HETATM    4  C4  UNL     1       0.260  -0.881   1.827  1.00  0.00     0.024 C 
HETATM    5  C5  UNL     1      -0.994  -0.820   1.000  1.00  0.00    -0.017 C 
ENDROOT
BRANCH   2   6
HETATM    6  C7  UNL     1       1.149   0.984  -0.811  1.00  0.00     0.040 C 
BRANCH   6   7
HETATM    7  C8  UNL     1       2.601   1.130  -1.261  1.00  0.00     0.183 C 
HETATM    8  O2  UNL     1       2.884   2.490  -1.523  1.00  0.00    -0.221 OA
ENDBRANCH   6   7
ENDBRANCH   2   6
BRANCH   1   9
HETATM    9  C9  UNL     1      -1.732  -0.437  -1.396  1.00  0.00     0.204 C 
HETATM   10  O3  UNL     1      -2.356   0.837  -1.308  1.00  0.00    -0.216 OA
ENDBRANCH   1   9
BRANCH   5  11
HETATM   11  C6  UNL     1      -2.346  -0.906   1.645  1.00  0.00     0.204 C 
HETATM   12  O1  UNL     1      -2.477   0.061   2.679  1.00  0.00    -0.216 OA
ENDBRANCH   5  11
TORSDOF 4
