REMARK  0 active torsions:
REMARK  status: ('A' for Active; 'I' for Inactive)
ROOT
HETATM    1  C1  UNL     1       2.643  -0.683   0.746  1.00  0.00    -0.001 A 
HETATM    2  C2  UNL     1       3.066  -2.011   0.769  1.00  0.00    -0.000 A 
HETATM    3  C3  UNL     1       2.195  -3.029   0.365  1.00  0.00     0.002 A 
HETATM    4  C4  UNL     1       0.909  -2.707  -0.057  1.00  0.00     0.019 A 
HETATM    5  C5  UNL     1       0.482  -1.368  -0.084  1.00  0.00     0.081 A 
HETATM    6  C6  UNL     1       1.352  -0.343   0.321  1.00  0.00     0.018 A 
HETATM    7  C7  UNL     1       0.922   1.103   0.301  1.00  0.00     0.131 A 
HETATM    8  N1  UNL     1      -0.469   1.254  -0.125  1.00  0.00    -0.333 N 
HETATM    9  C8  UNL     1      -1.198   0.162  -0.501  1.00  0.00     0.117 A 
HETATM   10  N2  UNL     1      -0.829  -1.083  -0.519  1.00  0.00    -0.233 NA
HETATM   11  C9  UNL     1      -2.600   0.482  -0.947  1.00  0.00     0.066 C 
HETATM   12  C10 UNL     1      -2.752   1.867  -0.292  1.00  0.00     0.032 C 
HETATM   13  C11 UNL     1      -1.324   2.447  -0.243  1.00  0.00     0.103 C 
ENDROOT
TORSDOF 0
