REMARK  7 active torsions:
REMARK  status: ('A' for Active; 'I' for Inactive)
REMARK    1  A    between atoms: C5_5  and  O2_7 
REMARK    2  A    between atoms: O2_7  and  C6_8 
REMARK    3  A    between atoms: C6_8  and  C7_9 
REMARK    4  A    between atoms: C11_13  and  O4_15 
REMARK    5  A    between atoms: O4_15  and  C12_16 
REMARK    6  A    between atoms: C19_24  and  C21_27 
REMARK    7  A    between atoms: C24_30  and  O7_33 
ROOT
HETATM    1  C7  UNL     1       2.211   3.366  -1.629  1.00  0.00     0.150 C 
HETATM    2  C8  UNL     1       2.712   4.782  -1.921  1.00  0.00     0.068 C 
HETATM    3  C9  UNL     1       1.756   5.447  -2.910  1.00  0.00     0.190 C 
HETATM    4  C10 UNL     1       0.338   5.353  -2.383  1.00  0.00     0.239 C 
HETATM    5  C11 UNL     1      -0.007   3.917  -2.057  1.00  0.00     0.274 C 
HETATM    6  O3  UNL     1       0.912   3.429  -1.109  1.00  0.00    -0.329 OA
HETATM    7  O8  UNL     1      -0.549   5.838  -3.359  1.00  0.00    -0.215 OA
HETATM    8  O9  UNL     1       2.082   6.803  -3.087  1.00  0.00    -0.220 OA
ENDROOT
BRANCH   5   9
HETATM    9  O4  UNL     1      -1.269   3.892  -1.435  1.00  0.00    -0.304 OA
BRANCH   9  10
HETATM   10  C12 UNL     1      -1.760   2.718  -0.919  1.00  0.00     0.099 A 
HETATM   11  C13 UNL     1      -2.868   2.794  -0.066  1.00  0.00     0.025 A 
HETATM   12  C14 UNL     1      -3.419   1.665   0.538  1.00  0.00     0.007 A 
HETATM   13  C15 UNL     1      -2.836   0.415   0.314  1.00  0.00     0.062 A 
HETATM   14  C16 UNL     1      -1.715   0.274  -0.514  1.00  0.00     0.105 A 
HETATM   15  C20 UNL     1      -3.423  -0.801   0.923  1.00  0.00     0.199 C 
HETATM   16  C17 UNL     1      -1.209   1.438  -1.107  1.00  0.00     0.049 A 
HETATM   17  O5  UNL     1      -1.105  -0.929  -0.721  1.00  0.00    -0.305 OA
HETATM   18  C18 UNL     1      -1.810  -2.055  -0.416  1.00  0.00     0.126 C 
HETATM   19  C19 UNL     1      -2.901  -2.083   0.379  1.00  0.00     0.064 C 
HETATM   20  O6  UNL     1      -4.282  -0.748   1.797  1.00  0.00    -0.286 OA
BRANCH  19  21
HETATM   21  C21 UNL     1      -3.654  -3.332   0.649  1.00  0.00     0.005 C 
HETATM   22  C22 UNL     1      -3.006  -4.561   0.824  1.00  0.00     0.002 C 
HETATM   23  C23 UNL     1      -3.737  -5.724   1.079  1.00  0.00     0.024 C 
HETATM   24  C24 UNL     1      -5.129  -5.709   1.234  1.00  0.00     0.094 C 
HETATM   25  C25 UNL     1      -5.770  -4.507   0.905  1.00  0.00     0.024 C 
HETATM   26  C26 UNL     1      -5.055  -3.335   0.655  1.00  0.00     0.002 C 
BRANCH  24  27
HETATM   27  O7  UNL     1      -5.840  -6.866   1.406  1.00  0.00    -0.328 OA
HETATM   28  C27 UNL     1      -6.216  -7.090   2.746  1.00  0.00     0.181 C 
ENDBRANCH  24  27
ENDBRANCH  19  21
ENDBRANCH   9  10
ENDBRANCH   5   9
BRANCH   1  29
HETATM   29  C6  UNL     1       3.074   2.609  -0.630  1.00  0.00     0.175 C 
BRANCH  29  30
HETATM   30  O2  UNL     1       2.630   1.272  -0.618  1.00  0.00    -0.326 OA
BRANCH  30  31
HETATM   31  C5  UNL     1       3.271   0.460   0.338  1.00  0.00     0.270 C 
HETATM   32  C4  UNL     1       2.562  -0.875   0.357  1.00  0.00     0.241 C 
HETATM   33  C3  UNL     1       3.285  -1.845   1.268  1.00  0.00     0.220 C 
HETATM   34  O10 UNL     1       1.254  -0.707   0.849  1.00  0.00    -0.215 OA
HETATM   35  C2  UNL     1       4.772  -1.870   0.960  1.00  0.00     0.212 C 
HETATM   36  O11 UNL     1       3.058  -1.432   2.593  1.00  0.00    -0.218 OA
HETATM   37  C1  UNL     1       5.384  -0.492   0.725  1.00  0.00     0.151 C 
HETATM   38  O12 UNL     1       4.959  -2.652  -0.200  1.00  0.00    -0.218 OA
HETATM   39  O1  UNL     1       4.593   0.298  -0.120  1.00  0.00    -0.329 OA
HETATM   40  C28 UNL     1       5.771   0.255   2.004  1.00  0.00     0.035 C 
ENDBRANCH  30  31
ENDBRANCH  29  30
ENDBRANCH   1  29
TORSDOF 7
