REMARK  8 active torsions:
REMARK  status: ('A' for Active; 'I' for Inactive)
REMARK    1  A    between atoms: C5_5  and  O2_7 
REMARK    2  A    between atoms: O2_7  and  C6_8 
REMARK    3  A    between atoms: C6_8  and  C7_9 
REMARK    4  A    between atoms: C11_13  and  O4_15 
REMARK    5  A    between atoms: O4_15  and  C12_16 
REMARK    6  A    between atoms: C17_21  and  O5_22 
REMARK    7  A    between atoms: C20_26  and  C22_29 
REMARK    8  A    between atoms: C25_32  and  O8_35 
ROOT
HETATM    1  O4  UNL     1      -1.297   3.626  -1.351  1.00  0.00    -0.302 OA
ENDROOT
BRANCH   1   2
HETATM    2  C11 UNL     1       0.011   3.781  -1.838  1.00  0.00     0.274 C 
HETATM    3  C10 UNL     1       0.279   5.258  -2.025  1.00  0.00     0.241 C 
HETATM    4  C9  UNL     1       1.724   5.465  -2.432  1.00  0.00     0.220 C 
HETATM    5  O9  UNL     1      -0.566   5.763  -3.028  1.00  0.00    -0.215 OA
HETATM    6  C8  UNL     1       2.630   4.790  -1.417  1.00  0.00     0.215 C 
HETATM    7  O10 UNL     1       2.015   6.838  -2.480  1.00  0.00    -0.218 OA
HETATM    8  C7  UNL     1       2.217   3.332  -1.272  1.00  0.00     0.180 C 
HETATM    9  O11 UNL     1       3.954   4.897  -1.878  1.00  0.00    -0.218 OA
HETATM   10  O3  UNL     1       0.881   3.286  -0.848  1.00  0.00    -0.326 OA
BRANCH   8  11
HETATM   11  C6  UNL     1       3.046   2.535  -0.275  1.00  0.00     0.177 C 
BRANCH  11  12
HETATM   12  O2  UNL     1       2.650   1.188  -0.389  1.00  0.00    -0.326 OA
BRANCH  12  13
HETATM   13  C5  UNL     1       3.275   0.324   0.530  1.00  0.00     0.270 C 
HETATM   14  C4  UNL     1       2.571  -1.011   0.458  1.00  0.00     0.241 C 
HETATM   15  C3  UNL     1       3.281  -2.015   1.342  1.00  0.00     0.220 C 
HETATM   16  O12 UNL     1       1.245  -0.874   0.913  1.00  0.00    -0.215 OA
HETATM   17  C2  UNL     1       4.775  -2.022   1.063  1.00  0.00     0.212 C 
HETATM   18  O13 UNL     1       3.033  -1.661   2.681  1.00  0.00    -0.218 OA
HETATM   19  C1  UNL     1       5.388  -0.634   0.900  1.00  0.00     0.151 C 
HETATM   20  O14 UNL     1       4.991  -2.753  -0.125  1.00  0.00    -0.218 OA
HETATM   21  O1  UNL     1       4.606   0.194   0.085  1.00  0.00    -0.329 OA
HETATM   22  C29 UNL     1       5.768   0.056   2.212  1.00  0.00     0.035 C 
ENDBRANCH  12  13
ENDBRANCH  11  12
ENDBRANCH   8  11
ENDBRANCH   1   2
BRANCH   1  23
HETATM   23  C12 UNL     1      -1.778   2.430  -0.868  1.00  0.00     0.121 A 
HETATM   24  C13 UNL     1      -2.875   2.552  -0.003  1.00  0.00     0.026 A 
HETATM   25  C14 UNL     1      -3.474   1.464   0.620  1.00  0.00     0.007 A 
HETATM   26  C15 UNL     1      -2.918   0.201   0.424  1.00  0.00     0.064 A 
HETATM   27  C16 UNL     1      -1.801   0.023  -0.404  1.00  0.00     0.127 A 
HETATM   28  C21 UNL     1      -3.533  -0.981   1.070  1.00  0.00     0.200 C 
HETATM   29  C17 UNL     1      -1.271   1.126  -1.106  1.00  0.00     0.139 A 
HETATM   30  O6  UNL     1      -1.219  -1.206  -0.543  1.00  0.00    -0.303 OA
HETATM   31  C19 UNL     1      -1.960  -2.307  -0.232  1.00  0.00     0.126 C 
HETATM   32  C20 UNL     1      -3.057  -2.292   0.556  1.00  0.00     0.064 C 
HETATM   33  O7  UNL     1      -4.392  -0.882   1.942  1.00  0.00    -0.286 OA
BRANCH  29  34
HETATM   34  O5  UNL     1      -0.157   0.903  -1.873  1.00  0.00    -0.324 OA
HETATM   35  C18 UNL     1      -0.433   0.471  -3.187  1.00  0.00     0.182 C 
ENDBRANCH  29  34
BRANCH  32  36
HETATM   36  C22 UNL     1      -3.847  -3.514   0.846  1.00  0.00     0.005 C 
HETATM   37  C23 UNL     1      -3.235  -4.758   1.044  1.00  0.00     0.002 C 
HETATM   38  C24 UNL     1      -3.997  -5.896   1.320  1.00  0.00     0.024 C 
HETATM   39  C25 UNL     1      -5.388  -5.842   1.477  1.00  0.00     0.094 C 
HETATM   40  C26 UNL     1      -5.995  -4.630   1.118  1.00  0.00     0.024 C 
HETATM   41  C27 UNL     1      -5.249  -3.483   0.847  1.00  0.00     0.002 C 
BRANCH  39  42
HETATM   42  O8  UNL     1      -6.129  -6.979   1.663  1.00  0.00    -0.328 OA
HETATM   43  C28 UNL     1      -6.385  -7.265   3.019  1.00  0.00     0.181 C 
ENDBRANCH  39  42
ENDBRANCH  32  36
ENDBRANCH   1  23
TORSDOF 8
