REMARK  1 active torsions:
REMARK  status: ('A' for Active; 'I' for Inactive)
REMARK    1  A    between atoms: C15_15  and  C18_20 
ROOT
HETATM    1  C1  UNL     1      -4.178  -0.711   2.017  1.00  0.00     0.033 C 
HETATM    2  C2  UNL     1      -4.164  -2.236   1.994  1.00  0.00     0.155 C 
HETATM    3  C3  UNL     1      -3.427  -2.785   0.774  1.00  0.00     0.063 C 
HETATM    4  C4  UNL     1      -2.026  -2.173   0.608  1.00  0.00     0.129 C 
HETATM    5  C5  UNL     1      -2.062  -0.627   0.514  1.00  0.00     0.026 C 
HETATM    6  C6  UNL     1      -2.786  -0.100   1.780  1.00  0.00     0.005 C 
HETATM    7  C7  UNL     1      -0.624  -0.030   0.306  1.00  0.00     0.005 C 
HETATM    8  C8  UNL     1       0.488  -1.076   0.075  1.00  0.00     0.028 C 
HETATM    9  C9  UNL     1       0.012  -2.110  -0.959  1.00  0.00     0.005 C 
HETATM   10  C10 UNL     1      -1.312  -2.800  -0.592  1.00  0.00     0.031 C 
HETATM   11  C11 UNL     1       1.839  -0.434  -0.221  1.00  0.00     0.120 A 
HETATM   12  C12 UNL     1       2.281   0.875   0.435  1.00  0.00     0.032 C 
HETATM   13  C13 UNL     1       1.078   1.776   0.799  1.00  0.00     0.003 C 
HETATM   14  C14 UNL     1      -0.128   0.993   1.349  1.00  0.00     0.000 C 
HETATM   15  C15 UNL     1       3.227   1.510  -0.631  1.00  0.00     0.060 C 
HETATM   16  C16 UNL     1       3.731   0.327  -1.479  1.00  0.00     0.185 C 
HETATM   17  C17 UNL     1       2.708  -0.787  -1.311  1.00  0.00     0.170 A 
HETATM   18  O1  UNL     1       2.974  -1.566  -0.174  1.00  0.00    -0.354 OA
HETATM   19  O2  UNL     1       5.040  -0.050  -1.091  1.00  0.00    -0.220 OA
HETATM   20  C23 UNL     1       3.071   0.613   1.741  1.00  0.00     0.003 C 
HETATM   21  C24 UNL     1      -2.897  -0.161  -0.714  1.00  0.00     0.002 C 
HETATM   22  O5  UNL     1      -1.316  -2.559   1.762  1.00  0.00    -0.226 OA
HETATM   23  O6  UNL     1      -3.565  -2.717   3.176  1.00  0.00    -0.223 OA
ENDROOT
BRANCH  15  24
HETATM   24  C18 UNL     1       2.570   2.536  -1.546  1.00  0.00     0.005 A 
HETATM   25  C19 UNL     1       2.937   3.839  -1.497  1.00  0.00     0.122 A 
HETATM   26  O3  UNL     1       2.408   4.828  -2.274  1.00  0.00    -0.271 OA
HETATM   27  C20 UNL     1       1.421   4.478  -3.145  1.00  0.00     0.300 A 
HETATM   28  C21 UNL     1       0.956   3.081  -3.276  1.00  0.00     0.068 A 
HETATM   29  O4  UNL     1       0.890   5.330  -3.854  1.00  0.00    -0.259 OA
HETATM   30  C22 UNL     1       1.529   2.142  -2.494  1.00  0.00     0.003 A 
ENDBRANCH  15  24
TORSDOF 1
