REMARK  9 active torsions:
REMARK  status: ('A' for Active; 'I' for Inactive)
REMARK    1  A    between atoms: C10_11  and  C25_32 
REMARK    2  A    between atoms: C11_12  and  O6_30 
REMARK    3  A    between atoms: C12_13  and  O1_15 
REMARK    4  A    between atoms: O1_15  and  C14_16 
REMARK    5  A    between atoms: C14_16  and  C15_17 
REMARK    6  A    between atoms: C17_19  and  O4_27 
REMARK    7  A    between atoms: C18_20  and  O3_25 
REMARK    8  A    between atoms: C19_21  and  O2_23 
REMARK    9  A    between atoms: C25_32  and  O7_33 
ROOT
HETATM    1  C1  UNL     1      -5.461   0.843  -1.666  1.00  0.00    -0.017 C 
HETATM    2  C2  UNL     1      -4.642  -0.309  -2.266  1.00  0.00     0.153 C 
HETATM    3  C3  UNL     1      -3.307  -0.177  -1.498  1.00  0.00     0.245 C 
HETATM    4  N1  UNL     1      -2.678   1.110  -1.789  1.00  0.00     0.138 N 
HETATM    5  C4  UNL     1      -3.452   2.203  -1.205  1.00  0.00     0.255 C 
HETATM    6  C5  UNL     1      -4.899   2.232  -1.718  1.00  0.00     0.059 C 
HETATM    7  C6  UNL     1      -1.296   1.181  -1.328  1.00  0.00     0.250 C 
HETATM    8  C7  UNL     1      -0.418   0.048  -1.881  1.00  0.00     0.036 C 
HETATM    9  C8  UNL     1      -0.991  -1.338  -1.560  1.00  0.00     0.016 C 
HETATM   10  C9  UNL     1      -2.459  -1.359  -2.007  1.00  0.00     0.036 C 
HETATM   11  C10 UNL     1      -0.696  -1.885  -0.143  1.00  0.00     0.116 C 
HETATM   12  C11 UNL     1       0.806  -1.736   0.207  1.00  0.00     0.152 C 
HETATM   13  C12 UNL     1       1.399  -0.349  -0.082  1.00  0.00     0.152 C 
HETATM   14  C13 UNL     1       1.069   0.133  -1.496  1.00  0.00     0.035 C 
HETATM   15  N2  UNL     1      -5.647  -1.688  -1.291  1.00  0.00    -0.267 NA
HETATM   16  C27 UNL     1      -6.759  -1.049  -0.683  1.00  0.00     0.071 A 
HETATM   17  C28 UNL     1      -6.692   0.411  -0.911  1.00  0.00     0.007 A 
HETATM   18  C29 UNL     1      -7.701   1.220  -0.501  1.00  0.00    -0.025 A 
HETATM   19  C30 UNL     1      -8.902   0.635   0.182  1.00  0.00     0.031 A 
HETATM   20  C31 UNL     1      -8.899  -0.842   0.515  1.00  0.00     0.032 A 
HETATM   21  C32 UNL     1      -7.765  -1.664  -0.012  1.00  0.00    -0.007 A 
ENDROOT
BRANCH  13  22
HETATM   22  O1  UNL     1       0.983   0.595   0.860  1.00  0.00    -0.298 OA
BRANCH  22  23
HETATM   23  C14 UNL     1       1.858   1.379   1.569  1.00  0.00     0.296 C 
HETATM   24  O5  UNL     1       1.388   2.109   2.440  1.00  0.00    -0.259 OA
BRANCH  23  25
HETATM   25  C15 UNL     1       3.352   1.470   1.433  1.00  0.00     0.067 C 
HETATM   26  C16 UNL     1       4.128   1.701   2.571  1.00  0.00     0.032 C 
HETATM   27  C17 UNL     1       5.517   1.867   2.501  1.00  0.00     0.118 C 
HETATM   28  C18 UNL     1       6.174   1.538   1.299  1.00  0.00     0.138 C 
HETATM   29  C19 UNL     1       5.415   1.343   0.126  1.00  0.00     0.118 C 
HETATM   30  C20 UNL     1       4.020   1.396   0.207  1.00  0.00     0.032 C 
BRANCH  27  31
HETATM   31  O4  UNL     1       6.234   2.073   3.652  1.00  0.00    -0.326 OA
HETATM   32  C23 UNL     1       6.527   3.430   3.896  1.00  0.00     0.181 C 
ENDBRANCH  27  31
BRANCH  28  33
HETATM   33  O3  UNL     1       7.541   1.654   1.220  1.00  0.00    -0.324 OA
HETATM   34  C22 UNL     1       8.242   0.504   1.640  1.00  0.00     0.182 C 
ENDBRANCH  28  33
BRANCH  29  35
HETATM   35  O2  UNL     1       6.020   1.285  -1.105  1.00  0.00    -0.326 OA
HETATM   36  C21 UNL     1       6.094  -0.019  -1.637  1.00  0.00     0.181 C 
ENDBRANCH  29  35
ENDBRANCH  23  25
ENDBRANCH  22  23
ENDBRANCH  13  22
BRANCH  12  37
HETATM   37  O6  UNL     1       1.489  -2.732  -0.524  1.00  0.00    -0.351 OA
HETATM   38  C24 UNL     1       2.798  -3.024  -0.079  1.00  0.00     0.174 C 
ENDBRANCH  12  37
BRANCH  11  39
HETATM   39  C25 UNL     1      -1.616  -1.420   0.992  1.00  0.00     0.274 C 
HETATM   40  O8  UNL     1      -1.501  -0.317   1.480  1.00  0.00    -0.264 OA
BRANCH  39  41
HETATM   41  O7  UNL     1      -2.575  -2.273   1.464  1.00  0.00    -0.299 OA
HETATM   42  C26 UNL     1      -2.703  -3.616   1.067  1.00  0.00     0.184 C 
ENDBRANCH  39  41
ENDBRANCH  11  39
TORSDOF 9
