REMARK  13 active torsions:
REMARK  status: ('A' for Active; 'I' for Inactive)
REMARK    1  A    between atoms: C1_1  and  C28_31 
REMARK    2  A    between atoms: C6_6  and  C7_7 
REMARK    3  A    between atoms: C7_7  and  C8_8 
REMARK    4  A    between atoms: C8_8  and  C9_9 
REMARK    5  A    between atoms: C10_10  and  C11_11 
REMARK    6  A    between atoms: C11_11  and  C12_12 
REMARK    7  A    between atoms: C12_12  and  C13_13 
REMARK    8  A    between atoms: C14_14  and  C15_15 
REMARK    9  A    between atoms: C15_15  and  C16_16 
REMARK   10  A    between atoms: C16_16  and  C17_17 
REMARK   11  A    between atoms: C25_27  and  C26_28 
REMARK   12  A    between atoms: C28_31  and  C29_32 
REMARK   13  A    between atoms: C29_32  and  C30_33 
ROOT
HETATM    1  C7  UNL     1       1.980  -1.127  -0.734  1.00  0.00     0.005 C 
ENDROOT
BRANCH   1   2
HETATM    2  C6  UNL     1       2.883  -2.209  -1.379  1.00  0.00     0.004 C 
HETATM    3  C1  UNL     1       2.019  -3.409  -1.882  1.00  0.00     0.018 C 
HETATM    4  C2  UNL     1       2.969  -4.349  -2.588  1.00  0.00    -0.045 C 
HETATM    5  C3  UNL     1       3.682  -3.763  -3.779  1.00  0.00     0.022 C 
HETATM    6  C25 UNL     1       2.925  -5.723  -2.477  1.00  0.00     0.013 C 
HETATM    7  C4  UNL     1       4.517  -2.563  -3.320  1.00  0.00     0.004 C 
HETATM    8  C5  UNL     1       3.630  -1.549  -2.575  1.00  0.00     0.001 C 
HETATM    9  C24 UNL     1       2.700  -0.809  -3.564  1.00  0.00     0.000 C 
HETATM   10  C27 UNL     1       1.758  -6.559  -2.910  1.00  0.00     0.034 C 
HETATM   11  C23 UNL     1       3.946  -2.728  -0.366  1.00  0.00     0.000 C 
BRANCH   3  12
HETATM   12  C28 UNL     1       1.239  -4.062  -0.719  1.00  0.00     0.007 C 
BRANCH  12  13
HETATM   13  C29 UNL     1      -0.282  -3.974  -0.873  1.00  0.00     0.036 C 
BRANCH  13  14
HETATM   14  C30 UNL     1      -0.950  -4.624   0.332  1.00  0.00     0.182 C 
HETATM   15  O4  UNL     1      -2.345  -4.519   0.171  1.00  0.00    -0.221 OA
ENDBRANCH  13  14
ENDBRANCH  12  13
ENDBRANCH   3  12
BRANCH   6  16
HETATM   16  C26 UNL     1       3.928  -6.300  -1.608  1.00  0.00     0.229 C 
HETATM   17  O3  UNL     1       4.895  -5.696  -1.136  1.00  0.00    -0.283 OA
ENDBRANCH   6  16
ENDBRANCH   1   2
BRANCH   1  18
HETATM   18  C8  UNL     1       2.272  -0.923   0.748  1.00  0.00     0.025 C 
BRANCH  18  19
HETATM   19  C9  UNL     1       1.380   0.093   1.370  1.00  0.00    -0.035 C 
HETATM   20  C10 UNL     1       1.487   0.422   2.655  1.00  0.00    -0.048 C 
HETATM   21  C22 UNL     1       2.522  -0.233   3.542  1.00  0.00     0.026 C 
BRANCH  20  22
HETATM   22  C11 UNL     1       0.596   1.460   3.293  1.00  0.00     0.026 C 
BRANCH  22  23
HETATM   23  C12 UNL     1      -0.383   2.027   2.266  1.00  0.00     0.030 C 
BRANCH  23  24
HETATM   24  C13 UNL     1      -1.304   3.080   2.779  1.00  0.00    -0.034 C 
HETATM   25  C14 UNL     1      -2.192   3.674   1.948  1.00  0.00    -0.045 C 
HETATM   26  C21 UNL     1      -2.238   3.248   0.493  1.00  0.00     0.026 C 
BRANCH  25  27
HETATM   27  C15 UNL     1      -3.117   4.711   2.527  1.00  0.00     0.057 C 
BRANCH  27  28
HETATM   28  C16 UNL     1      -4.135   5.263   1.537  1.00  0.00     0.185 C 
HETATM   29  O2  UNL     1      -4.921   4.171   1.093  1.00  0.00    -0.220 OA
BRANCH  28  30
HETATM   30  C17 UNL     1      -5.098   6.287   2.116  1.00  0.00     0.170 A 
HETATM   31  C18 UNL     1      -5.791   7.230   1.272  1.00  0.00     0.120 A 
HETATM   32  C19 UNL     1      -7.107   7.789   1.779  1.00  0.00     0.032 C 
HETATM   33  O1  UNL     1      -4.521   7.566   2.188  1.00  0.00    -0.354 OA
HETATM   34  C20 UNL     1      -5.567   7.349  -0.231  1.00  0.00     0.032 C 
ENDBRANCH  28  30
ENDBRANCH  27  28
ENDBRANCH  25  27
ENDBRANCH  23  24
ENDBRANCH  22  23
ENDBRANCH  20  22
ENDBRANCH  18  19
ENDBRANCH   1  18
TORSDOF 13
