REMARK  0 active torsions:
REMARK  status: ('A' for Active; 'I' for Inactive)
ROOT
HETATM    1  C1  UNL     1      -3.059  -1.542   0.210  1.00  0.00    -0.002 A 
HETATM    2  C2  UNL     1      -4.218  -2.322   0.270  1.00  0.00    -0.000 A 
HETATM    3  C3  UNL     1      -4.185  -3.691  -0.028  1.00  0.00     0.002 A 
HETATM    4  C4  UNL     1      -2.989  -4.304  -0.405  1.00  0.00     0.019 A 
HETATM    5  C5  UNL     1      -1.842  -3.509  -0.460  1.00  0.00     0.081 A 
HETATM    6  C6  UNL     1      -1.853  -2.147  -0.147  1.00  0.00     0.006 A 
HETATM    7  C7  UNL     1      -0.478  -1.506  -0.270  1.00  0.00     0.120 A 
HETATM    8  C8  UNL     1       0.277  -2.766  -0.753  1.00  0.00     0.261 A 
HETATM    9  N1  UNL     1      -0.539  -3.862  -0.816  1.00  0.00    -0.212 NA
HETATM   10  O1  UNL     1       1.470  -2.817  -1.046  1.00  0.00    -0.270 OA
HETATM   11  C9  UNL     1       0.108  -1.155   1.234  1.00  0.00     0.128 C 
HETATM   12  C10 UNL     1       1.602  -0.578   1.601  1.00  0.00     0.035 C 
HETATM   13  C11 UNL     1       2.241   0.503   0.608  1.00  0.00     0.027 C 
HETATM   14  C12 UNL     1       2.175   2.018   0.447  1.00  0.00    -0.016 C 
HETATM   15  C13 UNL     1       2.335   2.802   1.528  1.00  0.00    -0.032 C 
HETATM   16  C14 UNL     1       2.329   4.305   1.587  1.00  0.00     0.030 C 
HETATM   17  C15 UNL     1       2.009   2.518  -1.026  1.00  0.00     0.272 C 
HETATM   18  N2  UNL     1       0.809   2.023  -1.769  1.00  0.00     0.141 N 
HETATM   19  C16 UNL     1       0.696   0.584  -1.576  1.00  0.00     0.223 C 
HETATM   20  C17 UNL     1      -0.549  -0.397  -1.494  1.00  0.00     0.049 C 
HETATM   21  C18 UNL     1       0.933   0.464  -0.113  1.00  0.00     0.065 C 
HETATM   22  C19 UNL     1      -0.269   0.921   0.803  1.00  0.00     0.144 C 
HETATM   23  O2  UNL     1      -0.682  -0.105   1.654  1.00  0.00    -0.356 OA
HETATM   24  C20 UNL     1      -0.352   2.858  -1.530  1.00  0.00     0.286 C 
ENDROOT
TORSDOF 0
