REMARK  1 active torsions:
REMARK  status: ('A' for Active; 'I' for Inactive)
REMARK    1  A    between atoms: C8_9  and  C10_11 
ROOT
HETATM    1  C1  UNL     1      -3.227  -0.117   0.653  1.00  0.00     0.099 C 
HETATM    2  C2  UNL     1      -3.408  -1.415  -0.139  1.00  0.00     0.033 C 
HETATM    3  C3  UNL     1      -2.175  -2.312  -0.015  1.00  0.00     0.031 C 
HETATM    4  C4  UNL     1      -0.922  -1.486  -0.154  1.00  0.00    -0.000 A 
HETATM    5  C5  UNL     1      -0.975  -0.089  -0.087  1.00  0.00     0.086 A 
HETATM    6  O1  UNL     1      -2.141   0.593   0.148  1.00  0.00    -0.336 OA
HETATM    7  C6  UNL     1       0.231   0.634  -0.202  1.00  0.00     0.001 A 
HETATM    8  C7  UNL     1       1.464  -0.003  -0.406  1.00  0.00    -0.017 A 
HETATM    9  C8  UNL     1       1.484  -1.407  -0.500  1.00  0.00     0.031 A 
HETATM   10  C9  UNL     1       0.296  -2.130  -0.375  1.00  0.00     0.000 A 
HETATM   11  C12 UNL     1       2.725   0.810  -0.578  1.00  0.00     0.048 C 
HETATM   12  C13 UNL     1       2.540   2.285  -0.791  1.00  0.00    -0.043 C 
HETATM   13  C14 UNL     1       1.361   2.881  -0.566  1.00  0.00    -0.029 C 
HETATM   14  C15 UNL     1       0.141   2.142  -0.108  1.00  0.00     0.053 C 
HETATM   15  C16 UNL     1       3.764   3.065  -1.205  1.00  0.00     0.026 C 
HETATM   16  C17 UNL     1      -4.468   0.767   0.458  1.00  0.00     0.030 C 
HETATM   17  C18 UNL     1      -3.025  -0.362   2.154  1.00  0.00     0.030 C 
ENDROOT
BRANCH   9  18
HETATM   18  C10 UNL     1       2.731  -2.211  -0.716  1.00  0.00     0.173 C 
HETATM   19  C11 UNL     1       3.974  -1.928   0.105  1.00  0.00     0.077 C 
HETATM   20  O2  UNL     1       2.720  -3.181  -1.464  1.00  0.00    -0.291 OA
ENDBRANCH   9  18
TORSDOF 1
