REMARK  4 active torsions:
REMARK  status: ('A' for Active; 'I' for Inactive)
REMARK    1  A    between atoms: C1_1  and  C14_21 
REMARK    2  A    between atoms: C5_5  and  O2_7 
REMARK    3  A    between atoms: O2_7  and  C6_8 
REMARK    4  A    between atoms: C6_8  and  C8_11 
ROOT
HETATM    1  C6  UNL     1      -2.116   1.424  -0.422  1.00  0.00     0.230 C 
HETATM    2  C7  UNL     1      -2.925   2.184  -1.405  1.00  0.00     0.108 C 
HETATM    3  N1  UNL     1      -3.574   2.780  -2.159  1.00  0.00    -0.193 NA
ENDROOT
BRANCH   1   4
HETATM    4  O2  UNL     1      -1.965   0.083  -0.870  1.00  0.00    -0.312 OA
BRANCH   4   5
HETATM    5  C5  UNL     1      -1.220  -0.740   0.003  1.00  0.00     0.271 C 
HETATM    6  C4  UNL     1      -1.618  -2.180  -0.223  1.00  0.00     0.241 C 
HETATM    7  C3  UNL     1      -0.725  -3.069   0.615  1.00  0.00     0.220 C 
HETATM    8  O4  UNL     1      -2.952  -2.374   0.174  1.00  0.00    -0.215 OA
HETATM    9  C2  UNL     1       0.719  -2.788   0.253  1.00  0.00     0.215 C 
HETATM   10  O5  UNL     1      -1.018  -4.418   0.358  1.00  0.00    -0.218 OA
HETATM   11  C1  UNL     1       1.017  -1.302   0.413  1.00  0.00     0.184 C 
HETATM   12  O6  UNL     1       1.536  -3.558   1.099  1.00  0.00    -0.218 OA
HETATM   13  O1  UNL     1       0.127  -0.559  -0.375  1.00  0.00    -0.326 OA
BRANCH  11  14
HETATM   14  C14 UNL     1       2.436  -0.955  -0.013  1.00  0.00     0.214 C 
HETATM   15  O7  UNL     1       2.669   0.422   0.208  1.00  0.00    -0.218 OA
ENDBRANCH  11  14
ENDBRANCH   4   5
ENDBRANCH   1   4
BRANCH   1  16
HETATM   16  C8  UNL     1      -0.797   2.129  -0.188  1.00  0.00     0.019 A 
HETATM   17  C9  UNL     1      -0.386   2.484   1.101  1.00  0.00     0.001 A 
HETATM   18  C10 UNL     1       0.849   3.099   1.315  1.00  0.00     0.027 A 
HETATM   19  C11 UNL     1       1.713   3.384   0.254  1.00  0.00     0.131 A 
HETATM   20  C12 UNL     1       1.299   3.025  -1.033  1.00  0.00     0.027 A 
HETATM   21  O3  UNL     1       2.923   3.967   0.458  1.00  0.00    -0.190 OA
HETATM   22  C13 UNL     1       0.066   2.409  -1.253  1.00  0.00     0.001 A 
ENDBRANCH   1  16
TORSDOF 4
