REMARK  11 active torsions:
REMARK  status: ('A' for Active; 'I' for Inactive)
REMARK    1  A    between atoms: C1_1  and  O9_34 
REMARK    2  A    between atoms: C3_3  and  O7_31 
REMARK    3  A    between atoms: C5_5  and  C7_7 
REMARK    4  A    between atoms: C7_7  and  C8_8 
REMARK    5  A    between atoms: C8_8  and  C9_9 
REMARK    6  A    between atoms: C9_9  and  C10_10 
REMARK    7  A    between atoms: C9_9  and  O5_27 
REMARK    8  A    between atoms: C10_10  and  C11_11 
REMARK    9  A    between atoms: C13_13  and  C14_14 
REMARK   10  A    between atoms: C16_16  and  O2_21 
REMARK   11  A    between atoms: O5_27  and  C23_28 
ROOT
HETATM    1  C9  UNL     1       0.863   1.668  -0.660  1.00  0.00     0.127 C 
ENDROOT
BRANCH   1   2
HETATM    2  C8  UNL     1       2.380   1.457  -0.531  1.00  0.00     0.035 C 
BRANCH   2   3
HETATM    3  C7  UNL     1       2.844   0.062  -0.983  1.00  0.00     0.029 C 
BRANCH   3   4
HETATM    4  C5  UNL     1       4.332  -0.199  -0.834  1.00  0.00    -0.018 A 
HETATM    5  C4  UNL     1       4.790  -1.450  -0.409  1.00  0.00     0.022 A 
HETATM    6  C3  UNL     1       6.153  -1.740  -0.261  1.00  0.00     0.121 A 
HETATM    7  C2  UNL     1       7.074  -0.725  -0.568  1.00  0.00     0.175 A 
HETATM    8  C1  UNL     1       6.668   0.545  -1.010  1.00  0.00     0.121 A 
HETATM    9  O8  UNL     1       8.402  -0.997  -0.436  1.00  0.00    -0.186 OA
HETATM   10  C6  UNL     1       5.290   0.773  -1.134  1.00  0.00     0.022 A 
BRANCH   6  11
HETATM   11  O7  UNL     1       6.657  -2.953   0.138  1.00  0.00    -0.326 OA
HETATM   12  C25 UNL     1       5.767  -4.026   0.341  1.00  0.00     0.181 C 
ENDBRANCH   6  11
BRANCH   8  13
HETATM   13  O9  UNL     1       7.641   1.477  -1.279  1.00  0.00    -0.326 OA
HETATM   14  C26 UNL     1       7.250   2.785  -1.627  1.00  0.00     0.181 C 
ENDBRANCH   8  13
ENDBRANCH   3   4
ENDBRANCH   2   3
ENDBRANCH   1   2
BRANCH   1  15
HETATM   15  C10 UNL     1       0.050   0.934   0.422  1.00  0.00     0.060 C 
BRANCH  15  16
HETATM   16  C11 UNL     1      -1.031  -0.016  -0.121  1.00  0.00     0.127 C 
HETATM   17  C12 UNL     1      -2.250  -0.039   0.793  1.00  0.00     0.035 C 
HETATM   18  C13 UNL     1      -3.242  -1.070   0.259  1.00  0.00     0.035 C 
HETATM   19  C21 UNL     1      -2.540  -2.421   0.386  1.00  0.00     0.100 C 
HETATM   20  C22 UNL     1      -1.122  -2.459  -0.165  1.00  0.00     0.272 C 
HETATM   21  O3  UNL     1      -0.473  -1.276  -0.354  1.00  0.00    -0.304 OA
HETATM   22  O4  UNL     1      -0.587  -3.523  -0.399  1.00  0.00    -0.264 OA
BRANCH  18  23
HETATM   23  C14 UNL     1      -4.576  -0.975   0.975  1.00  0.00    -0.020 C 
HETATM   24  C15 UNL     1      -5.733  -0.594   0.284  1.00  0.00     0.022 C 
HETATM   25  C16 UNL     1      -6.983  -0.457   0.902  1.00  0.00     0.119 C 
HETATM   26  C17 UNL     1      -7.039  -0.563   2.299  1.00  0.00     0.153 C 
HETATM   27  C18 UNL     1      -5.898  -0.955   3.004  1.00  0.00     0.029 C 
HETATM   28  O1  UNL     1      -8.209  -0.297   2.939  1.00  0.00    -0.188 OA
HETATM   29  C19 UNL     1      -4.684  -1.175   2.354  1.00  0.00    -0.002 C 
BRANCH  25  30
HETATM   30  O2  UNL     1      -8.071   0.004   0.210  1.00  0.00    -0.326 OA
HETATM   31  C20 UNL     1      -8.888  -1.022  -0.307  1.00  0.00     0.181 C 
ENDBRANCH  25  30
ENDBRANCH  18  23
ENDBRANCH  15  16
ENDBRANCH   1  15
BRANCH   1  32
HETATM   32  O5  UNL     1       0.633   3.051  -0.592  1.00  0.00    -0.304 OA
BRANCH  32  33
HETATM   33  C23 UNL     1      -0.595   3.519  -0.942  1.00  0.00     0.272 C 
HETATM   34  C24 UNL     1      -0.663   5.019  -0.733  1.00  0.00     0.106 C 
HETATM   35  O6  UNL     1      -1.512   2.844  -1.351  1.00  0.00    -0.264 OA
ENDBRANCH  32  33
ENDBRANCH   1  32
TORSDOF 11
