REMARK  6 active torsions:
REMARK  status: ('A' for Active; 'I' for Inactive)
REMARK    1  A    between atoms: C9_10  and  C11_13 
REMARK    2  A    between atoms: C11_13  and  C12_15 
REMARK    3  A    between atoms: C11_13  and  O6_20 
REMARK    4  A    between atoms: C12_15  and  O4_16 
REMARK    5  A    between atoms: O4_16  and  C13_17 
REMARK    6  A    between atoms: O6_20  and  C15_21 
ROOT
HETATM    1  C1  UNL     1       0.741  -2.663   3.182  1.00  0.00     0.035 C 
HETATM    2  C2  UNL     1      -0.703  -2.446   2.727  1.00  0.00     0.033 C 
HETATM    3  C3  UNL     1      -0.992  -1.064   2.109  1.00  0.00     0.129 C 
HETATM    4  C4  UNL     1       0.273  -0.370   1.493  1.00  0.00     0.057 C 
HETATM    5  C5  UNL     1       1.284  -1.435   0.949  1.00  0.00     0.033 C 
HETATM    6  C6  UNL     1       1.783  -2.329   2.110  1.00  0.00     0.152 C 
HETATM    7  O1  UNL     1       2.330  -3.528   1.611  1.00  0.00    -0.224 OA
HETATM    8  C7  UNL     1       2.507  -0.714   0.318  1.00  0.00     0.003 C 
HETATM    9  C8  UNL     1       2.119   0.275  -0.789  1.00  0.00     0.008 C 
HETATM   10  C9  UNL     1       1.032   1.297  -0.390  1.00  0.00     0.088 C 
HETATM   11  C10 UNL     1      -0.127   0.616   0.362  1.00  0.00     0.159 C 
HETATM   12  O2  UNL     1      -0.978   1.585   0.935  1.00  0.00    -0.223 OA
HETATM   13  C17 UNL     1       0.696  -2.333  -0.175  1.00  0.00     0.003 C 
HETATM   14  C18 UNL     1       0.967   0.495   2.599  1.00  0.00     0.005 C 
HETATM   15  C19 UNL     1      -2.206  -1.238   1.174  1.00  0.00     0.033 C 
HETATM   16  O8  UNL     1      -1.480  -0.245   3.145  1.00  0.00    -0.226 OA
ENDROOT
BRANCH  10  17
HETATM   17  C11 UNL     1       0.706   2.257  -1.560  1.00  0.00     0.256 C 
HETATM   18  O3  UNL     1       1.793   3.176  -1.642  1.00  0.00    -0.192 OA
BRANCH  17  19
HETATM   19  C12 UNL     1      -0.551   3.115  -1.491  1.00  0.00     0.211 C 
BRANCH  19  20
HETATM   20  O4  UNL     1      -1.701   2.328  -1.633  1.00  0.00    -0.296 OA
BRANCH  20  21
HETATM   21  C13 UNL     1      -2.910   2.941  -1.550  1.00  0.00     0.273 C 
HETATM   22  C14 UNL     1      -4.018   1.909  -1.605  1.00  0.00     0.106 C 
HETATM   23  O5  UNL     1      -3.074   4.132  -1.413  1.00  0.00    -0.264 OA
ENDBRANCH  20  21
ENDBRANCH  19  20
ENDBRANCH  17  19
BRANCH  17  24
HETATM   24  O6  UNL     1       0.890   1.730  -2.853  1.00  0.00    -0.275 OA
BRANCH  24  25
HETATM   25  C15 UNL     1       0.166   0.678  -3.318  1.00  0.00     0.274 C 
HETATM   26  C16 UNL     1       0.654   0.290  -4.699  1.00  0.00     0.106 C 
HETATM   27  O7  UNL     1      -0.721   0.109  -2.726  1.00  0.00    -0.264 OA
ENDBRANCH  24  25
ENDBRANCH  17  24
ENDBRANCH  10  17
TORSDOF 6
