REMARK  4 active torsions:
REMARK  status: ('A' for Active; 'I' for Inactive)
REMARK    1  A    between atoms: C2_2  and  O6_28 
REMARK    2  A    between atoms: C5_5  and  O3_17 
REMARK    3  A    between atoms: O3_17  and  C15_18 
REMARK    4  A    between atoms: O6_28  and  C23_29 
ROOT
HETATM    1  C1  UNL     1      -0.944   1.734   1.304  1.00  0.00     0.198 C 
HETATM    2  C2  UNL     1       0.215   2.001   0.331  1.00  0.00     0.162 C 
HETATM    3  C3  UNL     1       1.541   1.194   0.399  1.00  0.00     0.049 C 
HETATM    4  C4  UNL     1       1.480  -0.326   0.002  1.00  0.00    -0.001 C 
HETATM    5  C5  UNL     1       0.281  -1.327  -0.125  1.00  0.00     0.104 C 
HETATM    6  C6  UNL     1      -0.638  -1.841   1.027  1.00  0.00     0.172 C 
HETATM    7  C7  UNL     1      -1.001  -0.790   2.090  1.00  0.00     0.049 C 
HETATM    8  C8  UNL     1      -1.550   0.350   1.233  1.00  0.00    -0.015 C 
HETATM    9  C9  UNL     1      -2.547   0.052   0.362  1.00  0.00    -0.019 C 
HETATM   10  C10 UNL     1      -3.005  -1.383   0.123  1.00  0.00     0.173 C 
HETATM   11  C11 UNL     1      -1.959  -2.439   0.500  1.00  0.00     0.074 C 
HETATM   12  O1  UNL     1      -3.383  -1.602  -1.230  1.00  0.00    -0.219 OA
HETATM   13  C12 UNL     1      -3.313   1.045  -0.490  1.00  0.00     0.028 C 
HETATM   14  C13 UNL     1      -2.113  -1.187   3.101  1.00  0.00     0.007 C 
HETATM   15  C14 UNL     1       0.219  -0.621   3.020  1.00  0.00     0.007 C 
HETATM   16  O2  UNL     1       0.007  -2.921   1.660  1.00  0.00    -0.219 OA
HETATM   17  C17 UNL     1       2.861  -0.955   0.093  1.00  0.00     0.005 C 
HETATM   18  C18 UNL     1       3.880  -0.356  -0.854  1.00  0.00     0.174 C 
HETATM   19  C19 UNL     1       3.934   1.165  -0.695  1.00  0.00     0.038 C 
HETATM   20  C20 UNL     1       2.543   1.832  -0.651  1.00  0.00     0.009 C 
HETATM   21  O5  UNL     1       3.549  -0.694  -2.194  1.00  0.00    -0.219 OA
HETATM   22  C21 UNL     1       3.185  -1.946   0.935  1.00  0.00    -0.002 C 
HETATM   23  C22 UNL     1       2.271   1.505   1.738  1.00  0.00     0.007 C 
HETATM   24  O8  UNL     1      -0.665   2.139   2.627  1.00  0.00    -0.216 OA
ENDROOT
BRANCH   2  25
HETATM   25  O6  UNL     1      -0.289   1.941  -0.980  1.00  0.00    -0.301 OA
BRANCH  25  26
HETATM   26  C23 UNL     1      -0.431   3.092  -1.695  1.00  0.00     0.272 C 
HETATM   27  C24 UNL     1      -0.852   2.780  -3.116  1.00  0.00     0.106 C 
HETATM   28  O7  UNL     1      -0.230   4.212  -1.280  1.00  0.00    -0.264 OA
ENDBRANCH  25  26
ENDBRANCH   2  25
BRANCH   5  29
HETATM   29  O3  UNL     1      -0.507  -0.997  -1.248  1.00  0.00    -0.279 OA
BRANCH  29  30
HETATM   30  C15 UNL     1      -0.031  -1.282  -2.496  1.00  0.00     0.277 C 
HETATM   31  C16 UNL     1      -1.052  -0.920  -3.554  1.00  0.00     0.107 C 
HETATM   32  O4  UNL     1       1.050  -1.774  -2.734  1.00  0.00    -0.264 OA
ENDBRANCH  29  30
ENDBRANCH   5  29
TORSDOF 4
