REMARK  6 active torsions:
REMARK  status: ('A' for Active; 'I' for Inactive)
REMARK    1  A    between atoms: C1_1  and  O8_26 
REMARK    2  A    between atoms: C4_4  and  C9_11 
REMARK    3  A    between atoms: C6_6  and  C7_7 
REMARK    4  A    between atoms: C9_11  and  C10_12 
REMARK    5  A    between atoms: C12_15  and  C17_22 
REMARK    6  A    between atoms: C13_16  and  O5_20 
ROOT
HETATM    1  C9  UNL     1       0.965  -1.836   0.635  1.00  0.00     0.061 C 
ENDROOT
BRANCH   1   2
HETATM    2  C4  UNL     1       1.978  -0.764   0.295  1.00  0.00     0.029 C 
HETATM    3  C3  UNL     1       3.274  -1.115  -0.372  1.00  0.00     0.113 C 
HETATM    4  C2  UNL     1       4.344  -0.063  -0.252  1.00  0.00     0.105 C 
HETATM    5  O7  UNL     1       3.595  -2.386  -0.725  1.00  0.00    -0.195 OA
HETATM    6  C1  UNL     1       3.933   1.378  -0.301  1.00  0.00     0.082 C 
HETATM    7  C6  UNL     1       2.675   1.602   0.166  1.00  0.00     0.065 C 
HETATM    8  C5  UNL     1       1.754   0.536   0.626  1.00  0.00     0.132 C 
HETATM    9  O2  UNL     1       0.591   0.901   1.227  1.00  0.00    -0.190 OA
BRANCH   6  10
HETATM   10  O8  UNL     1       4.854   2.308  -0.706  1.00  0.00    -0.332 OA
HETATM   11  C19 UNL     1       4.974   3.493   0.047  1.00  0.00     0.181 C 
ENDBRANCH   6  10
BRANCH   7  12
HETATM   12  C7  UNL     1       2.053   2.987   0.171  1.00  0.00     0.112 C 
HETATM   13  C8  UNL     1       1.621   3.548  -1.168  1.00  0.00     0.061 C 
HETATM   14  O1  UNL     1       1.736   3.559   1.310  1.00  0.00    -0.195 OA
ENDBRANCH   7  12
ENDBRANCH   1   2
BRANCH   1  15
HETATM   15  C10 UNL     1      -0.491  -1.629   0.247  1.00  0.00     0.033 A 
HETATM   16  C11 UNL     1      -1.480  -2.319   0.973  1.00  0.00     0.134 A 
HETATM   17  O3  UNL     1      -1.135  -3.155   1.990  1.00  0.00    -0.190 OA
HETATM   18  C12 UNL     1      -2.831  -2.126   0.658  1.00  0.00     0.082 A 
HETATM   19  C13 UNL     1      -3.268  -1.280  -0.371  1.00  0.00     0.101 A 
HETATM   20  C14 UNL     1      -2.249  -0.655  -1.098  1.00  0.00     0.051 A 
HETATM   21  C15 UNL     1      -0.887  -0.820  -0.830  1.00  0.00     0.131 A 
HETATM   22  O4  UNL     1       0.011  -0.170  -1.619  1.00  0.00    -0.190 OA
BRANCH  18  23
HETATM   23  C17 UNL     1      -3.857  -2.871   1.472  1.00  0.00     0.177 C 
HETATM   24  C18 UNL     1      -4.935  -2.061   2.169  1.00  0.00     0.077 C 
HETATM   25  O6  UNL     1      -3.804  -4.083   1.613  1.00  0.00    -0.291 OA
ENDBRANCH  18  23
BRANCH  19  26
HETATM   26  O5  UNL     1      -4.610  -1.103  -0.597  1.00  0.00    -0.328 OA
HETATM   27  C16 UNL     1      -5.019  -0.088  -1.484  1.00  0.00     0.181 C 
ENDBRANCH  19  26
ENDBRANCH   1  15
TORSDOF 6
