REMARK  9 active torsions:
REMARK  status: ('A' for Active; 'I' for Inactive)
REMARK    1  A    between atoms: C2_2  and  C3_3 
REMARK    2  A    between atoms: C3_3  and  C4_4 
REMARK    3  A    between atoms: C4_4  and  O1_5 
REMARK    4  A    between atoms: O1_5  and  C5_6 
REMARK    5  A    between atoms: C5_6  and  C6_7 
REMARK    6  A    between atoms: C6_7  and  O2_8 
REMARK    7  A    between atoms: O2_8  and  C7_9 
REMARK    8  A    between atoms: C7_9  and  C8_10 
REMARK    9  A    between atoms: C8_10  and  C9_11 
ROOT
HETATM    1  C5  UNL     1      -0.591  -0.464  -0.001  1.00  0.00     0.360 C 
HETATM    2  O4  UNL     1      -0.357  -1.666  -0.013  1.00  0.00    -0.253 OA
ENDROOT
BRANCH   1   3
HETATM    3  O1  UNL     1      -1.867   0.013   0.010  1.00  0.00    -0.294 OA
BRANCH   3   4
HETATM    4  C4  UNL     1      -2.909  -0.926   0.004  1.00  0.00     0.152 C 
BRANCH   4   5
HETATM    5  C3  UNL     1      -4.241  -0.176   0.003  1.00  0.00     0.033 C 
BRANCH   5   6
HETATM    6  C2  UNL     1      -5.442  -1.133   0.000  1.00  0.00     0.003 C 
HETATM    7  C1  UNL     1      -6.773  -0.371  -0.001  1.00  0.00     0.000 C 
ENDBRANCH   5   6
ENDBRANCH   4   5
ENDBRANCH   3   4
ENDBRANCH   1   3
BRANCH   1   8
HETATM    8  C6  UNL     1       0.591   0.464   0.001  1.00  0.00     0.360 C 
HETATM    9  O3  UNL     1       0.357   1.666   0.013  1.00  0.00    -0.253 OA
BRANCH   8  10
HETATM   10  O2  UNL     1       1.867  -0.013  -0.010  1.00  0.00    -0.294 OA
BRANCH  10  11
HETATM   11  C7  UNL     1       2.909   0.926  -0.004  1.00  0.00     0.152 C 
BRANCH  11  12
HETATM   12  C8  UNL     1       4.241   0.176  -0.003  1.00  0.00     0.033 C 
BRANCH  12  13
HETATM   13  C9  UNL     1       5.442   1.133  -0.000  1.00  0.00     0.003 C 
HETATM   14  C10 UNL     1       6.773   0.371   0.001  1.00  0.00     0.000 C 
ENDBRANCH  12  13
ENDBRANCH  11  12
ENDBRANCH  10  11
ENDBRANCH   8  10
ENDBRANCH   1   8
TORSDOF 9
