REMARK  2 active torsions:
REMARK  status: ('A' for Active; 'I' for Inactive)
REMARK    1  A    between atoms: C2_2  and  O4_24 
REMARK    2  A    between atoms: C3_3  and  O3_22 
ROOT
HETATM    1  C1  UNL     1      -1.872   0.804   0.001  1.00  0.00     0.026 A 
HETATM    2  C2  UNL     1      -3.092   0.117   0.068  1.00  0.00     0.116 A 
HETATM    3  C3  UNL     1      -3.102  -1.251  -0.290  1.00  0.00     0.116 A 
HETATM    4  C4  UNL     1      -1.865  -1.843  -0.590  1.00  0.00     0.022 A 
HETATM    5  C5  UNL     1      -0.652  -1.149  -0.629  1.00  0.00    -0.018 A 
HETATM    6  C6  UNL     1      -0.652   0.222  -0.367  1.00  0.00    -0.000 A 
HETATM    7  C7  UNL     1       0.613   0.976  -0.391  1.00  0.00     0.018 C 
HETATM    8  C8  UNL     1       1.802   0.326  -0.358  1.00  0.00    -0.011 C 
HETATM    9  C9  UNL     1       1.912  -1.169  -0.557  1.00  0.00     0.242 C 
HETATM   10  C10 UNL     1       0.617  -1.854  -1.024  1.00  0.00     0.064 C 
HETATM   11  N1  UNL     1       2.547  -1.800   0.591  1.00  0.00     0.141 N 
HETATM   12  C11 UNL     1       3.892  -1.259   0.759  1.00  0.00     0.251 C 
HETATM   13  C12 UNL     1       3.934   0.270   0.909  1.00  0.00     0.040 C 
HETATM   14  C13 UNL     1       3.143   1.017  -0.186  1.00  0.00     0.029 C 
HETATM   15  C14 UNL     1       3.073   2.514   0.180  1.00  0.00     0.057 C 
HETATM   16  C15 UNL     1       1.795   3.137  -0.267  1.00  0.00     0.097 A 
HETATM   17  C16 UNL     1       0.669   2.432  -0.483  1.00  0.00     0.114 A 
HETATM   18  O1  UNL     1      -0.353   3.305  -0.826  1.00  0.00    -0.300 OA
HETATM   19  C17 UNL     1       0.165   4.635  -0.778  1.00  0.00     0.304 A 
HETATM   20  O2  UNL     1       1.542   4.485  -0.431  1.00  0.00    -0.304 OA
HETATM   21  C18 UNL     1       1.744  -1.695   1.799  1.00  0.00     0.286 C 
ENDROOT
BRANCH   2  22
HETATM   22  O4  UNL     1      -4.197   0.873   0.391  1.00  0.00    -0.326 OA
HETATM   23  C20 UNL     1      -5.465   0.507  -0.100  1.00  0.00     0.181 C 
ENDBRANCH   2  22
BRANCH   3  24
HETATM   24  O3  UNL     1      -4.275  -1.962  -0.243  1.00  0.00    -0.326 OA
HETATM   25  C19 UNL     1      -4.243  -3.365  -0.360  1.00  0.00     0.181 C 
ENDBRANCH   3  24
TORSDOF 2
