REMARK  0 active torsions:
REMARK  status: ('A' for Active; 'I' for Inactive)
ROOT
HETATM    1  C1  UNL     1       1.070  -0.229  -0.046  1.00  0.00     0.045 A 
HETATM    2  C2  UNL     1      -0.115  -0.987   0.102  1.00  0.00     0.153 A 
HETATM    3  N1  UNL     1      -1.320  -0.381   0.177  1.00  0.00    -0.220 NA
HETATM    4  C3  UNL     1      -1.405   0.960   0.104  1.00  0.00     0.141 A 
HETATM    5  C4  UNL     1      -0.274   1.763  -0.047  1.00  0.00     0.042 A 
HETATM    6  C5  UNL     1       0.989   1.156  -0.121  1.00  0.00     0.063 A 
HETATM    7 CL1  UNL     1       2.413   2.112  -0.306  1.00  0.00    -0.082 Cl
HETATM    8 CL2  UNL     1      -2.959   1.708   0.194  1.00  0.00    -0.061 Cl
HETATM    9  N2  UNL     1       0.016  -2.360   0.162  1.00  0.00    -0.080 NA
ENDROOT
TORSDOF 0
