REMARK  3 active torsions:
REMARK  status: ('A' for Active; 'I' for Inactive)
REMARK    1  A    between atoms: C8_9  and  C10_12 
REMARK    2  A    between atoms: C12_14  and  O5_21 
REMARK    3  A    between atoms: C13_15  and  O4_19 
ROOT
HETATM    1  C1  UNL     1       4.978   0.534  -2.249  1.00  0.00     0.123 A 
HETATM    2  C2  UNL     1       4.885  -0.650  -1.530  1.00  0.00     0.145 A 
HETATM    3  C3  UNL     1       3.768  -0.972  -0.758  1.00  0.00     0.160 A 
HETATM    4  C4  UNL     1       2.730  -0.014  -0.759  1.00  0.00     0.089 A 
HETATM    5  C5  UNL     1       2.781   1.177  -1.514  1.00  0.00     0.107 A 
HETATM    6  C6  UNL     1       3.937   1.455  -2.258  1.00  0.00     0.051 A 
HETATM    7  O1  UNL     1       1.779   2.102  -1.502  1.00  0.00    -0.305 OA
HETATM    8  C7  UNL     1       0.548   1.701  -1.080  1.00  0.00     0.126 C 
HETATM    9  C8  UNL     1       0.327   0.621  -0.301  1.00  0.00     0.064 C 
HETATM   10  C9  UNL     1       1.495  -0.243   0.036  1.00  0.00     0.202 C 
HETATM   11  O2  UNL     1       1.450  -1.081   0.930  1.00  0.00    -0.286 OA
HETATM   12  O6  UNL     1       3.725  -2.156  -0.091  1.00  0.00    -0.188 OA
HETATM   13  O7  UNL     1       6.055  -1.368  -1.708  1.00  0.00    -0.297 OA
HETATM   14  C18 UNL     1       6.919  -0.600  -2.554  1.00  0.00     0.304 A 
HETATM   15  O8  UNL     1       6.199   0.592  -2.888  1.00  0.00    -0.299 OA
ENDROOT
BRANCH   9  16
HETATM   16  C10 UNL     1      -1.027   0.250   0.180  1.00  0.00     0.009 A 
HETATM   17  C11 UNL     1      -2.028   1.208   0.379  1.00  0.00     0.026 A 
HETATM   18  C12 UNL     1      -3.310   0.927   0.875  1.00  0.00     0.118 A 
HETATM   19  C13 UNL     1      -3.596  -0.410   1.227  1.00  0.00     0.141 A 
HETATM   20  C14 UNL     1      -2.652  -1.411   0.931  1.00  0.00     0.155 A 
HETATM   21  C15 UNL     1      -1.393  -1.075   0.432  1.00  0.00     0.030 A 
HETATM   22  O3  UNL     1      -2.932  -2.720   1.175  1.00  0.00    -0.188 OA
BRANCH  18  23
HETATM   23  O5  UNL     1      -4.174   1.997   0.945  1.00  0.00    -0.326 OA
HETATM   24  C17 UNL     1      -5.566   1.801   0.880  1.00  0.00     0.181 C 
ENDBRANCH  18  23
BRANCH  19  25
HETATM   25  O4  UNL     1      -4.827  -0.803   1.683  1.00  0.00    -0.324 OA
HETATM   26  C16 UNL     1      -4.898  -0.910   3.087  1.00  0.00     0.182 C 
ENDBRANCH  19  25
ENDBRANCH   9  16
TORSDOF 3
