REMARK  4 active torsions:
REMARK  status: ('A' for Active; 'I' for Inactive)
REMARK    1  A    between atoms: C1_1  and  C16_25 
REMARK    2  A    between atoms: C5_5  and  O2_7 
REMARK    3  A    between atoms: O2_7  and  C6_8 
REMARK    4  A    between atoms: C14_17  and  C15_18 
ROOT
HETATM    1  C6  UNL     1      -0.335   0.002   1.515  1.00  0.00     0.125 C 
HETATM    2  C7  UNL     1      -1.084  -0.166   3.087  1.00  0.00     0.035 C 
HETATM    3  C8  UNL     1      -0.188  -1.616   3.565  1.00  0.00     0.067 C 
HETATM    4  C9  UNL     1       1.622  -1.727   3.550  1.00  0.00     0.224 C 
HETATM    5  C10 UNL     1       2.678  -0.962   2.195  1.00  0.00     0.089 C 
HETATM    6  C11 UNL     1       1.473   0.189   1.277  1.00  0.00     0.123 C 
HETATM    7  C12 UNL     1       2.119   1.125   0.277  1.00  0.00     0.032 C 
HETATM    8  O3  UNL     1       1.265   0.845   2.407  1.00  0.00    -0.333 OA
HETATM    9  C13 UNL     1       0.841  -0.478   2.721  1.00  0.00     0.242 C 
HETATM   10  C14 UNL     1      -0.275  -1.360   2.102  1.00  0.00     0.112 C 
HETATM   11  O5  UNL     1       1.416  -0.504   4.026  1.00  0.00    -0.308 OA
HETATM   12  O6  UNL     1       2.269  -2.330   4.632  1.00  0.00    -0.195 OA
ENDROOT
BRANCH   1  13
HETATM   13  O2  UNL     1      -1.268   0.054   0.494  1.00  0.00    -0.331 OA
BRANCH  13  14
HETATM   14  C5  UNL     1      -0.809   0.274  -0.816  1.00  0.00     0.270 C 
HETATM   15  C4  UNL     1      -1.821  -0.357  -1.748  1.00  0.00     0.241 C 
HETATM   16  C3  UNL     1      -1.440  -0.059  -3.179  1.00  0.00     0.220 C 
HETATM   17  O7  UNL     1      -1.846  -1.748  -1.548  1.00  0.00    -0.215 OA
HETATM   18  C2  UNL     1      -1.344   1.445  -3.335  1.00  0.00     0.215 C 
HETATM   19  O8  UNL     1      -2.425  -0.557  -4.049  1.00  0.00    -0.218 OA
HETATM   20  C1  UNL     1      -0.369   2.016  -2.311  1.00  0.00     0.184 C 
HETATM   21  O9  UNL     1      -0.922   1.712  -4.650  1.00  0.00    -0.218 OA
HETATM   22  O1  UNL     1      -0.789   1.670  -1.014  1.00  0.00    -0.326 OA
BRANCH  20  23
HETATM   23  C16 UNL     1      -0.273   3.531  -2.411  1.00  0.00     0.214 C 
HETATM   24  O10 UNL     1       0.748   4.005  -1.556  1.00  0.00    -0.218 OA
ENDBRANCH  20  23
ENDBRANCH  13  14
ENDBRANCH   1  13
BRANCH  10  25
HETATM   25  C15 UNL     1      -0.205  -2.623   1.223  1.00  0.00     0.190 C 
HETATM   26  O4  UNL     1       0.513  -2.417   0.023  1.00  0.00    -0.221 OA
ENDBRANCH  10  25
TORSDOF 4
