REMARK  4 active torsions:
REMARK  status: ('A' for Active; 'I' for Inactive)
REMARK    1  A    between atoms: C4_4  and  C14_20 
REMARK    2  A    between atoms: C6_6  and  O1_7 
REMARK    3  A    between atoms: O1_7  and  C7_8 
REMARK    4  A    between atoms: C7_8  and  C8_10 
ROOT
HETATM    1  O1  UNL     1      -1.917   0.729  -0.790  1.00  0.00    -0.269 OA
ENDROOT
BRANCH   1   2
HETATM    2  C6  UNL     1      -1.792  -0.061   0.317  1.00  0.00     0.154 C 
HETATM    3  C1  UNL     1      -0.718   0.016   1.385  1.00  0.00     0.156 C 
HETATM    4  C2  UNL     1      -0.057  -1.302   1.635  1.00  0.00     0.030 C 
HETATM    5  O9  UNL     1      -0.087   1.173   1.706  1.00  0.00    -0.188 OA
HETATM    6  C3  UNL     1      -0.774  -2.439   1.467  1.00  0.00     0.010 C 
HETATM    7  C4  UNL     1      -2.173  -2.388   0.986  1.00  0.00     0.092 C 
HETATM    8  C5  UNL     1      -2.698  -1.250   0.456  1.00  0.00     0.162 C 
HETATM    9  O6  UNL     1      -3.944  -1.166  -0.074  1.00  0.00    -0.188 OA
BRANCH   7  10
HETATM   10  C14 UNL     1      -3.018  -3.645   1.076  1.00  0.00     0.213 C 
HETATM   11  O7  UNL     1      -4.352  -3.624   1.270  1.00  0.00    -0.644 OA
HETATM   12  O8  UNL     1      -2.443  -4.824   0.978  1.00  0.00    -0.644 OA
ENDBRANCH   7  10
ENDBRANCH   1   2
BRANCH   1  13
HETATM   13  C7  UNL     1      -1.126   1.840  -0.885  1.00  0.00     0.300 C 
HETATM   14  O2  UNL     1      -1.662   2.947  -0.892  1.00  0.00    -0.259 OA
BRANCH  13  15
HETATM   15  C8  UNL     1       0.359   1.768  -1.001  1.00  0.00     0.068 A 
HETATM   16  C9  UNL     1       1.132   2.931  -0.898  1.00  0.00     0.035 A 
HETATM   17  C10 UNL     1       2.529   2.864  -0.890  1.00  0.00     0.158 A 
HETATM   18  C11 UNL     1       3.153   1.615  -0.963  1.00  0.00     0.181 A 
HETATM   19  O5  UNL     1       3.296   3.978  -0.764  1.00  0.00    -0.188 OA
HETATM   20  C12 UNL     1       2.396   0.444  -1.094  1.00  0.00     0.158 A 
HETATM   21  O4  UNL     1       4.506   1.527  -0.913  1.00  0.00    -0.186 OA
HETATM   22  C13 UNL     1       1.006   0.530  -1.126  1.00  0.00     0.035 A 
HETATM   23  O3  UNL     1       3.023  -0.759  -1.164  1.00  0.00    -0.188 OA
ENDBRANCH  13  15
ENDBRANCH   1  13
TORSDOF 4
