REMARK  8 active torsions:
REMARK  status: ('A' for Active; 'I' for Inactive)
REMARK    1  A    between atoms: C20_28  and  O10_30 
REMARK    2  A    between atoms: O10_30  and  C21_31 
REMARK    3  A    between atoms: C21_31  and  C22_33 
REMARK    4  A    between atoms: C23_34  and  O15_42 
REMARK    5  A    between atoms: O15_42  and  C28_43 
REMARK    6  A    between atoms: C32_47  and  C34_49 
REMARK    7  A    between atoms: C34_49  and  O17_51 
REMARK    8  A    between atoms: O17_51  and  C35_52 
ROOT
HETATM    1  C22 UNL     1       5.772   0.124   0.505  1.00  0.00     0.090 A 
HETATM    2  C23 UNL     1       4.932  -0.719   1.257  1.00  0.00     0.133 A 
HETATM    3  C24 UNL     1       5.211  -0.953   2.617  1.00  0.00     0.181 A 
HETATM    4  C25 UNL     1       6.328  -0.346   3.223  1.00  0.00     0.183 A 
HETATM    5  C26 UNL     1       7.166   0.496   2.469  1.00  0.00     0.159 A 
HETATM    6  C27 UNL     1       6.886   0.729   1.112  1.00  0.00     0.037 A 
HETATM    7  O12 UNL     1       8.212   1.067   3.032  1.00  0.00    -0.188 OA
HETATM    8  O13 UNL     1       6.587  -0.567   4.496  1.00  0.00    -0.186 OA
HETATM    9  O14 UNL     1       4.427  -1.742   3.324  1.00  0.00    -0.186 OA
ENDROOT
BRANCH   2  10
HETATM   10  O15 UNL     1       3.884  -1.291   0.696  1.00  0.00    -0.303 OA
BRANCH  10  11
HETATM   11  C28 UNL     1       2.686  -0.908   1.089  1.00  0.00     0.128 A 
HETATM   12  C29 UNL     1       1.566  -1.725   0.845  1.00  0.00     0.179 A 
HETATM   13  C30 UNL     1       0.288  -1.312   1.266  1.00  0.00     0.158 A 
HETATM   14  O40 UNL     1       1.714  -2.878   0.221  1.00  0.00    -0.186 OA
HETATM   15  C31 UNL     1       0.132  -0.083   1.930  1.00  0.00     0.035 A 
HETATM   16  O39 UNL     1      -0.764  -2.074   1.039  1.00  0.00    -0.188 OA
HETATM   17  C32 UNL     1       1.250   0.735   2.175  1.00  0.00     0.067 A 
HETATM   18  C33 UNL     1       2.525   0.320   1.753  1.00  0.00     0.032 A 
BRANCH  17  19
HETATM   19  C34 UNL     1       1.082   2.040   2.880  1.00  0.00     0.298 C 
HETATM   20  O16 UNL     1       2.026   2.773   3.065  1.00  0.00    -0.259 OA
BRANCH  19  21
HETATM   21  O17 UNL     1      -0.158   2.316   3.275  1.00  0.00    -0.270 OA
BRANCH  21  22
HETATM   22  C35 UNL     1      -0.243   3.556   3.966  1.00  0.00     0.274 C 
HETATM   23  C36 UNL     1      -1.606   3.677   4.675  1.00  0.00     0.211 C 
HETATM   24  C37 UNL     1      -2.738   3.850   3.643  1.00  0.00     0.187 C 
HETATM   25  O30 UNL     1      -1.833   2.507   5.486  1.00  0.00    -0.293 OA
HETATM   26  C38 UNL     1      -2.407   5.018   2.714  1.00  0.00     0.184 C 
HETATM   27  O29 UNL     1      -3.979   4.096   4.321  1.00  0.00    -0.296 OA
HETATM   28  C39 UNL     1      -1.035   4.767   2.035  1.00  0.00     0.178 C 
HETATM   29  O21 UNL     1      -3.457   5.114   1.741  1.00  0.00    -0.296 OA
HETATM   30  O18 UNL     1      -0.051   4.644   3.063  1.00  0.00    -0.326 OA
HETATM   31  C40 UNL     1      -0.588   5.856   1.026  1.00  0.00     0.184 C 
HETATM   32  O19 UNL     1      -0.776   5.420  -0.329  1.00  0.00    -0.296 OA
HETATM   33  C41 UNL     1      -2.040   5.428  -0.766  1.00  0.00     0.296 C 
HETATM   34  O20 UNL     1      -2.440   6.506  -1.144  1.00  0.00    -0.259 OA
HETATM   35  C42 UNL     1      -2.875   4.184  -0.773  1.00  0.00     0.067 A 
HETATM   36  C43 UNL     1      -4.313   4.220  -0.767  1.00  0.00     0.035 A 
HETATM   37  C54 UNL     1      -2.210   2.950  -0.765  1.00  0.00     0.035 A 
HETATM   38  C44 UNL     1      -5.067   5.499  -0.781  1.00  0.00     0.035 A 
HETATM   39  C51 UNL     1      -5.021   2.997  -0.742  1.00  0.00     0.158 A 
HETATM   40  C45 UNL     1      -4.918   6.494   0.250  1.00  0.00     0.067 A 
HETATM   41  C50 UNL     1      -5.967   5.751  -1.843  1.00  0.00     0.158 A 
HETATM   42  C46 UNL     1      -4.021   6.300   1.442  1.00  0.00     0.296 C 
HETATM   43  C47 UNL     1      -5.631   7.701   0.154  1.00  0.00     0.035 A 
HETATM   44  O22 UNL     1      -3.784   7.227   2.186  1.00  0.00    -0.259 OA
HETATM   45  C48 UNL     1      -6.519   7.930  -0.906  1.00  0.00     0.158 A 
HETATM   46  C49 UNL     1      -6.694   6.952  -1.896  1.00  0.00     0.181 A 
HETATM   47  O25 UNL     1      -7.189   9.063  -0.969  1.00  0.00    -0.188 OA
HETATM   48  O24 UNL     1      -7.543   7.163  -2.882  1.00  0.00    -0.186 OA
HETATM   49  O23 UNL     1      -6.130   4.865  -2.809  1.00  0.00    -0.188 OA
HETATM   50  C52 UNL     1      -4.332   1.772  -0.747  1.00  0.00     0.181 A 
HETATM   51  O28 UNL     1      -6.341   2.987  -0.705  1.00  0.00    -0.188 OA
HETATM   52  C53 UNL     1      -2.929   1.748  -0.758  1.00  0.00     0.158 A 
HETATM   53  O27 UNL     1      -5.006   0.638  -0.738  1.00  0.00    -0.186 OA
HETATM   54  O26 UNL     1      -2.284   0.599  -0.758  1.00  0.00    -0.188 OA
HETATM   55  C55 UNL     1      -5.029   3.336   3.978  1.00  0.00     0.296 C 
HETATM   56  C56 UNL     1      -5.999   2.753   4.970  1.00  0.00     0.067 A 
HETATM   57  O38 UNL     1      -5.156   3.128   2.789  1.00  0.00    -0.259 OA
HETATM   58  C57 UNL     1      -5.932   3.002   6.389  1.00  0.00     0.035 A 
HETATM   59  C68 UNL     1      -7.013   1.921   4.465  1.00  0.00     0.035 A 
HETATM   60  C58 UNL     1      -4.929   3.897   7.019  1.00  0.00     0.035 A 
HETATM   61  C65 UNL     1      -6.883   2.379   7.231  1.00  0.00     0.158 A 
HETATM   62  C59 UNL     1      -3.519   3.631   6.967  1.00  0.00     0.067 A 
HETATM   63  C64 UNL     1      -5.373   5.051   7.704  1.00  0.00     0.158 A 
HETATM   64  C60 UNL     1      -2.964   2.456   6.221  1.00  0.00     0.296 C 
HETATM   65  C61 UNL     1      -2.620   4.490   7.617  1.00  0.00     0.035 A 
HETATM   66  O31 UNL     1      -3.512   1.378   6.229  1.00  0.00    -0.259 OA
HETATM   67  C62 UNL     1      -3.082   5.614   8.313  1.00  0.00     0.158 A 
HETATM   68  C63 UNL     1      -4.455   5.896   8.353  1.00  0.00     0.181 A 
HETATM   69  O34 UNL     1      -2.223   6.404   8.926  1.00  0.00    -0.188 OA
HETATM   70  O33 UNL     1      -4.887   6.958   9.004  1.00  0.00    -0.186 OA
HETATM   71  O32 UNL     1      -6.658   5.354   7.742  1.00  0.00    -0.188 OA
HETATM   72  C66 UNL     1      -7.891   1.561   6.696  1.00  0.00     0.181 A 
HETATM   73  O37 UNL     1      -6.837   2.556   8.539  1.00  0.00    -0.188 OA
HETATM   74  C67 UNL     1      -7.957   1.332   5.316  1.00  0.00     0.158 A 
HETATM   75  O36 UNL     1      -8.781   1.008   7.495  1.00  0.00    -0.186 OA
HETATM   76  O35 UNL     1      -8.902   0.563   4.815  1.00  0.00    -0.188 OA
ENDBRANCH  21  22
ENDBRANCH  19  21
ENDBRANCH  17  19
ENDBRANCH  10  11
ENDBRANCH   2  10
BRANCH   1  77
HETATM   77  C21 UNL     1       5.487   0.381  -0.940  1.00  0.00     0.300 C 
HETATM   78  O11 UNL     1       6.108   1.215  -1.557  1.00  0.00    -0.259 OA
BRANCH  77  79
HETATM   79  O10 UNL     1       4.521  -0.364  -1.469  1.00  0.00    -0.270 OA
BRANCH  79  80
HETATM   80  C20 UNL     1       4.364  -0.137  -2.864  1.00  0.00     0.274 C 
HETATM   81  C19 UNL     1       3.073  -0.811  -3.370  1.00  0.00     0.211 C 
HETATM   82  C18 UNL     1       3.222  -2.345  -3.348  1.00  0.00     0.187 C 
HETATM   83  O41 UNL     1       1.961  -0.398  -2.553  1.00  0.00    -0.293 OA
HETATM   84  C10 UNL     1       4.483  -2.747  -4.114  1.00  0.00     0.184 C 
HETATM   85  O46 UNL     1       2.068  -2.953  -3.948  1.00  0.00    -0.296 OA
HETATM   86  C9  UNL     1       5.713  -2.035  -3.493  1.00  0.00     0.178 C 
HETATM   87  O4  UNL     1       4.612  -4.173  -4.028  1.00  0.00    -0.296 OA
HETATM   88  C8  UNL     1       7.077  -2.384  -4.145  1.00  0.00     0.184 C 
HETATM   89  O9  UNL     1       5.498  -0.626  -3.579  1.00  0.00    -0.326 OA
HETATM   90  O3  UNL     1       7.824  -3.301  -3.331  1.00  0.00    -0.296 OA
HETATM   91  C7  UNL     1       7.402  -4.570  -3.358  1.00  0.00     0.296 C 
HETATM   92  C3  UNL     1       6.509  -5.122  -2.289  1.00  0.00     0.067 A 
HETATM   93  O51 UNL     1       7.794  -5.216  -4.302  1.00  0.00    -0.259 OA
HETATM   94  C2  UNL     1       5.666  -6.267  -2.503  1.00  0.00     0.035 A 
HETATM   95  C4  UNL     1       6.495  -4.470  -1.048  1.00  0.00     0.035 A 
HETATM   96  C1  UNL     1       4.831  -6.701  -1.448  1.00  0.00     0.158 A 
HETATM   97  C13 UNL     1       5.645  -6.998  -3.795  1.00  0.00     0.035 A 
HETATM   98  C6  UNL     1       4.843  -6.039  -0.208  1.00  0.00     0.181 A 
HETATM   99  O52 UNL     1       4.020  -7.730  -1.614  1.00  0.00    -0.188 OA
HETATM  100  C5  UNL     1       5.674  -4.925  -0.008  1.00  0.00     0.158 A 
HETATM  101  O1  UNL     1       4.070  -6.463   0.772  1.00  0.00    -0.186 OA
HETATM  102  O2  UNL     1       5.681  -4.302   1.153  1.00  0.00    -0.188 OA
HETATM  103  C12 UNL     1       5.297  -6.357  -5.038  1.00  0.00     0.067 A 
HETATM  104  C14 UNL     1       5.979  -8.372  -3.810  1.00  0.00     0.158 A 
HETATM  105  C11 UNL     1       4.884  -4.914  -5.120  1.00  0.00     0.296 C 
HETATM  106  C17 UNL     1       5.338  -7.097  -6.232  1.00  0.00     0.035 A 
HETATM  107  O8  UNL     1       4.776  -4.368  -6.197  1.00  0.00    -0.259 OA
HETATM  108  C16 UNL     1       5.670  -8.459  -6.224  1.00  0.00     0.158 A 
HETATM  109  C15 UNL     1       5.979  -9.097  -5.014  1.00  0.00     0.181 A 
HETATM  110  O5  UNL     1       5.688  -9.138  -7.354  1.00  0.00    -0.188 OA
HETATM  111  O6  UNL     1       6.273 -10.382  -5.007  1.00  0.00    -0.186 OA
HETATM  112  O7  UNL     1       6.307  -8.995  -2.692  1.00  0.00    -0.188 OA
HETATM  113  C78 UNL     1       1.453  -3.922  -3.255  1.00  0.00     0.296 C 
HETATM  114  C77 UNL     1      -0.042  -4.048  -3.139  1.00  0.00     0.067 A 
HETATM  115  O47 UNL     1       2.188  -4.713  -2.701  1.00  0.00    -0.259 OA
HETATM  116  C76 UNL     1      -0.969  -3.171  -3.812  1.00  0.00     0.035 A 
HETATM  117  C79 UNL     1      -0.540  -5.079  -2.323  1.00  0.00     0.035 A 
HETATM  118  C71 UNL     1      -0.550  -2.080  -4.728  1.00  0.00     0.035 A 
HETATM  119  C82 UNL     1      -2.355  -3.367  -3.609  1.00  0.00     0.158 A 
HETATM  120  C70 UNL     1       0.236  -0.963  -4.286  1.00  0.00     0.067 A 
HETATM  121  C72 UNL     1      -0.943  -2.135  -6.085  1.00  0.00     0.158 A 
HETATM  122  C69 UNL     1       0.733  -0.854  -2.877  1.00  0.00     0.296 C 
HETATM  123  C75 UNL     1       0.567   0.060  -5.188  1.00  0.00     0.035 A 
HETATM  124  O42 UNL     1       0.052  -1.185  -1.933  1.00  0.00    -0.259 OA
HETATM  125  C74 UNL     1       0.146   0.001  -6.522  1.00  0.00     0.158 A 
HETATM  126  C73 UNL     1      -0.605  -1.096  -6.971  1.00  0.00     0.181 A 
HETATM  127  O43 UNL     1       0.458   0.977  -7.351  1.00  0.00    -0.188 OA
HETATM  128  O44 UNL     1      -0.995  -1.152  -8.229  1.00  0.00    -0.186 OA
HETATM  129  O45 UNL     1      -1.632  -3.165  -6.541  1.00  0.00    -0.188 OA
HETATM  130  C81 UNL     1      -2.823  -4.412  -2.796  1.00  0.00     0.181 A 
HETATM  131  O48 UNL     1      -3.236  -2.567  -4.182  1.00  0.00    -0.188 OA
HETATM  132  C80 UNL     1      -1.917  -5.267  -2.154  1.00  0.00     0.158 A 
HETATM  133  O49 UNL     1      -4.118  -4.592  -2.638  1.00  0.00    -0.186 OA
HETATM  134  O50 UNL     1      -2.357  -6.247  -1.390  1.00  0.00    -0.188 OA
ENDBRANCH  79  80
ENDBRANCH  77  79
ENDBRANCH   1  77
TORSDOF 8
