REMARK  5 active torsions:
REMARK  status: ('A' for Active; 'I' for Inactive)
REMARK    1  A    between atoms: C15_15  and  C18_18 
REMARK    2  A    between atoms: C18_18  and  C20_20 
REMARK    3  A    between atoms: C20_20  and  C21_21 
REMARK    4  A    between atoms: C21_21  and  C22_22 
REMARK    5  A    between atoms: C23_23  and  C25_25 
ROOT
HETATM    1  C1  UNL     1      -5.013  -0.422   0.538  1.00  0.00     0.065 C 
HETATM    2  C2  UNL     1      -5.021  -1.819  -0.051  1.00  0.00     0.150 C 
HETATM    3  C3  UNL     1      -3.784  -2.703   0.137  1.00  0.00     0.052 C 
HETATM    4  C4  UNL     1      -3.180  -2.516   1.564  1.00  0.00     0.011 C 
HETATM    5  C5  UNL     1      -3.129  -1.083   2.170  1.00  0.00     0.004 C 
HETATM    6  C6  UNL     1      -4.521  -0.435   1.987  1.00  0.00     0.008 C 
HETATM    7  C7  UNL     1      -1.990  -0.254   1.519  1.00  0.00     0.018 C 
HETATM    8  C8  UNL     1      -0.682  -1.018   1.415  1.00  0.00    -0.049 C 
HETATM    9  C9  UNL     1      -0.637  -2.355   1.528  1.00  0.00    -0.035 C 
HETATM   10  C10 UNL     1      -1.831  -3.230   1.774  1.00  0.00     0.026 C 
HETATM   11  C11 UNL     1       0.593  -0.202   1.273  1.00  0.00     0.015 C 
HETATM   12  C12 UNL     1       0.332   1.118   0.492  1.00  0.00     0.003 C 
HETATM   13  C13 UNL     1      -0.666   1.958   1.321  1.00  0.00     0.001 C 
HETATM   14  C14 UNL     1      -1.739   1.152   2.093  1.00  0.00     0.004 C 
HETATM   15  C15 UNL     1       1.774   1.687   0.309  1.00  0.00     0.000 C 
HETATM   16  C16 UNL     1       2.580   0.391   0.035  1.00  0.00     0.000 C 
HETATM   17  C17 UNL     1       1.722  -0.825   0.435  1.00  0.00     0.004 C 
HETATM   18  C26 UNL     1      -0.222   0.883  -0.942  1.00  0.00     0.000 C 
HETATM   19  C27 UNL     1       1.181  -0.044   2.702  1.00  0.00     0.004 C 
HETATM   20  C28 UNL     1      -2.880  -1.170   3.699  1.00  0.00     0.000 C 
HETATM   21  C29 UNL     1      -4.238  -4.175  -0.057  1.00  0.00     0.007 C 
HETATM   22  C30 UNL     1      -2.829  -2.383  -1.031  1.00  0.00     0.007 C 
HETATM   23  O3  UNL     1      -5.973  -2.180  -0.707  1.00  0.00    -0.296 OA
ENDROOT
BRANCH  15  24
HETATM   24  C18 UNL     1       2.017   2.825  -0.719  1.00  0.00     0.003 C 
HETATM   25  C19 UNL     1       1.177   4.074  -0.376  1.00  0.00     0.000 C 
BRANCH  24  26
HETATM   26  C20 UNL     1       3.489   3.293  -0.864  1.00  0.00     0.037 C 
BRANCH  26  27
HETATM   27  C21 UNL     1       4.481   2.359  -1.563  1.00  0.00     0.174 C 
HETATM   28  O2  UNL     1       5.667   3.071  -1.872  1.00  0.00    -0.219 OA
BRANCH  27  29
HETATM   29  C22 UNL     1       3.962   1.766  -2.851  1.00  0.00     0.000 C 
HETATM   30  C23 UNL     1       4.256   0.547  -3.337  1.00  0.00    -0.013 C 
HETATM   31  C24 UNL     1       5.231  -0.410  -2.693  1.00  0.00     0.029 C 
BRANCH  30  32
HETATM   32  C25 UNL     1       3.601   0.003  -4.588  1.00  0.00     0.204 C 
HETATM   33  O1  UNL     1       2.433   0.716  -4.975  1.00  0.00    -0.216 OA
ENDBRANCH  30  32
ENDBRANCH  27  29
ENDBRANCH  26  27
ENDBRANCH  24  26
ENDBRANCH  15  24
TORSDOF 5
