REMARK  0 active torsions:
REMARK  status: ('A' for Active; 'I' for Inactive)
ROOT
HETATM    1  C1  UNL     1       1.744  -0.275   0.407  1.00  0.00     0.037 C 
HETATM    2  C2  UNL     1       1.391   1.161   0.758  1.00  0.00     0.125 C 
HETATM    3  C3  UNL     1       0.014   1.740   0.091  1.00  0.00     0.030 C 
HETATM    4  C4  UNL     1      -1.290   1.204   0.908  1.00  0.00     0.029 C 
HETATM    5  C5  UNL     1      -1.617  -0.347   1.024  1.00  0.00     0.127 C 
HETATM    6  C6  UNL     1      -0.416  -1.252   1.530  1.00  0.00     0.031 C 
HETATM    7  C7  UNL     1       0.608  -1.292   0.399  1.00  0.00     0.005 C 
HETATM    8  C8  UNL     1      -2.793  -0.549   1.993  1.00  0.00     0.033 C 
HETATM    9  O1  UNL     1      -1.957  -0.829  -0.280  1.00  0.00    -0.226 OA
HETATM   10  C9  UNL     1      -0.896   1.946   2.228  1.00  0.00     0.003 C 
HETATM   11  C10 UNL     1      -0.327   3.144   1.922  1.00  0.00     0.001 C 
HETATM   12  C11 UNL     1      -0.269   3.209   0.409  1.00  0.00     0.006 C 
HETATM   13  C12 UNL     1       0.753   4.215  -0.160  1.00  0.00     0.000 C 
HETATM   14  C13 UNL     1      -1.719   3.237  -0.266  1.00  0.00     0.018 C 
HETATM   15  C14 UNL     1      -2.435   2.255   0.502  1.00  0.00     0.012 C 
HETATM   16  C15 UNL     1      -3.969   2.252   0.182  1.00  0.00     0.048 C 
HETATM   17  C16 UNL     1      -3.983   3.823   0.093  1.00  0.00    -0.023 C 
HETATM   18  C17 UNL     1      -2.742   4.331  -0.146  1.00  0.00    -0.050 C 
HETATM   19  C18 UNL     1      -2.431   5.802  -0.296  1.00  0.00     0.026 C 
HETATM   20  C19 UNL     1      -5.162   4.727   0.252  1.00  0.00     0.142 C 
HETATM   21  C20 UNL     1      -6.569   4.130   0.411  1.00  0.00     0.041 C 
HETATM   22  C21 UNL     1      -6.910   3.262  -0.842  1.00  0.00     0.006 C 
HETATM   23  C22 UNL     1      -6.273   1.835  -0.874  1.00  0.00     0.031 C 
HETATM   24  C23 UNL     1      -4.729   1.597  -1.028  1.00  0.00     0.130 C 
HETATM   25  C24 UNL     1      -4.250   2.075  -2.413  1.00  0.00     0.033 C 
HETATM   26  O2  UNL     1      -4.606   0.188  -0.966  1.00  0.00    -0.226 OA
HETATM   27  C25 UNL     1      -7.428   5.417   0.311  1.00  0.00     0.089 C 
HETATM   28  C26 UNL     1      -6.725   5.972  -0.877  1.00  0.00     0.272 C 
HETATM   29  O3  UNL     1      -5.401   5.553  -0.897  1.00  0.00    -0.300 OA
HETATM   30  O4  UNL     1      -7.243   6.717  -1.718  1.00  0.00    -0.264 OA
HETATM   31  C27 UNL     1      -7.230   6.385   1.510  1.00  0.00     0.011 C 
HETATM   32  O5  UNL     1       2.607   1.788   0.338  1.00  0.00    -0.304 OA
HETATM   33  C28 UNL     1       3.238   1.008  -0.589  1.00  0.00     0.271 C 
HETATM   34  C29 UNL     1       2.384  -0.142  -0.955  1.00  0.00     0.089 C 
HETATM   35  C30 UNL     1       3.122  -1.399  -1.454  1.00  0.00     0.011 C 
HETATM   36  O6  UNL     1       4.424   1.142  -0.914  1.00  0.00    -0.264 OA
ENDROOT
TORSDOF 0
