REMARK  7 active torsions:
REMARK  status: ('A' for Active; 'I' for Inactive)
REMARK    1  A    between atoms: C7_7  and  O5_20 
REMARK    2  A    between atoms: C8_8  and  O1_9 
REMARK    3  A    between atoms: O1_9  and  C9_10 
REMARK    4  A    between atoms: C9_10  and  C10_12 
REMARK    5  A    between atoms: C13_16  and  C15_18 
REMARK    6  A    between atoms: O5_20  and  C16_21 
REMARK    7  A    between atoms: C16_21  and  C17_22 
ROOT
HETATM    1  C1  UNL     1      -2.252  -2.219   1.820  1.00  0.00     0.030 C 
HETATM    2  C2  UNL     1      -2.776  -1.525   3.098  1.00  0.00     0.026 C 
HETATM    3  C3  UNL     1      -2.309  -0.093   3.130  1.00  0.00    -0.045 C 
HETATM    4  C4  UNL     1      -2.692   0.730   2.137  1.00  0.00    -0.004 C 
HETATM    5  C5  UNL     1      -1.990   2.022   1.820  1.00  0.00     0.152 C 
HETATM    6  C6  UNL     1      -0.485   1.840   1.516  1.00  0.00     0.090 C 
HETATM    7  C7  UNL     1      -0.236   1.266   0.103  1.00  0.00     0.163 C 
HETATM    8  C8  UNL     1      -0.722  -0.201  -0.083  1.00  0.00     0.173 C 
HETATM    9  C13 UNL     1      -0.084  -1.234   0.842  1.00  0.00     0.014 C 
HETATM   10  C14 UNL     1      -0.746  -2.100   1.650  1.00  0.00    -0.029 C 
HETATM   11  C20 UNL     1      -0.040   3.236   1.863  1.00  0.00     0.046 C 
HETATM   12  C21 UNL     1      -1.059   3.829   2.729  1.00  0.00     0.292 C 
HETATM   13  O7  UNL     1      -2.111   3.017   2.841  1.00  0.00    -0.296 OA
HETATM   14  O8  UNL     1      -0.939   4.904   3.269  1.00  0.00    -0.259 OA
HETATM   15  C22 UNL     1       1.095   3.841   1.462  1.00  0.00     0.001 C 
HETATM   16  C23 UNL     1      -1.385   0.345   4.239  1.00  0.00     0.026 C 
ENDROOT
BRANCH   8  17
HETATM   17  O1  UNL     1      -0.431  -0.595  -1.417  1.00  0.00    -0.296 OA
BRANCH  17  18
HETATM   18  C9  UNL     1      -1.091  -1.692  -1.777  1.00  0.00     0.300 C 
HETATM   19  O2  UNL     1      -1.970  -2.196  -1.117  1.00  0.00    -0.262 OA
BRANCH  18  20
HETATM   20  C10 UNL     1      -0.671  -2.290  -3.093  1.00  0.00     0.204 C 
HETATM   21  C11 UNL     1      -1.141  -3.736  -3.253  1.00  0.00     0.043 C 
HETATM   22  O3  UNL     1      -1.373  -1.492  -4.018  1.00  0.00    -0.216 OA
HETATM   23  C12 UNL     1       0.826  -2.124  -3.357  1.00  0.00     0.043 C 
ENDBRANCH  18  20
ENDBRANCH  17  18
ENDBRANCH   8  17
BRANCH   7  24
HETATM   24  O5  UNL     1       1.151   1.322  -0.199  1.00  0.00    -0.301 OA
BRANCH  24  25
HETATM   25  C16 UNL     1       1.379   1.551  -1.489  1.00  0.00     0.271 C 
HETATM   26  O6  UNL     1       0.518   1.541  -2.337  1.00  0.00    -0.264 OA
BRANCH  25  27
HETATM   27  C17 UNL     1       2.814   1.833  -1.845  1.00  0.00     0.086 C 
HETATM   28  C18 UNL     1       2.981   2.248  -3.307  1.00  0.00     0.010 C 
HETATM   29  C19 UNL     1       3.749   0.692  -1.444  1.00  0.00     0.010 C 
ENDBRANCH  25  27
ENDBRANCH  24  25
ENDBRANCH   7  24
BRANCH   9  30
HETATM   30  C15 UNL     1       1.423  -1.295   0.842  1.00  0.00     0.207 C 
HETATM   31  O4  UNL     1       1.838  -2.642   0.842  1.00  0.00    -0.216 OA
ENDBRANCH   9  30
TORSDOF 7
