REMARK  8 active torsions:
REMARK  status: ('A' for Active; 'I' for Inactive)
REMARK    1  A    between atoms: C1_1  and  O2_4 
REMARK    2  A    between atoms: O2_4  and  C3_5 
REMARK    3  A    between atoms: C3_5  and  C4_6 
REMARK    4  A    between atoms: C6_8  and  O5_15 
REMARK    5  A    between atoms: O5_15  and  C11_16 
REMARK    6  A    between atoms: C13_19  and  O11_35 
REMARK    7  A    between atoms: O11_35  and  C25_36 
REMARK    8  A    between atoms: C25_36  and  C26_37 
ROOT
HETATM    1  C4  UNL     1       1.098  -2.896  -0.162  1.00  0.00     0.095 C 
HETATM    2  C5  UNL     1       1.459  -1.173   0.368  1.00  0.00     0.068 C 
HETATM    3  C6  UNL     1       3.095  -1.062   0.321  1.00  0.00     0.156 C 
HETATM    4  C7  UNL     1       3.740  -1.348  -0.940  1.00  0.00     0.146 C 
HETATM    5  C8  UNL     1       3.218  -2.704  -1.515  1.00  0.00     0.065 C 
HETATM    6  C9  UNL     1       2.504  -3.622  -0.333  1.00  0.00     0.160 C 
HETATM    7  O3  UNL     1       2.395  -4.920  -0.776  1.00  0.00    -0.223 OA
HETATM    8  O4  UNL     1       3.465  -0.011  -1.358  1.00  0.00    -0.351 OA
HETATM    9  C10 UNL     1       3.548   0.350   0.118  1.00  0.00     0.172 C 
HETATM   10  C13 UNL     1       0.420   0.351  -0.116  1.00  0.00     0.155 C 
HETATM   11  C14 UNL     1      -1.451   0.148   0.063  1.00  0.00     0.158 C 
HETATM   12  C15 UNL     1      -1.813  -0.699  -1.063  1.00  0.00     0.048 C 
HETATM   13  C16 UNL     1      -2.289  -1.943   0.069  1.00  0.00    -0.002 C 
HETATM   14  C17 UNL     1      -1.172  -2.581   1.183  1.00  0.00     0.135 C 
HETATM   15  C18 UNL     1       0.026  -3.456   0.873  1.00  0.00     0.204 C 
HETATM   16  O7  UNL     1      -0.453  -4.736   0.608  1.00  0.00    -0.216 OA
HETATM   17  O8  UNL     1      -1.708  -3.239   2.327  1.00  0.00    -0.193 OA
HETATM   18  C19 UNL     1      -3.595  -1.969   0.474  1.00  0.00    -0.016 C 
HETATM   19  C20 UNL     1      -4.329  -0.819   0.065  1.00  0.00     0.173 C 
HETATM   20  C21 UNL     1      -3.161   0.556   0.310  1.00  0.00     0.070 C 
HETATM   21  O9  UNL     1      -5.625  -0.655   0.629  1.00  0.00    -0.219 OA
HETATM   22  C22 UNL     1      -4.263  -2.905   1.465  1.00  0.00     0.029 C 
HETATM   23  C23 UNL     1      -0.872  -0.845  -2.172  1.00  0.00     0.007 C 
HETATM   24  C24 UNL     1      -2.678   0.121  -2.226  1.00  0.00     0.007 C 
HETATM   25  O10 UNL     1      -1.323   1.497  -0.280  1.00  0.00    -0.223 OA
ENDROOT
BRANCH  10  26
HETATM   26  O11 UNL     1       1.050   1.476   0.690  1.00  0.00    -0.298 OA
BRANCH  26  27
HETATM   27  C25 UNL     1       0.924   2.768  -0.026  1.00  0.00     0.296 C 
HETATM   28  O12 UNL     1       0.262   2.830  -1.073  1.00  0.00    -0.259 OA
BRANCH  27  29
HETATM   29  C26 UNL     1       1.648   3.987   0.278  1.00  0.00     0.063 A 
HETATM   30  C27 UNL     1       1.338   5.063  -0.434  1.00  0.00     0.005 A 
HETATM   31  C28 UNL     1       2.080   6.302  -0.284  1.00  0.00     0.000 A 
HETATM   32  C29 UNL     1       3.119   6.341   0.545  1.00  0.00     0.000 A 
HETATM   33  C30 UNL     1       3.482   5.146   1.325  1.00  0.00     0.000 A 
HETATM   34  C31 UNL     1       2.769   4.021   1.214  1.00  0.00     0.005 A 
ENDBRANCH  27  29
ENDBRANCH  26  27
ENDBRANCH  10  26
BRANCH   1  35
HETATM   35  C3  UNL     1       0.766  -3.230  -1.719  1.00  0.00     0.157 C 
BRANCH  35  36
HETATM   36  O2  UNL     1      -0.271  -4.259  -2.180  1.00  0.00    -0.302 OA
BRANCH  36  37
HETATM   37  C1  UNL     1      -0.187  -5.704  -2.048  1.00  0.00     0.272 C 
HETATM   38  O1  UNL     1       0.715  -6.279  -1.449  1.00  0.00    -0.264 OA
HETATM   39  C2  UNL     1      -1.317  -6.534  -2.580  1.00  0.00     0.106 C 
ENDBRANCH  36  37
ENDBRANCH  35  36
ENDBRANCH   1  35
BRANCH   3  40
HETATM   40  O5  UNL     1       3.624  -1.842   1.569  1.00  0.00    -0.302 OA
BRANCH  40  41
HETATM   41  C11 UNL     1       4.960  -2.460   1.885  1.00  0.00     0.272 C 
HETATM   42  C12 UNL     1       6.128  -2.702   0.937  1.00  0.00     0.106 C 
HETATM   43  O6  UNL     1       5.075  -2.953   3.012  1.00  0.00    -0.264 OA
ENDBRANCH  40  41
ENDBRANCH   3  40
TORSDOF 8
