REMARK  7 active torsions:
REMARK  status: ('A' for Active; 'I' for Inactive)
REMARK    1  A    between atoms: C4_4  and  C8_10 
REMARK    2  A    between atoms: C8_10  and  C9_11 
REMARK    3  A    between atoms: C9_11  and  C10_12 
REMARK    4  A    between atoms: C9_11  and  C20_25 
REMARK    5  A    between atoms: C10_12  and  C11_13 
REMARK    6  A    between atoms: C10_12  and  C12_15 
REMARK    7  A    between atoms: C12_15  and  C13_16 
ROOT
HETATM    1  C9  UNL     1      -0.318   1.213   0.195  1.00  0.00     0.040 C 
ENDROOT
BRANCH   1   2
HETATM    2  C8  UNL     1       0.457   1.619  -1.057  1.00  0.00     0.029 C 
BRANCH   2   3
HETATM    3  C4  UNL     1       1.773   0.963  -1.119  1.00  0.00    -0.020 A 
HETATM    4  C3  UNL     1       1.867  -0.414  -1.406  1.00  0.00    -0.002 A 
HETATM    5  C2  UNL     1       3.141  -1.023  -1.459  1.00  0.00     0.026 A 
HETATM    6  C1  UNL     1       4.324  -0.275  -1.231  1.00  0.00     0.119 A 
HETATM    7  C6  UNL     1       4.231   1.090  -0.945  1.00  0.00     0.119 A 
HETATM    8  O2  UNL     1       5.609  -0.633  -1.231  1.00  0.00    -0.300 OA
HETATM    9  C5  UNL     1       2.953   1.703  -0.889  1.00  0.00     0.022 A 
HETATM   10  O1  UNL     1       5.457   1.584  -0.768  1.00  0.00    -0.300 OA
HETATM   11  C7  UNL     1       6.424   0.525  -0.941  1.00  0.00     0.304 A 
ENDBRANCH   2   3
ENDBRANCH   1   2
BRANCH   1  12
HETATM   12  C10 UNL     1      -1.807   1.543   0.102  1.00  0.00     0.040 C 
BRANCH  12  13
HETATM   13  C11 UNL     1      -2.084   3.045   0.199  1.00  0.00     0.183 C 
HETATM   14  O3  UNL     1      -3.436   3.266  -0.143  1.00  0.00    -0.221 OA
ENDBRANCH  12  13
BRANCH  12  15
HETATM   15  C12 UNL     1      -2.656   0.723   1.072  1.00  0.00     0.029 C 
BRANCH  15  16
HETATM   16  C13 UNL     1      -2.717  -0.693   0.676  1.00  0.00    -0.020 A 
HETATM   17  C14 UNL     1      -3.428  -1.080  -0.477  1.00  0.00    -0.002 A 
HETATM   18  C15 UNL     1      -3.471  -2.443  -0.836  1.00  0.00     0.026 A 
HETATM   19  C16 UNL     1      -2.813  -3.434  -0.059  1.00  0.00     0.119 A 
HETATM   20  C17 UNL     1      -2.107  -3.049   1.086  1.00  0.00     0.119 A 
HETATM   21  O5  UNL     1      -2.721  -4.756  -0.203  1.00  0.00    -0.300 OA
HETATM   22  C18 UNL     1      -2.061  -1.678   1.449  1.00  0.00     0.022 A 
HETATM   23  O4  UNL     1      -1.576  -4.133   1.652  1.00  0.00    -0.300 OA
HETATM   24  C19 UNL     1      -1.932  -5.299   0.877  1.00  0.00     0.304 A 
ENDBRANCH  15  16
ENDBRANCH  12  15
ENDBRANCH   1  12
BRANCH   1  25
HETATM   25  C20 UNL     1       0.322   1.734   1.482  1.00  0.00     0.183 C 
HETATM   26  O6  UNL     1       1.387   0.875   1.824  1.00  0.00    -0.221 OA
ENDBRANCH   1  25
TORSDOF 7
