REMARK  7 active torsions:
REMARK  status: ('A' for Active; 'I' for Inactive)
REMARK    1  A    between atoms: C17_20  and  C20_24 
REMARK    2  A    between atoms: C20_24  and  C22_26 
REMARK    3  A    between atoms: C22_26  and  C23_27 
REMARK    4  A    between atoms: C23_27  and  C24_28 
REMARK    5  A    between atoms: C24_28  and  C25_29 
REMARK    6  A    between atoms: C25_29  and  O5_32 
REMARK    7  A    between atoms: O5_32  and  C28_33 
ROOT
HETATM    1  C1  UNL     1      -3.369   1.461   2.039  1.00  0.00    -0.046 C 
HETATM    2  C2  UNL     1      -2.805   0.037   2.074  1.00  0.00     0.027 C 
HETATM    3  C3  UNL     1      -3.777  -1.094   1.629  1.00  0.00     0.040 C 
HETATM    4  C4  UNL     1      -5.270  -0.760   1.754  1.00  0.00     0.183 C 
HETATM    5  C5  UNL     1      -5.596   0.582   1.072  1.00  0.00     0.186 C 
HETATM    6  C6  UNL     1      -4.816   1.783   1.672  1.00  0.00     0.045 C 
HETATM    7  C7  UNL     1      -4.871   2.992   0.719  1.00  0.00     0.007 C 
HETATM    8  C8  UNL     1      -5.506   2.221   2.971  1.00  0.00     0.007 C 
HETATM    9  O1  UNL     1      -5.305   0.447  -0.311  1.00  0.00    -0.220 OA
HETATM   10  O2  UNL     1      -5.635  -0.729   3.121  1.00  0.00    -0.221 OA
HETATM   11  C9  UNL     1      -1.400  -0.051   1.371  1.00  0.00     0.055 C 
HETATM   12  C10 UNL     1      -0.500   1.203   1.697  1.00  0.00     0.011 C 
HETATM   13  C11 UNL     1      -1.111   2.154   2.744  1.00  0.00     0.026 C 
HETATM   14  C12 UNL     1      -2.537   2.469   2.377  1.00  0.00    -0.035 C 
HETATM   15  C13 UNL     1       0.963   0.865   2.066  1.00  0.00     0.004 C 
HETATM   16  C14 UNL     1       1.502  -0.182   1.074  1.00  0.00     0.012 C 
HETATM   17  C15 UNL     1       0.781  -1.512   1.338  1.00  0.00     0.065 C 
HETATM   18  C16 UNL     1      -0.678  -1.354   1.721  1.00  0.00     0.150 C 
HETATM   19  O3  UNL     1      -1.230  -2.254   2.307  1.00  0.00    -0.296 OA
HETATM   20  C17 UNL     1       3.002  -0.178   1.406  1.00  0.00     0.066 C 
HETATM   21  C18 UNL     1       3.303   1.324   1.557  1.00  0.00     0.155 C 
HETATM   22  C19 UNL     1       1.965   2.012   1.881  1.00  0.00     0.033 C 
HETATM   23  O4  UNL     1       4.238   1.537   2.598  1.00  0.00    -0.223 OA
HETATM   24  C30 UNL     1       1.332   0.264  -0.387  1.00  0.00     0.001 C 
HETATM   25  C31 UNL     1       1.100   0.381   3.521  1.00  0.00     0.000 C 
HETATM   26  C32 UNL     1      -1.621  -0.094  -0.150  1.00  0.00     0.008 C 
ENDROOT
BRANCH  20  27
HETATM   27  C20 UNL     1       3.879  -0.856   0.357  1.00  0.00     0.180 C 
HETATM   28  C21 UNL     1       5.307  -0.984   0.891  1.00  0.00     0.041 C 
HETATM   29  O8  UNL     1       3.375  -2.152   0.131  1.00  0.00    -0.218 OA
BRANCH  27  30
HETATM   30  C22 UNL     1       3.826  -0.156  -0.975  1.00  0.00     0.178 C 
HETATM   31  O7  UNL     1       4.068   1.023  -1.068  1.00  0.00    -0.293 OA
BRANCH  30  32
HETATM   32  C23 UNL     1       3.463  -0.971  -2.188  1.00  0.00     0.070 C 
BRANCH  32  33
HETATM   33  C24 UNL     1       3.063  -0.098  -3.377  1.00  0.00     0.036 C 
BRANCH  33  34
HETATM   34  C25 UNL     1       2.609  -0.918  -4.586  1.00  0.00     0.102 C 
HETATM   35  C26 UNL     1       2.160  -0.045  -5.758  1.00  0.00     0.030 C 
HETATM   36  C27 UNL     1       3.633  -1.979  -4.998  1.00  0.00     0.030 C 
BRANCH  34  37
HETATM   37  O5  UNL     1       1.479  -1.553  -4.006  1.00  0.00    -0.307 OA
BRANCH  37  38
HETATM   38  C28 UNL     1       0.848  -2.346  -4.867  1.00  0.00     0.272 C 
HETATM   39  C29 UNL     1      -0.434  -2.951  -4.360  1.00  0.00     0.106 C 
HETATM   40  O6  UNL     1       1.248  -2.584  -5.983  1.00  0.00    -0.264 OA
ENDBRANCH  37  38
ENDBRANCH  34  37
ENDBRANCH  33  34
ENDBRANCH  32  33
ENDBRANCH  30  32
ENDBRANCH  27  30
ENDBRANCH  20  27
TORSDOF 7
