REMARK  1 active torsions:
REMARK  status: ('A' for Active; 'I' for Inactive)
REMARK    1  A    between atoms: C2_2  and  C12_16 
ROOT
HETATM    1  C1  UNL     1       1.713   0.512   0.229  1.00  0.00     0.066 C 
HETATM    2  C2  UNL     1       2.184  -0.867   0.717  1.00  0.00     0.144 C 
HETATM    3  O1  UNL     1       1.022  -1.703   0.803  1.00  0.00    -0.326 OA
HETATM    4  C3  UNL     1      -0.062  -0.951   0.621  1.00  0.00     0.134 A 
HETATM    5  C4  UNL     1       0.233   0.326   0.297  1.00  0.00     0.045 A 
HETATM    6  C5  UNL     1      -0.795   1.383   0.047  1.00  0.00     0.195 A 
HETATM    7  C6  UNL     1      -2.203   0.930   0.170  1.00  0.00     0.063 A 
HETATM    8  C7  UNL     1      -2.469  -0.369   0.494  1.00  0.00     0.143 A 
HETATM    9  C8  UNL     1      -1.469  -1.426   0.746  1.00  0.00     0.240 A 
HETATM   10  O2  UNL     1      -1.773  -2.561   1.029  1.00  0.00    -0.282 OA
HETATM   11  O3  UNL     1      -3.830  -0.613   0.564  1.00  0.00    -0.302 OA
HETATM   12  C9  UNL     1      -4.416   0.633   0.262  1.00  0.00     0.119 A 
HETATM   13  C10 UNL     1      -3.398   1.568   0.021  1.00  0.00     0.008 A 
HETATM   14  C11 UNL     1      -3.600   3.026  -0.336  1.00  0.00     0.033 C 
HETATM   15  O4  UNL     1      -0.506   2.522  -0.238  1.00  0.00    -0.287 OA
ENDROOT
BRANCH   2  16
HETATM   16  C12 UNL     1       3.213  -1.519  -0.174  1.00  0.00    -0.017 C 
HETATM   17  C13 UNL     1       2.977  -1.793  -1.635  1.00  0.00     0.029 C 
HETATM   18  C14 UNL     1       4.393  -1.869   0.363  1.00  0.00    -0.007 C 
ENDBRANCH   2  16
TORSDOF 1
