REMARK  0 active torsions:
REMARK  status: ('A' for Active; 'I' for Inactive)
ROOT
HETATM    1  C1  UNL     1       1.664  -1.027   0.573  1.00  0.00     0.025 C 
HETATM    2  C2  UNL     1       1.025   0.292   1.068  1.00  0.00     0.050 C 
HETATM    3  C3  UNL     1       1.541   1.340   0.116  1.00  0.00    -0.042 C 
HETATM    4  C4  UNL     1       2.256   0.749  -1.060  1.00  0.00     0.022 C 
HETATM    5  C5  UNL     1       2.364  -0.748  -0.775  1.00  0.00     0.009 C 
HETATM    6  C6  UNL     1       1.413   2.668   0.296  1.00  0.00    -0.009 C 
HETATM    7  C7  UNL     1      -0.505   0.240   1.296  1.00  0.00     0.129 C 
HETATM    8  O1  UNL     1      -0.955   1.480   1.841  1.00  0.00    -0.304 OA
HETATM    9  C8  UNL     1      -1.644   2.122   0.905  1.00  0.00     0.271 C 
HETATM   10  C9  UNL     1      -1.800   1.341  -0.364  1.00  0.00     0.089 C 
HETATM   11  C10 UNL     1      -1.427  -0.068   0.097  1.00  0.00     0.038 C 
HETATM   12  C11 UNL     1      -0.880  -0.947  -1.029  1.00  0.00     0.007 C 
HETATM   13  C12 UNL     1      -0.365  -2.301  -0.513  1.00  0.00     0.022 C 
HETATM   14  C13 UNL     1       0.735  -2.232   0.530  1.00  0.00    -0.044 C 
HETATM   15  C14 UNL     1       0.880  -3.239   1.414  1.00  0.00    -0.009 C 
HETATM   16  C15 UNL     1      -3.208   1.387  -0.948  1.00  0.00     0.011 C 
HETATM   17  O2  UNL     1      -2.113   3.228   1.042  1.00  0.00    -0.264 OA
ENDROOT
TORSDOF 0
