REMARK  2 active torsions:
REMARK  status: ('A' for Active; 'I' for Inactive)
REMARK    1  A    between atoms: C7_8  and  C12_15 
REMARK    2  A    between atoms: C12_15  and  C13_16 
ROOT
HETATM    1  C1  UNL     1       1.906   2.484   1.318  1.00  0.00     0.179 C 
HETATM    2  C2  UNL     1       0.559   1.853   1.201  1.00  0.00     0.082 A 
HETATM    3  C3  UNL     1       0.449   0.539   0.666  1.00  0.00     0.097 A 
HETATM    4  O1  UNL     1       1.547  -0.168   0.320  1.00  0.00    -0.333 OA
HETATM    5  C4  UNL     1       2.834   0.185   0.842  1.00  0.00     0.129 C 
HETATM    6  C5  UNL     1       3.059   1.703   0.727  1.00  0.00     0.099 C 
HETATM    7  C6  UNL     1       3.904  -0.619   0.100  1.00  0.00     0.033 C 
HETATM    8  C7  UNL     1      -0.830  -0.043   0.490  1.00  0.00     0.030 A 
HETATM    9  C8  UNL     1      -1.992   0.666   0.879  1.00  0.00     0.127 A 
HETATM   10  C9  UNL     1      -1.881   1.959   1.447  1.00  0.00     0.029 A 
HETATM   11  C10 UNL     1      -0.606   2.555   1.609  1.00  0.00     0.134 A 
HETATM   12  O2  UNL     1      -0.510   3.783   2.141  1.00  0.00    -0.190 OA
HETATM   13  C11 UNL     1      -3.092   2.687   1.865  1.00  0.00     0.035 C 
HETATM   14  O3  UNL     1      -3.203   0.111   0.715  1.00  0.00    -0.191 OA
HETATM   15  O4  UNL     1       2.166   3.551   1.828  1.00  0.00    -0.291 OA
ENDROOT
BRANCH   8  16
HETATM   16  C12 UNL     1      -0.953  -1.389  -0.096  1.00  0.00     0.056 C 
BRANCH  16  17
HETATM   17  C13 UNL     1      -1.061  -1.348  -1.598  1.00  0.00    -0.030 C 
HETATM   18  C14 UNL     1      -0.932  -2.498  -2.279  1.00  0.00    -0.048 C 
HETATM   19  C15 UNL     1      -0.621  -3.838  -1.672  1.00  0.00     0.026 C 
HETATM   20  C16 UNL     1      -1.107  -2.469  -3.775  1.00  0.00     0.026 C 
ENDBRANCH  16  17
ENDBRANCH   8  16
TORSDOF 2
