REMARK  2 active torsions:
REMARK  status: ('A' for Active; 'I' for Inactive)
REMARK    1  A    between atoms: C9_11  and  C11_14 
REMARK    2  A    between atoms: C11_14  and  C12_15 
ROOT
HETATM    1  C1  UNL     1       1.715  -0.020   0.039  1.00  0.00     0.082 A 
HETATM    2  C2  UNL     1       1.625  -1.309   0.633  1.00  0.00     0.097 A 
HETATM    3  O1  UNL     1       2.725  -1.947   1.086  1.00  0.00    -0.333 OA
HETATM    4  C3  UNL     1       4.031  -1.563   0.639  1.00  0.00     0.129 C 
HETATM    5  C4  UNL     1       4.178  -0.033   0.689  1.00  0.00     0.099 C 
HETATM    6  C5  UNL     1       3.039   0.668  -0.020  1.00  0.00     0.179 C 
HETATM    7  O2  UNL     1       3.291   1.717  -0.567  1.00  0.00    -0.291 OA
HETATM    8  C6  UNL     1       4.268  -2.121  -0.770  1.00  0.00     0.033 C 
HETATM    9  C7  UNL     1       0.361  -1.938   0.754  1.00  0.00     0.026 A 
HETATM   10  C8  UNL     1      -0.801  -1.301   0.252  1.00  0.00     0.127 A 
HETATM   11  C9  UNL     1      -0.703  -0.035  -0.373  1.00  0.00     0.033 A 
HETATM   12  C10 UNL     1       0.553   0.607  -0.483  1.00  0.00     0.134 A 
HETATM   13  O3  UNL     1       0.635   1.812  -1.070  1.00  0.00    -0.190 OA
HETATM   14  O4  UNL     1      -1.996  -1.902   0.365  1.00  0.00    -0.191 OA
HETATM   15  C16 UNL     1       0.256  -3.260   1.398  1.00  0.00     0.035 C 
ENDROOT
BRANCH  11  16
HETATM   16  C11 UNL     1      -1.912   0.617  -0.910  1.00  0.00     0.056 C 
BRANCH  16  17
HETATM   17  C12 UNL     1      -2.734   1.262   0.174  1.00  0.00    -0.030 C 
HETATM   18  C13 UNL     1      -3.652   2.178  -0.180  1.00  0.00    -0.048 C 
HETATM   19  C14 UNL     1      -3.957   2.604  -1.590  1.00  0.00     0.026 C 
HETATM   20  C15 UNL     1      -4.455   2.846   0.904  1.00  0.00     0.026 C 
ENDBRANCH  16  17
ENDBRANCH  11  16
TORSDOF 2
