REMARK  1 active torsions:
REMARK  status: ('A' for Active; 'I' for Inactive)
REMARK    1  A    between atoms: C7_7  and  C9_11 
ROOT
HETATM    1  C9  UNL     1      -1.629  -1.250  -1.014  1.00  0.00     0.119 C 
HETATM    2  C10 UNL     1      -3.045  -1.607  -1.037  1.00  0.00     0.075 C 
HETATM    3  N2  UNL     1      -4.170  -1.891  -1.057  1.00  0.00    -0.196 NA
ENDROOT
BRANCH   1   4
HETATM    4  C7  UNL     1      -1.317  -0.383   0.201  1.00  0.00     0.122 A 
HETATM    5  C6  UNL     1       0.139  -0.051   0.291  1.00  0.00     0.031 A 
HETATM    6  C1  UNL     1       1.269  -0.908   0.430  1.00  0.00     0.129 A 
HETATM    7  C5  UNL     1       0.373   1.324   0.225  1.00  0.00     0.083 A 
HETATM    8  C2  UNL     1       2.572  -0.338   0.486  1.00  0.00     0.027 A 
HETATM    9  O2  UNL     1       1.256  -2.244   0.516  1.00  0.00    -0.190 OA
HETATM   10  C3  UNL     1       2.768   1.063   0.410  1.00  0.00     0.004 A 
HETATM   11  C4  UNL     1       1.652   1.916   0.277  1.00  0.00     0.019 A 
HETATM   12  N1  UNL     1      -0.906   2.039   0.098  1.00  0.00    -0.212 NA
HETATM   13  C8  UNL     1      -1.901   1.018   0.090  1.00  0.00     0.261 A 
HETATM   14  O1  UNL     1      -3.080   1.266   0.004  1.00  0.00    -0.270 OA
ENDBRANCH   1   4
TORSDOF 1
