REMARK  3 active torsions:
REMARK  status: ('A' for Active; 'I' for Inactive)
REMARK    1  A    between atoms: C6_6  and  C7_7 
REMARK    2  A    between atoms: C7_7  and  C8_8 
REMARK    3  A    between atoms: C8_8  and  C9_9 
ROOT
HETATM    1  C1  UNL     1      -0.172  -1.721  -0.191  1.00  0.00    -0.052 C 
HETATM    2  C2  UNL     1       0.951  -2.727  -0.338  1.00  0.00     0.021 C 
HETATM    3  C3  UNL     1       2.254  -2.283   0.334  1.00  0.00     0.005 C 
HETATM    4  C4  UNL     1       2.559  -0.828  -0.025  1.00  0.00     0.004 C 
HETATM    5  C5  UNL     1       1.438   0.117   0.455  1.00  0.00     0.015 C 
HETATM    6  C6  UNL     1       0.049  -0.430   0.152  1.00  0.00    -0.052 C 
HETATM    7  C11 UNL     1       1.539   0.301   1.973  1.00  0.00     0.004 C 
HETATM    8  C12 UNL     1       1.617   1.482  -0.221  1.00  0.00     0.004 C 
HETATM    9  C13 UNL     1      -1.570  -2.223  -0.451  1.00  0.00     0.026 C 
ENDROOT
BRANCH   6  10
HETATM   10  C7  UNL     1      -1.111   0.531   0.256  1.00  0.00     0.029 C 
BRANCH  10  11
HETATM   11  C8  UNL     1      -1.471   1.160  -1.090  1.00  0.00     0.069 C 
BRANCH  11  12
HETATM   12  C9  UNL     1      -2.787   1.889  -1.051  1.00  0.00     0.151 C 
HETATM   13  C10 UNL     1      -2.881   3.139  -0.217  1.00  0.00     0.072 C 
HETATM   14  O1  UNL     1      -3.740   1.482  -1.672  1.00  0.00    -0.296 OA
ENDBRANCH  11  12
ENDBRANCH  10  11
ENDBRANCH   6  10
TORSDOF 3
