REMARK  4 active torsions:
REMARK  status: ('A' for Active; 'I' for Inactive)
REMARK    1  A    between atoms: C3_3  and  C8_10 
REMARK    2  A    between atoms: C8_10  and  C9_11 
REMARK    3  A    between atoms: C9_11  and  C10_12 
REMARK    4  A    between atoms: C13_16  and  O4_18 
ROOT
HETATM    1  C8  UNL     1      -0.057   0.014   1.420  1.00  0.00     0.029 C 
ENDROOT
BRANCH   1   2
HETATM    2  C3  UNL     1       1.162   0.803   1.662  1.00  0.00    -0.020 A 
HETATM    3  C2  UNL     1       1.072   2.180   1.951  1.00  0.00    -0.002 A 
HETATM    4  C1  UNL     1       2.254   2.916   2.180  1.00  0.00     0.026 A 
HETATM    5  C6  UNL     1       3.531   2.297   2.123  1.00  0.00     0.119 A 
HETATM    6  C5  UNL     1       3.619   0.932   1.838  1.00  0.00     0.119 A 
HETATM    7  O1  UNL     1       4.758   2.787   2.299  1.00  0.00    -0.300 OA
HETATM    8  C4  UNL     1       2.432   0.189   1.608  1.00  0.00     0.022 A 
HETATM    9  O2  UNL     1       4.902   0.570   1.836  1.00  0.00    -0.300 OA
HETATM   10  C7  UNL     1       5.723   1.725   2.125  1.00  0.00     0.304 A 
ENDBRANCH   1   2
BRANCH   1  11
HETATM   11  C9  UNL     1      -0.436   0.004  -0.060  1.00  0.00     0.035 C 
BRANCH  11  12
HETATM   12  C10 UNL     1      -1.707  -0.799  -0.340  1.00  0.00     0.131 C 
HETATM   13  O3  UNL     1      -1.494  -2.156   0.070  1.00  0.00    -0.300 OA
HETATM   14  C11 UNL     1      -2.432  -3.059  -0.273  1.00  0.00     0.297 C 
HETATM   15  C12 UNL     1      -3.416  -2.750  -1.330  1.00  0.00     0.088 C 
HETATM   16  O5  UNL     1      -2.492  -4.145   0.256  1.00  0.00    -0.259 OA
HETATM   17  C13 UNL     1      -3.299  -1.645  -2.086  1.00  0.00     0.080 C 
HETATM   18  C14 UNL     1      -2.123  -0.734  -1.820  1.00  0.00     0.081 C 
BRANCH  17  19
HETATM   19  O4  UNL     1      -4.191  -1.363  -3.033  1.00  0.00    -0.332 OA
HETATM   20  C15 UNL     1      -3.606  -0.733  -4.162  1.00  0.00     0.181 C 
ENDBRANCH  17  19
ENDBRANCH  11  12
ENDBRANCH   1  11
TORSDOF 4
