REMARK  0 active torsions:
REMARK  status: ('A' for Active; 'I' for Inactive)
ROOT
HETATM    1  O1  UNL     1       0.381   0.093   2.095  1.00  0.00    -0.297 OA
HETATM    2  C1  UNL     1       1.488   0.224   1.210  1.00  0.00     0.147 C 
HETATM    3  C2  UNL     1       0.945   1.105   0.090  1.00  0.00     0.007 C 
HETATM    4  C3  UNL     1      -0.327   1.386   0.383  1.00  0.00     0.068 C 
HETATM    5  C4  UNL     1      -0.619   0.882   1.700  1.00  0.00     0.294 C 
HETATM    6  O2  UNL     1      -1.684   1.021   2.317  1.00  0.00    -0.259 OA
HETATM    7  C5  UNL     1      -1.288   1.974  -0.657  1.00  0.00     0.172 A 
HETATM    8  C6  UNL     1      -2.245   0.692  -0.507  1.00  0.00     0.176 A 
HETATM    9  C7  UNL     1      -1.668  -0.685  -1.085  1.00  0.00     0.170 A 
HETATM   10  C8  UNL     1      -1.335  -1.784  -0.067  1.00  0.00     0.120 A 
HETATM   11  C9  UNL     1      -0.153  -2.719  -0.350  1.00  0.00     0.030 C 
HETATM   12  C10 UNL     1       1.246  -1.974  -0.560  1.00  0.00     0.013 C 
HETATM   13  C11 UNL     1       2.071  -1.140   0.570  1.00  0.00     0.040 C 
HETATM   14  C12 UNL     1       3.318  -0.857  -0.312  1.00  0.00     0.060 C 
HETATM   15  C13 UNL     1       3.572  -2.211  -0.862  1.00  0.00     0.150 C 
HETATM   16  C14 UNL     1       2.329  -3.051  -0.882  1.00  0.00     0.065 C 
HETATM   17  O3  UNL     1       4.706  -2.682  -0.999  1.00  0.00    -0.296 OA
HETATM   18  C15 UNL     1       4.531  -0.252   0.427  1.00  0.00     0.008 C 
HETATM   19  O4  UNL     1      -2.449  -1.878  -1.091  1.00  0.00    -0.354 OA
HETATM   20  C16 UNL     1      -2.070  -1.986   1.284  1.00  0.00     0.032 C 
HETATM   21  O5  UNL     1      -2.747   1.692  -1.181  1.00  0.00    -0.347 OA
ENDROOT
TORSDOF 0
