REMARK  1 active torsions:
REMARK  status: ('A' for Active; 'I' for Inactive)
REMARK    1  A    between atoms: C7_9  and  C10_14 
ROOT
HETATM    1  C1  UNL     1       3.990   1.658  -1.297  1.00  0.00     0.055 A 
HETATM    2  C2  UNL     1       2.691   2.150  -1.561  1.00  0.00     0.138 A 
HETATM    3  C3  UNL     1       1.557   1.463  -1.051  1.00  0.00     0.085 A 
HETATM    4  C4  UNL     1       1.730   0.260  -0.313  1.00  0.00     0.101 A 
HETATM    5  C5  UNL     1       3.035  -0.213  -0.039  1.00  0.00     0.052 A 
HETATM    6  C6  UNL     1       4.164   0.484  -0.529  1.00  0.00     0.135 A 
HETATM    7  O1  UNL     1       5.399   0.029  -0.271  1.00  0.00    -0.190 OA
HETATM    8  O2  UNL     1       0.676  -0.445   0.139  1.00  0.00    -0.326 OA
HETATM    9  C7  UNL     1      -0.619  -0.274  -0.445  1.00  0.00     0.183 C 
HETATM   10  C8  UNL     1      -0.949   1.232  -0.598  1.00  0.00     0.245 C 
HETATM   11  C9  UNL     1       0.180   1.998  -1.272  1.00  0.00     0.210 C 
HETATM   12  O3  UNL     1      -0.105   2.978  -1.924  1.00  0.00    -0.288 OA
HETATM   13  O4  UNL     1      -2.154   1.371  -1.332  1.00  0.00    -0.212 OA
HETATM   14  O7  UNL     1       2.551   3.271  -2.285  1.00  0.00    -0.190 OA
ENDROOT
BRANCH   9  15
HETATM   15  C10 UNL     1      -1.609  -1.012   0.391  1.00  0.00     0.034 A 
HETATM   16  C11 UNL     1      -2.477  -1.938  -0.213  1.00  0.00     0.002 A 
HETATM   17  C12 UNL     1      -3.412  -2.639   0.566  1.00  0.00     0.027 A 
HETATM   18  C13 UNL     1      -3.484  -2.418   1.951  1.00  0.00     0.133 A 
HETATM   19  C14 UNL     1      -2.613  -1.492   2.555  1.00  0.00     0.054 A 
HETATM   20  O6  UNL     1      -4.361  -3.076   2.684  1.00  0.00    -0.190 OA
HETATM   21  C15 UNL     1      -1.676  -0.787   1.779  1.00  0.00     0.131 A 
HETATM   22  O5  UNL     1      -0.867   0.078   2.357  1.00  0.00    -0.190 OA
ENDBRANCH   9  15
TORSDOF 1
