REMARK  2 active torsions:
REMARK  status: ('A' for Active; 'I' for Inactive)
REMARK    1  A    between atoms: C1_1  and  C7_7 
REMARK    2  A    between atoms: C13_15  and  O4_19 
ROOT
HETATM    1  C7  UNL     1       1.553  -0.617   0.322  1.00  0.00     0.151 C 
HETATM    2  O1  UNL     1       0.268  -0.975  -0.197  1.00  0.00    -0.328 OA
HETATM    3  C8  UNL     1      -0.830  -0.268   0.148  1.00  0.00     0.101 A 
HETATM    4  C9  UNL     1      -0.723   1.047   0.684  1.00  0.00     0.085 A 
HETATM    5  C10 UNL     1       0.621   1.682   0.801  1.00  0.00     0.180 C 
HETATM    6  C11 UNL     1       1.777   0.904   0.209  1.00  0.00     0.104 C 
HETATM    7  O2  UNL     1       0.879   2.748   1.313  1.00  0.00    -0.291 OA
HETATM    8  C12 UNL     1      -1.891   1.744   1.092  1.00  0.00     0.160 A 
HETATM    9  C13 UNL     1      -3.162   1.145   0.928  1.00  0.00     0.145 A 
HETATM   10  C14 UNL     1      -3.270  -0.146   0.359  1.00  0.00     0.157 A 
HETATM   11  C15 UNL     1      -2.107  -0.850  -0.029  1.00  0.00     0.054 A 
HETATM   12  O3  UNL     1      -4.477  -0.709   0.191  1.00  0.00    -0.188 OA
HETATM   13  O5  UNL     1      -1.807   2.973   1.623  1.00  0.00    -0.188 OA
ENDROOT
BRANCH   1  14
HETATM   14  C1  UNL     1       2.600  -1.398  -0.387  1.00  0.00     0.005 A 
HETATM   15  C2  UNL     1       2.629  -1.424  -1.793  1.00  0.00    -0.002 A 
HETATM   16  C3  UNL     1       3.619  -2.162  -2.463  1.00  0.00    -0.000 A 
HETATM   17  C4  UNL     1       4.582  -2.875  -1.730  1.00  0.00    -0.000 A 
HETATM   18  C5  UNL     1       4.555  -2.850  -0.324  1.00  0.00    -0.000 A 
HETATM   19  C6  UNL     1       3.565  -2.111   0.346  1.00  0.00    -0.002 A 
ENDBRANCH   1  14
BRANCH   9  20
HETATM   20  O4  UNL     1      -4.268   1.803   1.307  1.00  0.00    -0.324 OA
HETATM   21  C16 UNL     1      -4.856   2.707   0.381  1.00  0.00     0.182 C 
ENDBRANCH   9  20
TORSDOF 2
