REMARK  5 active torsions:
REMARK  status: ('A' for Active; 'I' for Inactive)
REMARK    1  A    between atoms: C13_15  and  C20_25 
REMARK    2  A    between atoms: C14_16  and  C16_18 
REMARK    3  A    between atoms: C16_18  and  C17_19 
REMARK    4  A    between atoms: C16_18  and  C18_21 
REMARK    5  A    between atoms: C18_21  and  O2_22 
ROOT
HETATM    1  C1  UNL     1      -5.350   1.082  -0.471  1.00  0.00     0.001 A 
HETATM    2  C2  UNL     1      -6.580   0.379  -0.519  1.00  0.00     0.000 A 
HETATM    3  C3  UNL     1      -6.600  -1.010  -0.822  1.00  0.00     0.002 A 
HETATM    4  C4  UNL     1      -5.389  -1.701  -1.080  1.00  0.00     0.019 A 
HETATM    5  C5  UNL     1      -4.176  -0.977  -1.027  1.00  0.00     0.081 A 
HETATM    6  C6  UNL     1      -4.156   0.365  -0.730  1.00  0.00     0.015 A 
HETATM    7  C7  UNL     1      -2.899   0.861  -0.726  1.00  0.00    -0.003 A 
HETATM    8  C8  UNL     1      -2.059  -0.215  -1.035  1.00  0.00     0.086 A 
HETATM    9  N1  UNL     1      -2.858  -1.367  -1.228  1.00  0.00    -0.248 NA
HETATM   10  C9  UNL     1      -0.543  -0.109  -1.127  1.00  0.00     0.259 C 
HETATM   11  N2  UNL     1      -0.117   1.316  -1.142  1.00  0.00     0.141 N 
HETATM   12  C10 UNL     1      -0.834   2.201  -0.187  1.00  0.00     0.255 C 
HETATM   13  C11 UNL     1      -2.358   2.256  -0.471  1.00  0.00     0.063 C 
HETATM   14  C12 UNL     1       1.344   1.492  -1.189  1.00  0.00     0.251 C 
HETATM   15  C13 UNL     1       2.070   0.758  -0.043  1.00  0.00     0.034 C 
HETATM   16  C14 UNL     1       1.664  -0.727  -0.008  1.00  0.00     0.016 C 
HETATM   17  C15 UNL     1       0.135  -0.873   0.031  1.00  0.00     0.040 C 
ENDROOT
BRANCH  16  18
HETATM   18  C16 UNL     1       2.332  -1.484   1.145  1.00  0.00     0.119 C 
BRANCH  18  19
HETATM   19  C17 UNL     1       2.018  -2.979   1.131  1.00  0.00     0.192 C 
HETATM   20  O1  UNL     1       2.434  -3.508  -0.107  1.00  0.00    -0.220 OA
ENDBRANCH  18  19
BRANCH  18  21
HETATM   21  C18 UNL     1       3.811  -1.209   1.231  1.00  0.00     0.274 C 
HETATM   22  O3  UNL     1       4.322  -0.883   2.276  1.00  0.00    -0.264 OA
BRANCH  21  23
HETATM   23  O2  UNL     1       4.479  -1.354   0.090  1.00  0.00    -0.299 OA
HETATM   24  C19 UNL     1       5.865  -1.080   0.238  1.00  0.00     0.184 C 
ENDBRANCH  21  23
ENDBRANCH  18  21
ENDBRANCH  16  18
BRANCH  15  25
HETATM   25  C20 UNL     1       1.857   1.453   1.307  1.00  0.00     0.002 C 
HETATM   26  C21 UNL     1       2.129   2.955   1.248  1.00  0.00     0.000 C 
ENDBRANCH  15  25
TORSDOF 5
