REMARK  5 active torsions:
REMARK  status: ('A' for Active; 'I' for Inactive)
REMARK    1  A    between atoms: C15_16  and  C18_19 
REMARK    2  A    between atoms: C18_19  and  C19_20 
REMARK    3  A    between atoms: C20_21  and  C21_22 
REMARK    4  A    between atoms: C21_22  and  C22_23 
REMARK    5  A    between atoms: C21_22  and  C24_25 
ROOT
HETATM    1  C1  UNL     1      -5.961  -1.393  -0.791  1.00  0.00     0.070 C 
HETATM    2  C2  UNL     1      -6.172  -2.857  -1.078  1.00  0.00     0.173 C 
HETATM    3  C3  UNL     1      -4.994  -3.738  -1.158  1.00  0.00     0.036 C 
HETATM    4  C4  UNL     1      -3.723  -3.316  -0.963  1.00  0.00     0.015 C 
HETATM    5  C5  UNL     1      -3.442  -1.852  -0.621  1.00  0.00     0.022 C 
HETATM    6  C6  UNL     1      -4.555  -0.943  -1.203  1.00  0.00     0.012 C 
HETATM    7  C7  UNL     1      -2.047  -1.397  -1.145  1.00  0.00     0.004 C 
HETATM    8  C8  UNL     1      -0.946  -2.387  -0.699  1.00  0.00     0.008 C 
HETATM    9  C9  UNL     1      -1.194  -3.781  -1.291  1.00  0.00     0.069 C 
HETATM   10  C10 UNL     1      -2.600  -4.281  -1.076  1.00  0.00     0.169 C 
HETATM   11  O1  UNL     1      -2.803  -5.471  -1.000  1.00  0.00    -0.292 OA
HETATM   12  C11 UNL     1       0.424  -1.879  -1.178  1.00  0.00     0.001 C 
HETATM   13  C12 UNL     1       0.742  -0.492  -0.607  1.00  0.00     0.000 C 
HETATM   14  C13 UNL     1      -0.281   0.490  -1.188  1.00  0.00     0.000 C 
HETATM   15  C14 UNL     1      -1.697   0.064  -0.760  1.00  0.00     0.000 C 
HETATM   16  C15 UNL     1       2.170  -0.326  -1.143  1.00  0.00     0.004 C 
HETATM   17  C16 UNL     1       2.808  -1.695  -0.873  1.00  0.00     0.000 C 
HETATM   18  C17 UNL     1       1.650  -2.690  -0.766  1.00  0.00     0.000 C 
HETATM   19  C28 UNL     1       0.746  -0.475   0.928  1.00  0.00     0.000 C 
HETATM   20  C29 UNL     1      -3.473  -1.756   0.914  1.00  0.00     0.004 C 
HETATM   21  O2  UNL     1      -7.283  -3.305  -1.246  1.00  0.00    -0.291 OA
ENDROOT
BRANCH  16  22
HETATM   22  C18 UNL     1       2.945   0.822  -0.504  1.00  0.00     0.022 C 
HETATM   23  C27 UNL     1       4.226   0.791  -1.338  1.00  0.00     0.005 C 
BRANCH  22  24
HETATM   24  C19 UNL     1       3.209   0.594   0.961  1.00  0.00    -0.031 C 
HETATM   25  C20 UNL     1       2.857   1.553   1.834  1.00  0.00    -0.031 C 
BRANCH  25  26
HETATM   26  C21 UNL     1       2.219   2.807   1.303  1.00  0.00     0.022 C 
BRANCH  26  27
HETATM   27  C22 UNL     1       3.174   3.627   0.434  1.00  0.00     0.004 C 
HETATM   28  C23 UNL     1       2.455   4.381  -0.684  1.00  0.00     0.000 C 
ENDBRANCH  26  27
BRANCH  26  29
HETATM   29  C24 UNL     1       1.564   3.641   2.404  1.00  0.00     0.004 C 
HETATM   30  C25 UNL     1       0.308   2.980   2.977  1.00  0.00     0.000 C 
HETATM   31  C26 UNL     1       2.555   4.064   3.490  1.00  0.00     0.000 C 
ENDBRANCH  26  29
ENDBRANCH  25  26
ENDBRANCH  22  24
ENDBRANCH  16  22
TORSDOF 5
