REMARK  0 active torsions:
REMARK  status: ('A' for Active; 'I' for Inactive)
ROOT
HETATM    1  C1  UNL     1      -1.320   0.299  -0.352  1.00  0.00    -0.019 A 
HETATM    2  C2  UNL     1      -1.809  -1.027  -0.572  1.00  0.00    -0.008 A 
HETATM    3  C3  UNL     1      -0.943  -2.141  -0.434  1.00  0.00    -0.001 A 
HETATM    4  C4  UNL     1       0.402  -1.959  -0.066  1.00  0.00     0.002 A 
HETATM    5  C5  UNL     1       0.904  -0.654   0.148  1.00  0.00     0.026 A 
HETATM    6  C6  UNL     1       0.061   0.492  -0.016  1.00  0.00     0.040 A 
HETATM    7  C7  UNL     1       0.643   1.885   0.158  1.00  0.00     0.234 A 
HETATM    8  C8  UNL     1       2.070   2.016   0.572  1.00  0.00     0.236 A 
HETATM    9  C9  UNL     1       2.854   0.776   0.742  1.00  0.00     0.063 A 
HETATM   10  C10 UNL     1       2.328  -0.471   0.543  1.00  0.00     0.103 A 
HETATM   11  O1  UNL     1       3.236  -1.492   0.752  1.00  0.00    -0.305 OA
HETATM   12  C11 UNL     1       4.412  -0.807   1.109  1.00  0.00     0.118 A 
HETATM   13  C12 UNL     1       4.158   0.574   1.098  1.00  0.00     0.008 A 
HETATM   14  C13 UNL     1       5.168   1.654   1.426  1.00  0.00     0.033 C 
HETATM   15  O2  UNL     1       2.574   3.098   0.764  1.00  0.00    -0.283 OA
HETATM   16  O3  UNL     1       0.076   2.942  -0.008  1.00  0.00    -0.283 OA
HETATM   17  C14 UNL     1      -3.236  -1.246  -0.957  1.00  0.00    -0.026 C 
HETATM   18  C15 UNL     1      -4.137  -0.248  -0.875  1.00  0.00    -0.030 C 
HETATM   19  C16 UNL     1      -3.746   1.090  -0.303  1.00  0.00     0.030 C 
HETATM   20  C17 UNL     1      -2.264   1.447  -0.502  1.00  0.00     0.031 C 
HETATM   21  C18 UNL     1      -3.709  -2.594  -1.449  1.00  0.00     0.031 C 
ENDROOT
TORSDOF 0
