REMARK  1 active torsions:
REMARK  status: ('A' for Active; 'I' for Inactive)
REMARK    1  A    between atoms: C6_6  and  C7_7 
ROOT
HETATM    1  C1  UNL     1       0.920  -0.465   0.002  1.00  0.00     0.005 A 
HETATM    2  C2  UNL     1       0.260  -1.707   0.002  1.00  0.00     0.030 A 
HETATM    3  C3  UNL     1      -1.144  -1.762   0.002  1.00  0.00     0.156 A 
HETATM    4  C4  UNL     1      -1.893  -0.568   0.002  1.00  0.00     0.156 A 
HETATM    5  C5  UNL     1      -1.230   0.672   0.002  1.00  0.00     0.032 A 
HETATM    6  C6  UNL     1       0.174   0.727   0.002  1.00  0.00     0.037 A 
HETATM    7  O2  UNL     1      -3.211  -0.611   0.002  1.00  0.00    -0.188 OA
HETATM    8  O3  UNL     1      -1.758  -2.928   0.002  1.00  0.00    -0.188 OA
ENDROOT
BRANCH   6   9
HETATM    9  C7  UNL     1       0.873   2.047   0.002  1.00  0.00     0.173 C 
HETATM   10  C8  UNL     1       2.377   2.051   0.002  1.00  0.00     0.077 C 
HETATM   11  O1  UNL     1       0.246   3.080   0.002  1.00  0.00    -0.291 OA
ENDBRANCH   6   9
TORSDOF 1
