REMARK  7 active torsions:
REMARK  status: ('A' for Active; 'I' for Inactive)
REMARK    1  A    between atoms: C4_4  and  O2_8 
REMARK    2  A    between atoms: O2_8  and  C7_9 
REMARK    3  A    between atoms: C7_9  and  C8_10 
REMARK    4  A    between atoms: C12_14  and  O4_16 
REMARK    5  A    between atoms: O4_16  and  C13_17 
REMARK    6  A    between atoms: C16_20  and  C19_24 
REMARK    7  A    between atoms: C19_24  and  C20_25 
ROOT
HETATM    1  C8  UNL     1      -0.492  -2.320  -0.361  1.00  0.00     0.180 C 
HETATM    2  C9  UNL     1      -0.418  -3.863  -0.314  1.00  0.00     0.215 C 
HETATM    3  C10 UNL     1       0.912  -4.383  -0.900  1.00  0.00     0.220 C 
HETATM    4  C11 UNL     1       2.094  -3.646  -0.232  1.00  0.00     0.241 C 
HETATM    5  C12 UNL     1       1.897  -2.117  -0.285  1.00  0.00     0.274 C 
HETATM    6  O3  UNL     1       0.647  -1.771   0.295  1.00  0.00    -0.326 OA
HETATM    7  O6  UNL     1       3.305  -3.973  -0.893  1.00  0.00    -0.215 OA
HETATM    8  O7  UNL     1       1.025  -5.779  -0.676  1.00  0.00    -0.218 OA
HETATM    9  O8  UNL     1      -1.506  -4.391  -1.053  1.00  0.00    -0.218 OA
ENDROOT
BRANCH   1  10
HETATM   10  C7  UNL     1      -1.728  -1.762   0.352  1.00  0.00     0.177 C 
BRANCH  10  11
HETATM   11  O2  UNL     1      -1.769  -0.369   0.141  1.00  0.00    -0.326 OA
BRANCH  11  12
HETATM   12  C4  UNL     1      -2.850   0.262   0.797  1.00  0.00     0.270 C 
HETATM   13  C3  UNL     1      -2.686   1.811   0.723  1.00  0.00     0.241 C 
HETATM   14  C2  UNL     1      -4.055   2.549   0.652  1.00  0.00     0.220 C 
HETATM   15  O9  UNL     1      -1.924   2.207   1.854  1.00  0.00    -0.215 OA
HETATM   16  C1  UNL     1      -5.127   1.738   1.414  1.00  0.00     0.212 C 
HETATM   17  O10 UNL     1      -3.975   3.889   1.117  1.00  0.00    -0.218 OA
HETATM   18  C5  UNL     1      -5.254   0.287   0.867  1.00  0.00     0.151 C 
HETATM   19  O11 UNL     1      -6.395   2.369   1.332  1.00  0.00    -0.218 OA
HETATM   20  O1  UNL     1      -4.070  -0.127   0.184  1.00  0.00    -0.329 OA
HETATM   21  C6  UNL     1      -5.549  -0.732   1.973  1.00  0.00     0.035 C 
ENDBRANCH  11  12
ENDBRANCH  10  11
ENDBRANCH   1  10
BRANCH   5  22
HETATM   22  O4  UNL     1       2.934  -1.467   0.436  1.00  0.00    -0.301 OA
BRANCH  22  23
HETATM   23  C13 UNL     1       3.254  -0.236   0.086  1.00  0.00     0.122 A 
HETATM   24  C14 UNL     1       2.324   0.561  -0.602  1.00  0.00     0.026 A 
HETATM   25  C15 UNL     1       2.656   1.873  -0.977  1.00  0.00    -0.002 A 
HETATM   26  C16 UNL     1       3.926   2.393  -0.664  1.00  0.00    -0.016 A 
HETATM   27  C17 UNL     1       4.858   1.596   0.023  1.00  0.00     0.025 A 
HETATM   28  C18 UNL     1       4.526   0.281   0.400  1.00  0.00     0.153 A 
HETATM   29  O5  UNL     1       5.404  -0.459   1.045  1.00  0.00    -0.188 OA
BRANCH  26  30
HETATM   30  C19 UNL     1       4.281   3.779  -1.061  1.00  0.00     0.052 C 
BRANCH  30  31
HETATM   31  C20 UNL     1       5.117   3.815  -2.313  1.00  0.00    -0.021 C 
HETATM   32  C21 UNL     1       5.238   4.981  -2.969  1.00  0.00    -0.005 C 
ENDBRANCH  30  31
ENDBRANCH  26  30
ENDBRANCH  22  23
ENDBRANCH   5  22
TORSDOF 7
