REMARK  0 active torsions:
REMARK  status: ('A' for Active; 'I' for Inactive)
ROOT
HETATM    1  C1  UNL     1      -2.205  -0.443   0.057  1.00  0.00     0.135 A 
HETATM    2  C2  UNL     1      -1.199  -1.367  -0.315  1.00  0.00     0.052 A 
HETATM    3  C3  UNL     1       0.160  -0.975  -0.313  1.00  0.00     0.107 A 
HETATM    4  C4  UNL     1       0.510   0.353   0.062  1.00  0.00     0.087 A 
HETATM    5  C5  UNL     1      -0.498   1.279   0.435  1.00  0.00     0.138 A 
HETATM    6  C6  UNL     1      -1.856   0.875   0.432  1.00  0.00     0.055 A 
HETATM    7  O1  UNL     1      -0.186   2.533   0.793  1.00  0.00    -0.190 OA
HETATM    8  C7  UNL     1       1.949   0.740   0.053  1.00  0.00     0.202 A 
HETATM    9  C8  UNL     1       2.885  -0.326  -0.352  1.00  0.00     0.069 A 
HETATM   10  C9  UNL     1       2.432  -1.553  -0.686  1.00  0.00     0.126 A 
HETATM   11  O2  UNL     1       1.119  -1.861  -0.666  1.00  0.00    -0.305 OA
HETATM   12  O3  UNL     1       2.424   1.816   0.338  1.00  0.00    -0.286 OA
HETATM   13  O4  UNL     1      -3.490  -0.818   0.053  1.00  0.00    -0.190 OA
ENDROOT
TORSDOF 0
