REMARK  13 active torsions:
REMARK  status: ('A' for Active; 'I' for Inactive)
REMARK    1  A    between atoms: C1_1  and  C44_58 
REMARK    2  A    between atoms: C9_10  and  O2_11 
REMARK    3  A    between atoms: O2_11  and  C10_12 
REMARK    4  A    between atoms: C11_13  and  O5_31 
REMARK    5  A    between atoms: C16_19  and  C19_23 
REMARK    6  A    between atoms: C19_23  and  C20_24 
REMARK    7  A    between atoms: C20_24  and  C21_25 
REMARK    8  A    between atoms: O5_31  and  C27_32 
REMARK    9  A    between atoms: C33_42  and  C36_46 
REMARK   10  A    between atoms: C36_46  and  C37_47 
REMARK   11  A    between atoms: C37_47  and  C38_48 
REMARK   12  A    between atoms: C44_58  and  C45_59 
REMARK   13  A    between atoms: C45_59  and  C46_60 
ROOT
HETATM    1  C10 UNL     1      -1.527  -1.590  -0.506  1.00  0.00     0.119 A 
HETATM    2  C11 UNL     1      -2.242  -1.422   0.707  1.00  0.00     0.117 A 
HETATM    3  C12 UNL     1      -3.420  -2.168   0.945  1.00  0.00     0.031 A 
HETATM    4  C13 UNL     1      -3.879  -3.084  -0.033  1.00  0.00     0.064 A 
HETATM    5  C14 UNL     1      -3.166  -3.256  -1.248  1.00  0.00     0.105 A 
HETATM    6  C15 UNL     1      -1.990  -2.504  -1.481  1.00  0.00     0.051 A 
HETATM    7  O3  UNL     1      -3.605  -4.129  -2.182  1.00  0.00    -0.311 OA
HETATM    8  C16 UNL     1      -4.719  -4.879  -2.027  1.00  0.00     0.081 A 
HETATM    9  C17 UNL     1      -5.477  -4.799  -0.912  1.00  0.00     0.062 A 
HETATM   10  C18 UNL     1      -5.115  -3.881   0.189  1.00  0.00     0.199 A 
HETATM   11  O4  UNL     1      -5.838  -3.860   1.158  1.00  0.00    -0.286 OA
ENDROOT
BRANCH   1  12
HETATM   12  O2  UNL     1      -0.412  -0.881  -0.732  1.00  0.00    -0.324 OA
BRANCH  12  13
HETATM   13  C9  UNL     1      -0.111  -0.524  -2.074  1.00  0.00     0.181 C 
HETATM   14  C4  UNL     1       1.193   0.258  -2.061  1.00  0.00     0.068 A 
HETATM   15  C3  UNL     1       2.451  -0.486  -1.918  1.00  0.00     0.197 A 
HETATM   16  C5  UNL     1       1.250   1.613  -2.176  1.00  0.00     0.112 A 
HETATM   17  C2  UNL     1       3.680   0.305  -1.906  1.00  0.00     0.062 A 
HETATM   18  O14 UNL     1       2.481  -1.690  -1.813  1.00  0.00    -0.287 OA
HETATM   19  C1  UNL     1       3.592   1.642  -2.027  1.00  0.00     0.081 A 
HETATM   20  O1  UNL     1       2.420   2.310  -2.160  1.00  0.00    -0.313 OA
HETATM   21  C6  UNL     1      -0.027   2.426  -2.338  1.00  0.00     0.230 C 
HETATM   22  C7  UNL     1      -1.338   1.660  -2.043  1.00  0.00     0.222 C 
HETATM   23  O13 UNL     1       0.035   3.566  -1.500  1.00  0.00    -0.214 OA
HETATM   24  C8  UNL     1      -1.307   0.248  -2.654  1.00  0.00     0.217 C 
HETATM   25  O12 UNL     1      -2.461   2.381  -2.524  1.00  0.00    -0.217 OA
HETATM   26  O11 UNL     1      -1.174   0.307  -4.065  1.00  0.00    -0.218 OA
BRANCH  19  27
HETATM   27  C44 UNL     1       4.881   2.424  -2.012  1.00  0.00     0.056 C 
BRANCH  27  28
HETATM   28  C45 UNL     1       4.965   3.435  -3.154  1.00  0.00     0.033 C 
BRANCH  28  29
HETATM   29  C46 UNL     1       4.981   2.762  -4.481  1.00  0.00    -0.022 A 
HETATM   30  C47 UNL     1       6.151   2.125  -4.934  1.00  0.00    -0.004 A 
HETATM   31  C48 UNL     1       6.164   1.490  -6.186  1.00  0.00    -0.000 A 
HETATM   32  C49 UNL     1       5.010   1.490  -6.988  1.00  0.00    -0.000 A 
HETATM   33  C50 UNL     1       3.842   2.125  -6.537  1.00  0.00    -0.000 A 
HETATM   34  C51 UNL     1       3.826   2.762  -5.283  1.00  0.00    -0.004 A 
ENDBRANCH  28  29
ENDBRANCH  27  28
ENDBRANCH  19  27
ENDBRANCH  12  13
ENDBRANCH   1  12
BRANCH   2  35
HETATM   35  O5  UNL     1      -1.803  -0.555   1.631  1.00  0.00    -0.324 OA
BRANCH  35  36
HETATM   36  C27 UNL     1      -0.545  -0.811   2.242  1.00  0.00     0.181 C 
HETATM   37  C28 UNL     1      -0.119   0.465   2.951  1.00  0.00     0.068 A 
HETATM   38  C29 UNL     1      -0.125   0.609   4.305  1.00  0.00     0.112 A 
HETATM   39  C35 UNL     1       0.313   1.603   2.131  1.00  0.00     0.197 A 
HETATM   40  C30 UNL     1      -0.551  -0.539   5.205  1.00  0.00     0.230 C 
HETATM   41  O9  UNL     1       0.238   1.760   4.932  1.00  0.00    -0.313 OA
HETATM   42  C31 UNL     1      -1.289  -1.709   4.512  1.00  0.00     0.222 C 
HETATM   43  O8  UNL     1       0.602  -1.041   5.852  1.00  0.00    -0.214 OA
HETATM   44  C32 UNL     1      -0.682  -2.055   3.141  1.00  0.00     0.217 C 
HETATM   45  O7  UNL     1      -2.645  -1.338   4.326  1.00  0.00    -0.217 OA
HETATM   46  O6  UNL     1       0.598  -2.635   3.324  1.00  0.00    -0.218 OA
HETATM   47  C33 UNL     1       0.641   2.820   4.193  1.00  0.00     0.081 A 
HETATM   48  C34 UNL     1       0.699   2.814   2.848  1.00  0.00     0.062 A 
HETATM   49  O10 UNL     1       0.348   1.551   0.924  1.00  0.00    -0.287 OA
BRANCH  47  50
HETATM   50  C36 UNL     1       1.049   4.090   4.897  1.00  0.00     0.056 C 
BRANCH  50  51
HETATM   51  C37 UNL     1       0.092   4.461   6.029  1.00  0.00     0.033 C 
BRANCH  51  52
HETATM   52  C38 UNL     1       0.492   5.732   6.690  1.00  0.00    -0.022 A 
HETATM   53  C39 UNL     1       1.361   5.709   7.793  1.00  0.00    -0.004 A 
HETATM   54  C40 UNL     1       1.740   6.910   8.416  1.00  0.00    -0.000 A 
HETATM   55  C41 UNL     1       1.248   8.137   7.936  1.00  0.00    -0.000 A 
HETATM   56  C42 UNL     1       0.379   8.160   6.832  1.00  0.00    -0.000 A 
HETATM   57  C43 UNL     1       0.000   6.959   6.209  1.00  0.00    -0.004 A 
ENDBRANCH  51  52
ENDBRANCH  50  51
ENDBRANCH  47  50
ENDBRANCH  35  36
ENDBRANCH   2  35
BRANCH   8  58
HETATM   58  C19 UNL     1      -5.143  -5.832  -3.113  1.00  0.00     0.056 C 
BRANCH  58  59
HETATM   59  C20 UNL     1      -4.377  -7.155  -3.059  1.00  0.00     0.033 C 
BRANCH  59  60
HETATM   60  C21 UNL     1      -2.930  -6.963  -3.342  1.00  0.00    -0.022 A 
HETATM   61  C22 UNL     1      -2.006  -6.912  -2.283  1.00  0.00    -0.004 A 
HETATM   62  C23 UNL     1      -0.639  -6.729  -2.553  1.00  0.00    -0.000 A 
HETATM   63  C24 UNL     1      -0.193  -6.598  -3.879  1.00  0.00    -0.000 A 
HETATM   64  C25 UNL     1      -1.117  -6.651  -4.938  1.00  0.00    -0.000 A 
HETATM   65  C26 UNL     1      -2.484  -6.832  -4.670  1.00  0.00    -0.004 A 
ENDBRANCH  59  60
ENDBRANCH  58  59
ENDBRANCH   8  58
TORSDOF 13
