REMARK  0 active torsions:
REMARK  status: ('A' for Active; 'I' for Inactive)
ROOT
HETATM    1  C1  UNL     1      -2.887  -0.791   0.119  1.00  0.00     0.036 C 
HETATM    2  C2  UNL     1      -2.609   0.678  -0.248  1.00  0.00     0.182 C 
HETATM    3  C3  UNL     1      -1.324   1.238   0.426  1.00  0.00     0.177 C 
HETATM    4  C4  UNL     1      -0.106   0.271   0.279  1.00  0.00     0.120 C 
HETATM    5  C5  UNL     1      -0.410  -1.221   0.662  1.00  0.00     0.025 C 
HETATM    6  C6  UNL     1      -1.664  -1.693  -0.109  1.00  0.00     0.005 C 
HETATM    7  C7  UNL     1       0.799  -2.125   0.318  1.00  0.00     0.002 C 
HETATM    8  C8  UNL     1       2.154  -1.498   0.695  1.00  0.00     0.003 C 
HETATM    9  C9  UNL     1       2.225  -0.012   0.299  1.00  0.00     0.027 C 
HETATM   10  C10 UNL     1       1.137   0.738   1.064  1.00  0.00     0.032 C 
HETATM   11  C11 UNL     1       1.775   0.303  -1.139  1.00  0.00     0.093 C 
HETATM   12  O1  UNL     1       0.361   0.313  -1.068  1.00  0.00    -0.361 OA
HETATM   13  C12 UNL     1       2.219   1.711  -1.527  1.00  0.00     0.030 C 
HETATM   14  C13 UNL     1       2.225  -0.711  -2.186  1.00  0.00     0.030 C 
HETATM   15  C14 UNL     1      -0.680  -1.326   2.174  1.00  0.00     0.002 C 
HETATM   16  O2  UNL     1      -1.617   1.402   1.801  1.00  0.00    -0.221 OA
HETATM   17  C15 UNL     1      -0.988   2.658  -0.063  1.00  0.00     0.038 C 
HETATM   18  O3  UNL     1      -2.514   0.779  -1.658  1.00  0.00    -0.221 OA
ENDROOT
TORSDOF 0
