REMARK  3 active torsions:
REMARK  status: ('A' for Active; 'I' for Inactive)
REMARK    1  A    between atoms: C8_10  and  C10_13 
REMARK    2  A    between atoms: C12_15  and  O6_22 
REMARK    3  A    between atoms: C13_16  and  O5_20 
ROOT
HETATM    1  C1  UNL     1       5.318   1.024  -0.242  1.00  0.00     0.028 A 
HETATM    2  C2  UNL     1       4.170   0.195  -0.217  1.00  0.00     0.007 A 
HETATM    3  C3  UNL     1       2.883   0.785  -0.190  1.00  0.00     0.062 A 
HETATM    4  C4  UNL     1       2.740   2.197  -0.188  1.00  0.00     0.105 A 
HETATM    5  C5  UNL     1       3.893   3.018  -0.215  1.00  0.00     0.052 A 
HETATM    6  C6  UNL     1       5.180   2.432  -0.244  1.00  0.00     0.133 A 
HETATM    7  O1  UNL     1       6.270   3.211  -0.270  1.00  0.00    -0.190 OA
HETATM    8  O2  UNL     1       1.512   2.760  -0.156  1.00  0.00    -0.305 OA
HETATM    9  C7  UNL     1       0.373   2.037  -0.129  1.00  0.00     0.126 A 
HETATM   10  C8  UNL     1       0.373   0.684  -0.131  1.00  0.00     0.066 A 
HETATM   11  C9  UNL     1       1.658  -0.060  -0.164  1.00  0.00     0.200 A 
HETATM   12  O3  UNL     1       1.619  -1.271  -0.168  1.00  0.00    -0.286 OA
ENDROOT
BRANCH  10  13
HETATM   13  C10 UNL     1      -0.930  -0.053  -0.100  1.00  0.00     0.033 A 
HETATM   14  C11 UNL     1      -1.082  -1.162   0.752  1.00  0.00     0.028 A 
HETATM   15  C12 UNL     1      -2.299  -1.865   0.791  1.00  0.00     0.116 A 
HETATM   16  C13 UNL     1      -3.369  -1.455  -0.024  1.00  0.00     0.118 A 
HETATM   17  C14 UNL     1      -3.217  -0.348  -0.875  1.00  0.00     0.054 A 
HETATM   18  C15 UNL     1      -2.002   0.358  -0.916  1.00  0.00     0.133 A 
HETATM   19  O4  UNL     1      -1.875   1.397  -1.721  1.00  0.00    -0.190 OA
BRANCH  15  20
HETATM   20  O6  UNL     1      -2.432  -2.904   1.592  1.00  0.00    -0.326 OA
HETATM   21  C17 UNL     1      -1.320  -3.273   2.393  1.00  0.00     0.181 C 
ENDBRANCH  15  20
BRANCH  16  22
HETATM   22  O5  UNL     1      -4.516  -2.109   0.008  1.00  0.00    -0.326 OA
HETATM   23  C16 UNL     1      -5.563  -1.658  -0.840  1.00  0.00     0.181 C 
ENDBRANCH  16  22
ENDBRANCH  10  13
TORSDOF 3
