REMARK  5 active torsions:
REMARK  status: ('A' for Active; 'I' for Inactive)
REMARK    1  A    between atoms: C15_16  and  C18_19 
REMARK    2  A    between atoms: C18_19  and  C19_20 
REMARK    3  A    between atoms: C19_20  and  C20_21 
REMARK    4  A    between atoms: C20_21  and  C21_23 
REMARK    5  A    between atoms: C21_23  and  C22_24 
ROOT
HETATM    1  C1  UNL     1      -3.669  -2.283  -0.689  1.00  0.00     0.182 C 
HETATM    2  C2  UNL     1      -4.645  -3.020   0.209  1.00  0.00     0.183 C 
HETATM    3  C3  UNL     1      -3.947  -3.640   1.426  1.00  0.00     0.043 C 
HETATM    4  C4  UNL     1      -2.470  -3.210   1.579  1.00  0.00     0.060 C 
HETATM    5  C5  UNL     1      -2.276  -1.678   1.438  1.00  0.00     0.009 C 
HETATM    6  C6  UNL     1      -2.834  -1.234   0.047  1.00  0.00     0.036 C 
HETATM    7  C7  UNL     1      -0.767  -1.276   1.592  1.00  0.00     0.001 C 
HETATM    8  C8  UNL     1       0.248  -2.405   1.351  1.00  0.00     0.007 C 
HETATM    9  C9  UNL     1      -0.236  -3.366   0.264  1.00  0.00     0.065 C 
HETATM   10  C10 UNL     1      -1.551  -4.008   0.658  1.00  0.00     0.150 C 
HETATM   11  O1  UNL     1      -1.843  -5.106   0.242  1.00  0.00    -0.296 OA
HETATM   12  C11 UNL     1       1.703  -1.911   1.143  1.00  0.00     0.000 C 
HETATM   13  C12 UNL     1       2.065  -0.572   1.858  1.00  0.00     0.000 C 
HETATM   14  C13 UNL     1       1.187  -0.495   3.125  1.00  0.00     0.000 C 
HETATM   15  C14 UNL     1      -0.338  -0.552   2.889  1.00  0.00     0.000 C 
HETATM   16  C15 UNL     1       1.781   0.561   0.815  1.00  0.00     0.003 C 
HETATM   17  C16 UNL     1       1.812  -0.178  -0.543  1.00  0.00     0.000 C 
HETATM   18  C17 UNL     1       2.162  -1.643  -0.292  1.00  0.00     0.000 C 
HETATM   19  C27 UNL     1       3.553  -0.660   2.272  1.00  0.00     0.000 C 
HETATM   20  C28 UNL     1      -3.128  -0.963   2.520  1.00  0.00     0.001 C 
HETATM   21  O4  UNL     1      -5.666  -2.143   0.631  1.00  0.00    -0.221 OA
HETATM   22  O5  UNL     1      -4.354  -1.679  -1.764  1.00  0.00    -0.221 OA
ENDROOT
BRANCH  16  23
HETATM   23  C18 UNL     1       2.514   1.931   0.745  1.00  0.00     0.033 C 
HETATM   24  C26 UNL     1       2.978   2.444   2.128  1.00  0.00     0.003 C 
BRANCH  23  25
HETATM   25  C19 UNL     1       1.683   3.091   0.124  1.00  0.00     0.182 C 
HETATM   26  O3  UNL     1       2.531   4.203  -0.079  1.00  0.00    -0.221 OA
BRANCH  25  27
HETATM   27  C20 UNL     1       0.785   2.968  -1.114  1.00  0.00     0.182 C 
HETATM   28  O2  UNL     1      -0.345   2.183  -0.801  1.00  0.00    -0.221 OA
BRANCH  27  29
HETATM   29  C21 UNL     1       1.347   2.556  -2.488  1.00  0.00     0.033 C 
HETATM   30  C25 UNL     1       2.759   3.094  -2.771  1.00  0.00     0.003 C 
BRANCH  29  31
HETATM   31  C22 UNL     1       0.350   2.868  -3.639  1.00  0.00     0.003 C 
HETATM   32  C23 UNL     1       0.387   4.331  -4.114  1.00  0.00     0.000 C 
HETATM   33  C24 UNL     1       0.545   1.930  -4.846  1.00  0.00     0.000 C 
ENDBRANCH  29  31
ENDBRANCH  27  29
ENDBRANCH  25  27
ENDBRANCH  23  25
ENDBRANCH  16  23
TORSDOF 5
