REMARK  1 active torsions:
REMARK  status: ('A' for Active; 'I' for Inactive)
REMARK    1  A    between atoms: C7_9  and  C10_13 
ROOT
HETATM    1  C1  UNL     1       4.162   0.959   0.604  1.00  0.00     0.057 A 
HETATM    2  C2  UNL     1       3.433  -0.261   0.643  1.00  0.00     0.099 A 
HETATM    3  C3  UNL     1       4.131  -1.492   0.639  1.00  0.00     0.052 A 
HETATM    4  C4  UNL     1       5.546  -1.508   0.637  1.00  0.00     0.133 A 
HETATM    5  C5  UNL     1       6.268  -0.292   0.639  1.00  0.00     0.028 A 
HETATM    6  C6  UNL     1       5.579   0.942   0.623  1.00  0.00     0.007 A 
HETATM    7  O1  UNL     1       6.202  -2.677   0.637  1.00  0.00    -0.190 OA
HETATM    8  O2  UNL     1       2.084  -0.271   0.682  1.00  0.00    -0.328 OA
HETATM    9  C7  UNL     1       1.363   0.901   1.084  1.00  0.00     0.151 C 
HETATM   10  C8  UNL     1       1.925   2.151   0.377  1.00  0.00     0.104 C 
HETATM   11  C9  UNL     1       3.428   2.252   0.533  1.00  0.00     0.178 C 
HETATM   12  O3  UNL     1       3.911   3.360   0.583  1.00  0.00    -0.291 OA
ENDROOT
BRANCH   9  13
HETATM   13  C10 UNL     1      -0.069   0.700   0.812  1.00  0.00     0.006 A 
HETATM   14  C11 UNL     1      -0.494   0.286  -0.473  1.00  0.00     0.000 A 
HETATM   15  C12 UNL     1      -1.874   0.091  -0.723  1.00  0.00     0.022 A 
HETATM   16  C13 UNL     1      -2.830   0.306   0.301  1.00  0.00     0.094 A 
HETATM   17  C18 UNL     1      -2.349  -0.326  -2.062  1.00  0.00    -0.000 C 
HETATM   18  C14 UNL     1      -2.399   0.728   1.581  1.00  0.00     0.024 A 
HETATM   19  O4  UNL     1      -4.147   0.126   0.061  1.00  0.00    -0.332 OA
HETATM   20  C15 UNL     1      -1.021   0.921   1.837  1.00  0.00     0.000 A 
HETATM   21  C16 UNL     1      -4.612  -0.641  -1.066  1.00  0.00     0.117 C 
HETATM   22  C17 UNL     1      -3.648  -0.632  -2.241  1.00  0.00     0.001 C 
HETATM   23  C19 UNL     1      -4.793  -2.088  -0.598  1.00  0.00     0.035 C 
HETATM   24  C20 UNL     1      -5.962  -0.060  -1.491  1.00  0.00     0.035 C 
ENDBRANCH   9  13
TORSDOF 1
