REMARK  3 active torsions:
REMARK  status: ('A' for Active; 'I' for Inactive)
REMARK    1  A    between atoms: C2_2  and  O4_19 
REMARK    2  A    between atoms: O4_19  and  C16_20 
REMARK    3  A    between atoms: C17_22  and  C21_29 
ROOT
HETATM    1  C1  UNL     1      -2.027   0.607  -1.699  1.00  0.00     0.052 A 
HETATM    2  C2  UNL     1      -0.902  -0.082  -1.192  1.00  0.00     0.104 A 
HETATM    3  C3  UNL     1       0.385   0.520  -1.250  1.00  0.00     0.084 A 
HETATM    4  C4  UNL     1       0.527   1.818  -1.820  1.00  0.00     0.107 A 
HETATM    5  C5  UNL     1      -0.603   2.496  -2.328  1.00  0.00     0.052 A 
HETATM    6  C6  UNL     1      -1.881   1.893  -2.268  1.00  0.00     0.135 A 
HETATM    7  O1  UNL     1      -2.951   2.537  -2.750  1.00  0.00    -0.190 OA
HETATM    8  O2  UNL     1       1.736   2.418  -1.883  1.00  0.00    -0.307 OA
HETATM    9  C7  UNL     1       2.881   1.861  -1.430  1.00  0.00     0.103 A 
HETATM   10  C8  UNL     1       2.877   0.566  -0.844  1.00  0.00     0.061 A 
HETATM   11  C9  UNL     1       1.594  -0.201  -0.719  1.00  0.00     0.201 A 
HETATM   12  O3  UNL     1       1.541  -1.307  -0.229  1.00  0.00    -0.286 OA
HETATM   13  C10 UNL     1       4.092   0.000  -0.379  1.00  0.00     0.001 A 
HETATM   14  C11 UNL     1       5.303   0.723  -0.494  1.00  0.00    -0.026 A 
HETATM   15  C12 UNL     1       5.305   2.016  -1.076  1.00  0.00    -0.024 A 
HETATM   16  C13 UNL     1       4.094   2.582  -1.543  1.00  0.00     0.020 A 
HETATM   17  C14 UNL     1       6.557   2.779  -1.201  1.00  0.00     0.031 C 
HETATM   18  C15 UNL     1       6.553   0.117  -0.004  1.00  0.00     0.031 C 
ENDROOT
BRANCH   2  19
HETATM   19  O4  UNL     1      -1.074  -1.299  -0.656  1.00  0.00    -0.303 OA
BRANCH  19  20
HETATM   20  C16 UNL     1      -2.314  -1.582  -0.022  1.00  0.00     0.274 C 
HETATM   21  O5  UNL     1      -2.582  -0.568   0.939  1.00  0.00    -0.326 OA
HETATM   22  C17 UNL     1      -3.820  -0.701   1.623  1.00  0.00     0.184 C 
HETATM   23  C18 UNL     1      -3.834  -2.033   2.406  1.00  0.00     0.215 C 
HETATM   24  C19 UNL     1      -3.537  -3.234   1.482  1.00  0.00     0.220 C 
HETATM   25  O8  UNL     1      -5.106  -2.195   3.010  1.00  0.00    -0.218 OA
HETATM   26  C20 UNL     1      -2.250  -2.959   0.674  1.00  0.00     0.241 C 
HETATM   27  O7  UNL     1      -3.375  -4.412   2.256  1.00  0.00    -0.218 OA
HETATM   28  O6  UNL     1      -2.074  -3.959  -0.315  1.00  0.00    -0.215 OA
BRANCH  22  29
HETATM   29  C21 UNL     1      -3.961   0.523   2.533  1.00  0.00     0.214 C 
HETATM   30  O9  UNL     1      -4.133   1.660   1.719  1.00  0.00    -0.218 OA
ENDBRANCH  22  29
ENDBRANCH  19  20
ENDBRANCH   2  19
TORSDOF 3
