REMARK  1 active torsions:
REMARK  status: ('A' for Active; 'I' for Inactive)
REMARK    1  A    between atoms: C7_9  and  C10_12 
ROOT
HETATM    1  C1  UNL     1       4.463   0.551   0.440  1.00  0.00     0.027 A 
HETATM    2  C2  UNL     1       3.447   1.531   0.525  1.00  0.00    -0.000 A 
HETATM    3  C3  UNL     1       2.084   1.152   0.457  1.00  0.00     0.000 A 
HETATM    4  C4  UNL     1       1.738  -0.223   0.315  1.00  0.00     0.092 A 
HETATM    5  C5  UNL     1       2.760  -1.197   0.225  1.00  0.00     0.051 A 
HETATM    6  C6  UNL     1       4.119  -0.812   0.287  1.00  0.00     0.133 A 
HETATM    7  O1  UNL     1       5.082  -1.740   0.205  1.00  0.00    -0.190 OA
HETATM    8  O2  UNL     1       0.449  -0.627   0.250  1.00  0.00    -0.329 OA
HETATM    9  C7  UNL     1      -0.621   0.272   0.574  1.00  0.00     0.144 C 
HETATM   10  C8  UNL     1      -0.326   1.668  -0.002  1.00  0.00     0.040 C 
HETATM   11  C9  UNL     1       1.018   2.182   0.535  1.00  0.00     0.031 C 
ENDROOT
BRANCH   9  12
HETATM   12  C10 UNL     1      -1.900  -0.297   0.068  1.00  0.00     0.005 A 
HETATM   13  C11 UNL     1      -3.008  -0.410   0.928  1.00  0.00     0.000 A 
HETATM   14  C12 UNL     1      -4.215  -0.945   0.449  1.00  0.00     0.027 A 
HETATM   15  C13 UNL     1      -4.322  -1.369  -0.889  1.00  0.00     0.131 A 
HETATM   16  C14 UNL     1      -3.211  -1.254  -1.744  1.00  0.00     0.027 A 
HETATM   17  O3  UNL     1      -5.455  -1.871  -1.336  1.00  0.00    -0.190 OA
HETATM   18  C15 UNL     1      -2.002  -0.719  -1.268  1.00  0.00     0.000 A 
ENDBRANCH   9  12
TORSDOF 1
