REMARK  1 active torsions:
REMARK  status: ('A' for Active; 'I' for Inactive)
REMARK    1  A    between atoms: C11_13  and  C15_18 
ROOT
HETATM    1  C1  UNL     1      -4.020   0.582  -0.578  1.00  0.00     0.002 A 
HETATM    2  C2  UNL     1      -2.773   1.236  -0.488  1.00  0.00     0.003 A 
HETATM    3  C3  UNL     1      -1.578   0.500  -0.273  1.00  0.00     0.044 A 
HETATM    4  C4  UNL     1      -1.641  -0.918  -0.145  1.00  0.00     0.067 A 
HETATM    5  C5  UNL     1      -2.908  -1.568  -0.238  1.00  0.00     0.134 A 
HETATM    6  C6  UNL     1      -4.086  -0.820  -0.453  1.00  0.00     0.028 A 
HETATM    7  O1  UNL     1      -3.016  -2.900  -0.123  1.00  0.00    -0.190 OA
HETATM    8  C7  UNL     1      -0.408  -1.738   0.084  1.00  0.00     0.200 A 
HETATM    9  C8  UNL     1       0.895  -0.998   0.154  1.00  0.00     0.067 A 
HETATM   10  C9  UNL     1       0.959   0.426   0.025  1.00  0.00     0.043 A 
HETATM   11  C10 UNL     1      -0.283   1.246  -0.188  1.00  0.00     0.196 A 
HETATM   12  O2  UNL     1      -0.256   2.453  -0.289  1.00  0.00    -0.287 OA
HETATM   13  C11 UNL     1       2.233   1.074   0.100  1.00  0.00     0.014 A 
HETATM   14  C12 UNL     1       3.408   0.320   0.299  1.00  0.00     0.001 A 
HETATM   15  C13 UNL     1       3.342  -1.078   0.428  1.00  0.00     0.027 A 
HETATM   16  C14 UNL     1       2.098  -1.736   0.357  1.00  0.00     0.134 A 
HETATM   17  O3  UNL     1       2.080  -3.072   0.484  1.00  0.00    -0.190 OA
HETATM   18  O5  UNL     1      -0.463  -2.943   0.203  1.00  0.00    -0.286 OA
ENDROOT
BRANCH  13  19
HETATM   19  C15 UNL     1       2.377   2.535  -0.027  1.00  0.00     0.209 C 
HETATM   20  O4  UNL     1       1.887   3.160   1.137  1.00  0.00    -0.215 OA
ENDBRANCH  13  19
TORSDOF 1
