REMARK  5 active torsions:
REMARK  status: ('A' for Active; 'I' for Inactive)
REMARK    1  A    between atoms: C3_3  and  C8_10 
REMARK    2  A    between atoms: C6_6  and  O1_7 
REMARK    3  A    between atoms: C8_10  and  C9_11 
REMARK    4  A    between atoms: C9_11  and  C10_12 
REMARK    5  A    between atoms: C10_12  and  C11_13 
ROOT
HETATM    1  C1  UNL     1      -1.295   1.592   2.701  1.00  0.00     0.052 A 
HETATM    2  C2  UNL     1      -0.514   1.322   1.565  1.00  0.00     0.138 A 
HETATM    3  C3  UNL     1      -1.035   1.578   0.281  1.00  0.00     0.086 A 
HETATM    4  C4  UNL     1      -2.336   2.102   0.139  1.00  0.00     0.138 A 
HETATM    5  C5  UNL     1      -3.109   2.365   1.283  1.00  0.00     0.052 A 
HETATM    6  C6  UNL     1      -2.592   2.113   2.565  1.00  0.00     0.098 A 
HETATM    7  O2  UNL     1      -2.836   2.344  -1.057  1.00  0.00    -0.190 OA
HETATM    8  O4  UNL     1       0.703   0.832   1.711  1.00  0.00    -0.190 OA
ENDROOT
BRANCH   3   9
HETATM    9  C8  UNL     1      -0.207   1.293  -0.932  1.00  0.00     0.177 C 
HETATM   10  O3  UNL     1      -0.195   2.057  -1.869  1.00  0.00    -0.291 OA
BRANCH   9  11
HETATM   11  C9  UNL     1       0.609   0.029  -0.953  1.00  0.00     0.074 C 
BRANCH  11  12
HETATM   12  C10 UNL     1       0.973  -0.406  -2.373  1.00  0.00     0.035 C 
BRANCH  12  13
HETATM   13  C11 UNL     1       1.762  -1.666  -2.373  1.00  0.00    -0.022 A 
HETATM   14  C12 UNL     1       1.105  -2.910  -2.373  1.00  0.00    -0.004 A 
HETATM   15  C13 UNL     1       1.852  -4.102  -2.373  1.00  0.00    -0.000 A 
HETATM   16  C14 UNL     1       3.256  -4.049  -2.373  1.00  0.00    -0.000 A 
HETATM   17  C15 UNL     1       3.914  -2.809  -2.373  1.00  0.00    -0.000 A 
HETATM   18  C16 UNL     1       3.168  -1.617  -2.373  1.00  0.00    -0.004 A 
ENDBRANCH  12  13
ENDBRANCH  11  12
ENDBRANCH   9  11
ENDBRANCH   3   9
BRANCH   6  19
HETATM   19  O1  UNL     1      -3.322   2.363   3.633  1.00  0.00    -0.328 OA
HETATM   20  C7  UNL     1      -2.783   2.022   4.903  1.00  0.00     0.181 C 
ENDBRANCH   6  19
TORSDOF 5
