REMARK  2 active torsions:
REMARK  status: ('A' for Active; 'I' for Inactive)
REMARK    1  A    between atoms: C8_9  and  C10_12 
REMARK    2  A    between atoms: C14_17  and  O4_19 
ROOT
HETATM    1  C1  UNL     1       4.477   2.254  -0.342  1.00  0.00     0.133 A 
HETATM    2  C2  UNL     1       4.615   0.846  -0.342  1.00  0.00     0.028 A 
HETATM    3  C3  UNL     1       3.467   0.020  -0.317  1.00  0.00     0.007 A 
HETATM    4  C4  UNL     1       2.180   0.607  -0.289  1.00  0.00     0.062 A 
HETATM    5  C5  UNL     1       2.035   2.022  -0.285  1.00  0.00     0.105 A 
HETATM    6  C6  UNL     1       3.187   2.842  -0.315  1.00  0.00     0.052 A 
HETATM    7  O1  UNL     1       0.809   2.582  -0.256  1.00  0.00    -0.305 OA
HETATM    8  C7  UNL     1      -0.330   1.861  -0.227  1.00  0.00     0.126 A 
HETATM    9  C8  UNL     1      -0.330   0.508  -0.231  1.00  0.00     0.066 A 
HETATM   10  C9  UNL     1       0.955  -0.238  -0.264  1.00  0.00     0.200 A 
HETATM   11  O2  UNL     1       0.914  -1.449  -0.268  1.00  0.00    -0.286 OA
HETATM   12  O5  UNL     1       5.566   3.035  -0.369  1.00  0.00    -0.190 OA
ENDROOT
BRANCH   9  13
HETATM   13  C10 UNL     1      -1.635  -0.230  -0.199  1.00  0.00     0.032 A 
HETATM   14  C11 UNL     1      -2.711   0.191  -1.004  1.00  0.00     0.131 A 
HETATM   15  O3  UNL     1      -2.590   1.238  -1.797  1.00  0.00    -0.190 OA
HETATM   16  C12 UNL     1      -3.928  -0.514  -0.963  1.00  0.00     0.029 A 
HETATM   17  C13 UNL     1      -4.070  -1.631  -0.123  1.00  0.00     0.026 A 
HETATM   18  C14 UNL     1      -2.998  -2.053   0.680  1.00  0.00     0.094 A 
HETATM   19  C15 UNL     1      -1.779  -1.350   0.641  1.00  0.00     0.026 A 
BRANCH  18  20
HETATM   20  O4  UNL     1      -3.133  -3.100   1.467  1.00  0.00    -0.328 OA
HETATM   21  C16 UNL     1      -1.988  -3.553   2.176  1.00  0.00     0.181 C 
ENDBRANCH  18  20
ENDBRANCH   9  13
TORSDOF 2
