REMARK  5 active torsions:
REMARK  status: ('A' for Active; 'I' for Inactive)
REMARK    1  A    between atoms: C1_1  and  O9_24 
REMARK    2  A    between atoms: C3_3  and  O3_12 
REMARK    3  A    between atoms: C6_6  and  C7_7 
REMARK    4  A    between atoms: O3_12  and  C10_13 
REMARK    5  A    between atoms: C11_15  and  C15_22 
ROOT
HETATM    1  C1  UNL     1       1.303  -1.936   1.094  1.00  0.00     0.101 A 
HETATM    2  C2  UNL     1       0.996  -0.586   0.848  1.00  0.00     0.048 A 
HETATM    3  C3  UNL     1       1.480   0.056  -0.303  1.00  0.00     0.097 A 
HETATM    4  C4  UNL     1       2.279  -0.656  -1.217  1.00  0.00     0.026 A 
HETATM    5  C5  UNL     1       2.590  -2.010  -0.980  1.00  0.00     0.134 A 
HETATM    6  C6  UNL     1       2.102  -2.649   0.178  1.00  0.00     0.082 A 
HETATM    7  O2  UNL     1       3.338  -2.674  -1.840  1.00  0.00    -0.190 OA
HETATM    8  C9  UNL     1       2.793   0.021  -2.437  1.00  0.00     0.035 C 
ENDROOT
BRANCH   3   9
HETATM    9  O3  UNL     1       1.184   1.324  -0.518  1.00  0.00    -0.304 OA
BRANCH   9  10
HETATM   10  C10 UNL     1      -0.078   1.799  -0.070  1.00  0.00     0.274 C 
HETATM   11  O4  UNL     1      -1.090   0.918  -0.535  1.00  0.00    -0.326 OA
HETATM   12  C11 UNL     1      -2.408   1.246  -0.117  1.00  0.00     0.184 C 
HETATM   13  C12 UNL     1      -2.789   2.642  -0.662  1.00  0.00     0.215 C 
HETATM   14  C13 UNL     1      -1.752   3.711  -0.254  1.00  0.00     0.220 C 
HETATM   15  O7  UNL     1      -4.065   2.994  -0.156  1.00  0.00    -0.218 OA
HETATM   16  C14 UNL     1      -0.332   3.221  -0.615  1.00  0.00     0.241 C 
HETATM   17  O6  UNL     1      -2.023   4.930  -0.926  1.00  0.00    -0.218 OA
HETATM   18  O5  UNL     1       0.637   4.096  -0.066  1.00  0.00    -0.215 OA
BRANCH  12  19
HETATM   19  C15 UNL     1      -3.326   0.133  -0.631  1.00  0.00     0.214 C 
HETATM   20  O8  UNL     1      -2.994  -1.059   0.045  1.00  0.00    -0.218 OA
ENDBRANCH  12  19
ENDBRANCH   9  10
ENDBRANCH   3   9
BRANCH   1  21
HETATM   21  O9  UNL     1       0.838  -2.524   2.180  1.00  0.00    -0.328 OA
HETATM   22  C16 UNL     1       0.219  -1.709   3.164  1.00  0.00     0.181 C 
ENDBRANCH   1  21
BRANCH   6  23
HETATM   23  C7  UNL     1       2.430  -4.086   0.434  1.00  0.00     0.177 C 
HETATM   24  O1  UNL     1       3.113  -4.713  -0.342  1.00  0.00    -0.291 OA
HETATM   25  C8  UNL     1       1.885  -4.725   1.682  1.00  0.00     0.077 C 
ENDBRANCH   6  23
TORSDOF 5
