REMARK  4 active torsions:
REMARK  status: ('A' for Active; 'I' for Inactive)
REMARK    1  A    between atoms: C7_9  and  C10_13 
REMARK    2  A    between atoms: C10_13  and  C11_14 
REMARK    3  A    between atoms: C11_14  and  C12_15 
REMARK    4  A    between atoms: C15_18  and  O4_21 
ROOT
HETATM    1  C1  UNL     1      -5.451  -3.115   0.525  1.00  0.00     0.030 A 
HETATM    2  C2  UNL     1      -4.158  -3.652   0.733  1.00  0.00     0.136 A 
HETATM    3  C3  UNL     1      -3.016  -2.869   0.418  1.00  0.00     0.089 A 
HETATM    4  C4  UNL     1      -3.170  -1.555  -0.100  1.00  0.00     0.130 A 
HETATM    5  C5  UNL     1      -4.467  -1.029  -0.305  1.00  0.00     0.154 A 
HETATM    6  C6  UNL     1      -5.606  -1.808   0.008  1.00  0.00     0.032 A 
HETATM    7  O1  UNL     1      -4.621   0.209  -0.793  1.00  0.00    -0.188 OA
HETATM    8  O2  UNL     1      -2.084  -0.806  -0.398  1.00  0.00    -0.309 OA
HETATM    9  C7  UNL     1      -0.816  -1.236  -0.232  1.00  0.00     0.081 A 
HETATM   10  C8  UNL     1      -0.547  -2.469   0.252  1.00  0.00     0.062 A 
HETATM   11  C9  UNL     1      -1.637  -3.396   0.621  1.00  0.00     0.201 A 
HETATM   12  O3  UNL     1      -1.318  -4.484   1.047  1.00  0.00    -0.286 OA
HETATM   13  O5  UNL     1      -4.029  -4.892   1.225  1.00  0.00    -0.190 OA
ENDROOT
BRANCH   9  14
HETATM   14  C10 UNL     1       0.338  -0.338  -0.588  1.00  0.00     0.056 C 
BRANCH  14  15
HETATM   15  C11 UNL     1       0.605   0.721   0.483  1.00  0.00     0.033 C 
BRANCH  15  16
HETATM   16  C12 UNL     1       1.754   1.590   0.119  1.00  0.00    -0.022 A 
HETATM   17  C13 UNL     1       3.055   1.240   0.518  1.00  0.00    -0.002 A 
HETATM   18  C14 UNL     1       4.141   2.065   0.172  1.00  0.00     0.024 A 
HETATM   19  C15 UNL     1       3.930   3.239  -0.572  1.00  0.00     0.094 A 
HETATM   20  C16 UNL     1       2.627   3.584  -0.971  1.00  0.00     0.024 A 
HETATM   21  C17 UNL     1       1.539   2.764  -0.627  1.00  0.00    -0.002 A 
BRANCH  19  22
HETATM   22  O4  UNL     1       4.949   4.008  -0.896  1.00  0.00    -0.328 OA
HETATM   23  C18 UNL     1       6.234   3.653  -0.412  1.00  0.00     0.181 C 
ENDBRANCH  19  22
ENDBRANCH  15  16
ENDBRANCH  14  15
ENDBRANCH   9  14
TORSDOF 4
