REMARK  0 active torsions:
REMARK  status: ('A' for Active; 'I' for Inactive)
ROOT
HETATM    1  C1  UNL     1       4.471  -1.010   0.605  1.00  0.00     0.000 A 
HETATM    2  C2  UNL     1       3.225  -1.674   0.537  1.00  0.00     0.003 A 
HETATM    3  C3  UNL     1       2.023  -0.941   0.334  1.00  0.00     0.042 A 
HETATM    4  C4  UNL     1       2.080   0.475   0.205  1.00  0.00     0.042 A 
HETATM    5  C5  UNL     1       3.340   1.131   0.277  1.00  0.00     0.003 A 
HETATM    6  C6  UNL     1       4.527   0.393   0.477  1.00  0.00     0.000 A 
HETATM    7  C7  UNL     1       0.850   1.299  -0.008  1.00  0.00     0.198 A 
HETATM    8  C8  UNL     1      -0.451   0.555  -0.092  1.00  0.00     0.069 A 
HETATM    9  C9  UNL     1      -0.508  -0.867   0.037  1.00  0.00     0.069 A 
HETATM   10  C10 UNL     1       0.728  -1.688   0.266  1.00  0.00     0.198 A 
HETATM   11  O1  UNL     1       0.689  -2.893   0.387  1.00  0.00    -0.286 OA
HETATM   12  C11 UNL     1      -1.770  -1.527  -0.055  1.00  0.00     0.134 A 
HETATM   13  C12 UNL     1      -2.951  -0.789  -0.270  1.00  0.00     0.025 A 
HETATM   14  C13 UNL     1      -2.899   0.615  -0.396  1.00  0.00     0.006 A 
HETATM   15  C14 UNL     1      -1.656   1.285  -0.309  1.00  0.00     0.130 A 
HETATM   16  O2  UNL     1      -1.637   2.621  -0.432  1.00  0.00    -0.190 OA
HETATM   17  C15 UNL     1      -4.141   1.373  -0.621  1.00  0.00     0.033 C 
HETATM   18  O3  UNL     1      -1.867  -2.859   0.061  1.00  0.00    -0.190 OA
HETATM   19  O4  UNL     1       0.910   2.504  -0.105  1.00  0.00    -0.286 OA
ENDROOT
TORSDOF 0
