REMARK  2 active torsions:
REMARK  status: ('A' for Active; 'I' for Inactive)
REMARK    1  A    between atoms: N1_13  and  C12_14 
REMARK    2  A    between atoms: C12_14  and  C13_15 
ROOT
HETATM    1  C1  UNL     1      -1.557   0.704   2.134  1.00  0.00     0.000 C 
HETATM    2  C2  UNL     1      -1.540   1.719   0.967  1.00  0.00     0.002 C 
HETATM    3  C3  UNL     1      -0.176   1.675   0.191  1.00  0.00     0.032 C 
HETATM    4  C4  UNL     1       0.043   0.208  -0.404  1.00  0.00     0.009 C 
HETATM    5  C5  UNL     1       0.108  -0.730   0.801  1.00  0.00     0.057 C 
HETATM    6  C6  UNL     1      -1.208  -0.725   1.625  1.00  0.00     0.004 C 
HETATM    7  C7  UNL     1       0.594  -2.217   0.504  1.00  0.00     0.009 C 
HETATM    8  C8  UNL     1       1.937  -2.226  -0.193  1.00  0.00     0.057 C 
HETATM    9  C9  UNL     1       2.451  -0.790  -0.302  1.00  0.00     0.120 C 
HETATM   10  C10 UNL     1       1.398   0.093  -1.164  1.00  0.00     0.030 C 
HETATM   11  O1  UNL     1       2.527  -0.222   0.887  1.00  0.00    -0.331 OA
HETATM   12  C11 UNL     1       1.376  -0.237   1.675  1.00  0.00     0.336 C 
HETATM   13  N1  UNL     1       1.309   1.107   2.236  1.00  0.00     0.165 N 
HETATM   14  C14 UNL     1       1.105   2.072   1.114  1.00  0.00     0.253 C 
HETATM   15  C15 UNL     1       2.016  -2.744  -1.671  1.00  0.00     0.173 C 
HETATM   16  C16 UNL     1       1.591  -4.161  -1.622  1.00  0.00    -0.015 C 
HETATM   17  C17 UNL     1       0.829  -4.573  -0.421  1.00  0.00     0.021 C 
HETATM   18  C18 UNL     1      -0.229  -3.400  -0.082  1.00  0.00     0.004 C 
HETATM   19  C19 UNL     1       1.942  -4.659   0.680  1.00  0.00     0.004 C 
HETATM   20  C20 UNL     1       2.771  -3.276   0.660  1.00  0.00     0.005 C 
HETATM   21  C21 UNL     1       2.209  -5.075  -2.384  1.00  0.00    -0.007 C 
HETATM   22  O3  UNL     1       3.370  -2.633  -2.190  1.00  0.00    -0.219 OA
HETATM   23  C22 UNL     1      -0.244   2.696  -0.961  1.00  0.00     0.002 C 
ENDROOT
BRANCH  13  24
HETATM   24  C12 UNL     1       2.592   1.432   3.122  1.00  0.00     0.288 C 
BRANCH  24  25
HETATM   25  C13 UNL     1       3.967   0.536   3.006  1.00  0.00     0.218 C 
HETATM   26  O2  UNL     1       4.577   0.547   1.666  1.00  0.00    -0.218 OA
ENDBRANCH  24  25
ENDBRANCH  13  24
TORSDOF 2
