REMARK  0 active torsions:
REMARK  status: ('A' for Active; 'I' for Inactive)
ROOT
HETATM    1  C1  UNL     1      -5.006  -1.565  -0.043  1.00  0.00     0.033 C 
HETATM    2  C2  UNL     1      -5.666  -0.182   0.100  1.00  0.00     0.152 C 
HETATM    3  C3  UNL     1      -4.957   0.715   1.154  1.00  0.00     0.028 C 
HETATM    4  C4  UNL     1      -3.424   0.730   0.887  1.00  0.00     0.002 C 
HETATM    5  C5  UNL     1      -2.758  -0.674   0.830  1.00  0.00     0.001 C 
HETATM    6  C6  UNL     1      -3.486  -1.479  -0.275  1.00  0.00     0.003 C 
HETATM    7  C7  UNL     1      -1.193  -0.566   0.637  1.00  0.00     0.005 C 
HETATM    8  C8  UNL     1      -0.631   0.844   0.293  1.00  0.00     0.006 C 
HETATM    9  C9  UNL     1      -1.227   1.928   1.254  1.00  0.00     0.000 C 
HETATM   10  C10 UNL     1      -2.621   1.635   1.824  1.00  0.00     0.000 C 
HETATM   11  C11 UNL     1       0.953   0.834   0.359  1.00  0.00     0.050 C 
HETATM   12  C12 UNL     1       1.582  -0.422  -0.262  1.00  0.00    -0.046 C 
HETATM   13  C13 UNL     1       0.844  -1.508  -0.592  1.00  0.00    -0.035 C 
HETATM   14  C14 UNL     1      -0.639  -1.606  -0.354  1.00  0.00     0.025 C 
HETATM   15  C15 UNL     1       3.100  -0.418  -0.469  1.00  0.00     0.025 C 
HETATM   16  C16 UNL     1       3.570   0.824  -1.258  1.00  0.00     0.058 C 
HETATM   17  C17 UNL     1       3.065   2.053  -0.533  1.00  0.00     0.180 C 
HETATM   18  C18 UNL     1       1.565   2.113  -0.316  1.00  0.00     0.212 C 
HETATM   19  O1  UNL     1       1.238   3.281   0.416  1.00  0.00    -0.215 OA
HETATM   20  O2  UNL     1       3.815   2.926  -0.152  1.00  0.00    -0.293 OA
HETATM   21  C19 UNL     1       5.113   0.848  -1.350  1.00  0.00     0.007 C 
HETATM   22  C20 UNL     1       5.688  -0.443  -1.949  1.00  0.00     0.000 C 
HETATM   23  C21 UNL     1       5.244  -1.690  -1.166  1.00  0.00     0.000 C 
HETATM   24  C22 UNL     1       3.705  -1.717  -1.065  1.00  0.00     0.004 C 
HETATM   25  C23 UNL     1       5.731  -2.949  -1.891  1.00  0.00     0.000 C 
HETATM   26  C24 UNL     1       5.863  -1.678   0.238  1.00  0.00     0.000 C 
HETATM   27  C25 UNL     1       2.981   0.820  -2.676  1.00  0.00     0.008 C 
HETATM   28  C26 UNL     1       1.424   0.746   1.824  1.00  0.00     0.007 C 
HETATM   29  C27 UNL     1      -1.080   1.172  -1.147  1.00  0.00     0.000 C 
HETATM   30  C28 UNL     1      -2.980  -1.432   2.152  1.00  0.00     0.000 C 
HETATM   31  C29 UNL     1      -5.523   2.143   1.092  1.00  0.00     0.003 C 
HETATM   32  C30 UNL     1      -5.270   0.187   2.561  1.00  0.00     0.003 C 
HETATM   33  O3  UNL     1      -5.652   0.441  -1.174  1.00  0.00    -0.224 OA
ENDROOT
TORSDOF 0
