REMARK  6 active torsions:
REMARK  status: ('A' for Active; 'I' for Inactive)
REMARK    1  A    between atoms: C5_5  and  O2_9 
REMARK    2  A    between atoms: C6_6  and  O1_7 
REMARK    3  A    between atoms: C10_12  and  O7_26 
REMARK    4  A    between atoms: C11_13  and  C12_15 
REMARK    5  A    between atoms: C15_18  and  O5_23 
REMARK    6  A    between atoms: C16_19  and  O4_21 
ROOT
HETATM    1  C1  UNL     1      -4.191  -0.334   0.705  1.00  0.00     0.157 A 
HETATM    2  C2  UNL     1      -3.051   0.434   0.369  1.00  0.00     0.054 A 
HETATM    3  C3  UNL     1      -1.756  -0.102   0.563  1.00  0.00     0.107 A 
HETATM    4  C4  UNL     1      -1.604  -1.408   1.092  1.00  0.00     0.088 A 
HETATM    5  C5  UNL     1      -2.744  -2.180   1.430  1.00  0.00     0.123 A 
HETATM    6  C6  UNL     1      -4.039  -1.639   1.234  1.00  0.00     0.142 A 
HETATM    7  C9  UNL     1      -0.227  -1.941   1.281  1.00  0.00     0.223 A 
HETATM    8  C10 UNL     1       0.879  -1.031   0.891  1.00  0.00     0.156 A 
HETATM    9  C11 UNL     1       0.602   0.199   0.395  1.00  0.00     0.125 A 
HETATM   10  O3  UNL     1      -0.668   0.633   0.242  1.00  0.00    -0.305 OA
HETATM   11  O8  UNL     1       0.082  -3.027   1.715  1.00  0.00    -0.284 OA
HETATM   12  O9  UNL     1      -5.416   0.178   0.522  1.00  0.00    -0.188 OA
ENDROOT
BRANCH   9  13
HETATM   13  C12 UNL     1       1.727   1.105   0.008  1.00  0.00     0.029 A 
HETATM   14  C13 UNL     1       2.561   1.658   0.996  1.00  0.00     0.032 A 
HETATM   15  C14 UNL     1       3.619   2.508   0.633  1.00  0.00     0.155 A 
HETATM   16  C15 UNL     1       3.844   2.811  -0.723  1.00  0.00     0.141 A 
HETATM   17  O6  UNL     1       4.397   3.021   1.565  1.00  0.00    -0.188 OA
HETATM   18  C16 UNL     1       3.010   2.260  -1.715  1.00  0.00     0.118 A 
HETATM   19  C17 UNL     1       1.953   1.408  -1.348  1.00  0.00     0.028 A 
BRANCH  16  20
HETATM   20  O5  UNL     1       4.836   3.609  -1.064  1.00  0.00    -0.324 OA
HETATM   21  C19 UNL     1       5.680   3.203  -2.133  1.00  0.00     0.182 C 
ENDBRANCH  16  20
BRANCH  18  22
HETATM   22  O4  UNL     1       3.217   2.539  -2.984  1.00  0.00    -0.326 OA
HETATM   23  C18 UNL     1       2.190   2.225  -3.914  1.00  0.00     0.181 C 
ENDBRANCH  18  22
ENDBRANCH   9  13
BRANCH   8  24
HETATM   24  O7  UNL     1       2.137  -1.449   1.037  1.00  0.00    -0.323 OA
HETATM   25  C20 UNL     1       2.643  -2.065  -0.139  1.00  0.00     0.182 C 
ENDBRANCH   8  24
BRANCH   5  26
HETATM   26  O2  UNL     1      -2.613  -3.416   1.934  1.00  0.00    -0.326 OA
HETATM   27  C8  UNL     1      -3.795  -4.137   2.252  1.00  0.00     0.181 C 
ENDBRANCH   5  26
BRANCH   6  28
HETATM   28  O1  UNL     1      -5.121  -2.363   1.553  1.00  0.00    -0.324 OA
HETATM   29  C7  UNL     1      -6.398  -1.779   1.340  1.00  0.00     0.182 C 
ENDBRANCH   6  28
TORSDOF 6
