REMARK  1 active torsions:
REMARK  status: ('A' for Active; 'I' for Inactive)
REMARK    1  A    between atoms: C15_15  and  C18_19 
ROOT
HETATM    1  C1  UNL     1       5.350  -0.449   0.723  1.00  0.00     0.151 C 
HETATM    2  C2  UNL     1       4.506  -1.613   0.262  1.00  0.00     0.065 C 
HETATM    3  C3  UNL     1       3.012  -1.348   0.508  1.00  0.00     0.007 C 
HETATM    4  C4  UNL     1       2.529  -0.004  -0.111  1.00  0.00     0.001 C 
HETATM    5  C5  UNL     1       3.420   1.141   0.434  1.00  0.00     0.008 C 
HETATM    6  C6  UNL     1       4.924   0.906   0.219  1.00  0.00     0.065 C 
HETATM    7  C7  UNL     1       1.041   0.223   0.281  1.00  0.00     0.000 C 
HETATM    8  C8  UNL     1       0.141  -0.982  -0.113  1.00  0.00     0.001 C 
HETATM    9  C9  UNL     1       0.676  -2.316   0.436  1.00  0.00     0.000 C 
HETATM   10  C10 UNL     1       2.145  -2.535   0.057  1.00  0.00     0.000 C 
HETATM   11  C11 UNL     1      -1.256  -0.695   0.461  1.00  0.00     0.010 C 
HETATM   12  C12 UNL     1      -1.891   0.586  -0.131  1.00  0.00     0.035 C 
HETATM   13  C13 UNL     1      -1.002   1.789   0.227  1.00  0.00     0.003 C 
HETATM   14  C14 UNL     1       0.443   1.549  -0.256  1.00  0.00     0.000 C 
HETATM   15  C15 UNL     1      -3.324   0.518   0.461  1.00  0.00     0.205 C 
HETATM   16  C16 UNL     1      -3.617  -0.961   0.471  1.00  0.00     0.180 C 
HETATM   17  C17 UNL     1      -2.352  -1.744   0.250  1.00  0.00     0.067 C 
HETATM   18  O1  UNL     1      -4.709  -1.451   0.633  1.00  0.00    -0.293 OA
HETATM   19  O3  UNL     1      -3.342   0.979   1.799  1.00  0.00    -0.216 OA
HETATM   20  C20 UNL     1      -2.006   0.441  -1.656  1.00  0.00     0.003 C 
HETATM   21  C21 UNL     1       2.660  -0.055  -1.643  1.00  0.00     0.000 C 
HETATM   22  O4  UNL     1       6.299  -0.594   1.457  1.00  0.00    -0.296 OA
ENDROOT
BRANCH  15  23
HETATM   23  C18 UNL     1      -4.354   1.350  -0.299  1.00  0.00     0.187 C 
HETATM   24  O2  UNL     1      -3.877   2.674  -0.381  1.00  0.00    -0.220 OA
HETATM   25  C19 UNL     1      -5.672   1.363   0.477  1.00  0.00     0.039 C 
ENDBRANCH  15  23
TORSDOF 1
