REMARK  1 active torsions:
REMARK  status: ('A' for Active; 'I' for Inactive)
REMARK    1  A    between atoms: C15_15  and  C18_19 
ROOT
HETATM    1  C1  UNL     1      -5.418   1.275  -0.092  1.00  0.00     0.172 C 
HETATM    2  C2  UNL     1      -4.291   2.090  -0.569  1.00  0.00     0.029 C 
HETATM    3  C3  UNL     1      -3.037   1.606  -0.719  1.00  0.00    -0.042 C 
HETATM    4  C4  UNL     1      -2.676   0.166  -0.350  1.00  0.00     0.016 C 
HETATM    5  C5  UNL     1      -3.736  -0.437   0.609  1.00  0.00     0.012 C 
HETATM    6  C6  UNL     1      -5.178  -0.193   0.150  1.00  0.00     0.070 C 
HETATM    7  C7  UNL     1      -1.268   0.086   0.318  1.00  0.00     0.004 C 
HETATM    8  C8  UNL     1      -0.195   0.873  -0.481  1.00  0.00     0.003 C 
HETATM    9  C9  UNL     1      -0.606   2.348  -0.588  1.00  0.00     0.004 C 
HETATM   10  C10 UNL     1      -1.957   2.502  -1.285  1.00  0.00     0.022 C 
HETATM   11  C11 UNL     1       1.162   0.742   0.234  1.00  0.00     0.031 C 
HETATM   12  C12 UNL     1       1.588  -0.730   0.320  1.00  0.00     0.005 C 
HETATM   13  C13 UNL     1       0.590  -1.457   1.226  1.00  0.00     0.000 C 
HETATM   14  C14 UNL     1      -0.816  -1.367   0.607  1.00  0.00     0.000 C 
HETATM   15  C15 UNL     1       2.984  -0.564   0.926  1.00  0.00     0.033 C 
HETATM   16  C16 UNL     1       3.592   0.568   0.092  1.00  0.00     0.035 C 
HETATM   17  C17 UNL     1       2.395   1.381  -0.428  1.00  0.00     0.152 C 
HETATM   18  O1  UNL     1       2.523   2.740  -0.061  1.00  0.00    -0.224 OA
HETATM   19  C20 UNL     1       1.693  -1.396  -1.061  1.00  0.00     0.000 C 
HETATM   20  C21 UNL     1      -2.680  -0.623  -1.666  1.00  0.00     0.004 C 
HETATM   21  O3  UNL     1      -6.502   1.773   0.098  1.00  0.00    -0.291 OA
ENDROOT
BRANCH  15  22
HETATM   22  C18 UNL     1       3.834  -1.836   0.892  1.00  0.00     0.152 C 
HETATM   23  C19 UNL     1       5.236  -1.525   1.416  1.00  0.00     0.036 C 
HETATM   24  O2  UNL     1       3.242  -2.783   1.752  1.00  0.00    -0.224 OA
ENDBRANCH  15  22
TORSDOF 1
