REMARK  4 active torsions:
REMARK  status: ('A' for Active; 'I' for Inactive)
REMARK    1  A    between atoms: C8_8  and  C10_11 
REMARK    2  A    between atoms: C12_13  and  C17_19 
REMARK    3  A    between atoms: C13_14  and  C19_23 
REMARK    4  A    between atoms: N2_16  and  C15_17 
ROOT
HETATM    1  C10 UNL     1       0.795  -1.456  -0.381  1.00  0.00     0.243 C 
HETATM    2  C11 UNL     1       1.633  -1.875   0.895  1.00  0.00     0.036 C 
HETATM    3  C12 UNL     1       2.431  -0.516   1.345  1.00  0.00     0.011 C 
HETATM    4  C13 UNL     1       3.431  -0.402   0.147  1.00  0.00     0.064 C 
HETATM    5  C14 UNL     1       2.617   0.090  -1.006  1.00  0.00     0.367 C 
HETATM    6  N2  UNL     1       1.256  -0.248  -0.682  1.00  0.00     0.164 N 
HETATM    7  O2  UNL     1       3.150  -0.258  -2.281  1.00  0.00    -0.187 OA
ENDROOT
BRANCH   4   8
HETATM    8  C19 UNL     1       4.680   0.519   0.345  1.00  0.00     0.005 C 
HETATM    9  C20 UNL     1       5.652   0.467  -0.850  1.00  0.00     0.000 C 
ENDBRANCH   4   8
BRANCH   3  10
HETATM   10  C17 UNL     1       1.429   0.770   1.720  1.00  0.00     0.060 A 
HETATM   11  C15 UNL     1       0.957   0.578   0.630  1.00  0.00     0.223 A 
HETATM   12  C16 UNL     1      -0.551   0.128   1.726  1.00  0.00     0.068 A 
HETATM   13  C18 UNL     1      -0.242   1.609   1.009  1.00  0.00     0.140 A 
HETATM   14  C7  UNL     1      -1.068   0.301   0.809  1.00  0.00     0.070 A 
HETATM   15  C5  UNL     1      -2.478   0.546   0.536  1.00  0.00    -0.003 A 
HETATM   16  C8  UNL     1      -0.786  -0.977  -0.183  1.00  0.00     0.119 C 
HETATM   17  C4  UNL     1      -2.744   0.099  -0.688  1.00  0.00     0.052 A 
HETATM   18  C6  UNL     1      -3.451   1.255   1.333  1.00  0.00    -0.003 A 
HETATM   19  C3  UNL     1      -4.056   0.266  -1.279  1.00  0.00     0.017 A 
HETATM   20  N1  UNL     1      -1.601  -0.558  -1.278  1.00  0.00    -0.346 N 
HETATM   21  C2  UNL     1      -4.988   0.901  -0.559  1.00  0.00     0.002 A 
HETATM   22  C1  UNL     1      -4.669   1.425   0.808  1.00  0.00    -0.000 A 
HETATM   23  C9  UNL     1      -1.642  -1.226  -2.544  1.00  0.00     0.126 C 
HETATM   24  O1  UNL     1      -0.342   2.386  -0.282  1.00  0.00    -0.226 OA
ENDBRANCH   3  10
TORSDOF 4
