REMARK  5 active torsions:
REMARK  status: ('A' for Active; 'I' for Inactive)
REMARK    1  A    between atoms: C1_1  and  O8_26 
REMARK    2  A    between atoms: C5_5  and  O2_8 
REMARK    3  A    between atoms: C8_11  and  C11_15 
REMARK    4  A    between atoms: C12_16  and  O5_17 
REMARK    5  A    between atoms: C14_19  and  O6_23 
ROOT
HETATM    1  C1  UNL     1      -3.394  -2.111   1.205  1.00  0.00     0.147 A 
HETATM    2  C2  UNL     1      -2.100  -2.647   1.412  1.00  0.00     0.160 A 
HETATM    3  C3  UNL     1      -0.959  -1.865   1.098  1.00  0.00     0.091 A 
HETATM    4  C4  UNL     1      -1.113  -0.551   0.580  1.00  0.00     0.129 A 
HETATM    5  C5  UNL     1      -2.410  -0.023   0.375  1.00  0.00     0.144 A 
HETATM    6  C6  UNL     1      -3.549  -0.803   0.687  1.00  0.00     0.179 A 
HETATM    7  O1  UNL     1      -4.777  -0.301   0.492  1.00  0.00    -0.186 OA
HETATM    8  O3  UNL     1      -0.027   0.197   0.281  1.00  0.00    -0.305 OA
HETATM    9  C8  UNL     1       1.242  -0.231   0.447  1.00  0.00     0.105 A 
HETATM   10  C9  UNL     1       1.510  -1.465   0.932  1.00  0.00     0.067 A 
HETATM   11  C10 UNL     1       0.418  -2.393   1.301  1.00  0.00     0.202 A 
HETATM   12  O4  UNL     1       0.738  -3.479   1.727  1.00  0.00    -0.286 OA
HETATM   13  O7  UNL     1      -1.967  -3.889   1.902  1.00  0.00    -0.188 OA
ENDROOT
BRANCH   9  14
HETATM   14  C11 UNL     1       2.381   0.668   0.092  1.00  0.00     0.047 A 
HETATM   15  C12 UNL     1       2.236   1.641  -0.918  1.00  0.00     0.118 A 
HETATM   16  C14 UNL     1       3.318   2.480  -1.242  1.00  0.00     0.116 A 
HETATM   17  C15 UNL     1       4.539   2.346  -0.561  1.00  0.00     0.026 A 
HETATM   18  C16 UNL     1       4.684   1.377   0.445  1.00  0.00     0.002 A 
HETATM   19  C17 UNL     1       3.606   0.537   0.771  1.00  0.00     0.004 A 
BRANCH  15  20
HETATM   20  O5  UNL     1       1.092   1.770  -1.561  1.00  0.00    -0.326 OA
HETATM   21  C13 UNL     1       0.832   0.887  -2.643  1.00  0.00     0.181 C 
ENDBRANCH  15  20
BRANCH  16  22
HETATM   22  O6  UNL     1       3.192   3.393  -2.186  1.00  0.00    -0.326 OA
HETATM   23  C18 UNL     1       4.289   4.262  -2.424  1.00  0.00     0.181 C 
ENDBRANCH  16  22
ENDBRANCH   9  14
BRANCH   5  24
HETATM   24  O2  UNL     1      -2.559   1.215  -0.115  1.00  0.00    -0.324 OA
HETATM   25  C7  UNL     1      -3.879   1.703  -0.309  1.00  0.00     0.182 C 
ENDBRANCH   5  24
BRANCH   1  26
HETATM   26  O8  UNL     1      -4.477  -2.846   1.500  1.00  0.00    -0.324 OA
HETATM   27  C19 UNL     1      -4.275  -4.150   2.021  1.00  0.00     0.182 C 
ENDBRANCH   1  26
TORSDOF 5
