REMARK  1 active torsions:
REMARK  status: ('A' for Active; 'I' for Inactive)
REMARK    1  A    between atoms: C16_16  and  C25_26 
ROOT
HETATM    1  C1  UNL     1       3.971   2.035  -0.279  1.00  0.00     0.152 C 
HETATM    2  C2  UNL     1       4.088   1.117   0.969  1.00  0.00     0.028 C 
HETATM    3  C3  UNL     1       3.895  -0.398   0.586  1.00  0.00     0.002 C 
HETATM    4  C4  UNL     1       3.125  -0.678  -0.734  1.00  0.00     0.000 C 
HETATM    5  C5  UNL     1       3.734   0.141  -1.918  1.00  0.00     0.003 C 
HETATM    6  C6  UNL     1       4.557   1.373  -1.521  1.00  0.00     0.033 C 
HETATM    7  C7  UNL     1       1.600  -0.402  -0.506  1.00  0.00     0.000 C 
HETATM    8  C8  UNL     1       0.957  -1.180   0.691  1.00  0.00     0.000 C 
HETATM    9  C9  UNL     1       1.840  -1.117   1.971  1.00  0.00     0.000 C 
HETATM   10  C10 UNL     1       3.348  -1.289   1.725  1.00  0.00     0.000 C 
HETATM   11  C11 UNL     1      -0.512  -0.631   0.975  1.00  0.00     0.000 C 
HETATM   12  C12 UNL     1      -1.170  -0.010  -0.299  1.00  0.00     0.003 C 
HETATM   13  C13 UNL     1      -0.746  -0.809  -1.541  1.00  0.00     0.000 C 
HETATM   14  C14 UNL     1       0.762  -0.635  -1.795  1.00  0.00     0.000 C 
HETATM   15  C15 UNL     1      -2.695   0.328  -0.115  1.00  0.00     0.038 C 
HETATM   16  C16 UNL     1      -3.551  -0.818   0.492  1.00  0.00     0.081 C 
HETATM   17  C17 UNL     1      -2.861  -1.352   1.766  1.00  0.00     0.010 C 
HETATM   18  C18 UNL     1      -1.408  -1.768   1.529  1.00  0.00     0.001 C 
HETATM   19  C19 UNL     1      -4.973  -0.313   0.883  1.00  0.00     0.010 C 
HETATM   20  C20 UNL     1      -5.244   1.158   0.537  1.00  0.00     0.003 C 
HETATM   21  C21 UNL     1      -4.898   1.453  -0.928  1.00  0.00     0.028 C 
HETATM   22  C22 UNL     1      -3.418   1.086  -1.285  1.00  0.00     0.127 C 
HETATM   23  C23 UNL     1      -3.432   0.334  -2.623  1.00  0.00     0.033 C 
HETATM   24  O1  UNL     1      -2.674   2.268  -1.531  1.00  0.00    -0.226 OA
HETATM   25  C24 UNL     1      -5.338   2.873  -1.324  1.00  0.00     0.003 C 
HETATM   26  C26 UNL     1      -0.496   0.500   2.024  1.00  0.00     0.000 C 
HETATM   27  C27 UNL     1       0.922  -2.670   0.295  1.00  0.00     0.000 C 
HETATM   28  C28 UNL     1       3.318  -2.158  -1.107  1.00  0.00     0.000 C 
HETATM   29  C29 UNL     1       5.475   1.246   1.629  1.00  0.00     0.003 C 
HETATM   30  C30 UNL     1       3.074   1.641   1.994  1.00  0.00     0.003 C 
HETATM   31  O4  UNL     1       4.604   3.285  -0.068  1.00  0.00    -0.224 OA
ENDROOT
BRANCH  16  32
HETATM   32  C25 UNL     1      -3.676  -1.949  -0.510  1.00  0.00     0.184 C 
HETATM   33  O2  UNL     1      -4.746  -1.893  -1.295  1.00  0.00    -0.647 OA
HETATM   34  O3  UNL     1      -2.846  -2.824  -0.564  1.00  0.00    -0.647 OA
ENDBRANCH  16  32
TORSDOF 1
