REMARK  2 active torsions:
REMARK  status: ('A' for Active; 'I' for Inactive)
REMARK    1  A    between atoms: C3_3  and  C30_32 
REMARK    2  A    between atoms: C19_19  and  C25_25 
ROOT
HETATM    1  C1  UNL     1       4.746   0.977  -2.037  1.00  0.00     0.183 C 
HETATM    2  C2  UNL     1       5.533   0.658  -0.752  1.00  0.00     0.192 C 
HETATM    3  C3  UNL     1       4.791   1.092   0.557  1.00  0.00     0.109 C 
HETATM    4  C4  UNL     1       3.244   1.234   0.350  1.00  0.00     0.012 C 
HETATM    5  C5  UNL     1       2.647   0.209  -0.650  1.00  0.00     0.003 C 
HETATM    6  C6  UNL     1       3.324   0.365  -2.045  1.00  0.00     0.036 C 
HETATM    7  C7  UNL     1       1.109   0.438  -0.805  1.00  0.00     0.005 C 
HETATM    8  C8  UNL     1       0.313   0.479   0.529  1.00  0.00     0.004 C 
HETATM    9  C9  UNL     1       0.973   1.514   1.471  1.00  0.00     0.000 C 
HETATM   10  C10 UNL     1       2.467   1.252   1.682  1.00  0.00     0.001 C 
HETATM   11  C11 UNL     1      -1.176   0.856   0.221  1.00  0.00     0.015 C 
HETATM   12  C12 UNL     1      -1.803  -0.150  -0.750  1.00  0.00    -0.046 C 
HETATM   13  C13 UNL     1      -1.039  -0.676  -1.738  1.00  0.00    -0.034 C 
HETATM   14  C14 UNL     1       0.463  -0.535  -1.814  1.00  0.00     0.025 C 
HETATM   15  C15 UNL     1      -3.291  -0.523  -0.645  1.00  0.00     0.036 C 
HETATM   16  C16 UNL     1      -4.016  -0.127   0.666  1.00  0.00     0.018 C 
HETATM   17  C17 UNL     1      -3.490   1.184   1.248  1.00  0.00     0.002 C 
HETATM   18  C18 UNL     1      -1.994   1.033   1.520  1.00  0.00     0.004 C 
HETATM   19  C19 UNL     1      -5.535  -0.135   0.398  1.00  0.00     0.092 C 
HETATM   20  C20 UNL     1      -6.006  -1.514  -0.121  1.00  0.00     0.032 C 
HETATM   21  C21 UNL     1      -4.922  -2.414  -0.691  1.00  0.00    -0.051 C 
HETATM   22  C22 UNL     1      -3.650  -1.994  -0.883  1.00  0.00    -0.048 C 
HETATM   23  C23 UNL     1      -2.613  -3.010  -1.307  1.00  0.00     0.026 C 
HETATM   24  C24 UNL     1      -5.328  -3.830  -1.020  1.00  0.00     0.026 C 
HETATM   25  C26 UNL     1      -1.240   2.203  -0.518  1.00  0.00     0.004 C 
HETATM   26  C27 UNL     1       0.346  -0.900   1.213  1.00  0.00     0.000 C 
HETATM   27  C28 UNL     1       2.914  -1.211  -0.117  1.00  0.00     0.000 C 
HETATM   28  C29 UNL     1       5.121   0.156   1.736  1.00  0.00     0.013 C 
HETATM   29  O5  UNL     1       5.801  -0.734  -0.764  1.00  0.00    -0.220 OA
HETATM   30  O6  UNL     1       4.660   2.381  -2.186  1.00  0.00    -0.221 OA
ENDROOT
BRANCH   3  31
HETATM   31  C30 UNL     1       5.326   2.441   0.984  1.00  0.00     0.187 C 
HETATM   32  O3  UNL     1       6.643   2.496   1.166  1.00  0.00    -0.647 OA
HETATM   33  O4  UNL     1       4.584   3.383   1.141  1.00  0.00    -0.647 OA
ENDBRANCH   3  31
BRANCH  19  34
HETATM   34  C25 UNL     1      -6.348   0.297   1.596  1.00  0.00     0.185 C 
HETATM   35  O1  UNL     1      -7.094   1.246   1.533  1.00  0.00    -0.647 OA
HETATM   36  O2  UNL     1      -6.176  -0.439   2.689  1.00  0.00    -0.647 OA
ENDBRANCH  19  34
TORSDOF 2
