REMARK  2 active torsions:
REMARK  status: ('A' for Active; 'I' for Inactive)
REMARK    1  A    between atoms: C3_3  and  C30_33 
REMARK    2  A    between atoms: C16_16  and  C25_26 
ROOT
HETATM    1  C1  UNL     1       5.291   1.211  -0.072  1.00  0.00     0.065 C 
HETATM    2  C2  UNL     1       5.869  -0.172   0.111  1.00  0.00     0.152 C 
HETATM    3  C3  UNL     1       4.994  -1.201   0.799  1.00  0.00     0.082 C 
HETATM    4  C4  UNL     1       3.578  -1.238   0.150  1.00  0.00     0.009 C 
HETATM    5  C5  UNL     1       2.965   0.162  -0.215  1.00  0.00     0.001 C 
HETATM    6  C6  UNL     1       3.824   1.309   0.367  1.00  0.00     0.008 C 
HETATM    7  C7  UNL     1       1.492   0.281   0.297  1.00  0.00     0.005 C 
HETATM    8  C8  UNL     1       0.584  -0.916  -0.119  1.00  0.00     0.004 C 
HETATM    9  C9  UNL     1       1.248  -2.264   0.295  1.00  0.00     0.000 C 
HETATM   10  C10 UNL     1       2.615  -2.119   0.969  1.00  0.00     0.001 C 
HETATM   11  C11 UNL     1      -0.824  -0.756   0.547  1.00  0.00     0.015 C 
HETATM   12  C12 UNL     1      -1.443   0.605   0.229  1.00  0.00    -0.046 C 
HETATM   13  C13 UNL     1      -0.662   1.689   0.016  1.00  0.00    -0.035 C 
HETATM   14  C14 UNL     1       0.842   1.633  -0.064  1.00  0.00     0.025 C 
HETATM   15  C15 UNL     1      -2.973   0.641   0.170  1.00  0.00     0.056 C 
HETATM   16  C16 UNL     1      -3.529  -0.305  -0.936  1.00  0.00     0.084 C 
HETATM   17  C17 UNL     1      -2.650  -1.576  -1.109  1.00  0.00     0.011 C 
HETATM   18  C18 UNL     1      -1.809  -1.897   0.135  1.00  0.00     0.004 C 
HETATM   19  C19 UNL     1      -4.986  -0.699  -0.557  1.00  0.00     0.011 C 
HETATM   20  C20 UNL     1      -5.731   0.350   0.299  1.00  0.00     0.003 C 
HETATM   21  C21 UNL     1      -5.289   1.789  -0.012  1.00  0.00     0.028 C 
HETATM   22  C22 UNL     1      -3.756   2.004   0.205  1.00  0.00     0.131 C 
HETATM   23  C23 UNL     1      -3.285   3.043  -0.824  1.00  0.00     0.033 C 
HETATM   24  O1  UNL     1      -3.523   2.580   1.479  1.00  0.00    -0.226 OA
HETATM   25  C24 UNL     1      -6.180   2.824   0.695  1.00  0.00     0.003 C 
HETATM   26  C26 UNL     1      -0.676  -0.799   2.076  1.00  0.00     0.004 C 
HETATM   27  C27 UNL     1       0.422  -0.906  -1.648  1.00  0.00     0.000 C 
HETATM   28  C28 UNL     1       2.998   0.330  -1.746  1.00  0.00     0.000 C 
HETATM   29  C29 UNL     1       4.932  -0.830   2.289  1.00  0.00     0.010 C 
HETATM   30  O5  UNL     1       6.983  -0.432  -0.283  1.00  0.00    -0.296 OA
ENDROOT
BRANCH   3  31
HETATM   31  C30 UNL     1       5.645  -2.588   0.689  1.00  0.00     0.189 C 
HETATM   32  O4  UNL     1       5.764  -2.912  -0.678  1.00  0.00    -0.220 OA
ENDBRANCH   3  31
BRANCH  16  33
HETATM   33  C25 UNL     1      -3.543   0.412  -2.270  1.00  0.00     0.184 C 
HETATM   34  O2  UNL     1      -4.586   0.709  -2.807  1.00  0.00    -0.647 OA
HETATM   35  O3  UNL     1      -2.344   0.678  -2.783  1.00  0.00    -0.647 OA
ENDBRANCH  16  33
TORSDOF 2
