REMARK  4 active torsions:
REMARK  status: ('A' for Active; 'I' for Inactive)
REMARK    1  A    between atoms: C2_2  and  O6_23 
REMARK    2  A    between atoms: C9_10  and  C10_12 
REMARK    3  A    between atoms: C13_15  and  O4_20 
REMARK    4  A    between atoms: C14_16  and  O3_18 
ROOT
HETATM    1  C1  UNL     1      -4.578  -1.164   0.391  1.00  0.00     0.157 A 
HETATM    2  C2  UNL     1      -3.441  -0.383   0.078  1.00  0.00     0.142 A 
HETATM    3  C3  UNL     1      -2.143  -0.908   0.283  1.00  0.00     0.129 A 
HETATM    4  C4  UNL     1      -1.988  -2.223   0.801  1.00  0.00     0.089 A 
HETATM    5  C5  UNL     1      -3.127  -3.006   1.115  1.00  0.00     0.138 A 
HETATM    6  C6  UNL     1      -4.422  -2.473   0.908  1.00  0.00     0.057 A 
HETATM    7  O1  UNL     1      -2.998  -4.248   1.605  1.00  0.00    -0.190 OA
HETATM    8  C7  UNL     1      -0.607  -2.748   1.002  1.00  0.00     0.202 A 
HETATM    9  C8  UNL     1       0.482  -1.820   0.633  1.00  0.00     0.067 A 
HETATM   10  C9  UNL     1       0.211  -0.586   0.148  1.00  0.00     0.103 A 
HETATM   11  O2  UNL     1      -1.057  -0.160  -0.016  1.00  0.00    -0.305 OA
HETATM   12  O5  UNL     1      -0.289  -3.834   1.428  1.00  0.00    -0.286 OA
HETATM   13  O7  UNL     1      -5.809  -0.668   0.199  1.00  0.00    -0.188 OA
ENDROOT
BRANCH  10  14
HETATM   14  C10 UNL     1       1.350   0.313  -0.207  1.00  0.00     0.025 A 
HETATM   15  C11 UNL     1       1.170   1.336  -1.154  1.00  0.00     0.004 A 
HETATM   16  C12 UNL     1       2.242   2.182  -1.488  1.00  0.00     0.026 A 
HETATM   17  C13 UNL     1       3.498   2.008  -0.877  1.00  0.00     0.116 A 
HETATM   18  C14 UNL     1       3.678   0.983   0.072  1.00  0.00     0.116 A 
HETATM   19  C15 UNL     1       2.604   0.139   0.404  1.00  0.00     0.028 A 
BRANCH  17  20
HETATM   20  O4  UNL     1       4.498   2.803  -1.195  1.00  0.00    -0.326 OA
HETATM   21  C17 UNL     1       4.190   4.098  -1.690  1.00  0.00     0.181 C 
ENDBRANCH  17  20
BRANCH  18  22
HETATM   22  O3  UNL     1       4.852   0.813   0.648  1.00  0.00    -0.326 OA
HETATM   23  C16 UNL     1       4.981  -0.234   1.598  1.00  0.00     0.181 C 
ENDBRANCH  18  22
ENDBRANCH  10  14
BRANCH   2  24
HETATM   24  O6  UNL     1      -3.592   0.856  -0.412  1.00  0.00    -0.324 OA
HETATM   25  C18 UNL     1      -4.629   1.076  -1.358  1.00  0.00     0.182 C 
ENDBRANCH   2  24
TORSDOF 4
