REMARK  3 active torsions:
REMARK  status: ('A' for Active; 'I' for Inactive)
REMARK    1  A    between atoms: C3_3  and  O4_10 
REMARK    2  A    between atoms: C4_5  and  C6_8 
REMARK    3  A    between atoms: O4_10  and  C7_11 
ROOT
HETATM    1  C7  UNL     1       0.060   0.586  -0.293  1.00  0.00     0.124 A 
HETATM    2  C8  UNL     1       1.332   1.203  -0.360  1.00  0.00     0.176 A 
HETATM    3  C9  UNL     1       2.473   0.535   0.146  1.00  0.00     0.130 A 
HETATM    4  C10 UNL     1       2.340  -0.762   0.717  1.00  0.00     0.064 A 
HETATM    5  C11 UNL     1       1.062  -1.375   0.783  1.00  0.00     0.007 A 
HETATM    6  C12 UNL     1      -0.074  -0.701   0.279  1.00  0.00     0.027 A 
HETATM    7  C13 UNL     1       3.545  -1.480   1.248  1.00  0.00     0.201 A 
HETATM    8  C14 UNL     1       4.832  -0.713   1.121  1.00  0.00     0.087 A 
HETATM    9  C15 UNL     1       4.826   0.586   0.533  1.00  0.00     0.105 A 
HETATM   10  O5  UNL     1       3.680   1.137   0.082  1.00  0.00    -0.305 OA
HETATM   11  C16 UNL     1       6.035   1.313   0.416  1.00  0.00     0.025 A 
HETATM   12  C17 UNL     1       7.248   0.756   0.879  1.00  0.00     0.004 A 
HETATM   13  C18 UNL     1       7.258  -0.533   1.461  1.00  0.00     0.028 A 
HETATM   14  C19 UNL     1       6.057  -1.268   1.582  1.00  0.00     0.136 A 
HETATM   15  O6  UNL     1       6.096  -2.488   2.139  1.00  0.00    -0.190 OA
HETATM   16  O7  UNL     1       3.482  -2.588   1.736  1.00  0.00    -0.286 OA
HETATM   17  O8  UNL     1       1.457   2.424  -0.901  1.00  0.00    -0.186 OA
ENDROOT
BRANCH   1  18
HETATM   18  O4  UNL     1      -1.022   1.217  -0.772  1.00  0.00    -0.301 OA
BRANCH  18  19
HETATM   19  C3  UNL     1      -2.299   0.775  -0.336  1.00  0.00     0.274 C 
HETATM   20  C2  UNL     1      -3.334   1.912  -0.490  1.00  0.00     0.241 C 
HETATM   21  C1  UNL     1      -4.758   1.420  -0.152  1.00  0.00     0.220 C 
HETATM   22  O9  UNL     1      -2.969   2.975   0.373  1.00  0.00    -0.215 OA
HETATM   23  C5  UNL     1      -5.063   0.127  -0.940  1.00  0.00     0.215 C 
HETATM   24  O10 UNL     1      -5.703   2.424  -0.486  1.00  0.00    -0.218 OA
HETATM   25  C4  UNL     1      -3.940  -0.920  -0.762  1.00  0.00     0.184 C 
HETATM   26  O2  UNL     1      -6.283  -0.434  -0.488  1.00  0.00    -0.218 OA
HETATM   27  O1  UNL     1      -2.692  -0.342  -1.121  1.00  0.00    -0.326 OA
BRANCH  25  28
HETATM   28  C6  UNL     1      -4.125  -2.154  -1.649  1.00  0.00     0.214 C 
HETATM   29  O3  UNL     1      -3.090  -3.066  -1.360  1.00  0.00    -0.218 OA
ENDBRANCH  25  28
ENDBRANCH  18  19
ENDBRANCH   1  18
TORSDOF 3
