REMARK  2 active torsions:
REMARK  status: ('A' for Active; 'I' for Inactive)
REMARK    1  A    between atoms: C8_10  and  C11_13 
REMARK    2  A    between atoms: C14_16  and  O3_19 
ROOT
HETATM    1  C1  UNL     1       4.935   1.019   0.498  1.00  0.00     0.027 A 
HETATM    2  C2  UNL     1       3.916   1.994   0.582  1.00  0.00    -0.000 A 
HETATM    3  C3  UNL     1       2.553   1.609   0.514  1.00  0.00     0.000 A 
HETATM    4  C4  UNL     1       2.215   0.230   0.371  1.00  0.00     0.088 A 
HETATM    5  C5  UNL     1       3.242  -0.740   0.281  1.00  0.00     0.025 A 
HETATM    6  C6  UNL     1       4.601  -0.346   0.346  1.00  0.00     0.129 A 
HETATM    7  O1  UNL     1       5.578  -1.262   0.264  1.00  0.00    -0.190 OA
HETATM    8  C7  UNL     1       2.898  -2.164   0.123  1.00  0.00     0.035 C 
HETATM    9  O2  UNL     1       0.926  -0.172   0.307  1.00  0.00    -0.330 OA
HETATM   10  C8  UNL     1      -0.147   0.723   0.631  1.00  0.00     0.144 C 
HETATM   11  C9  UNL     1       0.142   2.117   0.053  1.00  0.00     0.040 C 
HETATM   12  C10 UNL     1       1.486   2.637   0.592  1.00  0.00     0.031 C 
ENDROOT
BRANCH  10  13
HETATM   13  C11 UNL     1      -1.424   0.148   0.125  1.00  0.00     0.007 A 
HETATM   14  C12 UNL     1      -1.528  -0.270  -1.213  1.00  0.00     0.028 A 
HETATM   15  C13 UNL     1      -2.731  -0.813  -1.695  1.00  0.00     0.153 A 
HETATM   16  C14 UNL     1      -3.838  -0.936  -0.834  1.00  0.00     0.119 A 
HETATM   17  O4  UNL     1      -2.821  -1.203  -2.949  1.00  0.00    -0.188 OA
HETATM   18  C15 UNL     1      -3.735  -0.514   0.504  1.00  0.00     0.026 A 
HETATM   19  C16 UNL     1      -2.530   0.027   0.984  1.00  0.00     0.000 A 
BRANCH  16  20
HETATM   20  O3  UNL     1      -4.973  -1.442  -1.277  1.00  0.00    -0.326 OA
HETATM   21  C17 UNL     1      -6.028  -1.627  -0.346  1.00  0.00     0.181 C 
ENDBRANCH  16  20
ENDBRANCH  10  13
TORSDOF 2
