REMARK  5 active torsions:
REMARK  status: ('A' for Active; 'I' for Inactive)
REMARK    1  A    between atoms: C3_3  and  O2_9 
REMARK    2  A    between atoms: O2_9  and  C7_10 
REMARK    3  A    between atoms: C10_14  and  C13_17 
REMARK    4  A    between atoms: C13_17  and  C14_18 
REMARK    5  A    between atoms: C14_18  and  C15_19 
ROOT
HETATM    1  C7  UNL     1       1.096   0.732  -0.043  1.00  0.00     0.105 A 
HETATM    2  C8  UNL     1       1.947  -0.365   0.207  1.00  0.00     0.053 A 
HETATM    3  I2  UNL     1       3.971  -0.096   0.443  1.00  0.00    -0.041 I 
HETATM    4  C9  UNL     1       1.410  -1.664   0.299  1.00  0.00     0.004 A 
HETATM    5  C10 UNL     1       0.027  -1.869   0.141  1.00  0.00    -0.019 A 
HETATM    6  C11 UNL     1      -0.818  -0.775  -0.109  1.00  0.00    -0.002 A 
HETATM    7  C12 UNL     1      -0.285   0.520  -0.201  1.00  0.00     0.025 A 
ENDROOT
BRANCH   1   8
HETATM    8  O2  UNL     1       1.576   1.957  -0.131  1.00  0.00    -0.307 OA
BRANCH   8   9
HETATM    9  C3  UNL     1       0.877   2.936   0.406  1.00  0.00     0.101 A 
HETATM   10  C2  UNL     1       0.180   2.729   1.608  1.00  0.00     0.027 A 
HETATM   11  C1  UNL     1      -0.566   3.772   2.180  1.00  0.00     0.030 A 
HETATM   12  C6  UNL     1      -0.619   5.031   1.557  1.00  0.00     0.136 A 
HETATM   13  C5  UNL     1       0.080   5.242   0.350  1.00  0.00     0.058 A 
HETATM   14  O1  UNL     1      -1.322   5.998   2.111  1.00  0.00    -0.190 OA
HETATM   15  C4  UNL     1       0.826   4.193  -0.221  1.00  0.00     0.033 A 
HETATM   16  I1  UNL     1       0.027   7.067  -0.594  1.00  0.00    -0.041 I 
ENDBRANCH   8   9
ENDBRANCH   1   8
BRANCH   5  17
HETATM   17  C13 UNL     1      -0.537  -3.240   0.240  1.00  0.00     0.077 C 
BRANCH  17  18
HETATM   18  C14 UNL     1      -0.232  -4.065  -1.010  1.00  0.00     0.391 C 
HETATM   19  N1  UNL     1      -0.683  -5.436  -0.838  1.00  0.00     0.628 N 
BRANCH  18  20
HETATM   20  C15 UNL     1      -0.838  -3.471  -2.252  1.00  0.00     0.224 C 
HETATM   21  O3  UNL     1      -0.168  -3.705  -3.377  1.00  0.00    -0.646 OA
HETATM   22  O4  UNL     1      -1.863  -2.832  -2.199  1.00  0.00    -0.646 OA
ENDBRANCH  18  20
ENDBRANCH  17  18
ENDBRANCH   5  17
TORSDOF 5
