REMARK  4 active torsions:
REMARK  status: ('A' for Active; 'I' for Inactive)
REMARK    1  A    between atoms: C9_11  and  C10_12 
REMARK    2  A    between atoms: C10_12  and  C11_13 
REMARK    3  A    between atoms: C21_24  and  C22_25 
REMARK    4  A    between atoms: C22_25  and  C23_26 
ROOT
HETATM    1  C1  UNL     1       1.632  -0.670   0.652  1.00  0.00     0.009 C 
HETATM    2  C2  UNL     1       1.598   0.905   0.710  1.00  0.00     0.037 C 
HETATM    3  C3  UNL     1       0.136   1.335   0.678  1.00  0.00     0.040 A 
HETATM    4  C4  UNL     1      -0.910   0.548   0.344  1.00  0.00     0.002 A 
HETATM    5  C5  UNL     1      -0.794  -0.919  -0.034  1.00  0.00     0.028 C 
HETATM    6  C6  UNL     1       0.641  -1.298  -0.380  1.00  0.00     0.005 C 
HETATM    7  C7  UNL     1      -2.139   1.399   0.486  1.00  0.00     0.095 A 
HETATM    8  O1  UNL     1      -1.763   2.639   0.923  1.00  0.00    -0.274 OA
HETATM    9  C8  UNL     1      -0.408   2.610   1.072  1.00  0.00     0.296 A 
HETATM   10  O2  UNL     1       0.270   3.548   1.526  1.00  0.00    -0.259 OA
HETATM   11  C9  UNL     1      -3.441   1.098   0.266  1.00  0.00    -0.002 C 
HETATM   12  C13 UNL     1       2.736   1.508  -0.282  1.00  0.00     0.067 A 
HETATM   13  C14 UNL     1       3.980   1.001   0.399  1.00  0.00     0.042 A 
HETATM   14  C15 UNL     1       4.133  -0.295   0.680  1.00  0.00    -0.025 C 
HETATM   15  C16 UNL     1       3.022  -1.078   0.092  1.00  0.00     0.022 C 
HETATM   16  C17 UNL     1       2.961  -0.619  -1.468  1.00  0.00     0.005 C 
HETATM   17  C18 UNL     1       2.687   0.932  -1.671  1.00  0.00     0.011 C 
HETATM   18  C19 UNL     1       4.847   2.078   0.744  1.00  0.00     0.296 A 
HETATM   19  O3  UNL     1       4.303   3.264   0.362  1.00  0.00    -0.278 OA
HETATM   20  C20 UNL     1       3.068   3.047  -0.247  1.00  0.00     0.080 A 
HETATM   21  C21 UNL     1       2.386   4.098  -0.737  1.00  0.00    -0.005 C 
HETATM   22  O4  UNL     1       5.939   1.952   1.309  1.00  0.00    -0.259 OA
ENDROOT
BRANCH  11  23
HETATM   23  C10 UNL     1      -3.995  -0.224  -0.202  1.00  0.00     0.028 C 
BRANCH  23  24
HETATM   24  C11 UNL     1      -5.526  -0.207  -0.055  1.00  0.00     0.005 C 
HETATM   25  C12 UNL     1      -6.098  -1.576  -0.462  1.00  0.00     0.000 C 
ENDBRANCH  23  24
ENDBRANCH  11  23
BRANCH  21  26
HETATM   26  C22 UNL     1       1.064   4.081  -1.446  1.00  0.00     0.028 C 
BRANCH  26  27
HETATM   27  C23 UNL     1       0.373   5.430  -1.119  1.00  0.00     0.005 C 
HETATM   28  C24 UNL     1      -1.083   5.426  -1.610  1.00  0.00     0.000 C 
ENDBRANCH  26  27
ENDBRANCH  21  26
TORSDOF 4
