REMARK  4 active torsions:
REMARK  status: ('A' for Active; 'I' for Inactive)
REMARK    1  A    between atoms: O1_2  and  C2_3 
REMARK    2  A    between atoms: C3_4  and  C4_5 
REMARK    3  A    between atoms: C4_5  and  C5_6 
REMARK    4  A    between atoms: C10_11  and  O2_12 
ROOT
HETATM    1  C2  UNL     1      -0.758   0.381  -0.436  1.00  0.00     0.115 A 
HETATM    2  C3  UNL     1      -0.674  -0.996  -0.725  1.00  0.00     0.009 A 
HETATM    3  C7  UNL     1       0.592  -1.611  -0.779  1.00  0.00     0.024 A 
HETATM    4  C8  UNL     1       1.775  -0.869  -0.551  1.00  0.00     0.121 A 
HETATM    5  C9  UNL     1       1.684   0.496  -0.266  1.00  0.00     0.143 A 
HETATM    6  C10 UNL     1       0.416   1.141  -0.201  1.00  0.00     0.140 A 
HETATM    7  O3  UNL     1       2.914   0.983  -0.088  1.00  0.00    -0.297 OA
HETATM    8  C12 UNL     1       3.879  -0.078  -0.264  1.00  0.00     0.304 A 
HETATM    9  O4  UNL     1       3.059  -1.232  -0.553  1.00  0.00    -0.299 OA
ENDROOT
BRANCH   2  10
HETATM   10  C4  UNL     1      -1.891  -1.789  -0.967  1.00  0.00     0.054 C 
BRANCH  10  11
HETATM   11  C5  UNL     1      -2.564  -2.201   0.314  1.00  0.00    -0.021 C 
HETATM   12  C6  UNL     1      -2.078  -3.260   0.982  1.00  0.00    -0.005 C 
ENDBRANCH  10  11
ENDBRANCH   2  10
BRANCH   1  13
HETATM   13  O1  UNL     1      -1.959   0.977  -0.381  1.00  0.00    -0.326 OA
HETATM   14  C1  UNL     1      -2.258   1.770   0.760  1.00  0.00     0.181 C 
ENDBRANCH   1  13
BRANCH   6  15
HETATM   15  O2  UNL     1       0.199   2.436   0.063  1.00  0.00    -0.324 OA
HETATM   16  C11 UNL     1       1.324   3.266   0.309  1.00  0.00     0.182 C 
ENDBRANCH   6  15
TORSDOF 4
