REMARK  2 active torsions:
REMARK  status: ('A' for Active; 'I' for Inactive)
REMARK    1  A    between atoms: C1_1  and  O4_24 
REMARK    2  A    between atoms: C2_2  and  O3_22 
ROOT
HETATM    1  C1  UNL     1       2.975  -1.215  -1.164  1.00  0.00     0.116 A 
HETATM    2  C2  UNL     1       1.877  -2.016  -0.771  1.00  0.00     0.116 A 
HETATM    3  C3  UNL     1       0.914  -1.510   0.129  1.00  0.00     0.023 A 
HETATM    4  C4  UNL     1       1.035  -0.190   0.647  1.00  0.00     0.005 A 
HETATM    5  C5  UNL     1       2.133   0.611   0.236  1.00  0.00    -0.020 A 
HETATM    6  C6  UNL     1       3.102   0.099  -0.660  1.00  0.00     0.022 A 
HETATM    7  C7  UNL     1       2.223   1.992   0.762  1.00  0.00     0.059 C 
HETATM    8  C8  UNL     1       0.855   2.678   0.631  1.00  0.00     0.222 C 
HETATM    9  N1  UNL     1      -0.313   1.900   1.320  1.00  0.00     0.002 N 
HETATM   10  C9  UNL     1       0.066   0.406   1.627  1.00  0.00     0.215 C 
HETATM   11  C10 UNL     1      -1.201  -0.428   1.924  1.00  0.00     0.061 C 
HETATM   12  C11 UNL     1      -2.147  -0.402   0.787  1.00  0.00    -0.020 A 
HETATM   13  C12 UNL     1      -2.342   0.810   0.074  1.00  0.00     0.032 A 
HETATM   14  C13 UNL     1      -1.625   2.055   0.471  1.00  0.00     0.245 C 
HETATM   15  C14 UNL     1      -3.242   0.830  -1.025  1.00  0.00     0.154 A 
HETATM   16  C15 UNL     1      -3.936  -0.344  -1.404  1.00  0.00     0.156 A 
HETATM   17  C16 UNL     1      -3.740  -1.545  -0.686  1.00  0.00     0.029 A 
HETATM   18  C17 UNL     1      -2.848  -1.574   0.410  1.00  0.00    -0.002 A 
HETATM   19  O1  UNL     1      -4.781  -0.322  -2.443  1.00  0.00    -0.188 OA
HETATM   20  O2  UNL     1      -3.443   1.963  -1.715  1.00  0.00    -0.188 OA
HETATM   21  C18 UNL     1      -0.563   2.572   2.684  1.00  0.00     0.250 C 
ENDROOT
BRANCH   1  22
HETATM   22  O4  UNL     1       3.893  -1.695  -2.014  1.00  0.00    -0.326 OA
HETATM   23  C20 UNL     1       4.953  -0.836  -2.406  1.00  0.00     0.181 C 
ENDBRANCH   1  22
BRANCH   2  24
HETATM   24  O3  UNL     1       1.748  -3.262  -1.252  1.00  0.00    -0.326 OA
HETATM   25  C19 UNL     1       0.633  -4.028  -0.826  1.00  0.00     0.181 C 
ENDBRANCH   2  24
TORSDOF 2
