REMARK  2 active torsions:
REMARK  status: ('A' for Active; 'I' for Inactive)
REMARK    1  A    between atoms: C5_5  and  O2_8 
REMARK    2  A    between atoms: C15_18  and  O4_19 
ROOT
HETATM    1  C1  UNL     1      -3.035   1.063  -0.412  1.00  0.00     0.054 A 
HETATM    2  C2  UNL     1      -2.074   0.037  -0.318  1.00  0.00     0.102 A 
HETATM    3  C3  UNL     1      -0.705   0.293  -0.330  1.00  0.00     0.032 A 
HETATM    4  C4  UNL     1      -0.203   1.611  -0.436  1.00  0.00     0.090 A 
HETATM    5  C5  UNL     1      -1.168   2.670  -0.529  1.00  0.00     0.125 A 
HETATM    6  C6  UNL     1      -2.565   2.395  -0.518  1.00  0.00     0.155 A 
HETATM    7  O1  UNL     1      -3.445   3.400  -0.608  1.00  0.00    -0.188 OA
HETATM    8  C8  UNL     1       1.262   1.930  -0.449  1.00  0.00     0.304 A 
HETATM    9  O3  UNL     1       2.342   1.127  -0.389  1.00  0.00    -0.237 OA
HETATM   10  C9  UNL     1       2.387  -0.217  -0.283  1.00  0.00     0.304 A 
HETATM   11  C10 UNL     1       1.289  -1.234  -0.193  1.00  0.00     0.090 A 
HETATM   12  C11 UNL     1      -0.082  -0.893  -0.227  1.00  0.00     0.032 A 
HETATM   13  C12 UNL     1      -1.076  -1.867  -0.147  1.00  0.00     0.102 A 
HETATM   14  C13 UNL     1      -0.777  -3.238  -0.024  1.00  0.00     0.054 A 
HETATM   15  C14 UNL     1       0.586  -3.613   0.017  1.00  0.00     0.155 A 
HETATM   16  C15 UNL     1       1.611  -2.627  -0.068  1.00  0.00     0.125 A 
HETATM   17  O5  UNL     1       0.914  -4.906   0.137  1.00  0.00    -0.188 OA
HETATM   18  O6  UNL     1      -2.375  -1.332  -0.203  1.00  0.00    -0.307 OA
HETATM   19  O7  UNL     1       3.539  -0.588  -0.266  1.00  0.00    -0.259 OA
HETATM   20  O8  UNL     1       1.613   3.084  -0.527  1.00  0.00    -0.259 OA
ENDROOT
BRANCH   5  21
HETATM   21  O2  UNL     1      -0.777   3.949  -0.629  1.00  0.00    -0.326 OA
HETATM   22  C7  UNL     1      -1.428   4.910   0.189  1.00  0.00     0.181 C 
ENDBRANCH   5  21
BRANCH  16  23
HETATM   23  O4  UNL     1       2.887  -3.037  -0.027  1.00  0.00    -0.326 OA
HETATM   24  C16 UNL     1       3.471  -3.271   1.246  1.00  0.00     0.181 C 
ENDBRANCH  16  23
TORSDOF 2
