REMARK  2 active torsions:
REMARK  status: ('A' for Active; 'I' for Inactive)
REMARK    1  A    between atoms: C5_5  and  O2_9 
REMARK    2  A    between atoms: C6_6  and  O1_7 
ROOT
HETATM    1  C1  UNL     1       1.233   1.349   0.660  1.00  0.00     0.157 A 
HETATM    2  C2  UNL     1       0.047   2.099   0.850  1.00  0.00     0.054 A 
HETATM    3  C3  UNL     1      -1.211   1.525   0.547  1.00  0.00     0.107 A 
HETATM    4  C4  UNL     1      -1.273   0.195   0.051  1.00  0.00     0.047 A 
HETATM    5  C5  UNL     1      -0.088  -0.557  -0.143  1.00  0.00     0.120 A 
HETATM    6  C6  UNL     1       1.166   0.025   0.164  1.00  0.00     0.142 A 
HETATM    7  C9  UNL     1      -2.609  -0.381  -0.256  1.00  0.00     0.009 A 
HETATM    8  C10 UNL     1      -3.705   0.375  -0.055  1.00  0.00     0.069 A 
HETATM    9  C11 UNL     1      -3.572   1.756   0.463  1.00  0.00     0.300 A 
HETATM   10  O3  UNL     1      -2.342   2.244   0.731  1.00  0.00    -0.273 OA
HETATM   11  O4  UNL     1      -4.576   2.406   0.631  1.00  0.00    -0.259 OA
HETATM   12  O5  UNL     1       2.422   1.900   0.949  1.00  0.00    -0.188 OA
ENDROOT
BRANCH   5  13
HETATM   13  O2  UNL     1      -0.144  -1.813  -0.611  1.00  0.00    -0.326 OA
HETATM   14  C8  UNL     1       0.707  -2.783  -0.019  1.00  0.00     0.181 C 
ENDBRANCH   5  13
BRANCH   6  15
HETATM   15  O1  UNL     1       2.291  -0.680  -0.016  1.00  0.00    -0.324 OA
HETATM   16  C7  UNL     1       3.049  -0.438  -1.191  1.00  0.00     0.182 C 
ENDBRANCH   6  15
TORSDOF 2
