REMARK  5 active torsions:
REMARK  status: ('A' for Active; 'I' for Inactive)
REMARK    1  A    between atoms: C2_2  and  O3_20 
REMARK    2  A    between atoms: C9_10  and  C13_16 
REMARK    3  A    between atoms: C11_13  and  O1_14 
REMARK    4  A    between atoms: C13_16  and  C14_17 
REMARK    5  A    between atoms: C14_17  and  O2_18 
ROOT
HETATM    1  C1  UNL     1       4.299  -0.438  -0.285  1.00  0.00     0.026 A 
HETATM    2  C2  UNL     1       3.316   0.295   0.439  1.00  0.00     0.112 A 
HETATM    3  C3  UNL     1       1.976   0.187  -0.014  1.00  0.00     0.104 A 
HETATM    4  C4  UNL     1       1.637  -0.596  -1.115  1.00  0.00     0.023 A 
HETATM    5  C5  UNL     1       2.607  -1.324  -1.838  1.00  0.00     0.002 A 
HETATM    6  C6  UNL     1       3.955  -1.236  -1.410  1.00  0.00     0.002 A 
HETATM    7  C7  UNL     1       0.307  -0.512  -1.318  1.00  0.00     0.044 A 
HETATM    8  C8  UNL     1      -0.233   0.328  -0.348  1.00  0.00     0.097 A 
HETATM    9  N1  UNL     1       0.803   0.785   0.492  1.00  0.00    -0.242 NA
HETATM   10  C9  UNL     1      -1.623   0.555  -0.379  1.00  0.00     0.079 A 
HETATM   11  N2  UNL     1      -2.461  -0.010  -1.313  1.00  0.00    -0.245 NA
HETATM   12  C10 UNL     1      -1.895  -0.844  -2.270  1.00  0.00     0.123 A 
HETATM   13  C11 UNL     1      -0.496  -1.137  -2.322  1.00  0.00     0.115 A 
ENDROOT
BRANCH  10  14
HETATM   14  C13 UNL     1      -2.225   1.436   0.635  1.00  0.00     0.080 C 
BRANCH  14  15
HETATM   15  C14 UNL     1      -2.555   0.676   1.920  1.00  0.00     0.149 C 
BRANCH  15  16
HETATM   16  O2  UNL     1      -3.143   1.578   2.828  1.00  0.00    -0.351 OA
HETATM   17  C15 UNL     1      -3.483   0.984   4.061  1.00  0.00     0.174 C 
ENDBRANCH  15  16
ENDBRANCH  14  15
ENDBRANCH  10  14
BRANCH  13  18
HETATM   18  O1  UNL     1      -0.121  -1.961  -3.311  1.00  0.00    -0.327 OA
HETATM   19  C12 UNL     1      -1.127  -2.455  -4.184  1.00  0.00     0.181 C 
ENDBRANCH  13  18
BRANCH   2  20
HETATM   20  O3  UNL     1       3.783   1.004   1.477  1.00  0.00    -0.327 OA
HETATM   21  C16 UNL     1       2.852   1.748   2.250  1.00  0.00     0.181 C 
ENDBRANCH   2  20
TORSDOF 5
