REMARK  5 active torsions:
REMARK  status: ('A' for Active; 'I' for Inactive)
REMARK    1  A    between atoms: C1_1  and  C12_16 
REMARK    2  A    between atoms: C4_4  and  O2_9 
REMARK    3  A    between atoms: C6_6  and  O1_7 
REMARK    4  A    between atoms: C12_16  and  C13_17 
REMARK    5  A    between atoms: C13_17  and  C14_19 
ROOT
HETATM    1  C1  UNL     1       0.209   0.129   0.887  1.00  0.00     0.030 A 
HETATM    2  C2  UNL     1      -1.053  -0.439   0.586  1.00  0.00     0.103 A 
HETATM    3  C3  UNL     1      -1.125  -1.772   0.090  1.00  0.00     0.045 A 
HETATM    4  C4  UNL     1       0.057  -2.529  -0.107  1.00  0.00     0.098 A 
HETATM    5  C5  UNL     1       1.312  -1.953   0.197  1.00  0.00     0.048 A 
HETATM    6  C6  UNL     1       1.391  -0.629   0.693  1.00  0.00     0.094 A 
HETATM    7  C9  UNL     1      -2.463  -2.342  -0.217  1.00  0.00     0.009 A 
HETATM    8  C10 UNL     1      -3.557  -1.582  -0.014  1.00  0.00     0.069 A 
HETATM    9  C11 UNL     1      -3.416  -0.203   0.504  1.00  0.00     0.300 A 
HETATM   10  O3  UNL     1      -2.186   0.279   0.770  1.00  0.00    -0.273 OA
HETATM   11  O4  UNL     1      -4.416   0.455   0.674  1.00  0.00    -0.259 OA
ENDROOT
BRANCH   1  12
HETATM   12  C12 UNL     1       0.291   1.506   1.402  1.00  0.00     0.095 C 
BRANCH  12  13
HETATM   13  C13 UNL     1       0.654   2.492   0.326  1.00  0.00     0.155 C 
HETATM   14  O5  UNL     1       1.764   2.971   0.268  1.00  0.00    -0.296 OA
BRANCH  13  15
HETATM   15  C14 UNL     1      -0.404   2.869  -0.676  1.00  0.00     0.058 C 
HETATM   16  C15 UNL     1      -1.586   3.596  -0.033  1.00  0.00     0.008 C 
HETATM   17  C16 UNL     1       0.170   3.623  -1.877  1.00  0.00     0.008 C 
ENDBRANCH  13  15
ENDBRANCH  12  13
ENDBRANCH   1  12
BRANCH   6  18
HETATM   18  O1  UNL     1       2.590  -0.100   0.977  1.00  0.00    -0.328 OA
HETATM   19  C7  UNL     1       3.736  -0.922   0.818  1.00  0.00     0.181 C 
ENDBRANCH   6  18
BRANCH   4  20
HETATM   20  O2  UNL     1      -0.002  -3.783  -0.576  1.00  0.00    -0.328 OA
HETATM   21  C8  UNL     1       1.221  -4.488  -0.748  1.00  0.00     0.181 C 
ENDBRANCH   4  20
TORSDOF 5
