REMARK  4 active torsions:
REMARK  status: ('A' for Active; 'I' for Inactive)
REMARK    1  A    between atoms: C2_2  and  O2_17 
REMARK    2  A    between atoms: C4_4  and  C8_9 
REMARK    3  A    between atoms: C6_6  and  O1_7 
REMARK    4  A    between atoms: C9_10  and  C10_11 
ROOT
HETATM    1  C1  UNL     1      -2.053   2.426  -0.008  1.00  0.00     0.048 A 
HETATM    2  C2  UNL     1      -2.715   1.186  -0.008  1.00  0.00     0.096 A 
HETATM    3  C3  UNL     1      -1.967  -0.004  -0.008  1.00  0.00     0.024 A 
HETATM    4  C4  UNL     1      -0.561   0.045  -0.008  1.00  0.00     0.004 A 
HETATM    5  C5  UNL     1       0.096   1.289  -0.008  1.00  0.00     0.024 A 
HETATM    6  C6  UNL     1      -0.648   2.483  -0.008  1.00  0.00     0.096 A 
ENDROOT
BRANCH   4   7
HETATM    7  C8  UNL     1       0.232  -1.221  -0.008  1.00  0.00     0.000 C 
HETATM    8  C9  UNL     1       1.572  -1.141  -0.008  1.00  0.00     0.000 C 
BRANCH   8   9
HETATM    9  C10 UNL     1       2.365  -2.406  -0.008  1.00  0.00     0.000 A 
HETATM   10  C11 UNL     1       1.709  -3.650  -0.008  1.00  0.00     0.000 A 
HETATM   11  C12 UNL     1       2.455  -4.840  -0.008  1.00  0.00     0.000 A 
HETATM   12  C13 UNL     1       3.859  -4.789  -0.008  1.00  0.00     0.000 A 
HETATM   13  C14 UNL     1       4.518  -3.547  -0.008  1.00  0.00     0.000 A 
HETATM   14  C15 UNL     1       3.772  -2.355  -0.008  1.00  0.00     0.000 A 
ENDBRANCH   8   9
ENDBRANCH   4   7
BRANCH   2  15
HETATM   15  O2  UNL     1      -4.033   1.139  -0.008  1.00  0.00    -0.328 OA
HETATM   16  C16 UNL     1      -4.742   2.365   0.070  1.00  0.00     0.181 C 
ENDBRANCH   2  15
BRANCH   6  17
HETATM   17  O1  UNL     1      -0.031   3.647  -0.008  1.00  0.00    -0.328 OA
HETATM   18  C7  UNL     1      -0.828   4.822  -0.008  1.00  0.00     0.181 C 
ENDBRANCH   6  17
TORSDOF 4
