REMARK  0 active torsions:
REMARK  status: ('A' for Active; 'I' for Inactive)
ROOT
HETATM    1  C1  UNL     1      -1.168   0.463   0.139  1.00  0.00    -0.051 C 
HETATM    2  C2  UNL     1      -0.025   1.336   0.608  1.00  0.00     0.032 C 
HETATM    3  C3  UNL     1       1.256   1.054  -0.195  1.00  0.00     0.101 A 
HETATM    4  C4  UNL     1       1.523  -0.432  -0.453  1.00  0.00     0.101 A 
HETATM    5  C5  UNL     1       0.471  -1.371   0.158  1.00  0.00     0.032 C 
HETATM    6  C6  UNL     1      -0.928  -0.846  -0.078  1.00  0.00    -0.051 C 
HETATM    7  C7  UNL     1      -2.002  -1.793  -0.549  1.00  0.00     0.026 C 
HETATM    8  C8  UNL     1       2.896  -0.600   0.141  1.00  0.00     0.279 A 
HETATM    9  O1  UNL     1       3.418   0.500   0.690  1.00  0.00    -0.244 OA
HETATM   10  C9  UNL     1       2.516   1.467   0.520  1.00  0.00     0.279 A 
HETATM   11  O2  UNL     1       2.672   2.603   0.904  1.00  0.00    -0.264 OA
HETATM   12  O3  UNL     1       3.463  -1.666   0.108  1.00  0.00    -0.264 OA
HETATM   13  C10 UNL     1      -2.526   1.080  -0.078  1.00  0.00     0.026 C 
ENDROOT
TORSDOF 0
