REMARK  10 active torsions:
REMARK  status: ('A' for Active; 'I' for Inactive)
REMARK    1  A    between atoms: C1_1  and  O8_40 
REMARK    2  A    between atoms: C15_16  and  C18_20 
REMARK    3  A    between atoms: C18_20  and  C19_21 
REMARK    4  A    between atoms: C19_21  and  C20_22 
REMARK    5  A    between atoms: C20_22  and  C21_23 
REMARK    6  A    between atoms: C21_23  and  C22_24 
REMARK    7  A    between atoms: C22_24  and  O3_27 
REMARK    8  A    between atoms: O3_27  and  C25_28 
REMARK    9  A    between atoms: O8_40  and  C33_41 
REMARK   10  A    between atoms: C34_43  and  C38_50 
ROOT
HETATM    1  C1  UNL     1      -1.128   1.002   0.038  1.00  0.00     0.128 C 
HETATM    2  C2  UNL     1      -1.223  -0.301  -0.669  1.00  0.00     0.197 C 
HETATM    3  C3  UNL     1      -0.787  -1.558   0.089  1.00  0.00     0.073 C 
HETATM    4  C4  UNL     1       0.170  -1.254   1.240  1.00  0.00    -0.038 C 
HETATM    5  C5  UNL     1       0.883   0.074   1.203  1.00  0.00     0.049 C 
HETATM    6  C6  UNL     1      -0.151   1.137   0.950  1.00  0.00     0.005 C 
HETATM    7  C7  UNL     1       1.852   0.386   2.378  1.00  0.00     0.059 C 
HETATM    8  C8  UNL     1       2.511  -0.892   2.976  1.00  0.00     0.012 C 
HETATM    9  C9  UNL     1       1.460  -1.976   3.277  1.00  0.00     0.026 C 
HETATM   10  C10 UNL     1       0.455  -2.170   2.179  1.00  0.00    -0.034 C 
HETATM   11  C11 UNL     1       3.797  -1.376   2.258  1.00  0.00     0.004 C 
HETATM   12  C12 UNL     1       4.809  -0.183   2.091  1.00  0.00     0.012 C 
HETATM   13  C13 UNL     1       4.167   0.838   1.146  1.00  0.00     0.065 C 
HETATM   14  C14 UNL     1       2.885   1.365   1.783  1.00  0.00     0.150 C 
HETATM   15  O1  UNL     1       2.666   2.556   1.747  1.00  0.00    -0.296 OA
HETATM   16  C15 UNL     1       6.068  -0.937   1.590  1.00  0.00     0.066 C 
HETATM   17  C16 UNL     1       6.114  -2.106   2.590  1.00  0.00     0.155 C 
HETATM   18  C17 UNL     1       4.675  -2.370   3.060  1.00  0.00     0.033 C 
HETATM   19  O2  UNL     1       6.680  -3.236   1.973  1.00  0.00    -0.223 OA
HETATM   20  C28 UNL     1       5.105   0.571   3.419  1.00  0.00     0.001 C 
HETATM   21  C29 UNL     1       3.403  -2.141   0.962  1.00  0.00     0.000 C 
HETATM   22  C30 UNL     1       1.115   1.091   3.551  1.00  0.00     0.008 C 
HETATM   23  C31 UNL     1      -2.093  -2.218   0.578  1.00  0.00     0.012 C 
HETATM   24  C32 UNL     1      -0.066  -2.493  -0.902  1.00  0.00     0.012 C 
HETATM   25  O7  UNL     1      -1.708  -0.318  -1.794  1.00  0.00    -0.289 OA
ENDROOT
BRANCH  16  26
HETATM   26  C18 UNL     1       7.439  -0.316   1.236  1.00  0.00     0.180 C 
HETATM   27  C27 UNL     1       7.789   1.026   1.875  1.00  0.00     0.041 C 
HETATM   28  O6  UNL     1       8.447  -1.207   1.679  1.00  0.00    -0.218 OA
BRANCH  26  29
HETATM   29  C19 UNL     1       7.564  -0.184  -0.299  1.00  0.00     0.178 C 
HETATM   30  O5  UNL     1       7.446   0.895  -0.835  1.00  0.00    -0.293 OA
BRANCH  29  31
HETATM   31  C20 UNL     1       7.865  -1.431  -1.130  1.00  0.00     0.070 C 
BRANCH  31  32
HETATM   32  C21 UNL     1       8.376  -1.134  -2.552  1.00  0.00     0.036 C 
BRANCH  32  33
HETATM   33  C22 UNL     1       8.767  -2.381  -3.388  1.00  0.00     0.102 C 
HETATM   34  C23 UNL     1       9.873  -3.151  -2.657  1.00  0.00     0.030 C 
HETATM   35  C24 UNL     1       9.277  -1.871  -4.746  1.00  0.00     0.030 C 
BRANCH  33  36
HETATM   36  O3  UNL     1       7.579  -3.093  -3.572  1.00  0.00    -0.307 OA
BRANCH  36  37
HETATM   37  C25 UNL     1       7.401  -4.421  -3.817  1.00  0.00     0.272 C 
HETATM   38  O4  UNL     1       6.297  -4.924  -3.769  1.00  0.00    -0.264 OA
HETATM   39  C26 UNL     1       8.582  -5.260  -4.266  1.00  0.00     0.106 C 
ENDBRANCH  36  37
ENDBRANCH  33  36
ENDBRANCH  32  33
ENDBRANCH  31  32
ENDBRANCH  29  31
ENDBRANCH  26  29
ENDBRANCH  16  26
BRANCH   1  40
HETATM   40  O8  UNL     1      -2.064   1.960  -0.220  1.00  0.00    -0.301 OA
BRANCH  40  41
HETATM   41  C33 UNL     1      -1.536   3.154  -0.746  1.00  0.00     0.274 C 
HETATM   42  O9  UNL     1      -2.078   4.176   0.057  1.00  0.00    -0.326 OA
HETATM   43  C34 UNL     1      -1.592   5.440  -0.310  1.00  0.00     0.184 C 
HETATM   44  C35 UNL     1      -1.963   5.728  -1.763  1.00  0.00     0.215 C 
HETATM   45  C36 UNL     1      -1.462   4.628  -2.683  1.00  0.00     0.220 C 
HETATM   46  O12 UNL     1      -1.393   6.941  -2.191  1.00  0.00    -0.218 OA
HETATM   47  C37 UNL     1      -1.980   3.298  -2.179  1.00  0.00     0.241 C 
HETATM   48  O11 UNL     1      -1.926   4.860  -3.987  1.00  0.00    -0.218 OA
HETATM   49  O10 UNL     1      -1.431   2.244  -2.932  1.00  0.00    -0.215 OA
BRANCH  43  50
HETATM   50  C38 UNL     1      -2.173   6.471   0.646  1.00  0.00     0.214 C 
HETATM   51  O13 UNL     1      -1.739   6.199   1.965  1.00  0.00    -0.218 OA
ENDBRANCH  43  50
ENDBRANCH  40  41
ENDBRANCH   1  40
TORSDOF 10
