REMARK  3 active torsions:
REMARK  status: ('A' for Active; 'I' for Inactive)
REMARK    1  A    between atoms: C2_2  and  O3_17 
REMARK    2  A    between atoms: C8_8  and  C10_12 
REMARK    3  A    between atoms: C10_12  and  C13_15 
ROOT
HETATM    1  C1  UNL     1      -1.788  -0.092  -3.033  1.00  0.00     0.024 A 
HETATM    2  C2  UNL     1      -1.458  -1.458  -3.211  1.00  0.00     0.096 A 
HETATM    3  C3  UNL     1      -0.688  -2.135  -2.236  1.00  0.00     0.049 A 
HETATM    4  C4  UNL     1      -0.244  -1.449  -1.081  1.00  0.00     0.105 A 
HETATM    5  C5  UNL     1      -0.579  -0.080  -0.908  1.00  0.00     0.023 A 
HETATM    6  C6  UNL     1      -1.350   0.601  -1.880  1.00  0.00     0.004 A 
HETATM    7  C7  UNL     1      -0.104   0.618   0.314  1.00  0.00     0.003 A 
HETATM    8  C8  UNL     1       0.628  -0.068   1.215  1.00  0.00     0.044 A 
HETATM    9  C9  UNL     1       0.946  -1.498   0.972  1.00  0.00     0.296 A 
HETATM   10  O1  UNL     1       0.493  -2.095  -0.149  1.00  0.00    -0.273 OA
HETATM   11  O2  UNL     1       1.607  -2.094   1.791  1.00  0.00    -0.259 OA
ENDROOT
BRANCH   8  12
HETATM   12  C10 UNL     1       1.119   0.622   2.462  1.00  0.00     0.043 C 
HETATM   13  C11 UNL     1       0.570  -0.019   3.737  1.00  0.00     0.009 C 
HETATM   14  C12 UNL     1       0.460   1.985   2.672  1.00  0.00     0.009 C 
BRANCH  12  15
HETATM   15  C13 UNL     1       2.622   0.704   2.462  1.00  0.00    -0.022 C 
HETATM   16  C14 UNL     1       3.198   1.918   2.462  1.00  0.00    -0.005 C 
ENDBRANCH  12  15
ENDBRANCH   8  12
BRANCH   2  17
HETATM   17  O3  UNL     1      -1.876  -2.110  -4.304  1.00  0.00    -0.328 OA
HETATM   18  C15 UNL     1      -2.681  -1.402  -5.236  1.00  0.00     0.181 C 
ENDBRANCH   2  17
TORSDOF 3
