REMARK  4 active torsions:
REMARK  status: ('A' for Active; 'I' for Inactive)
REMARK    1  A    between atoms: C2_2  and  C12_13 
REMARK    2  A    between atoms: C5_5  and  O1_7 
REMARK    3  A    between atoms: O1_7  and  C7_8 
REMARK    4  A    between atoms: C7_8  and  C8_9 
ROOT
HETATM    1  C1  UNL     1       1.039   1.754   0.199  1.00  0.00     0.002 A 
HETATM    2  C2  UNL     1       0.293   2.945   0.199  1.00  0.00    -0.000 A 
HETATM    3  C3  UNL     1      -1.113   2.893   0.199  1.00  0.00     0.002 A 
HETATM    4  C4  UNL     1      -1.770   1.650   0.199  1.00  0.00     0.024 A 
HETATM    5  C5  UNL     1      -1.026   0.457   0.199  1.00  0.00     0.095 A 
HETATM    6  C6  UNL     1       0.379   0.512   0.199  1.00  0.00     0.024 A 
ENDROOT
BRANCH   5   7
HETATM    7  O1  UNL     1      -1.643  -0.707   0.199  1.00  0.00    -0.326 OA
BRANCH   7   8
HETATM    8  C7  UNL     1      -0.848  -1.883   0.199  1.00  0.00     0.174 C 
BRANCH   8   9
HETATM    9  C8  UNL     1      -1.742  -3.094   0.199  1.00  0.00    -0.002 C 
HETATM   10  C9  UNL     1      -1.190  -4.299  -0.024  1.00  0.00    -0.045 C 
HETATM   11  C10 UNL     1      -1.944  -5.602  -0.084  1.00  0.00     0.026 C 
HETATM   12  C11 UNL     1       0.299  -4.379  -0.231  1.00  0.00     0.026 C 
ENDBRANCH   8   9
ENDBRANCH   7   8
ENDBRANCH   5   7
BRANCH   2  13
HETATM   13  C12 UNL     1       0.992   4.266   0.199  1.00  0.00    -0.005 C 
HETATM   14  C13 UNL     1       2.197   4.356  -0.387  1.00  0.00    -0.026 C 
HETATM   15  C14 UNL     1       2.898   5.688  -0.385  1.00  0.00     0.031 C 
ENDBRANCH   2  13
TORSDOF 4
