REMARK  5 active torsions:
REMARK  status: ('A' for Active; 'I' for Inactive)
REMARK    1  A    between atoms: C3_3  and  C7_8 
REMARK    2  A    between atoms: C12_14  and  C13_15 
REMARK    3  A    between atoms: C15_18  and  C16_19 
REMARK    4  A    between atoms: C27_31  and  O5_32 
REMARK    5  A    between atoms: C29_36  and  O9_40 
ROOT
HETATM    1  C7  UNL     1       2.983  -1.369  -0.652  1.00  0.00     0.103 A 
HETATM    2  C8  UNL     1       3.248  -2.602  -0.168  1.00  0.00     0.067 A 
HETATM    3  C9  UNL     1       2.156  -3.527   0.199  1.00  0.00     0.202 A 
HETATM    4  C10 UNL     1       0.777  -3.000  -0.004  1.00  0.00     0.087 A 
HETATM    5  C11 UNL     1       0.623  -1.684  -0.521  1.00  0.00     0.107 A 
HETATM    6  O2  UNL     1       1.713  -0.939  -0.818  1.00  0.00    -0.307 OA
HETATM    7  C12 UNL     1      -0.683  -1.164  -0.723  1.00  0.00     0.049 A 
HETATM    8  C29 UNL     1      -1.824  -1.949  -0.408  1.00  0.00     0.098 A 
HETATM    9  C30 UNL     1      -1.658  -3.256   0.107  1.00  0.00     0.052 A 
HETATM   10  C31 UNL     1      -0.361  -3.785   0.313  1.00  0.00     0.138 A 
HETATM   11  O8  UNL     1      -0.230  -5.025   0.803  1.00  0.00    -0.190 OA
HETATM   12  O10 UNL     1       2.475  -4.613   0.625  1.00  0.00    -0.286 OA
ENDROOT
BRANCH   7  13
HETATM   13  C13 UNL     1      -0.853   0.182  -1.256  1.00  0.00     0.049 A 
HETATM   14  C14 UNL     1      -1.353   1.215  -0.420  1.00  0.00     0.107 A 
HETATM   15  O3  UNL     1      -1.672   0.963   0.871  1.00  0.00    -0.307 OA
HETATM   16  C24 UNL     1      -1.517   2.523  -0.951  1.00  0.00     0.087 A 
HETATM   17  C15 UNL     1      -2.148   1.895   1.723  1.00  0.00     0.103 A 
HETATM   18  C22 UNL     1      -2.348   3.172   1.326  1.00  0.00     0.067 A 
HETATM   19  C23 UNL     1      -2.045   3.594  -0.057  1.00  0.00     0.202 A 
HETATM   20  O7  UNL     1      -2.248   4.754  -0.336  1.00  0.00    -0.286 OA
HETATM   21  C25 UNL     1      -1.183   2.797  -2.303  1.00  0.00     0.138 A 
HETATM   22  C26 UNL     1      -0.687   1.760  -3.125  1.00  0.00     0.052 A 
HETATM   23  O6  UNL     1      -1.334   4.027  -2.816  1.00  0.00    -0.190 OA
HETATM   24  C27 UNL     1      -0.521   0.453  -2.609  1.00  0.00     0.098 A 
BRANCH  17  25
HETATM   25  C16 UNL     1      -2.471   1.518   3.133  1.00  0.00     0.023 A 
HETATM   26  C17 UNL     1      -1.891   0.373   3.705  1.00  0.00     0.004 A 
HETATM   27  C18 UNL     1      -2.193   0.020   5.033  1.00  0.00     0.028 A 
HETATM   28  C19 UNL     1      -3.076   0.811   5.791  1.00  0.00     0.131 A 
HETATM   29  C20 UNL     1      -3.654   1.955   5.215  1.00  0.00     0.028 A 
HETATM   30  O4  UNL     1      -3.359   0.479   7.035  1.00  0.00    -0.190 OA
HETATM   31  C21 UNL     1      -3.353   2.311   3.889  1.00  0.00     0.004 A 
ENDBRANCH  17  25
BRANCH  24  32
HETATM   32  O5  UNL     1      -0.049  -0.514  -3.412  1.00  0.00    -0.328 OA
HETATM   33  C28 UNL     1       0.072  -0.229  -4.797  1.00  0.00     0.181 C 
ENDBRANCH  24  32
ENDBRANCH   7  13
BRANCH   8  34
HETATM   34  O9  UNL     1      -3.064  -1.471  -0.594  1.00  0.00    -0.328 OA
HETATM   35  C32 UNL     1      -4.154  -2.369  -0.439  1.00  0.00     0.181 C 
ENDBRANCH   8  34
BRANCH   1  36
HETATM   36  C3  UNL     1       4.123  -0.471  -1.008  1.00  0.00     0.023 A 
HETATM   37  C2  UNL     1       3.926   0.918  -1.090  1.00  0.00     0.004 A 
HETATM   38  C1  UNL     1       5.000   1.762  -1.424  1.00  0.00     0.028 A 
HETATM   39  C6  UNL     1       6.274   1.219  -1.678  1.00  0.00     0.131 A 
HETATM   40  C5  UNL     1       6.467  -0.170  -1.596  1.00  0.00     0.028 A 
HETATM   41  O1  UNL     1       7.280   2.010  -1.992  1.00  0.00    -0.190 OA
HETATM   42  C4  UNL     1       5.395  -1.016  -1.262  1.00  0.00     0.004 A 
ENDBRANCH   1  36
TORSDOF 5
