REMARK  5 active torsions:
REMARK  status: ('A' for Active; 'I' for Inactive)
REMARK    1  A    between atoms: C3_3  and  O2_7 
REMARK    2  A    between atoms: O2_7  and  C6_8 
REMARK    3  A    between atoms: C7_10  and  C11_17 
REMARK    4  A    between atoms: C12_19  and  O9_24 
REMARK    5  A    between atoms: O9_24  and  C16_25 
ROOT
HETATM    1  C1  UNL     1      -0.143  -2.485   2.063  1.00  0.00     0.062 C 
HETATM    2  C2  UNL     1       0.182  -1.000   1.854  1.00  0.00     0.089 C 
HETATM    3  C3  UNL     1      -0.744  -0.475   0.732  1.00  0.00     0.244 C 
HETATM    4  O1  UNL     1      -2.123  -0.660   1.072  1.00  0.00    -0.304 OA
HETATM    5  C4  UNL     1      -2.494  -1.858   1.557  1.00  0.00     0.115 C 
HETATM    6  C5  UNL     1      -1.627  -2.776   2.025  1.00  0.00     0.003 C 
HETATM    7  C12 UNL     1       1.688  -1.070   1.555  1.00  0.00     0.109 C 
HETATM    8  C13 UNL     1       1.795  -2.229   0.568  1.00  0.00     0.061 C 
HETATM    9  C14 UNL     1       0.744  -3.240   1.049  1.00  0.00     0.159 C 
HETATM   10  O8  UNL     1       0.014  -3.729  -0.063  1.00  0.00    -0.223 OA
HETATM   11  C15 UNL     1       2.299   0.211   0.994  1.00  0.00     0.031 C 
ENDROOT
BRANCH   3  12
HETATM   12  O2  UNL     1      -0.525   0.904   0.523  1.00  0.00    -0.304 OA
BRANCH  12  13
HETATM   13  C6  UNL     1      -1.369   1.457  -0.467  1.00  0.00     0.272 C 
HETATM   14  O3  UNL     1      -0.898   1.039  -1.740  1.00  0.00    -0.326 OA
HETATM   15  C7  UNL     1      -1.680   1.476  -2.844  1.00  0.00     0.184 C 
HETATM   16  C8  UNL     1      -1.678   3.019  -2.895  1.00  0.00     0.215 C 
HETATM   17  C9  UNL     1      -2.154   3.627  -1.557  1.00  0.00     0.220 C 
HETATM   18  O6  UNL     1      -2.533   3.441  -3.943  1.00  0.00    -0.218 OA
HETATM   19  C10 UNL     1      -1.363   3.004  -0.385  1.00  0.00     0.241 C 
HETATM   20  O5  UNL     1      -1.965   5.033  -1.570  1.00  0.00    -0.218 OA
HETATM   21  O4  UNL     1      -1.945   3.410   0.844  1.00  0.00    -0.215 OA
BRANCH  15  22
HETATM   22  C11 UNL     1      -1.068   0.838  -4.096  1.00  0.00     0.214 C 
HETATM   23  O7  UNL     1      -1.268  -0.557  -4.022  1.00  0.00    -0.218 OA
ENDBRANCH  15  22
ENDBRANCH  12  13
ENDBRANCH   3  12
BRANCH   7  24
HETATM   24  O9  UNL     1       2.385  -1.408   2.748  1.00  0.00    -0.306 OA
BRANCH  24  25
HETATM   25  C16 UNL     1       3.691  -1.553   2.547  1.00  0.00     0.272 C 
HETATM   26  C17 UNL     1       4.514  -1.733   3.795  1.00  0.00     0.106 C 
HETATM   27  O10 UNL     1       4.209  -1.543   1.455  1.00  0.00    -0.264 OA
ENDBRANCH  24  25
ENDBRANCH   7  24
TORSDOF 5
