REMARK  4 active torsions:
REMARK  status: ('A' for Active; 'I' for Inactive)
REMARK    1  A    between atoms: C4_4  and  C7_7 
REMARK    2  A    between atoms: C7_7  and  C9_9 
REMARK    3  A    between atoms: C9_9  and  C10_10 
REMARK    4  A    between atoms: C10_10  and  C11_11 
ROOT
HETATM    1  C7  UNL     1       1.668   0.186   0.914  1.00  0.00     0.000 C 
HETATM    2  C8  UNL     1       3.047  -0.391   1.236  1.00  0.00     0.000 C 
ENDROOT
BRANCH   1   3
HETATM    3  C4  UNL     1       0.639  -0.896   0.578  1.00  0.00     0.000 C 
HETATM    4  C3  UNL     1       1.156  -2.295   0.953  1.00  0.00     0.000 C 
HETATM    5  C2  UNL     1       0.121  -3.391   0.656  1.00  0.00     0.000 C 
HETATM    6  C1  UNL     1      -1.228  -3.104   1.338  1.00  0.00     0.000 C 
HETATM    7  C6  UNL     1      -1.748  -1.707   0.961  1.00  0.00     0.000 C 
HETATM    8  C15 UNL     1      -2.258  -4.188   1.004  1.00  0.00     0.000 C 
HETATM    9  C5  UNL     1      -0.713  -0.611   1.258  1.00  0.00     0.000 C 
ENDBRANCH   1   3
BRANCH   1  10
HETATM   10  C9  UNL     1       1.723   1.295  -0.137  1.00  0.00     0.004 C 
BRANCH  10  11
HETATM   11  C10 UNL     1       0.381   2.006  -0.314  1.00  0.00     0.025 C 
BRANCH  11  12
HETATM   12  C11 UNL     1       0.498   3.254  -1.150  1.00  0.00    -0.034 C 
HETATM   13  C12 UNL     1      -0.488   3.539  -2.016  1.00  0.00    -0.048 C 
HETATM   14  C13 UNL     1      -1.758   2.748  -2.178  1.00  0.00     0.026 C 
HETATM   15  C14 UNL     1      -0.336   4.744  -2.904  1.00  0.00     0.026 C 
ENDBRANCH  11  12
ENDBRANCH  10  11
ENDBRANCH   1  10
TORSDOF 4
