REMARK  0 active torsions:
REMARK  status: ('A' for Active; 'I' for Inactive)
ROOT
HETATM    1  C1  UNL     1      -2.496  -0.694   0.285  1.00  0.00     0.023 A 
HETATM    2  C2  UNL     1      -1.207  -1.237   0.496  1.00  0.00    -0.015 A 
HETATM    3  C3  UNL     1      -0.059  -0.457   0.184  1.00  0.00     0.058 A 
HETATM    4  C4  UNL     1      -0.209   0.859  -0.336  1.00  0.00     0.104 A 
HETATM    5  C5  UNL     1      -1.504   1.390  -0.541  1.00  0.00     0.052 A 
HETATM    6  C6  UNL     1      -2.644   0.615  -0.230  1.00  0.00     0.133 A 
HETATM    7  O1  UNL     1      -3.871   1.121  -0.428  1.00  0.00    -0.190 OA
HETATM    8  O2  UNL     1       0.877   1.607  -0.633  1.00  0.00    -0.311 OA
HETATM    9  C7  UNL     1       2.145   1.176  -0.467  1.00  0.00     0.081 A 
HETATM   10  C8  UNL     1       2.412  -0.055   0.018  1.00  0.00     0.062 A 
HETATM   11  C9  UNL     1       1.322  -0.983   0.385  1.00  0.00     0.199 A 
HETATM   12  O3  UNL     1       1.650  -2.069   0.811  1.00  0.00    -0.286 OA
HETATM   13  C10 UNL     1       3.299   2.074  -0.822  1.00  0.00     0.058 C 
HETATM   14  C11 UNL     1      -1.088  -2.602   1.037  1.00  0.00     0.031 C 
ENDROOT
TORSDOF 0
