REMARK  6 active torsions:
REMARK  status: ('A' for Active; 'I' for Inactive)
REMARK    1  A    between atoms: C1_1  and  C20_22 
REMARK    2  A    between atoms: C3_3  and  C15_17 
REMARK    3  A    between atoms: C5_5  and  C7_7 
REMARK    4  A    between atoms: C7_7  and  C8_8 
REMARK    5  A    between atoms: C9_9  and  C10_10 
REMARK    6  A    between atoms: C10_10  and  C11_11 
ROOT
HETATM    1  C1  UNL     1       2.010  -1.906  -0.900  1.00  0.00    -0.023 A 
HETATM    2  C2  UNL     1       2.668  -0.662  -0.900  1.00  0.00    -0.005 A 
HETATM    3  C3  UNL     1       1.922   0.529  -0.900  1.00  0.00    -0.005 A 
HETATM    4  C4  UNL     1       0.516   0.479  -0.900  1.00  0.00    -0.004 A 
HETATM    5  C5  UNL     1      -0.143  -0.766  -0.900  1.00  0.00    -0.016 A 
HETATM    6  C6  UNL     1       0.606  -1.957  -0.900  1.00  0.00    -0.008 A 
ENDROOT
BRANCH   5   7
HETATM    7  C7  UNL     1      -1.627  -0.818  -0.900  1.00  0.00     0.080 C 
BRANCH   7   8
HETATM    8  C8  UNL     1      -2.225   0.035   0.186  1.00  0.00     0.112 C 
HETATM    9  C9  UNL     1      -2.260  -0.449   1.440  1.00  0.00     0.034 C 
HETATM   10  C14 UNL     1      -1.697  -1.822   1.694  1.00  0.00     0.036 C 
HETATM   11  O2  UNL     1      -2.711   1.244  -0.082  1.00  0.00    -0.195 OA
BRANCH   9  12
HETATM   12  C10 UNL     1      -2.832   0.346   2.531  1.00  0.00     0.170 C 
HETATM   13  O1  UNL     1      -2.168   0.615   3.506  1.00  0.00    -0.292 OA
BRANCH  12  14
HETATM   14  C11 UNL     1      -4.258   0.813   2.414  1.00  0.00     0.062 C 
HETATM   15  C12 UNL     1      -4.373   2.336   2.391  1.00  0.00     0.008 C 
HETATM   16  C13 UNL     1      -5.172   0.168   3.457  1.00  0.00     0.008 C 
ENDBRANCH  12  14
ENDBRANCH   9  12
ENDBRANCH   7   8
ENDBRANCH   5   7
BRANCH   3  17
HETATM   17  C15 UNL     1       2.621   1.850  -0.900  1.00  0.00    -0.030 C 
HETATM   18  C16 UNL     1       3.775   2.160   0.014  1.00  0.00     0.030 C 
HETATM   19  C17 UNL     1       2.203   2.801  -1.752  1.00  0.00    -0.048 C 
HETATM   20  C18 UNL     1       1.182   2.604  -2.840  1.00  0.00     0.026 C 
HETATM   21  C19 UNL     1       2.789   4.182  -1.629  1.00  0.00     0.026 C 
ENDBRANCH   3  17
BRANCH   1  22
HETATM   22  C20 UNL     1       2.799  -3.164  -0.900  1.00  0.00     0.022 C 
HETATM   23  C21 UNL     1       2.484  -4.027   0.322  1.00  0.00     0.005 C 
HETATM   24  C22 UNL     1       2.643  -3.928  -2.217  1.00  0.00     0.005 C 
ENDBRANCH   1  22
TORSDOF 6
