REMARK  4 active torsions:
REMARK  status: ('A' for Active; 'I' for Inactive)
REMARK    1  A    between atoms: C2_2  and  C3_3 
REMARK    2  A    between atoms: C3_3  and  C4_4 
REMARK    3  A    between atoms: C4_4  and  C5_5 
REMARK    4  A    between atoms: C6_6  and  C7_7 
ROOT
HETATM    1  C4  UNL     1       1.416   0.010  -0.877  1.00  0.00     0.061 C 
ENDROOT
BRANCH   1   2
HETATM    2  C3  UNL     1       2.000   0.436   0.470  1.00  0.00     0.149 C 
HETATM    3  O1  UNL     1       3.404   0.326   0.398  1.00  0.00    -0.221 OA
HETATM    4  C10 UNL     1       1.510  -0.436   1.627  1.00  0.00     0.038 C 
BRANCH   2   5
HETATM    5  C2  UNL     1       1.812   1.906   0.738  1.00  0.00     0.004 C 
HETATM    6  C1  UNL     1       0.789   2.289   1.519  1.00  0.00    -0.002 C 
ENDBRANCH   2   5
ENDBRANCH   1   2
BRANCH   1   7
HETATM    7  C5  UNL     1      -0.088   0.010  -0.877  1.00  0.00    -0.024 C 
HETATM    8  C6  UNL     1      -0.729  -1.172  -0.877  1.00  0.00    -0.009 C 
BRANCH   8   9
HETATM    9  C7  UNL     1      -2.195  -1.227  -0.877  1.00  0.00    -0.022 C 
HETATM   10  C8  UNL     1      -2.838  -2.406  -0.887  1.00  0.00    -0.005 C 
HETATM   11  C9  UNL     1      -3.016   0.037  -0.867  1.00  0.00     0.031 C 
ENDBRANCH   8   9
ENDBRANCH   1   7
TORSDOF 4
