REMARK  6 active torsions:
REMARK  status: ('A' for Active; 'I' for Inactive)
REMARK    1  A    between atoms: C2_2  and  C3_3 
REMARK    2  A    between atoms: C3_3  and  C4_4 
REMARK    3  A    between atoms: C4_4  and  C5_5 
REMARK    4  A    between atoms: C5_5  and  C6_6 
REMARK    5  A    between atoms: C6_6  and  C8_8 
REMARK    6  A    between atoms: C8_8  and  C9_9 
ROOT
HETATM    1  C5  UNL     1       0.744   0.037  -0.715  1.00  0.00     0.001 C 
ENDROOT
BRANCH   1   2
HETATM    2  C4  UNL     1      -0.027  -0.162   0.590  1.00  0.00     0.004 C 
BRANCH   2   3
HETATM    3  C3  UNL     1       0.865  -0.033   1.826  1.00  0.00     0.022 C 
BRANCH   3   4
HETATM    4  C2  UNL     1       0.068   0.074   3.100  1.00  0.00    -0.044 C 
HETATM    5  C1  UNL     1       0.580   0.777   4.328  1.00  0.00     0.026 C 
HETATM    6  C10 UNL     1      -1.154  -0.481   3.141  1.00  0.00    -0.009 C 
ENDBRANCH   3   4
ENDBRANCH   2   3
ENDBRANCH   1   2
BRANCH   1   7
HETATM    7  C6  UNL     1      -0.113  -0.234  -1.953  1.00  0.00     0.008 C 
HETATM    8  C7  UNL     1      -1.279   0.744  -2.090  1.00  0.00     0.001 C 
BRANCH   7   9
HETATM    9  C8  UNL     1       0.717  -0.348  -3.232  1.00  0.00     0.072 C 
BRANCH   9  10
HETATM   10  C9  UNL     1      -0.070  -0.920  -4.379  1.00  0.00     0.207 C 
HETATM   11  O1  UNL     1      -1.107  -1.512  -4.187  1.00  0.00    -0.288 OA
ENDBRANCH   9  10
ENDBRANCH   7   9
ENDBRANCH   1   7
TORSDOF 6
