REMARK  4 active torsions:
REMARK  status: ('A' for Active; 'I' for Inactive)
REMARK    1  A    between atoms: C4_4  and  C9_11 
REMARK    2  A    between atoms: C5_5  and  C7_7 
REMARK    3  A    between atoms: C7_7  and  O1_8 
REMARK    4  A    between atoms: C9_11  and  O3_12 
ROOT
HETATM    1  C1  UNL     1       0.817  -3.043  -0.004  1.00  0.00     0.000 A 
HETATM    2  C2  UNL     1      -0.588  -3.094  -0.004  1.00  0.00     0.000 A 
HETATM    3  C3  UNL     1      -1.334  -1.904  -0.004  1.00  0.00     0.005 A 
HETATM    4  C4  UNL     1      -0.680  -0.658  -0.004  1.00  0.00     0.068 A 
HETATM    5  C5  UNL     1       0.731  -0.607  -0.004  1.00  0.00     0.068 A 
HETATM    6  C6  UNL     1       1.475  -1.803  -0.004  1.00  0.00     0.005 A 
ENDROOT
BRANCH   4   7
HETATM    7  C9  UNL     1      -1.492   0.596  -0.004  1.00  0.00     0.296 C 
HETATM    8  O4  UNL     1      -1.123   1.576   0.600  1.00  0.00    -0.259 OA
BRANCH   7   9
HETATM    9  O3  UNL     1      -2.623   0.539  -0.703  1.00  0.00    -0.296 OA
HETATM   10  C10 UNL     1      -3.346   1.762  -0.662  1.00  0.00     0.185 C 
ENDBRANCH   7   9
ENDBRANCH   4   7
BRANCH   5  11
HETATM   11  C7  UNL     1       1.451   0.703  -0.004  1.00  0.00     0.296 C 
HETATM   12  O2  UNL     1       1.014   1.652  -0.613  1.00  0.00    -0.259 OA
BRANCH  11  13
HETATM   13  O1  UNL     1       2.576   0.730   0.703  1.00  0.00    -0.296 OA
HETATM   14  C8  UNL     1       3.215   1.998   0.652  1.00  0.00     0.185 C 
ENDBRANCH  11  13
ENDBRANCH   5  11
TORSDOF 4
