REMARK  2 active torsions:
REMARK  status: ('A' for Active; 'I' for Inactive)
REMARK    1  A    between atoms: C3_3  and  C19_23 
REMARK    2  A    between atoms: C12_15  and  C14_17 
ROOT
HETATM    1  C1  UNL     1       2.729   1.906  -1.225  1.00  0.00     0.153 C 
HETATM    2  C2  UNL     1       3.402   1.020  -0.150  1.00  0.00     0.044 C 
HETATM    3  C3  UNL     1       3.162  -0.492  -0.365  1.00  0.00     0.092 C 
HETATM    4  C4  UNL     1       1.660  -0.846  -0.598  1.00  0.00     0.038 C 
HETATM    5  C5  UNL     1       0.756   0.424  -0.584  1.00  0.00     0.008 C 
HETATM    6  C6  UNL     1       1.281   1.477  -1.570  1.00  0.00     0.033 C 
HETATM    7  C7  UNL     1      -0.713   0.010  -0.813  1.00  0.00     0.035 C 
HETATM    8  C8  UNL     1      -1.037  -1.133   0.164  1.00  0.00     0.172 C 
HETATM    9  C9  UNL     1      -0.311  -2.412  -0.244  1.00  0.00     0.067 C 
HETATM   10  C10 UNL     1       1.059  -1.965   0.307  1.00  0.00     0.128 C 
HETATM   11  O1  UNL     1       0.777  -1.455   1.613  1.00  0.00    -0.302 OA
HETATM   12  C11 UNL     1      -0.451  -0.949   1.545  1.00  0.00     0.296 C 
HETATM   13  O2  UNL     1      -1.031  -0.410   2.459  1.00  0.00    -0.262 OA
HETATM   14  O3  UNL     1      -2.443  -1.221   0.168  1.00  0.00    -0.347 OA
HETATM   15  C12 UNL     1      -3.004   0.061  -0.057  1.00  0.00     0.140 C 
HETATM   16  C13 UNL     1      -1.811   0.984  -0.363  1.00  0.00     0.037 C 
HETATM   17  C18 UNL     1      -1.000  -0.359  -2.275  1.00  0.00     0.003 C 
HETATM   18  O7  UNL     1       2.727   3.240  -0.758  1.00  0.00    -0.223 OA
ENDROOT
BRANCH  15  19
HETATM   19  C14 UNL     1      -3.793   0.512   1.154  1.00  0.00     0.031 A 
HETATM   20  C15 UNL     1      -4.121   1.824   1.506  1.00  0.00     0.121 A 
HETATM   21  O4  UNL     1      -4.846   1.883   2.662  1.00  0.00    -0.303 OA
HETATM   22  C16 UNL     1      -4.975   0.578   3.041  1.00  0.00     0.122 A 
HETATM   23  C17 UNL     1      -4.346  -0.295   2.148  1.00  0.00     0.027 A 
ENDBRANCH  15  19
BRANCH   3  24
HETATM   24  C19 UNL     1       3.824  -1.273   0.748  1.00  0.00     0.185 C 
HETATM   25  O5  UNL     1       4.627  -2.254   0.350  1.00  0.00    -0.647 OA
HETATM   26  O6  UNL     1       3.615  -1.000   1.906  1.00  0.00    -0.647 OA
ENDBRANCH   3  24
TORSDOF 2
