REMARK  15 active torsions:
REMARK  status: ('A' for Active; 'I' for Inactive)
REMARK    1  A    between atoms: C2_2  and  O9_43 
REMARK    2  A    between atoms: C19_20  and  C22_23 
REMARK    3  A    between atoms: C22_23  and  C23_24 
REMARK    4  A    between atoms: C22_23  and  O8_40 
REMARK    5  A    between atoms: C23_24  and  C24_25 
REMARK    6  A    between atoms: C24_25  and  C25_26 
REMARK    7  A    between atoms: C25_26  and  O2_27 
REMARK    8  A    between atoms: O2_27  and  C26_28 
REMARK    9  A    between atoms: C27_30  and  C31_37 
REMARK   10  A    between atoms: O9_43  and  C35_44 
REMARK   11  A    between atoms: C36_46  and  C52_73 
REMARK   12  A    between atoms: C37_47  and  O17_62 
REMARK   13  A    between atoms: C39_49  and  O11_50 
REMARK   14  A    between atoms: O11_50  and  C40_51 
REMARK   15  A    between atoms: O17_62  and  C46_63 
ROOT
HETATM    1  C1  UNL     1       2.729   1.820  -2.633  1.00  0.00     0.030 C 
HETATM    2  C2  UNL     1       3.473   0.805  -1.754  1.00  0.00     0.122 C 
HETATM    3  C3  UNL     1       2.522   0.119  -0.760  1.00  0.00     0.051 C 
HETATM    4  C4  UNL     1       1.314  -0.467  -1.465  1.00  0.00    -0.047 C 
HETATM    5  C5  UNL     1       0.547   0.451  -2.414  1.00  0.00     0.015 C 
HETATM    6  C6  UNL     1       1.555   1.150  -3.363  1.00  0.00     0.006 C 
HETATM    7  C7  UNL     1      -0.520  -0.316  -3.264  1.00  0.00     0.004 C 
HETATM    8  C8  UNL     1      -1.242  -1.436  -2.494  1.00  0.00     0.005 C 
HETATM    9  C9  UNL     1      -0.203  -2.414  -1.922  1.00  0.00     0.025 C 
HETATM   10  C10 UNL     1       0.961  -1.748  -1.232  1.00  0.00    -0.035 C 
HETATM   11  C11 UNL     1      -2.217  -0.842  -1.449  1.00  0.00     0.003 C 
HETATM   12  C12 UNL     1      -3.238   0.137  -2.080  1.00  0.00     0.006 C 
HETATM   13  C13 UNL     1      -2.647   1.147  -3.080  1.00  0.00     0.000 C 
HETATM   14  C14 UNL     1      -1.555   0.565  -3.996  1.00  0.00     0.000 C 
HETATM   15  C15 UNL     1      -3.916   0.893  -0.930  1.00  0.00     0.000 C 
HETATM   16  C16 UNL     1      -4.229  -0.824  -2.770  1.00  0.00     0.048 A 
HETATM   17  C17 UNL     1      -4.203  -2.117  -1.949  1.00  0.00     0.125 A 
HETATM   18  C18 UNL     1      -3.156  -1.904  -0.859  1.00  0.00     0.030 C 
HETATM   19  O1  UNL     1      -5.510  -2.297  -1.391  1.00  0.00    -0.336 OA
HETATM   20  C19 UNL     1      -6.320  -1.357  -1.883  1.00  0.00     0.091 A 
HETATM   21  C20 UNL     1      -5.686  -0.490  -2.680  1.00  0.00    -0.021 A 
HETATM   22  C21 UNL     1      -6.317   0.674  -3.400  1.00  0.00     0.028 C 
HETATM   23  C34 UNL     1      -0.092   1.514  -1.512  1.00  0.00     0.004 C 
ENDROOT
BRANCH   2  24
HETATM   24  O9  UNL     1       4.496   1.467  -1.039  1.00  0.00    -0.331 OA
BRANCH  24  25
HETATM   25  C35 UNL     1       5.502   0.592  -0.564  1.00  0.00     0.267 C 
HETATM   26  O10 UNL     1       6.234   0.106  -1.682  1.00  0.00    -0.326 OA
HETATM   27  C36 UNL     1       7.256  -0.832  -1.367  1.00  0.00     0.181 C 
HETATM   28  C37 UNL     1       8.303  -0.160  -0.451  1.00  0.00     0.180 C 
HETATM   29  C38 UNL     1       7.645   0.438   0.811  1.00  0.00     0.214 C 
HETATM   30  C39 UNL     1       6.451   1.334   0.410  1.00  0.00     0.207 C 
HETATM   31  O16 UNL     1       8.596   1.201   1.537  1.00  0.00    -0.218 OA
BRANCH  27  32
HETATM   32  C52 UNL     1       7.844  -1.307  -2.699  1.00  0.00     0.214 C 
HETATM   33  O22 UNL     1       6.824  -1.949  -3.428  1.00  0.00    -0.218 OA
ENDBRANCH  27  32
BRANCH  28  34
HETATM   34  O17 UNL     1       9.268  -1.129  -0.076  1.00  0.00    -0.326 OA
BRANCH  34  35
HETATM   35  C46 UNL     1      10.486  -1.004  -0.783  1.00  0.00     0.270 C 
HETATM   36  C47 UNL     1      11.352  -2.275  -0.596  1.00  0.00     0.241 C 
HETATM   37  C48 UNL     1      12.750  -2.092  -1.228  1.00  0.00     0.220 C 
HETATM   38  O21 UNL     1      10.703  -3.379  -1.207  1.00  0.00    -0.215 OA
HETATM   39  C49 UNL     1      13.379  -0.769  -0.738  1.00  0.00     0.212 C 
HETATM   40  O20 UNL     1      13.586  -3.182  -0.873  1.00  0.00    -0.218 OA
HETATM   41  C50 UNL     1      12.410   0.420  -0.932  1.00  0.00     0.151 C 
HETATM   42  O19 UNL     1      14.569  -0.506  -1.463  1.00  0.00    -0.218 OA
HETATM   43  O18 UNL     1      11.180   0.131  -0.281  1.00  0.00    -0.329 OA
HETATM   44  C51 UNL     1      12.936   1.723  -0.324  1.00  0.00     0.035 C 
ENDBRANCH  34  35
ENDBRANCH  28  34
BRANCH  30  45
HETATM   45  O11 UNL     1       5.731   1.709   1.574  1.00  0.00    -0.324 OA
BRANCH  45  46
HETATM   46  C40 UNL     1       5.065   2.949   1.441  1.00  0.00     0.270 C 
HETATM   47  O12 UNL     1       3.701   2.766   1.799  1.00  0.00    -0.329 OA
HETATM   48  C41 UNL     1       2.885   3.922   1.668  1.00  0.00     0.151 C 
HETATM   49  C42 UNL     1       3.408   5.026   2.613  1.00  0.00     0.212 C 
HETATM   50  C45 UNL     1       1.451   3.488   1.994  1.00  0.00     0.035 C 
HETATM   51  C43 UNL     1       4.900   5.326   2.352  1.00  0.00     0.220 C 
HETATM   52  O15 UNL     1       2.641   6.199   2.410  1.00  0.00    -0.218 OA
HETATM   53  C44 UNL     1       5.715   4.012   2.365  1.00  0.00     0.241 C 
HETATM   54  O14 UNL     1       5.397   6.209   3.348  1.00  0.00    -0.218 OA
HETATM   55  O13 UNL     1       7.037   4.274   1.922  1.00  0.00    -0.215 OA
ENDBRANCH  45  46
ENDBRANCH  30  45
ENDBRANCH  24  25
ENDBRANCH   2  24
BRANCH  20  56
HETATM   56  C22 UNL     1      -7.793  -1.269  -1.582  1.00  0.00     0.159 C 
BRANCH  56  57
HETATM   57  C23 UNL     1      -8.072  -1.023  -0.100  1.00  0.00     0.039 C 
BRANCH  57  58
HETATM   58  C24 UNL     1      -9.549  -0.756   0.188  1.00  0.00     0.033 C 
HETATM   59  C32 UNL     1     -10.119   0.383  -0.662  1.00  0.00     0.003 C 
BRANCH  58  60
HETATM   60  C25 UNL     1      -9.840  -0.582   1.678  1.00  0.00     0.145 C 
BRANCH  60  61
HETATM   61  O2  UNL     1      -9.570  -1.805   2.326  1.00  0.00    -0.329 OA
BRANCH  61  62
HETATM   62  C26 UNL     1      -9.752  -1.744   3.727  1.00  0.00     0.270 C 
HETATM   63  O3  UNL     1     -11.141  -1.600   3.992  1.00  0.00    -0.326 OA
HETATM   64  C27 UNL     1     -11.481  -1.475   5.367  1.00  0.00     0.184 C 
HETATM   65  C28 UNL     1     -11.053  -2.756   6.117  1.00  0.00     0.215 C 
HETATM   66  C29 UNL     1      -9.551  -3.055   5.906  1.00  0.00     0.220 C 
HETATM   67  O6  UNL     1     -11.317  -2.582   7.500  1.00  0.00    -0.218 OA
HETATM   68  C30 UNL     1      -9.217  -3.035   4.399  1.00  0.00     0.241 C 
HETATM   69  O5  UNL     1      -9.233  -4.324   6.453  1.00  0.00    -0.218 OA
HETATM   70  O4  UNL     1      -7.809  -3.104   4.229  1.00  0.00    -0.215 OA
BRANCH  64  71
HETATM   71  C31 UNL     1     -12.990  -1.225   5.428  1.00  0.00     0.214 C 
HETATM   72  O7  UNL     1     -13.250   0.041   4.867  1.00  0.00    -0.218 OA
ENDBRANCH  64  71
ENDBRANCH  61  62
ENDBRANCH  60  61
ENDBRANCH  58  60
ENDBRANCH  57  58
ENDBRANCH  56  57
BRANCH  56  73
HETATM   73  O8  UNL     1      -8.422  -2.475  -1.955  1.00  0.00    -0.348 OA
HETATM   74  C33 UNL     1      -8.410  -2.701  -3.346  1.00  0.00     0.175 C 
ENDBRANCH  56  73
ENDBRANCH  20  56
TORSDOF 15
