REMARK  0 active torsions:
REMARK  status: ('A' for Active; 'I' for Inactive)
ROOT
HETATM    1  C1  UNL     1      -0.631   0.274  -0.838  1.00  0.00     0.059 C 
HETATM    2  C2  UNL     1      -1.033  -1.219  -0.766  1.00  0.00     0.253 C 
HETATM    3  N1  UNL     1      -1.770  -1.494   0.490  1.00  0.00     0.137 N 
HETATM    4  C3  UNL     1      -1.934  -0.289   1.330  1.00  0.00     0.222 C 
HETATM    5  C4  UNL     1      -0.537   0.278   1.678  1.00  0.00     0.061 C 
HETATM    6  C5  UNL     1       0.256   0.641   0.393  1.00  0.00     0.109 C 
HETATM    7  O1  UNL     1       0.461   2.067   0.393  1.00  0.00    -0.303 OA
HETATM    8  C6  UNL     1       1.338   2.586  -0.488  1.00  0.00     0.295 C 
HETATM    9  C7  UNL     1       2.328   1.721  -1.158  1.00  0.00     0.060 C 
HETATM   10  C8  UNL     1       2.484   0.445  -0.766  1.00  0.00    -0.036 C 
HETATM   11  C9  UNL     1       1.635  -0.066   0.373  1.00  0.00     0.050 C 
HETATM   12  C10 UNL     1       3.473  -0.476  -1.434  1.00  0.00     0.027 C 
HETATM   13  O2  UNL     1       1.350   3.766  -0.752  1.00  0.00    -0.259 OA
HETATM   14  C11 UNL     1      -2.709   0.762   0.506  1.00  0.00     0.034 C 
HETATM   15  C12 UNL     1      -1.936   1.100  -0.785  1.00  0.00     0.006 C 
HETATM   16  C13 UNL     1      -1.250  -2.642   1.229  1.00  0.00     0.285 C 
ENDROOT
TORSDOF 0
