REMARK  1 active torsions:
REMARK  status: ('A' for Active; 'I' for Inactive)
REMARK    1  A    between atoms: C6_6  and  C7_7 
ROOT
HETATM    1  C1  UNL     1       0.963  -0.365   0.389  1.00  0.00     0.197 C 
HETATM    2  C2  UNL     1       1.422   1.041   0.355  1.00  0.00     0.158 C 
HETATM    3  C3  UNL     1       0.545   2.069   0.359  1.00  0.00    -0.016 C 
HETATM    4  C4  UNL     1      -0.949   1.832   0.406  1.00  0.00     0.025 C 
HETATM    5  C5  UNL     1      -1.334   0.481  -0.207  1.00  0.00     0.012 C 
HETATM    6  C6  UNL     1      -0.523  -0.670   0.412  1.00  0.00     0.064 C 
HETATM    7  C10 UNL     1       1.025   3.498   0.313  1.00  0.00     0.029 C 
HETATM    8  O1  UNL     1       2.731   1.291   0.318  1.00  0.00    -0.188 OA
HETATM    9  O2  UNL     1       1.777  -1.260   0.393  1.00  0.00    -0.289 OA
ENDROOT
BRANCH   6  10
HETATM   10  C7  UNL     1      -0.840  -1.996  -0.287  1.00  0.00     0.007 C 
HETATM   11  C8  UNL     1      -0.248  -2.080  -1.693  1.00  0.00     0.000 C 
HETATM   12  C9  UNL     1      -0.492  -3.213   0.572  1.00  0.00     0.000 C 
ENDBRANCH   6  10
TORSDOF 1
