REMARK  1 active torsions:
REMARK  status: ('A' for Active; 'I' for Inactive)
REMARK    1  A    between atoms: C8_9  and  C11_12 
ROOT
HETATM    1  C1  UNL     1      -4.865   1.785  -1.791  1.00  0.00     0.023 A 
HETATM    2  C2  UNL     1      -5.209   2.510  -0.627  1.00  0.00    -0.020 A 
HETATM    3  C3  UNL     1      -4.373   2.457   0.512  1.00  0.00    -0.004 A 
HETATM    4  C4  UNL     1      -3.189   1.678   0.486  1.00  0.00     0.004 A 
HETATM    5  C5  UNL     1      -2.832   0.943  -0.689  1.00  0.00     0.051 A 
HETATM    6  C6  UNL     1      -3.686   1.004  -1.830  1.00  0.00     0.133 A 
HETATM    7  O1  UNL     1      -3.404   0.336  -2.959  1.00  0.00    -0.190 OA
HETATM    8  C7  UNL     1      -1.635   0.168  -0.695  1.00  0.00     0.133 A 
HETATM    9  C8  UNL     1      -0.816   0.135   0.465  1.00  0.00     0.028 A 
HETATM   10  C9  UNL     1      -1.176   0.861   1.623  1.00  0.00     0.002 A 
HETATM   11  C10 UNL     1      -2.359   1.633   1.637  1.00  0.00     0.000 A 
HETATM   12  O4  UNL     1      -1.271  -0.533  -1.781  1.00  0.00    -0.190 OA
HETATM   13  C22 UNL     1      -6.438   3.318  -0.601  1.00  0.00     0.031 C 
ENDROOT
BRANCH   9  14
HETATM   14  C11 UNL     1       0.412  -0.650   0.479  1.00  0.00     0.028 A 
HETATM   15  C12 UNL     1       0.320  -2.060   0.525  1.00  0.00     0.002 A 
HETATM   16  C13 UNL     1       1.496  -2.846   0.539  1.00  0.00     0.000 A 
HETATM   17  C14 UNL     1       2.768  -2.219   0.504  1.00  0.00     0.004 A 
HETATM   18  C15 UNL     1       2.867  -0.791   0.459  1.00  0.00     0.051 A 
HETATM   19  C20 UNL     1       3.938  -3.019   0.514  1.00  0.00    -0.004 A 
HETATM   20  C16 UNL     1       1.678  -0.006   0.443  1.00  0.00     0.133 A 
HETATM   21  C17 UNL     1       4.160  -0.187   0.428  1.00  0.00     0.133 A 
HETATM   22  O2  UNL     1       1.736   1.336   0.399  1.00  0.00    -0.190 OA
HETATM   23  C18 UNL     1       5.320  -0.998   0.440  1.00  0.00     0.023 A 
HETATM   24  O3  UNL     1       4.315   1.145   0.387  1.00  0.00    -0.190 OA
HETATM   25  C19 UNL     1       5.211  -2.406   0.481  1.00  0.00    -0.020 A 
HETATM   26  C21 UNL     1       6.428  -3.234   0.490  1.00  0.00     0.031 C 
ENDBRANCH   9  14
TORSDOF 1
