REMARK  2 active torsions:
REMARK  status: ('A' for Active; 'I' for Inactive)
REMARK    1  A    between atoms: C4_4  and  C29_31 
REMARK    2  A    between atoms: C21_21  and  C24_24 
ROOT
HETATM    1  C1  UNL     1       4.918  -2.885   0.199  1.00  0.00     0.065 C 
HETATM    2  C2  UNL     1       5.795  -1.924   0.986  1.00  0.00     0.151 C 
HETATM    3  C3  UNL     1       5.459  -0.438   0.939  1.00  0.00     0.065 C 
HETATM    4  C4  UNL     1       3.934  -0.231   1.109  1.00  0.00     0.065 C 
HETATM    5  C5  UNL     1       3.238  -1.024  -0.051  1.00  0.00     0.008 C 
HETATM    6  C6  UNL     1       3.414  -2.533   0.172  1.00  0.00     0.008 C 
HETATM    7  C7  UNL     1       1.816  -0.486  -0.438  1.00  0.00     0.000 C 
HETATM    8  C8  UNL     1       1.170   0.154   0.824  1.00  0.00     0.000 C 
HETATM    9  C9  UNL     1       1.941   1.437   1.217  1.00  0.00     0.000 C 
HETATM   10  C10 UNL     1       3.481   1.258   1.061  1.00  0.00     0.008 C 
HETATM   11  C11 UNL     1      -0.402   0.172   0.840  1.00  0.00     0.000 C 
HETATM   12  C12 UNL     1      -0.977   0.338  -0.598  1.00  0.00     0.000 C 
HETATM   13  C13 UNL     1      -0.555  -0.928  -1.410  1.00  0.00     0.000 C 
HETATM   14  C14 UNL     1       0.840  -1.522  -1.041  1.00  0.00     0.000 C 
HETATM   15  C15 UNL     1      -2.521   0.654  -0.611  1.00  0.00     0.001 C 
HETATM   16  C16 UNL     1      -3.295   0.408   0.711  1.00  0.00     0.000 C 
HETATM   17  C17 UNL     1      -2.555   1.086   1.904  1.00  0.00     0.000 C 
HETATM   18  C18 UNL     1      -1.021   1.250   1.748  1.00  0.00     0.000 C 
HETATM   19  C19 UNL     1      -4.713   1.010   0.572  1.00  0.00     0.001 C 
HETATM   20  C20 UNL     1      -5.477   0.461  -0.646  1.00  0.00     0.010 C 
HETATM   21  C21 UNL     1      -4.709   0.650  -1.971  1.00  0.00     0.078 C 
HETATM   22  C22 UNL     1      -3.275   0.096  -1.840  1.00  0.00     0.010 C 
HETATM   23  C23 UNL     1      -5.441  -0.076  -3.104  1.00  0.00     0.011 C 
HETATM   24  C25 UNL     1      -3.484  -1.096   0.959  1.00  0.00     0.000 C 
HETATM   25  C26 UNL     1      -0.357   1.582  -1.262  1.00  0.00     0.000 C 
HETATM   26  C27 UNL     1      -0.818  -1.191   1.436  1.00  0.00     0.000 C 
HETATM   27  C28 UNL     1       2.078   0.559  -1.543  1.00  0.00     0.000 C 
HETATM   28  C30 UNL     1       6.283   0.365   1.959  1.00  0.00     0.008 C 
HETATM   29  O4  UNL     1       6.729  -2.340   1.635  1.00  0.00    -0.296 OA
ENDROOT
BRANCH  21  30
HETATM   30  C24 UNL     1      -4.672   2.115  -2.340  1.00  0.00     0.184 C 
HETATM   31  O1  UNL     1      -3.881   2.422  -3.363  1.00  0.00    -0.647 OA
HETATM   32  O2  UNL     1      -5.324   2.928  -1.727  1.00  0.00    -0.647 OA
ENDBRANCH  21  30
BRANCH   4  33
HETATM   33  C29 UNL     1       3.604  -0.750   2.498  1.00  0.00     0.207 C 
HETATM   34  O3  UNL     1       3.170  -0.014   3.352  1.00  0.00    -0.288 OA
ENDBRANCH   4  33
TORSDOF 2
