REMARK  1 active torsions:
REMARK  status: ('A' for Active; 'I' for Inactive)
REMARK    1  A    between atoms: C2_2  and  N3_7 
REMARK       I    between atoms: N3_7  and  C4_8 
ROOT
HETATM    1  C1  UNL     1       0.879  -0.914  -0.574  1.00  0.00     0.306 A 
HETATM    2  C2  UNL     1      -0.049   0.281  -0.511  1.00  0.00     0.296 A 
HETATM    3  N1  UNL     1       0.859   1.414  -0.357  1.00  0.00    -0.185 NA
HETATM    4  C3  UNL     1       2.170   0.930  -0.334  1.00  0.00     0.369 A 
HETATM    5  N2  UNL     1       2.205  -0.461  -0.461  1.00  0.00    -0.152 NA
HETATM    6  O1  UNL     1       3.150   1.625  -0.217  1.00  0.00    -0.243 OA
HETATM    7  O4  UNL     1       0.568  -2.076  -0.701  1.00  0.00    -0.266 OA
ENDROOT
BRANCH   2   8
HETATM    8  N3  UNL     1      -0.983   0.213   0.627  1.00  0.00    -0.177 NA
HETATM    9  C4  UNL     1      -2.100  -0.568   0.533  1.00  0.00     0.308 C 
HETATM   10  O2  UNL     1      -2.891  -0.578   1.602  1.00  0.00    -0.628 OA
HETATM   11  O3  UNL     1      -2.320  -1.197  -0.474  1.00  0.00    -0.628 OA
ENDBRANCH   2   8
TORSDOF 1
