REMARK  6 active torsions:
REMARK  status: ('A' for Active; 'I' for Inactive)
REMARK    1  A    between atoms: C4_4  and  C12_14 
REMARK    2  A    between atoms: C5_5  and  C7_7 
REMARK    3  A    between atoms: C7_7  and  O1_8 
REMARK    4  A    between atoms: O1_8  and  C8_9 
REMARK    5  A    between atoms: C12_14  and  O3_15 
REMARK    6  A    between atoms: O3_15  and  C13_16 
ROOT
HETATM    1  C1  UNL     1      -0.553  -4.096   0.000  1.00  0.00     0.000 A 
HETATM    2  C2  UNL     1       0.851  -4.043   0.000  1.00  0.00     0.000 A 
HETATM    3  C3  UNL     1       1.510  -2.803   0.000  1.00  0.00     0.005 A 
HETATM    4  C4  UNL     1       0.766  -1.607   0.000  1.00  0.00     0.068 A 
HETATM    5  C5  UNL     1      -0.645  -1.658   0.000  1.00  0.00     0.068 A 
HETATM    6  C6  UNL     1      -1.299  -2.904   0.000  1.00  0.00     0.005 A 
ENDROOT
BRANCH   4   7
HETATM    7  C12 UNL     1       1.486  -0.297   0.000  1.00  0.00     0.296 C 
HETATM    8  O4  UNL     1       1.043   0.654  -0.599  1.00  0.00    -0.259 OA
BRANCH   7   9
HETATM    9  O3  UNL     1       2.617  -0.273   0.698  1.00  0.00    -0.303 OA
BRANCH   9  10
HETATM   10  C13 UNL     1       3.238   1.004   0.676  1.00  0.00     0.102 C 
HETATM   11  C14 UNL     1       2.309   2.033   1.321  1.00  0.00     0.030 C 
HETATM   12  C15 UNL     1       3.613   1.365  -0.761  1.00  0.00     0.030 C 
HETATM   13  C16 UNL     1       4.459   0.688   1.541  1.00  0.00     0.030 C 
ENDBRANCH   9  10
ENDBRANCH   7   9
ENDBRANCH   4   7
BRANCH   5  14
HETATM   14  C7  UNL     1      -1.457  -0.404   0.000  1.00  0.00     0.296 C 
HETATM   15  O2  UNL     1      -1.098   0.568   0.621  1.00  0.00    -0.259 OA
BRANCH  14  16
HETATM   16  O1  UNL     1      -2.576  -0.453  -0.718  1.00  0.00    -0.303 OA
BRANCH  16  17
HETATM   17  C8  UNL     1      -3.299   0.770  -0.679  1.00  0.00     0.102 C 
HETATM   18  C9  UNL     1      -4.475   0.377  -1.574  1.00  0.00     0.030 C 
HETATM   19  C10 UNL     1      -2.445   1.885  -1.281  1.00  0.00     0.030 C 
HETATM   20  C11 UNL     1      -3.723   1.063   0.760  1.00  0.00     0.030 C 
ENDBRANCH  16  17
ENDBRANCH  14  16
ENDBRANCH   5  14
TORSDOF 6
