REMARK  7 active torsions:
REMARK  status: ('A' for Active; 'I' for Inactive)
REMARK    1  A    between atoms: C5_5  and  C7_7 
REMARK    2  A    between atoms: C7_7  and  C8_8 
REMARK    3  A    between atoms: C9_9  and  C10_10 
REMARK    4  A    between atoms: C12_12  and  C21_22 
REMARK    5  A    between atoms: C14_14  and  C16_16 
REMARK    6  A    between atoms: C16_16  and  C17_17 
REMARK    7  A    between atoms: C21_22  and  C22_23 
ROOT
HETATM    1  C10 UNL     1      -1.137  -0.471  -0.110  1.00  0.00    -0.000 A 
HETATM    2  C11 UNL     1      -0.810  -1.697   0.494  1.00  0.00    -0.002 A 
HETATM    3  C12 UNL     1      -0.312  -2.756  -0.285  1.00  0.00     0.007 A 
HETATM    4  C13 UNL     1      -0.135  -2.592  -1.674  1.00  0.00     0.124 A 
HETATM    5  C14 UNL     1      -0.463  -1.361  -2.276  1.00  0.00     0.007 A 
HETATM    6  C15 UNL     1      -0.961  -0.303  -1.494  1.00  0.00    -0.002 A 
HETATM    7  O1  UNL     1       0.332  -3.586  -2.405  1.00  0.00    -0.191 OA
ENDROOT
BRANCH   1   8
HETATM    8  C9  UNL     1      -1.666   0.652   0.719  1.00  0.00     0.003 C 
HETATM    9  C8  UNL     1      -2.238   0.369   1.900  1.00  0.00     0.042 C 
BRANCH   9  10
HETATM   10  C7  UNL     1      -2.773   1.440   2.750  1.00  0.00     0.198 C 
HETATM   11  O2  UNL     1      -3.752   1.248   3.431  1.00  0.00    -0.286 OA
BRANCH  10  12
HETATM   12  C5  UNL     1      -2.084   2.768   2.750  1.00  0.00     0.064 A 
HETATM   13  C4  UNL     1      -2.834   3.961   2.750  1.00  0.00     0.136 A 
HETATM   14  C3  UNL     1      -2.170   5.199   2.750  1.00  0.00     0.055 A 
HETATM   15  O3  UNL     1      -4.152   3.926   2.750  1.00  0.00    -0.190 OA
HETATM   16  C2  UNL     1      -0.766   5.254   2.750  1.00  0.00     0.133 A 
HETATM   17  C1  UNL     1      -0.021   4.063   2.750  1.00  0.00     0.028 A 
HETATM   18  O4  UNL     1      -0.148   6.418   2.750  1.00  0.00    -0.190 OA
HETATM   19  C6  UNL     1      -0.680   2.820   2.750  1.00  0.00     0.007 A 
ENDBRANCH  10  12
ENDBRANCH   9  10
ENDBRANCH   1   8
BRANCH   3  20
HETATM   20  C21 UNL     1       0.029  -4.051   0.365  1.00  0.00     0.054 C 
BRANCH  20  21
HETATM   21  C22 UNL     1       0.865  -3.859   1.603  1.00  0.00    -0.030 C 
HETATM   22  C23 UNL     1       2.193  -3.727   1.463  1.00  0.00    -0.048 C 
HETATM   23  C24 UNL     1       3.033  -3.557   2.703  1.00  0.00     0.026 C 
HETATM   24  C25 UNL     1       2.777  -3.756   0.076  1.00  0.00     0.026 C 
ENDBRANCH  20  21
ENDBRANCH   3  20
BRANCH   5  25
HETATM   25  C16 UNL     1      -0.283  -1.172  -3.741  1.00  0.00     0.054 C 
BRANCH  25  26
HETATM   26  C17 UNL     1      -0.197   0.283  -4.116  1.00  0.00    -0.030 C 
HETATM   27  C18 UNL     1       0.897   0.975  -3.756  1.00  0.00    -0.048 C 
HETATM   28  C19 UNL     1       2.074   0.410  -3.008  1.00  0.00     0.026 C 
HETATM   29  C20 UNL     1       0.977   2.434  -4.121  1.00  0.00     0.026 C 
ENDBRANCH  25  26
ENDBRANCH   5  25
TORSDOF 7
