REMARK  1 active torsions:
REMARK  status: ('A' for Active; 'I' for Inactive)
REMARK    1  A    between atoms: C5_5  and  C7_7 
ROOT
HETATM    1  C1  UNL     1      -1.551   0.262  -0.372  1.00  0.00     0.203 C 
HETATM    2  C2  UNL     1      -1.442  -1.246  -0.492  1.00  0.00     0.177 A 
HETATM    3  C3  UNL     1      -0.193  -1.870  -0.429  1.00  0.00     0.150 A 
HETATM    4  C4  UNL     1       1.077  -1.069  -0.201  1.00  0.00     0.065 C 
HETATM    5  C5  UNL     1       0.890   0.376   0.198  1.00  0.00     0.043 C 
HETATM    6  C6  UNL     1      -0.316   0.962   0.122  1.00  0.00     0.011 C 
HETATM    7  O3  UNL     1      -1.025  -1.837   0.868  1.00  0.00    -0.351 OA
HETATM    8  O4  UNL     1      -2.657   0.607   0.460  1.00  0.00    -0.216 OA
ENDROOT
BRANCH   5   9
HETATM    9  C7  UNL     1       1.961   1.101   0.623  1.00  0.00     0.206 C 
HETATM   10  O1  UNL     1       1.899   2.401   0.988  1.00  0.00    -0.644 OA
HETATM   11  O2  UNL     1       3.055   0.586   0.682  1.00  0.00    -0.644 OA
ENDBRANCH   5   9
TORSDOF 1
