REMARK  0 active torsions:
REMARK  status: ('A' for Active; 'I' for Inactive)
ROOT
HETATM    1  C1  UNL     1      -5.438   1.111  -2.550  1.00  0.00     0.123 A 
HETATM    2  O1  UNL     1      -4.853   2.050  -2.008  1.00  0.00    -0.305 OA
HETATM    3  C2  UNL     1      -3.860   1.596  -1.441  1.00  0.00     0.102 A 
HETATM    4  C3  UNL     1      -3.757   0.275  -1.607  1.00  0.00     0.025 A 
HETATM    5  C4  UNL     1      -4.817  -0.061  -2.352  1.00  0.00     0.029 A 
HETATM    6  C5  UNL     1      -2.748  -0.418  -1.075  1.00  0.00     0.007 A 
HETATM    7  C6  UNL     1      -1.825   0.248  -0.349  1.00  0.00     0.058 A 
HETATM    8  C7  UNL     1      -1.910   1.587  -0.158  1.00  0.00     0.099 A 
HETATM    9  C8  UNL     1      -2.937   2.252  -0.729  1.00  0.00     0.049 A 
HETATM   10  O2  UNL     1      -0.983   2.319   0.535  1.00  0.00    -0.330 OA
HETATM   11  C9  UNL     1       0.286   1.761   0.661  1.00  0.00     0.163 C 
HETATM   12  C10 UNL     1       0.193   0.303   1.081  1.00  0.00     0.116 C 
HETATM   13  C11 UNL     1      -0.806  -0.456   0.215  1.00  0.00     0.181 C 
HETATM   14  O3  UNL     1      -0.671  -1.651   0.072  1.00  0.00    -0.291 OA
HETATM   15  C12 UNL     1       1.580  -0.310   1.040  1.00  0.00     0.012 A 
HETATM   16  C13 UNL     1       2.574   0.283   0.334  1.00  0.00     0.093 A 
HETATM   17  O4  UNL     1       2.403   1.434  -0.395  1.00  0.00    -0.328 OA
HETATM   18  C14 UNL     1       1.083   1.850  -0.628  1.00  0.00     0.179 C 
HETATM   19  C15 UNL     1       3.789  -0.305   0.324  1.00  0.00     0.050 A 
HETATM   20  C16 UNL     1       4.005  -1.429   1.015  1.00  0.00     0.121 A 
HETATM   21  C17 UNL     1       3.021  -1.993   1.718  1.00  0.00     0.119 A 
HETATM   22  C18 UNL     1       1.803  -1.442   1.738  1.00  0.00     0.025 A 
HETATM   23  O5  UNL     1       3.401  -3.012   2.287  1.00  0.00    -0.300 OA
HETATM   24  C19 UNL     1       4.780  -3.191   1.959  1.00  0.00     0.304 A 
HETATM   25  O6  UNL     1       5.047  -2.071   1.111  1.00  0.00    -0.299 OA
ENDROOT
TORSDOF 0
