REMARK  6 active torsions:
REMARK  status: ('A' for Active; 'I' for Inactive)
REMARK    1  A    between atoms: C1_1  and  C24_31 
REMARK    2  A    between atoms: C5_5  and  C7_8 
REMARK    3  A    between atoms: C7_8  and  C8_9 
REMARK    4  A    between atoms: C10_11  and  C19_22 
REMARK    5  A    between atoms: C19_22  and  C20_23 
REMARK    6  A    between atoms: C24_31  and  C25_33 
ROOT
HETATM    1  C8  UNL     1      -0.263  -1.523  -0.351  1.00  0.00     0.033 A 
HETATM    2  C9  UNL     1      -0.664  -0.638  -1.286  1.00  0.00     0.134 A 
HETATM    3  C10 UNL     1      -1.942  -0.650  -1.735  1.00  0.00     0.082 A 
HETATM    4  C11 UNL     1      -2.801  -1.597  -1.267  1.00  0.00     0.101 A 
HETATM    5  C12 UNL     1      -2.367  -2.486  -0.343  1.00  0.00     0.047 A 
HETATM    6  C13 UNL     1      -1.114  -2.438   0.146  1.00  0.00     0.131 A 
HETATM    7  O2  UNL     1      -0.679  -3.320   1.090  1.00  0.00    -0.190 OA
HETATM    8  C14 UNL     1      -3.219  -3.413   0.136  1.00  0.00     0.002 C 
HETATM    9  C15 UNL     1      -4.429  -3.593  -0.402  1.00  0.00     0.001 C 
HETATM   10  C16 UNL     1      -4.813  -2.844  -1.642  1.00  0.00     0.117 C 
HETATM   11  O3  UNL     1      -4.097  -1.646  -1.730  1.00  0.00    -0.331 OA
HETATM   12  C17 UNL     1      -4.486  -3.705  -2.868  1.00  0.00     0.035 C 
HETATM   13  C18 UNL     1      -6.305  -2.499  -1.621  1.00  0.00     0.035 C 
HETATM   14  O5  UNL     1       0.278   0.239  -1.725  1.00  0.00    -0.190 OA
ENDROOT
BRANCH   1  15
HETATM   15  C7  UNL     1       1.169  -1.477   0.161  1.00  0.00     0.062 C 
BRANCH  15  16
HETATM   16  C5  UNL     1       1.746  -0.170   0.713  1.00  0.00     0.043 C 
HETATM   17  C4  UNL     1       0.993   0.861   1.136  1.00  0.00     0.113 C 
HETATM   18  C3  UNL     1       1.625   2.181   1.512  1.00  0.00     0.085 C 
HETATM   19  O6  UNL     1      -0.368   0.863   1.180  1.00  0.00    -0.195 OA
HETATM   20  C2  UNL     1       3.105   2.011   1.779  1.00  0.00     0.119 C 
HETATM   21  C22 UNL     1       1.470   3.139   0.312  1.00  0.00     0.013 C 
HETATM   22  C23 UNL     1       0.926   2.775   2.754  1.00  0.00     0.013 C 
HETATM   23  C1  UNL     1       3.790   0.922   1.374  1.00  0.00     0.095 C 
HETATM   24  O7  UNL     1       3.663   3.122   2.332  1.00  0.00    -0.194 OA
HETATM   25  C6  UNL     1       3.108  -0.116   0.794  1.00  0.00     0.198 C 
HETATM   26  O1  UNL     1       3.698  -1.098   0.398  1.00  0.00    -0.287 OA
BRANCH  23  27
HETATM   27  C24 UNL     1       5.141   0.802   1.597  1.00  0.00     0.178 C 
HETATM   28  O8  UNL     1       5.779  -0.143   1.186  1.00  0.00    -0.291 OA
BRANCH  27  29
HETATM   29  C25 UNL     1       5.968   1.764   2.451  1.00  0.00     0.069 C 
HETATM   30  C26 UNL     1       7.367   1.242   2.826  1.00  0.00     0.009 C 
ENDBRANCH  27  29
ENDBRANCH  23  27
ENDBRANCH  15  16
ENDBRANCH   1  15
BRANCH   3  31
HETATM   31  C19 UNL     1      -2.412   0.278  -2.633  1.00  0.00     0.177 C 
HETATM   32  O4  UNL     1      -3.551   0.277  -3.052  1.00  0.00    -0.291 OA
BRANCH  31  33
HETATM   33  C20 UNL     1      -1.644   1.475  -3.201  1.00  0.00     0.069 C 
HETATM   34  C21 UNL     1      -1.634   2.650  -2.214  1.00  0.00     0.009 C 
ENDBRANCH  31  33
ENDBRANCH   3  31
TORSDOF 6
