REMARK  3 active torsions:
REMARK  status: ('A' for Active; 'I' for Inactive)
REMARK    1  A    between atoms: C7_7  and  O4_19 
REMARK    2  A    between atoms: C10_12  and  C12_14 
REMARK    3  A    between atoms: C12_14  and  C14_16 
ROOT
HETATM    1  C1  UNL     1      -4.937  -0.390   0.541  1.00  0.00     0.000 A 
HETATM    2  C2  UNL     1      -4.770  -1.688   0.258  1.00  0.00     0.002 A 
HETATM    3  C3  UNL     1      -3.531  -2.171   0.083  1.00  0.00     0.019 A 
HETATM    4  C4  UNL     1      -2.455  -1.368   0.188  1.00  0.00     0.085 A 
HETATM    5  C5  UNL     1      -2.619  -0.056   0.466  1.00  0.00     0.040 A 
HETATM    6  C6  UNL     1      -3.869   0.416   0.643  1.00  0.00     0.004 A 
HETATM    7  C7  UNL     1      -1.538   0.752   0.554  1.00  0.00     0.095 A 
HETATM    8  C8  UNL     1      -0.359   0.118   0.451  1.00  0.00     0.043 A 
HETATM    9  C9  UNL     1      -0.277  -1.186   0.166  1.00  0.00     0.176 A 
HETATM   10  N1  UNL     1      -1.313  -1.895   0.028  1.00  0.00    -0.223 NA
HETATM   11  O1  UNL     1       0.886  -1.589   0.108  1.00  0.00    -0.315 OA
HETATM   12  C10 UNL     1       1.793  -0.603   0.606  1.00  0.00     0.158 C 
HETATM   13  C11 UNL     1       1.008   0.722   0.603  1.00  0.00     0.065 C 
ENDROOT
BRANCH  12  14
HETATM   14  C12 UNL     1       3.153  -0.637  -0.105  1.00  0.00     0.183 C 
HETATM   15  C13 UNL     1       4.107   0.395   0.502  1.00  0.00     0.038 C 
HETATM   16  O3  UNL     1       3.716  -1.900   0.158  1.00  0.00    -0.221 OA
BRANCH  14  17
HETATM   17  C14 UNL     1       3.067  -0.513  -1.623  1.00  0.00     0.215 C 
HETATM   18  O2  UNL     1       2.878   0.825  -2.035  1.00  0.00    -0.218 OA
ENDBRANCH  14  17
ENDBRANCH  12  14
BRANCH   7  19
HETATM   19  O4  UNL     1      -1.599   2.081   0.887  1.00  0.00    -0.328 OA
HETATM   20  C15 UNL     1      -1.662   2.941  -0.229  1.00  0.00     0.181 C 
ENDBRANCH   7  19
TORSDOF 3
