REMARK  3 active torsions:
REMARK  status: ('A' for Active; 'I' for Inactive)
REMARK    1  A    between atoms: C3_3  and  O11_29 
REMARK    2  A    between atoms: C13_16  and  O5_19 
REMARK    3  A    between atoms: O5_19  and  C15_20 
ROOT
HETATM    1  C1  UNL     1       3.924  -1.805  -0.396  1.00  0.00     0.035 A 
HETATM    2  C2  UNL     1       4.519  -1.507   0.770  1.00  0.00     0.155 A 
HETATM    3  C3  UNL     1       3.938  -0.611   1.599  1.00  0.00     0.142 A 
HETATM    4  C4  UNL     1       2.780  -0.018   1.214  1.00  0.00     0.128 A 
HETATM    5  C5  UNL     1       2.197  -0.326   0.038  1.00  0.00     0.032 A 
HETATM    6  C6  UNL     1       2.775  -1.227  -0.772  1.00  0.00     0.068 A 
HETATM    7  C7  UNL     1       2.187  -1.532  -1.961  1.00  0.00     0.300 A 
HETATM    8  O1  UNL     1       1.026  -0.948  -2.362  1.00  0.00    -0.271 OA
HETATM    9  C8  UNL     1       0.477  -0.036  -1.505  1.00  0.00     0.131 A 
HETATM   10  C9  UNL     1       1.046   0.272  -0.323  1.00  0.00     0.032 A 
HETATM   11  C10 UNL     1       0.465   1.184   0.476  1.00  0.00     0.068 A 
HETATM   12  C11 UNL     1       1.061   1.491   1.660  1.00  0.00     0.300 A 
HETATM   13  O2  UNL     1       2.221   0.901   2.062  1.00  0.00    -0.271 OA
HETATM   14  O3  UNL     1       0.550   2.313   2.395  1.00  0.00    -0.259 OA
HETATM   15  C12 UNL     1      -0.678   1.779   0.094  1.00  0.00     0.032 A 
HETATM   16  C13 UNL     1      -1.284   1.457  -1.061  1.00  0.00     0.124 A 
HETATM   17  C14 UNL     1      -0.663   0.581  -1.873  1.00  0.00     0.176 A 
HETATM   18  O4  UNL     1      -1.237   0.274  -3.069  1.00  0.00    -0.186 OA
HETATM   19  O10 UNL     1       2.703  -2.350  -2.697  1.00  0.00    -0.259 OA
HETATM   20  O12 UNL     1       5.682  -2.151   1.058  1.00  0.00    -0.188 OA
ENDROOT
BRANCH  16  21
HETATM   21  O5  UNL     1      -2.415   2.106  -1.483  1.00  0.00    -0.301 OA
BRANCH  21  22
HETATM   22  C15 UNL     1      -3.647   1.466  -1.248  1.00  0.00     0.276 C 
HETATM   23  O6  UNL     1      -4.274   2.115  -0.169  1.00  0.00    -0.300 OA
HETATM   24  C16 UNL     1      -5.264   1.225   0.297  1.00  0.00     0.305 C 
HETATM   25  C17 UNL     1      -4.982  -0.149  -0.270  1.00  0.00     0.246 C 
HETATM   26  O9  UNL     1      -6.432   1.793  -0.268  1.00  0.00    -0.187 OA
HETATM   27  C18 UNL     1      -3.583   0.018  -0.829  1.00  0.00     0.244 C 
HETATM   28  O8  UNL     1      -5.010  -1.140   0.726  1.00  0.00    -0.215 OA
HETATM   29  O7  UNL     1      -3.344  -0.826  -1.924  1.00  0.00    -0.215 OA
ENDBRANCH  21  22
ENDBRANCH  16  21
BRANCH   3  30
HETATM   30  O11 UNL     1       4.444  -0.198   2.813  1.00  0.00    -0.324 OA
HETATM   31  C19 UNL     1       5.774  -0.470   3.183  1.00  0.00     0.182 C 
ENDBRANCH   3  30
TORSDOF 3
