REMARK  7 active torsions:
REMARK  status: ('A' for Active; 'I' for Inactive)
REMARK    1  A    between atoms: C3_3  and  O4_11 
REMARK    2  A    between atoms: C5_6  and  C6_7 
REMARK    3  A    between atoms: C6_7  and  O2_8 
REMARK    4  A    between atoms: O4_11  and  C8_12 
REMARK    5  A    between atoms: C12_16  and  C13_18 
REMARK    6  A    between atoms: C18_28  and  C20_31 
REMARK    7  A    between atoms: C20_31  and  C21_32 
ROOT
HETATM    1  C1  UNL     1      -1.714   3.448   0.534  1.00  0.00     0.059 C 
HETATM    2  C2  UNL     1      -1.834   1.983   1.016  1.00  0.00     0.097 C 
HETATM    3  C3  UNL     1      -0.531   1.516   1.631  1.00  0.00     0.245 C 
HETATM    4  O1  UNL     1       0.537   1.658   0.730  1.00  0.00    -0.304 OA
HETATM    5  C4  UNL     1       0.660   2.868   0.114  1.00  0.00     0.120 C 
HETATM    6  C5  UNL     1      -0.327   3.779   0.033  1.00  0.00     0.069 C 
HETATM    7  C14 UNL     1      -2.463   1.146  -0.126  1.00  0.00     0.153 C 
HETATM    8  C15 UNL     1      -3.096   2.234  -0.961  1.00  0.00    -0.001 C 
HETATM    9  C16 UNL     1      -2.713   3.459  -0.593  1.00  0.00    -0.024 C 
HETATM   10  O10 UNL     1      -3.471   0.315   0.384  1.00  0.00    -0.300 OA
HETATM   11  C17 UNL     1      -3.614  -0.816  -0.352  1.00  0.00     0.275 C 
HETATM   12  C18 UNL     1      -2.571  -0.824  -1.456  1.00  0.00     0.124 C 
HETATM   13  C19 UNL     1      -1.589   0.236  -0.975  1.00  0.00     0.191 C 
HETATM   14  O11 UNL     1      -0.976   0.903  -2.047  1.00  0.00    -0.220 OA
HETATM   15  O13 UNL     1      -4.434  -1.681  -0.141  1.00  0.00    -0.264 OA
ENDROOT
BRANCH   3  16
HETATM   16  O4  UNL     1      -0.655   0.157   1.992  1.00  0.00    -0.304 OA
BRANCH  16  17
HETATM   17  C8  UNL     1       0.529  -0.451   2.469  1.00  0.00     0.272 C 
HETATM   18  C9  UNL     1       0.161  -1.663   3.296  1.00  0.00     0.241 C 
HETATM   19  C10 UNL     1       1.400  -2.475   3.622  1.00  0.00     0.220 C 
HETATM   20  O9  UNL     1      -0.429  -1.260   4.508  1.00  0.00    -0.215 OA
HETATM   21  C11 UNL     1       2.160  -2.796   2.351  1.00  0.00     0.215 C 
HETATM   22  O8  UNL     1       1.017  -3.673   4.252  1.00  0.00    -0.218 OA
HETATM   23  C12 UNL     1       2.413  -1.518   1.562  1.00  0.00     0.184 C 
HETATM   24  O7  UNL     1       1.394  -3.699   1.589  1.00  0.00    -0.218 OA
HETATM   25  O5  UNL     1       1.203  -0.865   1.297  1.00  0.00    -0.326 OA
BRANCH  23  26
HETATM   26  C13 UNL     1       3.115  -1.766   0.237  1.00  0.00     0.214 C 
HETATM   27  O6  UNL     1       4.397  -2.314   0.463  1.00  0.00    -0.218 OA
ENDBRANCH  23  26
ENDBRANCH  16  17
ENDBRANCH   3  16
BRANCH  12  28
HETATM   28  C20 UNL     1      -1.951  -2.216  -1.651  1.00  0.00     0.039 C 
BRANCH  28  29
HETATM   29  C21 UNL     1      -0.707  -2.246  -2.514  1.00  0.00    -0.021 A 
HETATM   30  C22 UNL     1       0.364  -2.965  -2.135  1.00  0.00    -0.002 A 
HETATM   31  C23 UNL     1       1.469  -3.018  -2.894  1.00  0.00     0.027 A 
HETATM   32  C24 UNL     1       1.550  -2.346  -4.054  1.00  0.00     0.131 A 
HETATM   33  C25 UNL     1       0.477  -1.632  -4.433  1.00  0.00     0.027 A 
HETATM   34  O12 UNL     1       2.669  -2.398  -4.825  1.00  0.00    -0.190 OA
HETATM   35  C26 UNL     1      -0.635  -1.589  -3.684  1.00  0.00    -0.002 A 
ENDBRANCH  28  29
ENDBRANCH  12  28
BRANCH   6  36
HETATM   36  C6  UNL     1      -0.085   5.007  -0.513  1.00  0.00     0.294 C 
HETATM   37  O3  UNL     1       1.033   5.286  -0.891  1.00  0.00    -0.259 OA
BRANCH  36  38
HETATM   38  O2  UNL     1      -1.061   5.965  -0.559  1.00  0.00    -0.296 OA
HETATM   39  C7  UNL     1      -0.665   7.281  -0.869  1.00  0.00     0.185 C 
ENDBRANCH  36  38
ENDBRANCH   6  36
TORSDOF 7
