REMARK  0 active torsions:
REMARK  status: ('A' for Active; 'I' for Inactive)
ROOT
HETATM    1  C1  UNL     1      -3.358  -0.279  -1.093  1.00  0.00     0.000 C 
HETATM    2  C2  UNL     1      -3.273  -1.808  -1.040  1.00  0.00     0.000 C 
HETATM    3  C3  UNL     1      -1.871  -2.356  -1.393  1.00  0.00     0.000 C 
HETATM    4  C4  UNL     1      -0.793  -1.606  -0.550  1.00  0.00     0.000 C 
HETATM    5  C5  UNL     1      -0.875  -0.045  -0.451  1.00  0.00     0.005 C 
HETATM    6  C6  UNL     1      -2.338   0.351  -0.138  1.00  0.00     0.000 C 
HETATM    7  C7  UNL     1       0.053   0.414   0.728  1.00  0.00     0.061 C 
HETATM    8  C8  UNL     1       1.474  -0.146   0.611  1.00  0.00     0.124 A 
HETATM    9  C9  UNL     1       1.581  -1.634   0.337  1.00  0.00     0.030 C 
HETATM   10  C10 UNL     1       0.658  -2.065  -0.812  1.00  0.00     0.003 C 
HETATM   11  C11 UNL     1       2.633   0.533   1.127  1.00  0.00     0.161 A 
HETATM   12  C12 UNL     1       2.314   1.772   1.792  1.00  0.00     0.016 A 
HETATM   13  C13 UNL     1       0.943   2.069   2.322  1.00  0.00     0.175 A 
HETATM   14  C14 UNL     1      -0.022   1.888   1.167  1.00  0.00     0.186 C 
HETATM   15  O1  UNL     1       0.355   2.769   0.136  1.00  0.00    -0.220 OA
HETATM   16  O2  UNL     1       1.028   3.399   2.795  1.00  0.00    -0.294 OA
HETATM   17  C15 UNL     1       2.337   3.757   2.605  1.00  0.00     0.292 A 
HETATM   18  C16 UNL     1       3.118   2.817   2.018  1.00  0.00     0.038 A 
HETATM   19  C17 UNL     1       4.569   2.955   1.665  1.00  0.00     0.036 C 
HETATM   20  O3  UNL     1       2.768   4.842   2.931  1.00  0.00    -0.260 OA
HETATM   21  O4  UNL     1       2.478   0.727  -0.262  1.00  0.00    -0.352 OA
HETATM   22  C18 UNL     1      -0.435   0.649  -1.758  1.00  0.00     0.000 C 
HETATM   23  C19 UNL     1      -1.883  -3.865  -1.018  1.00  0.00     0.000 C 
HETATM   24  C20 UNL     1      -1.661  -2.313  -2.922  1.00  0.00     0.000 C 
ENDROOT
TORSDOF 0
