REMARK  7 active torsions:
REMARK  status: ('A' for Active; 'I' for Inactive)
REMARK    1  A    between atoms: C5_5  and  C7_7 
REMARK    2  A    between atoms: C7_7  and  O1_8 
REMARK    3  A    between atoms: O1_8  and  C8_9 
REMARK    4  A    between atoms: C9_11  and  C10_12 
REMARK    5  A    between atoms: C10_12  and  O2_13 
REMARK    6  A    between atoms: O2_13  and  C11_14 
REMARK    7  A    between atoms: C12_16  and  C16_23 
ROOT
HETATM    1  C8  UNL     1       2.455  -1.999   0.316  1.00  0.00     0.186 A 
HETATM    2  N1  UNL     1       1.549  -1.339  -0.282  1.00  0.00    -0.217 NA
HETATM    3  C9  UNL     1       0.449  -1.968  -0.325  1.00  0.00     0.147 A 
HETATM    4  C17 UNL     1       0.626  -3.150   0.284  1.00  0.00     0.028 A 
HETATM    5  C18 UNL     1       1.902  -3.163   0.699  1.00  0.00     0.046 A 
ENDROOT
BRANCH   3   6
HETATM    6  C10 UNL     1      -0.694  -1.499  -0.889  1.00  0.00     0.316 C 
HETATM    7  O8  UNL     1      -1.700  -2.171  -0.809  1.00  0.00    -0.257 OA
BRANCH   6   8
HETATM    8  O2  UNL     1      -0.721  -0.244  -1.432  1.00  0.00    -0.268 OA
BRANCH   8   9
HETATM    9  C11 UNL     1      -1.962   0.389  -1.655  1.00  0.00     0.277 C 
HETATM   10  O3  UNL     1      -2.250   0.174  -3.020  1.00  0.00    -0.326 OA
HETATM   11  C12 UNL     1      -3.464   0.763  -3.412  1.00  0.00     0.184 C 
HETATM   12  C13 UNL     1      -3.400   2.272  -3.192  1.00  0.00     0.215 C 
HETATM   13  C14 UNL     1      -3.075   2.580  -1.745  1.00  0.00     0.220 C 
HETATM   14  O6  UNL     1      -4.630   2.884  -3.494  1.00  0.00    -0.218 OA
HETATM   15  C15 UNL     1      -1.792   1.867  -1.385  1.00  0.00     0.241 C 
HETATM   16  O5  UNL     1      -2.909   3.966  -1.587  1.00  0.00    -0.218 OA
HETATM   17  O4  UNL     1      -1.515   2.076  -0.023  1.00  0.00    -0.215 OA
BRANCH  11  18
HETATM   18  C16 UNL     1      -3.716   0.428  -4.875  1.00  0.00     0.214 C 
HETATM   19  O7  UNL     1      -3.884  -0.968  -5.026  1.00  0.00    -0.218 OA
ENDBRANCH  11  18
ENDBRANCH   8   9
ENDBRANCH   6   8
ENDBRANCH   3   6
BRANCH   1  20
HETATM   20  O1  UNL     1       3.710  -1.515   0.542  1.00  0.00    -0.255 OA
BRANCH  20  21
HETATM   21  C7  UNL     1       4.241  -1.837   1.766  1.00  0.00     0.301 C 
HETATM   22  O9  UNL     1       5.058  -2.735   1.815  1.00  0.00    -0.259 OA
BRANCH  21  23
HETATM   23  C5  UNL     1       3.888  -1.197   2.922  1.00  0.00     0.068 A 
HETATM   24  C4  UNL     1       4.436  -1.548   4.100  1.00  0.00     0.033 A 
HETATM   25  C3  UNL     1       4.101  -0.934   5.248  1.00  0.00     0.133 A 
HETATM   26  C2  UNL     1       3.188   0.049   5.194  1.00  0.00     0.055 A 
HETATM   27  O10 UNL     1       4.671  -1.306   6.426  1.00  0.00    -0.190 OA
HETATM   28  C1  UNL     1       2.615   0.432   4.041  1.00  0.00     0.133 A 
HETATM   29  C6  UNL     1       2.983  -0.202   2.914  1.00  0.00     0.033 A 
HETATM   30  O11 UNL     1       1.690   1.431   4.007  1.00  0.00    -0.190 OA
ENDBRANCH  21  23
ENDBRANCH  20  21
ENDBRANCH   1  20
TORSDOF 7
