REMARK  1 active torsions:
REMARK  status: ('A' for Active; 'I' for Inactive)
REMARK    1  A    between atoms: C8_8  and  O1_12 
ROOT
HETATM    1  C1  UNL     1       3.086  -0.088   0.665  1.00  0.00     0.000 A 
HETATM    2  C2  UNL     1       2.853   1.197   0.942  1.00  0.00     0.002 A 
HETATM    3  C3  UNL     1       1.612   1.678   0.796  1.00  0.00     0.017 A 
HETATM    4  C4  UNL     1       0.568   0.927   0.377  1.00  0.00     0.059 A 
HETATM    5  C5  UNL     1       0.810  -0.377   0.089  1.00  0.00     0.043 A 
HETATM    6  C6  UNL     1       2.067  -0.848   0.247  1.00  0.00     0.004 A 
HETATM    7  C7  UNL     1      -0.141  -1.235  -0.349  1.00  0.00     0.152 A 
HETATM    8  C8  UNL     1      -1.401  -0.787  -0.504  1.00  0.00     0.119 A 
HETATM    9  C9  UNL     1      -1.735   0.640  -0.179  1.00  0.00     0.155 A 
HETATM   10  N1  UNL     1      -0.592   1.453   0.262  1.00  0.00    -0.341 N 
HETATM   11  C10 UNL     1      -0.821   2.889   0.572  1.00  0.00     0.126 C 
HETATM   12  O2  UNL     1       0.160  -2.531  -0.646  1.00  0.00    -0.188 OA
ENDROOT
BRANCH   8  13
HETATM   13  O1  UNL     1      -2.517  -1.465  -0.937  1.00  0.00    -0.328 OA
HETATM   14  C11 UNL     1      -2.450  -2.816  -1.319  1.00  0.00     0.181 C 
ENDBRANCH   8  13
TORSDOF 1
