REMARK  0 active torsions:
REMARK  status: ('A' for Active; 'I' for Inactive)
ROOT
HETATM    1  C1  UNL     1      -1.737  -1.180  -0.139  1.00  0.00     0.079 A 
HETATM    2  C2  UNL     1      -2.403  -0.022  -0.076  1.00  0.00     0.061 A 
HETATM    3  C3  UNL     1      -1.721   1.144   0.029  1.00  0.00     0.199 A 
HETATM    4  C4  UNL     1      -0.360   1.068   0.065  1.00  0.00     0.055 A 
HETATM    5  C5  UNL     1       0.272  -0.130  -0.001  1.00  0.00     0.063 A 
HETATM    6  N1  UNL     1      -0.465  -1.172  -0.099  1.00  0.00    -0.324 N 
HETATM    7  C6  UNL     1       0.102  -2.553  -0.182  1.00  0.00     0.131 C 
HETATM    8  C7  UNL     1       1.620  -0.109   0.045  1.00  0.00     0.017 A 
HETATM    9  C8  UNL     1       2.318   1.033   0.148  1.00  0.00     0.002 A 
HETATM   10  C9  UNL     1       1.677   2.205   0.211  1.00  0.00     0.000 A 
HETATM   11  C10 UNL     1       0.338   2.216   0.170  1.00  0.00     0.005 A 
HETATM   12  O1  UNL     1      -2.340   2.183   0.084  1.00  0.00    -0.286 OA
ENDROOT
TORSDOF 0
