REMARK WARNING: 32 MAX_TORS EXCEEDED!!!
REMARK  39 active torsions:
REMARK  status: ('A' for Active; 'I' for Inactive)
REMARK    1  A    between atoms: C1_1  and  C2_2 
REMARK    2  A    between atoms: C1_1  and  O3_29 
REMARK    3  A    between atoms: C2_2  and  C3_3 
REMARK    4  A    between atoms: C3_3  and  O1_4 
REMARK    5  A    between atoms: O1_4  and  C4_5 
REMARK    6  A    between atoms: C4_5  and  C5_7 
REMARK    7  A    between atoms: C5_7  and  C6_8 
REMARK    8  A    between atoms: C6_8  and  C7_9 
REMARK    9  A    between atoms: C7_9  and  C8_10 
REMARK   10  A    between atoms: C8_10  and  C9_11 
REMARK   11  A    between atoms: C9_11  and  C10_12 
REMARK   12  A    between atoms: C10_12  and  C11_13 
REMARK   13  A    between atoms: C11_13  and  C12_14 
REMARK   14  A    between atoms: C12_14  and  C13_15 
REMARK   15  A    between atoms: C13_15  and  C14_16 
REMARK   16  A    between atoms: C14_16  and  C15_17 
REMARK   17  A    between atoms: C15_17  and  C16_18 
REMARK   18  A    between atoms: C16_18  and  C17_19 
REMARK   19  A    between atoms: C18_20  and  C19_21 
REMARK   20  A    between atoms: C19_21  and  C20_22 
REMARK   21  A    between atoms: C20_22  and  C21_23 
REMARK   22  A    between atoms: C21_23  and  C22_24 
REMARK   23  A    between atoms: O3_29  and  C26_30 
REMARK   24  A    between atoms: C26_30  and  C27_31 
REMARK   25  A    between atoms: C27_31  and  C28_32 
REMARK   26  A    between atoms: C28_32  and  C29_33 
REMARK   27  A    between atoms: C29_33  and  C30_34 
REMARK   28  A    between atoms: C30_34  and  C31_35 
REMARK   29  A    between atoms: C31_35  and  C32_36 
REMARK   30  A    between atoms: C32_36  and  C33_37 
REMARK   31  A    between atoms: C33_37  and  C34_38 
REMARK   32  A    between atoms: C34_38  and  C35_39 
REMARK   33  A    between atoms: C35_39  and  C36_40 
REMARK   34  A    between atoms: C36_40  and  C37_41 
REMARK   35  A    between atoms: C37_41  and  C38_42 
REMARK   36  A    between atoms: C38_42  and  C39_43 
REMARK   37  A    between atoms: C39_43  and  C40_44 
REMARK   38  A    between atoms: C40_44  and  C41_45 
REMARK   39  A    between atoms: C41_45  and  C42_46 
ROOT
HETATM    1  C2  UNL     1       1.875  -0.075  -0.390  1.00  0.00     0.026 C 
HETATM    2  C24 UNL     1       2.975  -0.824  -0.197  1.00  0.00     0.074 C 
HETATM    3  C25 UNL     1       3.226  -1.933  -0.854  1.00  0.00     0.101 C 
HETATM    4  N1  UNL     1       3.457  -2.912  -1.428  1.00  0.00    -0.191 NA
ENDROOT
BRANCH   1   5
HETATM    5  C1  UNL     1       1.660   1.199   0.401  1.00  0.00     0.177 C 
BRANCH   5   6
HETATM    6  O3  UNL     1       0.758   0.970   1.466  1.00  0.00    -0.297 OA
BRANCH   6   7
HETATM    7  C26 UNL     1       0.485   2.042   2.261  1.00  0.00     0.272 C 
HETATM    8  O4  UNL     1       0.930   3.155   2.090  1.00  0.00    -0.264 OA
BRANCH   7   9
HETATM    9  C27 UNL     1      -0.425   1.659   3.412  1.00  0.00     0.096 C 
BRANCH   9  10
HETATM   10  C28 UNL     1      -1.841   1.221   3.002  1.00  0.00     0.010 C 
BRANCH  10  11
HETATM   11  C29 UNL     1      -2.665   2.313   2.299  1.00  0.00     0.001 C 
BRANCH  11  12
HETATM   12  C30 UNL     1      -2.375   2.415   0.793  1.00  0.00     0.000 C 
BRANCH  12  13
HETATM   13  C31 UNL     1      -3.061   3.623   0.136  1.00  0.00     0.000 C 
BRANCH  13  14
HETATM   14  C32 UNL     1      -2.476   3.942  -1.250  1.00  0.00     0.000 C 
BRANCH  14  15
HETATM   15  C33 UNL     1      -2.729   2.857  -2.307  1.00  0.00     0.000 C 
BRANCH  15  16
HETATM   16  C34 UNL     1      -2.115   3.193  -3.682  1.00  0.00     0.000 C 
BRANCH  16  17
HETATM   17  C35 UNL     1      -0.863   2.374  -4.045  1.00  0.00     0.000 C 
BRANCH  17  18
HETATM   18  C36 UNL     1       0.439   2.741  -3.311  1.00  0.00     0.000 C 
BRANCH  18  19
HETATM   19  C37 UNL     1       1.324   3.792  -4.008  1.00  0.00     0.000 C 
BRANCH  19  20
HETATM   20  C38 UNL     1       0.953   5.267  -3.790  1.00  0.00     0.000 C 
BRANCH  20  21
HETATM   21  C39 UNL     1       0.996   5.765  -2.335  1.00  0.00     0.000 C 
BRANCH  21  22
HETATM   22  C40 UNL     1       2.312   5.470  -1.596  1.00  0.00     0.000 C 
BRANCH  22  23
HETATM   23  C41 UNL     1       2.327   6.069  -0.179  1.00  0.00     0.000 C 
BRANCH  23  24
HETATM   24  C42 UNL     1       3.680   5.914   0.536  1.00  0.00     0.000 C 
HETATM   25  C43 UNL     1       4.051   4.460   0.856  1.00  0.00     0.000 C 
ENDBRANCH  23  24
ENDBRANCH  22  23
ENDBRANCH  21  22
ENDBRANCH  20  21
ENDBRANCH  19  20
ENDBRANCH  18  19
ENDBRANCH  17  18
ENDBRANCH  16  17
ENDBRANCH  15  16
ENDBRANCH  14  15
ENDBRANCH  13  14
ENDBRANCH  12  13
ENDBRANCH  11  12
ENDBRANCH  10  11
ENDBRANCH   9  10
ENDBRANCH   7   9
ENDBRANCH   6   7
ENDBRANCH   5   6
ENDBRANCH   1   5
BRANCH   1  26
HETATM   26  C3  UNL     1       0.799  -0.439  -1.393  1.00  0.00     0.177 C 
BRANCH  26  27
HETATM   27  O1  UNL     1       0.342  -1.758  -1.191  1.00  0.00    -0.297 OA
BRANCH  27  28
HETATM   28  C4  UNL     1      -0.643  -2.201  -2.022  1.00  0.00     0.272 C 
HETATM   29  O2  UNL     1      -1.111  -1.561  -2.936  1.00  0.00    -0.264 OA
BRANCH  28  30
HETATM   30  C5  UNL     1      -1.099  -3.589  -1.613  1.00  0.00     0.096 C 
BRANCH  30  31
HETATM   31  C6  UNL     1      -2.582  -3.712  -1.226  1.00  0.00     0.010 C 
BRANCH  31  32
HETATM   32  C7  UNL     1      -3.281  -2.467  -0.656  1.00  0.00     0.001 C 
BRANCH  32  33
HETATM   33  C8  UNL     1      -2.680  -1.783   0.582  1.00  0.00     0.000 C 
BRANCH  33  34
HETATM   34  C9  UNL     1      -2.562  -2.635   1.857  1.00  0.00     0.000 C 
BRANCH  34  35
HETATM   35  C10 UNL     1      -1.291  -3.500   1.939  1.00  0.00     0.000 C 
BRANCH  35  36
HETATM   36  C11 UNL     1      -0.627  -3.492   3.329  1.00  0.00     0.000 C 
BRANCH  36  37
HETATM   37  C12 UNL     1       0.213  -2.225   3.585  1.00  0.00     0.000 C 
BRANCH  37  38
HETATM   38  C13 UNL     1       1.582  -2.213   2.880  1.00  0.00     0.000 C 
BRANCH  38  39
HETATM   39  C14 UNL     1       2.629  -3.124   3.550  1.00  0.00     0.000 C 
BRANCH  39  40
HETATM   40  C15 UNL     1       3.374  -4.048   2.570  1.00  0.00     0.005 C 
BRANCH  40  41
HETATM   41  C16 UNL     1       2.489  -5.202   2.072  1.00  0.00     0.026 C 
BRANCH  41  42
HETATM   42  C17 UNL     1       3.244  -6.156   1.180  1.00  0.00    -0.031 C 
HETATM   43  C18 UNL     1       2.809  -6.627   0.001  1.00  0.00    -0.031 C 
BRANCH  43  44
HETATM   44  C19 UNL     1       1.490  -6.262  -0.633  1.00  0.00     0.026 C 
BRANCH  44  45
HETATM   45  C20 UNL     1       1.204  -7.001  -1.950  1.00  0.00     0.005 C 
BRANCH  45  46
HETATM   46  C21 UNL     1       2.128  -6.603  -3.115  1.00  0.00     0.000 C 
BRANCH  46  47
HETATM   47  C22 UNL     1       1.806  -5.220  -3.703  1.00  0.00     0.000 C 
HETATM   48  C23 UNL     1       2.797  -4.828  -4.808  1.00  0.00     0.000 C 
ENDBRANCH  46  47
ENDBRANCH  45  46
ENDBRANCH  44  45
ENDBRANCH  43  44
ENDBRANCH  41  42
ENDBRANCH  40  41
ENDBRANCH  39  40
ENDBRANCH  38  39
ENDBRANCH  37  38
ENDBRANCH  36  37
ENDBRANCH  35  36
ENDBRANCH  34  35
ENDBRANCH  33  34
ENDBRANCH  32  33
ENDBRANCH  31  32
ENDBRANCH  30  31
ENDBRANCH  28  30
ENDBRANCH  27  28
ENDBRANCH  26  27
ENDBRANCH   1  26
TORSDOF 39
