REMARK  2 active torsions:
REMARK  status: ('A' for Active; 'I' for Inactive)
REMARK    1  A    between atoms: C3_3  and  C7_9 
REMARK    2  A    between atoms: C23_28  and  C26_32 
ROOT
HETATM    1  C7  UNL     1      -1.463   0.389   1.668  1.00  0.00     0.219 C 
HETATM    2  C8  UNL     1      -1.269   1.812   1.108  1.00  0.00     0.069 C 
HETATM    3  C9  UNL     1      -2.029   1.988  -0.232  1.00  0.00     0.034 C 
HETATM    4  C10 UNL     1      -3.398   1.394  -0.197  1.00  0.00     0.001 A 
HETATM    5  C11 UNL     1      -3.744   0.469   0.832  1.00  0.00     0.095 A 
HETATM    6  O3  UNL     1      -2.861   0.098   1.783  1.00  0.00    -0.306 OA
HETATM    7  C12 UNL     1      -5.045  -0.082   0.879  1.00  0.00     0.051 A 
HETATM    8  C13 UNL     1      -6.004   0.262  -0.101  1.00  0.00     0.133 A 
HETATM    9  C14 UNL     1      -5.662   1.162  -1.137  1.00  0.00     0.027 A 
HETATM   10  C15 UNL     1      -4.365   1.725  -1.184  1.00  0.00    -0.000 A 
HETATM   11  O4  UNL     1      -7.234  -0.266  -0.049  1.00  0.00    -0.190 OA
HETATM   12  C16 UNL     1      -1.980   3.480  -0.621  1.00  0.00     0.026 C 
HETATM   13  C17 UNL     1      -0.607   4.096  -0.451  1.00  0.00    -0.048 C 
HETATM   14  C18 UNL     1       0.385   3.488   0.238  1.00  0.00    -0.030 C 
HETATM   15  C19 UNL     1       0.233   2.123   0.899  1.00  0.00     0.053 C 
HETATM   16  C20 UNL     1       0.938   0.992   0.203  1.00  0.00     0.029 A 
HETATM   17  C21 UNL     1       0.322  -0.301   0.168  1.00  0.00     0.095 A 
HETATM   18  O5  UNL     1      -0.861  -0.553   0.774  1.00  0.00    -0.306 OA
HETATM   19  C22 UNL     1       0.942  -1.369  -0.519  1.00  0.00     0.026 A 
HETATM   20  C23 UNL     1       2.176  -1.166  -1.176  1.00  0.00     0.027 A 
HETATM   21  C24 UNL     1       2.815   0.092  -1.121  1.00  0.00     0.029 A 
HETATM   22  C25 UNL     1       2.209   1.160  -0.424  1.00  0.00     0.129 A 
HETATM   23  O6  UNL     1       2.861   2.328  -0.365  1.00  0.00    -0.190 OA
HETATM   24  C34 UNL     1      -0.367   5.447  -1.078  1.00  0.00     0.026 C 
ENDROOT
BRANCH  20  25
HETATM   25  C26 UNL     1       2.803  -2.281  -1.926  1.00  0.00     0.100 A 
HETATM   26  C27 UNL     1       2.217  -3.555  -2.039  1.00  0.00     0.027 A 
HETATM   27  C28 UNL     1       3.145  -4.199  -2.793  1.00  0.00     0.025 A 
HETATM   28  C29 UNL     1       4.209  -3.385  -3.113  1.00  0.00     0.102 A 
HETATM   29  C33 UNL     1       3.104  -5.541  -3.240  1.00  0.00     0.004 A 
HETATM   30  O7  UNL     1       4.047  -2.115  -2.576  1.00  0.00    -0.307 OA
HETATM   31  C30 UNL     1       5.301  -3.824  -3.893  1.00  0.00     0.052 A 
HETATM   32  C31 UNL     1       5.278  -5.168  -4.353  1.00  0.00     0.133 A 
HETATM   33  C32 UNL     1       4.184  -6.022  -4.027  1.00  0.00     0.028 A 
HETATM   34  O8  UNL     1       6.289  -5.635  -5.098  1.00  0.00    -0.190 OA
ENDBRANCH  20  25
BRANCH   1  35
HETATM   35  C3  UNL     1      -0.871   0.221   3.029  1.00  0.00     0.055 A 
HETATM   36  C2  UNL     1       0.205  -0.664   3.215  1.00  0.00     0.005 A 
HETATM   37  C1  UNL     1       0.770  -0.830   4.490  1.00  0.00     0.027 A 
HETATM   38  C6  UNL     1       0.258  -0.113   5.586  1.00  0.00     0.133 A 
HETATM   39  C5  UNL     1      -0.820   0.769   5.399  1.00  0.00     0.055 A 
HETATM   40  O1  UNL     1       0.787  -0.270   6.783  1.00  0.00    -0.190 OA
HETATM   41  C4  UNL     1      -1.387   0.939   4.123  1.00  0.00     0.134 A 
HETATM   42  O2  UNL     1      -2.398   1.771   3.963  1.00  0.00    -0.190 OA
ENDBRANCH   1  35
TORSDOF 2
