REMARK  4 active torsions:
REMARK  status: ('A' for Active; 'I' for Inactive)
REMARK    1  A    between atoms: N1_9  and  O1_10 
REMARK    2  A    between atoms: C16_20  and  C17_21 
REMARK    3  A    between atoms: C17_21  and  C18_22 
REMARK    4  A    between atoms: C18_22  and  C19_23 
ROOT
HETATM    1  C1  UNL     1      -7.473  -0.127  -1.255  1.00  0.00    -0.000 A 
HETATM    2  C2  UNL     1      -7.653  -1.452  -1.379  1.00  0.00     0.002 A 
HETATM    3  C3  UNL     1      -6.602  -2.288  -1.329  1.00  0.00     0.019 A 
HETATM    4  C4  UNL     1      -5.376  -1.775  -1.151  1.00  0.00     0.087 A 
HETATM    5  C5  UNL     1      -5.191  -0.454  -1.018  1.00  0.00     0.006 A 
HETATM    6  C6  UNL     1      -6.242   0.380  -1.073  1.00  0.00    -0.002 A 
HETATM    7  C7  UNL     1      -3.723  -0.103  -0.815  1.00  0.00     0.121 A 
HETATM    8  C8  UNL     1      -3.278  -1.576  -0.905  1.00  0.00     0.266 A 
HETATM    9  N1  UNL     1      -4.256  -2.372  -1.080  1.00  0.00    -0.185 N 
HETATM   10  O2  UNL     1      -2.137  -1.956  -0.793  1.00  0.00    -0.269 OA
HETATM   11  C10 UNL     1      -3.510   0.488   0.605  1.00  0.00     0.132 C 
HETATM   12  C11 UNL     1      -2.082   0.469   1.213  1.00  0.00     0.054 C 
HETATM   13  C12 UNL     1      -1.143   1.106   0.177  1.00  0.00    -0.025 C 
HETATM   14  C13 UNL     1      -1.863   2.270  -0.506  1.00  0.00     0.072 C 
HETATM   15  C14 UNL     1      -2.000   1.667  -1.912  1.00  0.00     0.110 C 
HETATM   16  C15 UNL     1      -3.234   0.744  -2.026  1.00  0.00     0.040 C 
HETATM   17  N2  UNL     1      -0.666   1.002  -2.080  1.00  0.00    -0.277 NA
HETATM   18  C16 UNL     1      -0.196   0.731  -0.931  1.00  0.00     0.046 C 
HETATM   19  C29 UNL     1      -3.113   2.778   0.199  1.00  0.00     0.148 C 
HETATM   20  O6  UNL     1      -4.023   1.789   0.607  1.00  0.00    -0.355 OA
ENDROOT
BRANCH  18  21
HETATM   21  C17 UNL     1       1.160   0.098  -0.760  1.00  0.00     0.040 C 
HETATM   22  C28 UNL     1       1.021  -1.409  -0.496  1.00  0.00     0.006 C 
BRANCH  21  23
HETATM   23  C18 UNL     1       1.947   0.813   0.359  1.00  0.00     0.016 C 
BRANCH  23  24
HETATM   24  C19 UNL     1       3.486   0.739   0.224  1.00  0.00     0.089 C 
HETATM   25  C20 UNL     1       3.982   1.783  -0.779  1.00  0.00     0.271 C 
HETATM   26  O3  UNL     1       4.899   2.697  -0.370  1.00  0.00    -0.302 OA
HETATM   27  O5  UNL     1       3.541   1.821  -1.909  1.00  0.00    -0.264 OA
HETATM   28  C21 UNL     1       5.500   2.688   0.890  1.00  0.00     0.152 C 
HETATM   29  C22 UNL     1       5.568   1.317   1.529  1.00  0.00     0.033 C 
HETATM   30  C23 UNL     1       4.171   0.702   1.603  1.00  0.00     0.042 C 
HETATM   31  C26 UNL     1       6.412   0.241   0.823  1.00  0.00     0.005 C 
HETATM   32  C24 UNL     1       4.533  -0.706   2.088  1.00  0.00     0.153 C 
HETATM   33  C25 UNL     1       5.810  -1.088   1.331  1.00  0.00     0.033 C 
HETATM   34  O4  UNL     1       3.496  -1.627   1.872  1.00  0.00    -0.223 OA
HETATM   35  C27 UNL     1       7.917   0.369   1.080  1.00  0.00     0.000 C 
ENDBRANCH  23  24
ENDBRANCH  21  23
ENDBRANCH  18  21
BRANCH   9  36
HETATM   36  O1  UNL     1      -4.122  -3.665  -1.309  1.00  0.00    -0.248 OA
HETATM   37  C9  UNL     1      -3.776  -4.418  -0.165  1.00  0.00     0.209 C 
ENDBRANCH   9  36
TORSDOF 4
