REMARK  7 active torsions:
REMARK  status: ('A' for Active; 'I' for Inactive)
REMARK    1  A    between atoms: C1_1  and  O6_24 
REMARK    2  A    between atoms: C8_9  and  C9_10 
REMARK    3  A    between atoms: C9_10  and  O2_11 
REMARK    4  A    between atoms: O2_11  and  C10_12 
REMARK    5  A    between atoms: C10_12  and  C11_13 
REMARK    6  A    between atoms: O6_24  and  C19_25 
REMARK    7  A    between atoms: C20_27  and  C24_34 
ROOT
HETATM    1  C1  UNL     1       1.361   0.982   0.280  1.00  0.00     0.129 C 
HETATM    2  C2  UNL     1       2.490   0.341  -0.565  1.00  0.00     0.033 C 
HETATM    3  C3  UNL     1       1.412   0.211  -1.672  1.00  0.00     0.044 C 
HETATM    4  C4  UNL     1       1.251   1.526  -2.468  1.00  0.00     0.130 C 
HETATM    5  C5  UNL     1       1.350   2.759  -1.525  1.00  0.00     0.061 C 
HETATM    6  C6  UNL     1       0.815   2.380  -0.128  1.00  0.00     0.127 C 
HETATM    7  O1  UNL     1      -0.601   2.190  -0.249  1.00  0.00    -0.304 OA
HETATM    8  C7  UNL     1      -0.835   0.908  -0.533  1.00  0.00     0.276 C 
HETATM    9  C8  UNL     1       0.409   0.045  -0.482  1.00  0.00     0.133 C 
HETATM   10  O4  UNL     1      -1.923   0.459  -0.807  1.00  0.00    -0.264 OA
HETATM   11  C17 UNL     1       1.061   3.527   0.854  1.00  0.00     0.033 C 
HETATM   12  C18 UNL     1      -0.027   1.560  -3.314  1.00  0.00     0.033 C 
HETATM   13  O5  UNL     1       2.311   1.597  -3.402  1.00  0.00    -0.226 OA
ENDROOT
BRANCH   1  14
HETATM   14  O6  UNL     1       1.435   0.833   1.682  1.00  0.00    -0.331 OA
BRANCH  14  15
HETATM   15  C19 UNL     1       0.035   0.775   1.874  1.00  0.00     0.270 C 
HETATM   16  O7  UNL     1      -0.480   2.098   1.823  1.00  0.00    -0.326 OA
HETATM   17  C20 UNL     1      -1.893   2.199   1.946  1.00  0.00     0.184 C 
HETATM   18  C21 UNL     1      -2.329   1.642   3.320  1.00  0.00     0.215 C 
HETATM   19  C22 UNL     1      -1.815   0.201   3.533  1.00  0.00     0.220 C 
HETATM   20  O10 UNL     1      -3.744   1.662   3.388  1.00  0.00    -0.218 OA
HETATM   21  C23 UNL     1      -0.298   0.133   3.245  1.00  0.00     0.241 C 
HETATM   22  O9  UNL     1      -2.071  -0.208   4.868  1.00  0.00    -0.218 OA
HETATM   23  O8  UNL     1       0.120  -1.223   3.245  1.00  0.00    -0.215 OA
BRANCH  17  24
HETATM   24  C24 UNL     1      -2.248   3.679   1.763  1.00  0.00     0.214 C 
HETATM   25  O11 UNL     1      -2.349   3.940   0.381  1.00  0.00    -0.218 OA
ENDBRANCH  17  24
ENDBRANCH  14  15
ENDBRANCH   1  14
BRANCH   9  26
HETATM   26  C9  UNL     1       0.205  -1.370   0.065  1.00  0.00     0.164 C 
BRANCH  26  27
HETATM   27  O2  UNL     1       0.483  -2.317  -0.956  1.00  0.00    -0.298 OA
BRANCH  27  28
HETATM   28  C10 UNL     1       0.323  -3.570  -0.542  1.00  0.00     0.296 C 
HETATM   29  O3  UNL     1      -0.021  -3.871   0.577  1.00  0.00    -0.259 OA
BRANCH  28  30
HETATM   30  C11 UNL     1       0.600  -4.620  -1.568  1.00  0.00     0.063 A 
HETATM   31  C12 UNL     1       0.462  -5.981  -1.239  1.00  0.00     0.005 A 
HETATM   32  C13 UNL     1       0.723  -6.968  -2.205  1.00  0.00     0.000 A 
HETATM   33  C14 UNL     1       1.122  -6.596  -3.500  1.00  0.00     0.000 A 
HETATM   34  C15 UNL     1       1.260  -5.237  -3.830  1.00  0.00     0.000 A 
HETATM   35  C16 UNL     1       0.999  -4.249  -2.865  1.00  0.00     0.005 A 
ENDBRANCH  28  30
ENDBRANCH  27  28
ENDBRANCH  26  27
ENDBRANCH   9  26
TORSDOF 7
