REMARK  3 active torsions:
REMARK  status: ('A' for Active; 'I' for Inactive)
REMARK    1  A    between atoms: C6_7  and  O5_20 
REMARK    2  A    between atoms: O5_20  and  C16_21 
REMARK    3  A    between atoms: C16_21  and  C17_22 
ROOT
HETATM    1  C1  UNL     1       0.129   3.636   1.208  1.00  0.00     0.292 C 
HETATM    2  O1  UNL     1      -0.960   4.046   1.931  1.00  0.00    -0.297 OA
HETATM    3  C2  UNL     1      -2.059   3.458   1.251  1.00  0.00     0.149 C 
HETATM    4  C3  UNL     1      -1.496   3.182  -0.113  1.00  0.00     0.005 C 
HETATM    5  C4  UNL     1      -0.168   3.099  -0.000  1.00  0.00     0.042 C 
HETATM    6  C5  UNL     1       0.744   2.388  -0.954  1.00  0.00     0.062 C 
HETATM    7  C6  UNL     1       0.742   0.911  -0.490  1.00  0.00     0.136 C 
HETATM    8  C7  UNL     1      -0.583   0.165  -0.819  1.00  0.00     0.086 C 
HETATM    9  C8  UNL     1      -1.349  -0.468   0.386  1.00  0.00     0.160 C 
HETATM   10  C9  UNL     1      -2.835  -0.109   0.678  1.00  0.00     0.168 A 
HETATM   11  C10 UNL     1      -3.297   1.088   1.355  1.00  0.00     0.123 A 
HETATM   12  C11 UNL     1      -2.322   2.103   1.943  1.00  0.00     0.065 C 
HETATM   13  O2  UNL     1      -3.284   0.867  -0.224  1.00  0.00    -0.354 OA
HETATM   14  C12 UNL     1      -4.738   1.182   1.835  1.00  0.00     0.032 C 
HETATM   15  O3  UNL     1      -1.309  -1.876   0.174  1.00  0.00    -0.298 OA
HETATM   16  C13 UNL     1      -0.809  -2.124  -1.062  1.00  0.00     0.292 C 
HETATM   17  C14 UNL     1      -0.410  -1.022  -1.734  1.00  0.00     0.045 C 
HETATM   18  C15 UNL     1       0.063  -1.017  -2.987  1.00  0.00     0.001 C 
HETATM   19  O4  UNL     1      -0.741  -3.245  -1.519  1.00  0.00    -0.260 OA
HETATM   20  O7  UNL     1       1.264   3.734   1.620  1.00  0.00    -0.260 OA
ENDROOT
BRANCH   7  21
HETATM   21  O5  UNL     1       1.875   0.275  -1.019  1.00  0.00    -0.300 OA
BRANCH  21  22
HETATM   22  C16 UNL     1       2.222  -0.941  -0.485  1.00  0.00     0.295 C 
HETATM   23  O6  UNL     1       1.703  -1.290   0.552  1.00  0.00    -0.259 OA
BRANCH  22  24
HETATM   24  C17 UNL     1       3.031  -1.789  -1.176  1.00  0.00     0.060 C 
HETATM   25  C18 UNL     1       3.419  -3.030  -0.827  1.00  0.00    -0.038 C 
HETATM   26  C19 UNL     1       4.267  -3.857  -1.770  1.00  0.00     0.026 C 
HETATM   27  C20 UNL     1       3.052  -3.764   0.443  1.00  0.00     0.026 C 
ENDBRANCH  22  24
ENDBRANCH  21  22
ENDBRANCH   7  21
TORSDOF 3
