REMARK  1 active torsions:
REMARK  status: ('A' for Active; 'I' for Inactive)
REMARK    1  A    between atoms: C6_6  and  O1_7 
ROOT
HETATM    1  C1  UNL     1      -3.693   0.108   0.970  1.00  0.00     0.024 A 
HETATM    2  C2  UNL     1      -3.688  -1.230   0.987  1.00  0.00     0.002 A 
HETATM    3  C3  UNL     1      -2.595  -1.886   0.584  1.00  0.00     0.003 A 
HETATM    4  C4  UNL     1      -1.514  -1.200   0.170  1.00  0.00     0.044 A 
HETATM    5  C5  UNL     1      -1.529   0.149   0.162  1.00  0.00     0.064 A 
HETATM    6  C6  UNL     1      -2.631   0.836   0.566  1.00  0.00     0.097 A 
HETATM    7  C8  UNL     1      -0.417   0.817  -0.264  1.00  0.00     0.196 A 
HETATM    8  C9  UNL     1       0.683   0.122  -0.662  1.00  0.00     0.043 A 
HETATM    9  C10 UNL     1       0.673  -1.221  -0.652  1.00  0.00     0.021 A 
HETATM   10  C11 UNL     1      -0.425  -1.903  -0.240  1.00  0.00     0.192 A 
HETATM   11  O2  UNL     1      -0.409  -3.115  -0.251  1.00  0.00    -0.287 OA
HETATM   12  C12 UNL     1       1.871  -1.999  -1.139  1.00  0.00     0.059 C 
HETATM   13  C13 UNL     1       3.140  -1.157  -1.151  1.00  0.00     0.120 C 
HETATM   14  O3  UNL     1       2.898   0.072  -1.767  1.00  0.00    -0.354 OA
HETATM   15  C14 UNL     1       1.915   0.876  -1.150  1.00  0.00     0.140 C 
HETATM   16  C15 UNL     1       2.550   1.816  -0.117  1.00  0.00     0.037 C 
HETATM   17  C16 UNL     1       3.787  -1.044   0.229  1.00  0.00     0.033 C 
HETATM   18  O4  UNL     1      -0.357   2.026  -0.317  1.00  0.00    -0.287 OA
ENDROOT
BRANCH   6  19
HETATM   19  O1  UNL     1      -2.653   2.214   0.546  1.00  0.00    -0.328 OA
HETATM   20  C7  UNL     1      -3.828   2.906   0.901  1.00  0.00     0.181 C 
ENDBRANCH   6  19
TORSDOF 1
