REMARK  5 active torsions:
REMARK  status: ('A' for Active; 'I' for Inactive)
REMARK    1  A    between atoms: C1_1  and  C17_26 
REMARK    2  A    between atoms: C5_5  and  O2_7 
REMARK    3  A    between atoms: O2_7  and  C6_8 
REMARK    4  A    between atoms: C7_9  and  O6_21 
REMARK    5  A    between atoms: C11_13  and  O3_14 
ROOT
HETATM    1  C6  UNL     1       1.112   0.258   0.590  1.00  0.00     0.143 A 
HETATM    2  C7  UNL     1       2.451   0.092   0.444  1.00  0.00     0.141 A 
HETATM    3  C8  UNL     1       3.293   1.143   0.339  1.00  0.00     0.128 A 
HETATM    4  C9  UNL     1       2.787   2.382   0.450  1.00  0.00     0.027 A 
HETATM    5  C10 UNL     1       1.469   2.541   0.632  1.00  0.00     0.028 A 
HETATM    6  C11 UNL     1       0.603   1.512   0.715  1.00  0.00     0.118 A 
HETATM    7  C13 UNL     1       3.611   3.442   0.375  1.00  0.00     0.008 A 
HETATM    8  C14 UNL     1       4.928   3.276   0.194  1.00  0.00     0.069 A 
HETATM    9  C15 UNL     1       5.431   2.022   0.081  1.00  0.00     0.300 A 
HETATM   10  O4  UNL     1       4.632   0.919   0.143  1.00  0.00    -0.271 OA
HETATM   11  O5  UNL     1       6.628   1.894  -0.076  1.00  0.00    -0.259 OA
ENDROOT
BRANCH   1  12
HETATM   12  O2  UNL     1       0.390  -0.918   0.595  1.00  0.00    -0.300 OA
BRANCH  12  13
HETATM   13  C5  UNL     1      -1.005  -0.982   0.443  1.00  0.00     0.274 C 
HETATM   14  C4  UNL     1      -1.413  -2.436   0.520  1.00  0.00     0.241 C 
HETATM   15  C3  UNL     1      -2.905  -2.529   0.288  1.00  0.00     0.220 C 
HETATM   16  O7  UNL     1      -1.105  -2.943   1.794  1.00  0.00    -0.215 OA
HETATM   17  C2  UNL     1      -3.230  -1.883  -1.044  1.00  0.00     0.215 C 
HETATM   18  O8  UNL     1      -3.299  -3.877   0.268  1.00  0.00    -0.218 OA
HETATM   19  C1  UNL     1      -2.676  -0.462  -1.097  1.00  0.00     0.184 C 
HETATM   20  O9  UNL     1      -4.628  -1.887  -1.194  1.00  0.00    -0.218 OA
HETATM   21  O1  UNL     1      -1.295  -0.493  -0.849  1.00  0.00    -0.326 OA
BRANCH  19  22
HETATM   22  C17 UNL     1      -2.908   0.187  -2.454  1.00  0.00     0.214 C 
HETATM   23  O10 UNL     1      -2.484   1.536  -2.421  1.00  0.00    -0.218 OA
ENDBRANCH  19  22
ENDBRANCH  12  13
ENDBRANCH   1  12
BRANCH   2  24
HETATM   24  O6  UNL     1       2.971  -1.172   0.275  1.00  0.00    -0.324 OA
HETATM   25  C16 UNL     1       3.275  -1.836   1.481  1.00  0.00     0.182 C 
ENDBRANCH   2  24
BRANCH   6  26
HETATM   26  O3  UNL     1      -0.746   1.720   0.875  1.00  0.00    -0.326 OA
HETATM   27  C12 UNL     1      -1.312   2.964   0.534  1.00  0.00     0.181 C 
ENDBRANCH   6  26
TORSDOF 5
