REMARK  3 active torsions:
REMARK  status: ('A' for Active; 'I' for Inactive)
REMARK    1  A    between atoms: C3_4  and  C6_7 
REMARK    2  A    between atoms: C6_7  and  C7_8 
REMARK    3  A    between atoms: C7_8  and  C8_10 
ROOT
HETATM    1  C6  UNL     1      -0.132   1.103  -0.979  1.00  0.00     0.087 C 
ENDROOT
BRANCH   1   2
HETATM    2  C3  UNL     1      -0.772  -0.223  -1.282  1.00  0.00     0.076 A 
HETATM    3  O1  UNL     1      -0.184  -1.135  -1.866  1.00  0.00    -0.310 OA
HETATM    4  C2  UNL     1      -0.950  -2.090  -1.980  1.00  0.00     0.122 A 
HETATM    5  C1  UNL     1      -2.149  -1.832  -1.447  1.00  0.00     0.024 A 
HETATM    6  C4  UNL     1      -2.031  -0.582  -0.980  1.00  0.00    -0.001 A 
HETATM    7  C5  UNL     1      -3.085   0.228  -0.290  1.00  0.00     0.033 C 
ENDBRANCH   1   2
BRANCH   1   8
HETATM    8  C7  UNL     1       1.310   1.010  -0.476  1.00  0.00     0.186 C 
HETATM    9  O2  UNL     1       1.818   2.323  -0.387  1.00  0.00    -0.220 OA
BRANCH   8  10
HETATM   10  C8  UNL     1       1.553   0.351   0.884  1.00  0.00     0.155 C 
HETATM   11  C9  UNL     1       1.473  -1.177   0.839  1.00  0.00     0.036 C 
HETATM   12  C10 UNL     1       0.644   0.892   1.989  1.00  0.00     0.036 C 
HETATM   13  O3  UNL     1       2.876   0.679   1.232  1.00  0.00    -0.223 OA
ENDBRANCH   8  10
ENDBRANCH   1   8
TORSDOF 3
