REMARK  3 active torsions:
REMARK  status: ('A' for Active; 'I' for Inactive)
REMARK    1  A    between atoms: C6_6  and  O1_7 
REMARK    2  A    between atoms: O1_7  and  C7_8 
REMARK    3  A    between atoms: C7_8  and  C8_10 
ROOT
HETATM    1  C1  UNL     1      -1.574  -1.332  -0.701  1.00  0.00     0.022 A 
HETATM    2  C2  UNL     1      -1.448  -2.697  -0.533  1.00  0.00     0.076 A 
HETATM    3  C3  UNL     1      -0.233  -3.396   0.045  1.00  0.00     0.051 C 
HETATM    4  C4  UNL     1       0.980  -2.434   0.137  1.00  0.00     0.009 C 
HETATM    5  C5  UNL     1       0.584  -1.002   0.629  1.00  0.00     0.030 C 
HETATM    6  C6  UNL     1      -0.461  -0.357  -0.338  1.00  0.00     0.148 C 
HETATM    7  C12 UNL     1       1.851  -0.109   0.730  1.00  0.00     0.003 C 
HETATM    8  C13 UNL     1       2.660  -0.076  -0.582  1.00  0.00     0.000 C 
HETATM    9  C14 UNL     1       3.010  -1.486  -1.076  1.00  0.00     0.000 C 
HETATM   10  C15 UNL     1       1.763  -2.373  -1.191  1.00  0.00     0.001 C 
HETATM   11  C16 UNL     1       2.763  -0.537   1.893  1.00  0.00     0.000 C 
HETATM   12  C17 UNL     1      -0.051  -1.119   2.027  1.00  0.00     0.003 C 
HETATM   13  O3  UNL     1      -2.625  -3.305  -0.967  1.00  0.00    -0.310 OA
HETATM   14  C18 UNL     1      -3.473  -2.279  -1.402  1.00  0.00     0.118 A 
HETATM   15  C19 UNL     1      -2.803  -1.072  -1.231  1.00  0.00     0.003 A 
HETATM   16  C20 UNL     1      -3.354   0.297  -1.574  1.00  0.00     0.033 C 
ENDROOT
BRANCH   6  17
HETATM   17  O1  UNL     1      -1.010   0.815   0.256  1.00  0.00    -0.297 OA
BRANCH  17  18
HETATM   18  C7  UNL     1      -0.379   1.920  -0.131  1.00  0.00     0.292 C 
HETATM   19  O2  UNL     1       0.379   1.971  -1.070  1.00  0.00    -0.260 OA
BRANCH  18  20
HETATM   20  C8  UNL     1      -0.656   3.121   0.666  1.00  0.00     0.037 C 
HETATM   21  C9  UNL     1      -0.871   4.328   0.119  1.00  0.00    -0.025 C 
HETATM   22  C10 UNL     1      -0.824   4.455  -1.381  1.00  0.00     0.030 C 
HETATM   23  C11 UNL     1      -0.701   2.996   2.166  1.00  0.00     0.036 C 
ENDBRANCH  18  20
ENDBRANCH  17  18
ENDBRANCH   6  17
TORSDOF 3
