REMARK  7 active torsions:
REMARK  status: ('A' for Active; 'I' for Inactive)
REMARK    1  A    between atoms: C11_13  and  C21_28 
REMARK    2  A    between atoms: C12_14  and  O6_24 
REMARK    3  A    between atoms: C13_15  and  O3_16 
REMARK    4  A    between atoms: O3_16  and  C14_17 
REMARK    5  A    between atoms: C14_17  and  C15_19 
REMARK    6  A    between atoms: O6_24  and  C19_25 
REMARK    7  A    between atoms: C21_28  and  O8_29 
ROOT
HETATM    1  C1  UNL     1       1.138  -0.410  -1.310  1.00  0.00     0.088 A 
HETATM    2  C2  UNL     1       0.350  -1.722  -1.577  1.00  0.00     0.161 A 
HETATM    3  O1  UNL     1       1.283  -2.779  -1.696  1.00  0.00    -0.298 OA
HETATM    4  C3  UNL     1       2.528  -2.256  -1.580  1.00  0.00     0.292 A 
HETATM    5  C4  UNL     1       2.560  -0.918  -1.384  1.00  0.00     0.046 A 
HETATM    6  C5  UNL     1       3.684  -0.196  -1.290  1.00  0.00     0.001 C 
HETATM    7  O2  UNL     1       3.524  -2.943  -1.660  1.00  0.00    -0.260 OA
HETATM    8  C6  UNL     1      -0.562  -1.624  -2.801  1.00  0.00     0.168 A 
HETATM    9  C7  UNL     1      -1.929  -2.053  -2.640  1.00  0.00     0.120 A 
HETATM   10  C8  UNL     1      -2.937  -1.117  -3.288  1.00  0.00     0.034 C 
HETATM   11  C9  UNL     1      -3.375  -0.024  -2.289  1.00  0.00     0.029 C 
HETATM   12  C10 UNL     1      -2.157   0.571  -1.607  1.00  0.00    -0.023 C 
HETATM   13  C11 UNL     1      -1.738   0.550  -0.322  1.00  0.00     0.067 C 
HETATM   14  C12 UNL     1      -0.407   1.221   0.043  1.00  0.00     0.179 C 
HETATM   15  C13 UNL     1       0.843   0.312   0.021  1.00  0.00     0.163 C 
HETATM   16  O10 UNL     1      -0.834  -2.799  -3.526  1.00  0.00    -0.354 OA
HETATM   17  C23 UNL     1      -2.431  -3.062  -1.620  1.00  0.00     0.032 C 
ENDROOT
BRANCH  15  18
HETATM   18  O3  UNL     1       0.798  -0.636   1.047  1.00  0.00    -0.299 OA
BRANCH  18  19
HETATM   19  C14 UNL     1       1.386  -0.508   2.274  1.00  0.00     0.299 C 
HETATM   20  O4  UNL     1       1.225  -1.334   3.148  1.00  0.00    -0.262 OA
BRANCH  19  21
HETATM   21  C15 UNL     1       2.223   0.668   2.535  1.00  0.00     0.195 A 
HETATM   22  C16 UNL     1       3.602   0.449   2.906  1.00  0.00     0.150 A 
HETATM   23  O5  UNL     1       3.492   0.982   1.612  1.00  0.00    -0.347 OA
HETATM   24  C17 UNL     1       4.241  -0.928   2.799  1.00  0.00     0.035 C 
HETATM   25  C18 UNL     1       1.540   1.927   3.044  1.00  0.00     0.043 C 
ENDBRANCH  19  21
ENDBRANCH  18  19
ENDBRANCH  15  18
BRANCH  14  26
HETATM   26  O6  UNL     1      -0.124   2.361  -0.744  1.00  0.00    -0.297 OA
BRANCH  26  27
HETATM   27  C19 UNL     1      -0.810   3.537  -0.633  1.00  0.00     0.273 C 
HETATM   28  O7  UNL     1      -0.583   4.478  -1.363  1.00  0.00    -0.264 OA
HETATM   29  C20 UNL     1      -1.848   3.629   0.472  1.00  0.00     0.106 C 
ENDBRANCH  26  27
ENDBRANCH  14  26
BRANCH  13  30
HETATM   30  C21 UNL     1      -2.451  -0.030   0.692  1.00  0.00     0.294 C 
HETATM   31  O9  UNL     1      -3.518  -0.561   0.485  1.00  0.00    -0.259 OA
BRANCH  30  32
HETATM   32  O8  UNL     1      -1.980  -0.027   1.978  1.00  0.00    -0.296 OA
HETATM   33  C22 UNL     1      -2.713  -0.734   2.949  1.00  0.00     0.185 C 
ENDBRANCH  30  32
ENDBRANCH  13  30
TORSDOF 7
