REMARK  15 active torsions:
REMARK  status: ('A' for Active; 'I' for Inactive)
REMARK    1  A    between atoms: O1_1  and  C1_2 
REMARK    2  A    between atoms: O1_1  and  C30_40 
REMARK    3  A    between atoms: C8_9  and  O8_28 
REMARK    4  A    between atoms: C16_19  and  O5_22 
REMARK    5  A    between atoms: O5_22  and  C18_23 
REMARK    6  A    between atoms: O8_28  and  C21_29 
REMARK    7  A    between atoms: C21_29  and  C22_30 
REMARK    8  A    between atoms: C30_40  and  C31_41 
REMARK    9  A    between atoms: C31_41  and  C32_42 
REMARK   10  A    between atoms: C32_42  and  C33_43 
REMARK   11  A    between atoms: C32_42  and  N1_49 
REMARK       I    between atoms: N1_49  and  C39_50 
REMARK   12  A    between atoms: C39_50  and  C40_51 
REMARK   13  A    between atoms: C40_51  and  C41_52 
REMARK   14  A    between atoms: C41_52  and  C42_53 
REMARK   15  A    between atoms: C42_53  and  C43_54 
ROOT
HETATM    1  C1  UNL     1      -3.893  -0.675   0.013  1.00  0.00     0.145 C 
HETATM    2  C2  UNL     1      -3.408  -2.086   0.149  1.00  0.00    -0.022 C 
HETATM    3  C3  UNL     1      -4.189  -3.200  -0.530  1.00  0.00     0.028 C 
HETATM    4  C4  UNL     1      -2.183  -2.278   0.733  1.00  0.00    -0.011 C 
HETATM    5  C5  UNL     1      -1.333  -1.055   1.393  1.00  0.00     0.046 C 
HETATM    6  C6  UNL     1      -1.019  -0.606  -0.109  1.00  0.00     0.158 C 
HETATM    7  C7  UNL     1      -2.499   0.113  -0.613  1.00  0.00     0.068 C 
HETATM    8  C8  UNL     1       0.551  -0.043  -0.396  1.00  0.00     0.156 C 
HETATM    9  C9  UNL     1       1.755  -1.262   0.169  1.00  0.00     0.070 C 
HETATM   10  C10 UNL     1       1.439  -2.862  -0.471  1.00  0.00     0.087 C 
HETATM   11  C11 UNL     1       0.341  -3.781   0.421  1.00  0.00     0.186 C 
HETATM   12  C12 UNL     1      -1.340  -3.771   0.512  1.00  0.00     0.227 C 
HETATM   13  O2  UNL     1      -1.703  -4.338  -0.762  1.00  0.00    -0.211 OA
HETATM   14  O3  UNL     1       0.872  -4.606   1.171  1.00  0.00    -0.293 OA
HETATM   15  C13 UNL     1       2.711  -3.622  -0.523  1.00  0.00     0.161 C 
HETATM   16  C14 UNL     1       3.703  -2.765  -1.558  1.00  0.00     0.066 C 
HETATM   17  C15 UNL     1       4.075  -1.235  -1.199  1.00  0.00     0.146 C 
HETATM   18  C16 UNL     1       3.443  -1.013   0.084  1.00  0.00     0.156 C 
HETATM   19  C17 UNL     1       3.661   0.422  -0.067  1.00  0.00     0.172 C 
HETATM   20  O4  UNL     1       3.447   0.030  -1.524  1.00  0.00    -0.351 OA
HETATM   21  O7  UNL     1       3.249  -3.868   0.771  1.00  0.00    -0.223 OA
HETATM   22  C20 UNL     1       1.178  -2.871  -2.037  1.00  0.00     0.010 C 
HETATM   23  O10 UNL     1      -0.979  -1.603  -0.970  1.00  0.00    -0.223 OA
HETATM   24  C28 UNL     1      -0.451  -1.754   2.462  1.00  0.00     0.007 C 
HETATM   25  C29 UNL     1      -1.807   0.215   2.212  1.00  0.00     0.007 C 
ENDROOT
BRANCH   1  26
HETATM   26  O1  UNL     1      -5.198  -0.579  -0.762  1.00  0.00    -0.300 OA
BRANCH  26  27
HETATM   27  C30 UNL     1      -6.402  -0.855   0.072  1.00  0.00     0.274 C 
HETATM   28  O12 UNL     1      -6.277  -0.929   1.300  1.00  0.00    -0.264 OA
BRANCH  27  29
HETATM   29  C31 UNL     1      -7.772  -1.305  -0.558  1.00  0.00     0.125 C 
BRANCH  29  30
HETATM   30  C32 UNL     1      -9.109  -0.841   0.199  1.00  0.00     0.138 C 
BRANCH  30  31
HETATM   31  C33 UNL     1     -10.278  -1.815  -0.194  1.00  0.00     0.000 A 
HETATM   32  C34 UNL     1     -11.369  -1.426  -0.866  1.00  0.00    -0.002 A 
HETATM   33  C35 UNL     1     -12.463  -2.372  -1.139  1.00  0.00    -0.000 A 
HETATM   34  C36 UNL     1     -12.376  -3.632  -0.718  1.00  0.00    -0.000 A 
HETATM   35  C37 UNL     1     -11.184  -4.074   0.004  1.00  0.00    -0.000 A 
HETATM   36  C38 UNL     1     -10.193  -3.217   0.252  1.00  0.00    -0.002 A 
ENDBRANCH  30  31
BRANCH  30  37
HETATM   37  N1  UNL     1      -9.424   0.587  -0.086  1.00  0.00    -0.235 NA
HETATM   38  C39 UNL     1     -10.496   1.223   0.437  1.00  0.00     0.252 C 
HETATM   39  O11 UNL     1     -11.266   0.635   1.207  1.00  0.00    -0.271 OA
BRANCH  38  40
HETATM   40  C40 UNL     1     -10.810   2.642   0.021  1.00  0.00     0.090 C 
BRANCH  40  41
HETATM   41  C41 UNL     1     -12.287   2.962   0.380  1.00  0.00     0.010 C 
BRANCH  41  42
HETATM   42  C42 UNL     1     -12.665   4.386  -0.095  1.00  0.00     0.001 C 
BRANCH  42  43
HETATM   43  C43 UNL     1     -14.151   4.662   0.231  1.00  0.00     0.000 C 
HETATM   44  C44 UNL     1     -14.532   6.086  -0.223  1.00  0.00     0.000 C 
ENDBRANCH  42  43
ENDBRANCH  41  42
ENDBRANCH  40  41
ENDBRANCH  38  40
ENDBRANCH  30  37
ENDBRANCH  29  30
ENDBRANCH  27  29
ENDBRANCH  26  27
ENDBRANCH   1  26
BRANCH   8  45
HETATM   45  O8  UNL     1       0.877   1.240   0.199  1.00  0.00    -0.298 OA
BRANCH  45  46
HETATM   46  C21 UNL     1       0.216   2.314  -0.397  1.00  0.00     0.296 C 
HETATM   47  O9  UNL     1      -0.625   2.124  -1.325  1.00  0.00    -0.259 OA
BRANCH  46  48
HETATM   48  C22 UNL     1       0.533   3.701  -0.116  1.00  0.00     0.063 A 
HETATM   49  C23 UNL     1      -0.134   4.670  -0.651  1.00  0.00     0.005 A 
HETATM   50  C24 UNL     1       0.230   6.069  -0.408  1.00  0.00     0.000 A 
HETATM   51  C25 UNL     1       1.290   6.338   0.359  1.00  0.00     0.000 A 
HETATM   52  C26 UNL     1       2.059   5.248   0.958  1.00  0.00     0.000 A 
HETATM   53  C27 UNL     1       1.703   3.974   0.752  1.00  0.00     0.005 A 
ENDBRANCH  46  48
ENDBRANCH  45  46
ENDBRANCH   8  45
BRANCH  18  54
HETATM   54  O5  UNL     1       4.087  -1.774   1.276  1.00  0.00    -0.302 OA
BRANCH  54  55
HETATM   55  C18 UNL     1       5.505  -2.167   1.572  1.00  0.00     0.272 C 
HETATM   56  C19 UNL     1       6.706  -2.079   0.646  1.00  0.00     0.106 C 
HETATM   57  O6  UNL     1       5.696  -2.738   2.654  1.00  0.00    -0.264 OA
ENDBRANCH  54  55
ENDBRANCH  18  54
TORSDOF 15
