REMARK  0 active torsions:
REMARK  status: ('A' for Active; 'I' for Inactive)
ROOT
HETATM    1  C1  UNL     1      -2.799  -0.713   0.035  1.00  0.00     0.022 C 
HETATM    2  C2  UNL     1      -1.920  -1.844  -0.455  1.00  0.00    -0.046 C 
HETATM    3  C3  UNL     1      -0.572  -1.777  -0.418  1.00  0.00    -0.007 C 
HETATM    4  C4  UNL     1       0.166  -0.561   0.109  1.00  0.00     0.123 C 
HETATM    5  C5  UNL     1      -0.676   0.725  -0.072  1.00  0.00     0.030 C 
HETATM    6  C6  UNL     1      -2.031   0.488   0.629  1.00  0.00     0.007 C 
HETATM    7  C7  UNL     1       0.086   1.959   0.467  1.00  0.00     0.003 C 
HETATM    8  C8  UNL     1       1.563   2.008   0.002  1.00  0.00     0.001 C 
HETATM    9  C9  UNL     1       1.910   0.945  -1.055  1.00  0.00     0.007 C 
HETATM   10  C10 UNL     1       1.574  -0.461  -0.549  1.00  0.00     0.057 C 
HETATM   11  C11 UNL     1       2.451  -0.918   0.576  1.00  0.00     0.043 C 
HETATM   12  C12 UNL     1       1.649  -1.068   1.772  1.00  0.00     0.292 C 
HETATM   13  O1  UNL     1       0.369  -0.785   1.518  1.00  0.00    -0.299 OA
HETATM   14  O2  UNL     1       2.096  -1.402   2.846  1.00  0.00    -0.260 OA
HETATM   15  C13 UNL     1       3.772  -1.158   0.469  1.00  0.00     0.001 C 
HETATM   16  C14 UNL     1      -0.650   3.262   0.125  1.00  0.00     0.000 C 
HETATM   17  C15 UNL     1      -2.594  -3.065  -1.019  1.00  0.00     0.026 C 
ENDROOT
TORSDOF 0
