REMARK  4 active torsions:
REMARK  status: ('A' for Active; 'I' for Inactive)
REMARK    1  A    between atoms: C7_8  and  C17_23 
REMARK    2  A    between atoms: C8_9  and  O2_11 
REMARK    3  A    between atoms: O2_11  and  C10_12 
REMARK    4  A    between atoms: C10_12  and  C11_13 
ROOT
HETATM    1  C1  UNL     1       4.797   0.850  -0.916  1.00  0.00     0.135 A 
HETATM    2  C2  UNL     1       4.902  -0.561  -0.931  1.00  0.00     0.055 A 
HETATM    3  C3  UNL     1       3.764  -1.356  -1.195  1.00  0.00     0.131 A 
HETATM    4  C4  UNL     1       2.510  -0.742  -1.447  1.00  0.00     0.028 A 
HETATM    5  C5  UNL     1       2.406   0.680  -1.441  1.00  0.00     0.095 A 
HETATM    6  C6  UNL     1       3.551   1.467  -1.170  1.00  0.00     0.051 A 
HETATM    7  O1  UNL     1       1.234   1.307  -1.681  1.00  0.00    -0.327 OA
HETATM    8  C7  UNL     1       0.111   0.592  -2.211  1.00  0.00     0.172 C 
HETATM    9  C8  UNL     1      -0.004  -0.785  -1.529  1.00  0.00     0.161 C 
HETATM   10  C9  UNL     1       1.307  -1.570  -1.713  1.00  0.00     0.064 C 
HETATM   11  O10 UNL     1       3.881  -2.692  -1.207  1.00  0.00    -0.190 OA
HETATM   12  O11 UNL     1       5.877   1.600  -0.662  1.00  0.00    -0.190 OA
ENDROOT
BRANCH   9  13
HETATM   13  O2  UNL     1      -0.256  -0.619  -0.138  1.00  0.00    -0.298 OA
BRANCH  13  14
HETATM   14  C10 UNL     1      -0.678  -1.740   0.440  1.00  0.00     0.296 C 
HETATM   15  O6  UNL     1      -0.920  -2.758  -0.166  1.00  0.00    -0.259 OA
BRANCH  14  16
HETATM   16  C11 UNL     1      -0.840  -1.670   1.922  1.00  0.00     0.067 A 
HETATM   17  C12 UNL     1      -1.283  -2.797   2.637  1.00  0.00     0.035 A 
HETATM   18  C13 UNL     1      -1.438  -2.734   4.032  1.00  0.00     0.158 A 
HETATM   19  C14 UNL     1      -1.145  -1.539   4.717  1.00  0.00     0.181 A 
HETATM   20  O5  UNL     1      -1.854  -3.793   4.696  1.00  0.00    -0.188 OA
HETATM   21  C15 UNL     1      -0.697  -0.410   4.004  1.00  0.00     0.158 A 
HETATM   22  O4  UNL     1      -1.287  -1.479   6.026  1.00  0.00    -0.186 OA
HETATM   23  C16 UNL     1      -0.547  -0.479   2.608  1.00  0.00     0.035 A 
HETATM   24  O3  UNL     1      -0.422   0.709   4.641  1.00  0.00    -0.188 OA
ENDBRANCH  14  16
ENDBRANCH  13  14
ENDBRANCH   9  13
BRANCH   8  25
HETATM   25  C17 UNL     1      -1.115   1.420  -2.056  1.00  0.00     0.012 A 
HETATM   26  C18 UNL     1      -2.018   1.549  -3.127  1.00  0.00     0.028 A 
HETATM   27  C19 UNL     1      -3.176   2.330  -2.984  1.00  0.00     0.158 A 
HETATM   28  C20 UNL     1      -3.434   2.986  -1.765  1.00  0.00     0.181 A 
HETATM   29  O9  UNL     1      -4.018   2.447  -3.992  1.00  0.00    -0.188 OA
HETATM   30  C21 UNL     1      -2.533   2.857  -0.691  1.00  0.00     0.158 A 
HETATM   31  O8  UNL     1      -4.522   3.719  -1.629  1.00  0.00    -0.186 OA
HETATM   32  C22 UNL     1      -1.375   2.074  -0.840  1.00  0.00     0.028 A 
HETATM   33  O7  UNL     1      -2.770   3.469   0.451  1.00  0.00    -0.188 OA
ENDBRANCH   8  25
TORSDOF 4
