REMARK  1 active torsions:
REMARK  status: ('A' for Active; 'I' for Inactive)
REMARK    1  A    between atoms: C21_21  and  C24_24 
ROOT
HETATM    1  C1  UNL     1      -5.119  -1.572  -0.229  1.00  0.00     0.033 C 
HETATM    2  C2  UNL     1      -5.656  -0.369   0.559  1.00  0.00     0.152 C 
HETATM    3  C3  UNL     1      -5.049   0.959   0.051  1.00  0.00     0.028 C 
HETATM    4  C4  UNL     1      -3.490   0.896   0.127  1.00  0.00     0.002 C 
HETATM    5  C5  UNL     1      -2.857  -0.363  -0.551  1.00  0.00     0.001 C 
HETATM    6  C6  UNL     1      -3.594  -1.652  -0.108  1.00  0.00     0.003 C 
HETATM    7  C7  UNL     1      -1.332  -0.533  -0.180  1.00  0.00     0.005 C 
HETATM    8  C8  UNL     1      -0.627   0.748   0.340  1.00  0.00     0.004 C 
HETATM    9  C9  UNL     1      -1.432   1.406   1.504  1.00  0.00     0.000 C 
HETATM   10  C10 UNL     1      -2.922   1.049   1.545  1.00  0.00     0.000 C 
HETATM   11  C11 UNL     1       0.830   0.410   0.828  1.00  0.00     0.015 C 
HETATM   12  C12 UNL     1       1.598  -0.498  -0.133  1.00  0.00    -0.049 C 
HETATM   13  C13 UNL     1       0.980  -1.203  -1.106  1.00  0.00    -0.035 C 
HETATM   14  C14 UNL     1      -0.508  -1.162  -1.332  1.00  0.00     0.025 C 
HETATM   15  C15 UNL     1       3.104  -0.592   0.084  1.00  0.00     0.018 C 
HETATM   16  C16 UNL     1       3.744   0.818   0.076  1.00  0.00     0.004 C 
HETATM   17  C17 UNL     1       3.131   1.582   1.266  1.00  0.00     0.001 C 
HETATM   18  C18 UNL     1       1.607   1.732   1.113  1.00  0.00     0.004 C 
HETATM   19  C19 UNL     1       5.291   0.740   0.187  1.00  0.00     0.001 C 
HETATM   20  C20 UNL     1       5.799  -0.627   0.660  1.00  0.00     0.010 C 
HETATM   21  C21 UNL     1       5.363  -1.768  -0.293  1.00  0.00     0.079 C 
HETATM   22  C22 UNL     1       3.906  -1.569  -0.801  1.00  0.00     0.014 C 
HETATM   23  C23 UNL     1       6.317  -1.844  -1.490  1.00  0.00     0.011 C 
HETATM   24  C25 UNL     1       3.404   1.553  -1.234  1.00  0.00     0.000 C 
HETATM   25  C26 UNL     1       0.793  -0.418   2.125  1.00  0.00     0.004 C 
HETATM   26  C27 UNL     1      -0.578   1.734  -0.844  1.00  0.00     0.000 C 
HETATM   27  C28 UNL     1      -3.051  -0.209  -2.072  1.00  0.00     0.000 C 
HETATM   28  C29 UNL     1      -5.484   1.228  -1.399  1.00  0.00     0.003 C 
HETATM   29  C30 UNL     1      -5.580   2.135   0.885  1.00  0.00     0.003 C 
HETATM   30  O3  UNL     1      -7.068  -0.352   0.453  1.00  0.00    -0.224 OA
ENDROOT
BRANCH  21  31
HETATM   31  C24 UNL     1       5.483  -3.076   0.451  1.00  0.00     0.184 C 
HETATM   32  O1  UNL     1       4.686  -3.201   1.508  1.00  0.00    -0.647 OA
HETATM   33  O2  UNL     1       6.258  -3.930   0.088  1.00  0.00    -0.647 OA
ENDBRANCH  21  31
TORSDOF 1
