REMARK  6 active torsions:
REMARK  status: ('A' for Active; 'I' for Inactive)
REMARK    1  A    between atoms: C1_1  and  O6_26 
REMARK    2  A    between atoms: C6_6  and  C7_7 
REMARK    3  A    between atoms: C7_7  and  C8_8 
REMARK    4  A    between atoms: C12_13  and  C15_18 
REMARK    5  A    between atoms: O6_26  and  C21_27 
REMARK    6  A    between atoms: C22_29  and  C26_36 
ROOT
HETATM    1  C1  UNL     1       1.129   0.467  -0.777  1.00  0.00     0.097 A 
HETATM    2  C2  UNL     1       0.945   1.639  -1.545  1.00  0.00     0.052 A 
HETATM    3  C3  UNL     1      -0.357   2.121  -1.809  1.00  0.00     0.138 A 
HETATM    4  C4  UNL     1      -1.486   1.428  -1.301  1.00  0.00     0.085 A 
HETATM    5  C5  UNL     1      -1.307   0.225  -0.562  1.00  0.00     0.098 A 
HETATM    6  C6  UNL     1       0.004  -0.242  -0.287  1.00  0.00     0.027 A 
HETATM    7  O1  UNL     1      -2.363  -0.484  -0.111  1.00  0.00    -0.326 OA
HETATM    8  C12 UNL     1      -3.660  -0.309  -0.689  1.00  0.00     0.181 C 
HETATM    9  C13 UNL     1      -3.990   1.199  -0.832  1.00  0.00     0.245 C 
HETATM   10  C14 UNL     1      -2.865   1.957  -1.523  1.00  0.00     0.210 C 
HETATM   11  O2  UNL     1      -3.156   2.926  -2.188  1.00  0.00    -0.288 OA
HETATM   12  O3  UNL     1      -5.205   1.342  -1.551  1.00  0.00    -0.212 OA
HETATM   13  O5  UNL     1      -0.504   3.240  -2.533  1.00  0.00    -0.190 OA
ENDROOT
BRANCH   1  14
HETATM   14  O6  UNL     1       2.371   0.029  -0.523  1.00  0.00    -0.304 OA
BRANCH  14  15
HETATM   15  C21 UNL     1       3.129   0.721   0.459  1.00  0.00     0.274 C 
HETATM   16  O7  UNL     1       3.309   2.068   0.039  1.00  0.00    -0.326 OA
HETATM   17  C22 UNL     1       4.020   2.893   0.955  1.00  0.00     0.184 C 
HETATM   18  C23 UNL     1       5.441   2.326   1.160  1.00  0.00     0.215 C 
HETATM   19  C24 UNL     1       5.400   0.848   1.606  1.00  0.00     0.220 C 
HETATM   20  O10 UNL     1       6.104   3.104   2.141  1.00  0.00    -0.218 OA
HETATM   21  C25 UNL     1       4.504   0.041   0.641  1.00  0.00     0.241 C 
HETATM   22  O9  UNL     1       6.713   0.307   1.607  1.00  0.00    -0.218 OA
HETATM   23  O8  UNL     1       4.301  -1.266   1.145  1.00  0.00    -0.215 OA
BRANCH  17  24
HETATM   24  C26 UNL     1       4.023   4.309   0.369  1.00  0.00     0.214 C 
HETATM   25  O11 UNL     1       2.701   4.801   0.393  1.00  0.00    -0.218 OA
ENDBRANCH  17  24
ENDBRANCH  14  15
ENDBRANCH   1  14
BRANCH   6  26
HETATM   26  C7  UNL     1       0.197  -1.469   0.504  1.00  0.00     0.056 C 
BRANCH  26  27
HETATM   27  C8  UNL     1       0.984  -2.510  -0.248  1.00  0.00    -0.030 C 
HETATM   28  C9  UNL     1       0.320  -3.361  -1.047  1.00  0.00    -0.048 C 
HETATM   29  C10 UNL     1       1.098  -4.443  -1.746  1.00  0.00     0.026 C 
HETATM   30  C11 UNL     1      -1.166  -3.190  -1.201  1.00  0.00     0.026 C 
ENDBRANCH  26  27
ENDBRANCH   6  26
BRANCH   8  31
HETATM   31  C15 UNL     1      -4.647  -1.051   0.148  1.00  0.00     0.008 A 
HETATM   32  C16 UNL     1      -4.697  -2.455   0.104  1.00  0.00     0.000 A 
HETATM   33  C17 UNL     1      -5.631  -3.150   0.891  1.00  0.00     0.027 A 
HETATM   34  C18 UNL     1      -6.516  -2.445   1.727  1.00  0.00     0.131 A 
HETATM   35  C19 UNL     1      -6.461  -1.041   1.770  1.00  0.00     0.027 A 
HETATM   36  O4  UNL     1      -7.391  -3.098   2.467  1.00  0.00    -0.190 OA
HETATM   37  C20 UNL     1      -5.529  -0.344   0.982  1.00  0.00     0.000 A 
ENDBRANCH   8  31
TORSDOF 6
