REMARK  3 active torsions:
REMARK  status: ('A' for Active; 'I' for Inactive)
REMARK    1  A    between atoms: C4_4  and  O2_9 
REMARK    2  A    between atoms: C5_5  and  O1_7 
REMARK    3  A    between atoms: C18_21  and  O3_23 
ROOT
HETATM    1  C1  UNL     1      -0.561  -0.043   0.192  1.00  0.00    -0.003 A 
HETATM    2  C2  UNL     1      -1.986  -0.047  -0.037  1.00  0.00    -0.022 A 
HETATM    3  C3  UNL     1      -2.682  -1.287  -0.080  1.00  0.00     0.022 A 
HETATM    4  C4  UNL     1      -2.014  -2.512   0.109  1.00  0.00     0.116 A 
HETATM    5  C5  UNL     1      -0.629  -2.520   0.354  1.00  0.00     0.116 A 
HETATM    6  C6  UNL     1       0.080  -1.303   0.395  1.00  0.00     0.024 A 
HETATM    7  C9  UNL     1      -2.822   1.176  -0.226  1.00  0.00     0.028 C 
HETATM    8  C10 UNL     1      -2.184   2.295  -1.051  1.00  0.00     0.029 C 
HETATM    9  C11 UNL     1      -1.276   3.187  -0.205  1.00  0.00     0.098 C 
HETATM   10  N1  UNL     1      -0.391   2.416   0.668  1.00  0.00    -0.365 N 
HETATM   11  C12 UNL     1       0.307   1.203   0.231  1.00  0.00     0.097 C 
HETATM   12  C13 UNL     1       1.281   1.160   1.389  1.00  0.00    -0.025 C 
HETATM   13  C14 UNL     1       0.631   1.631   2.660  1.00  0.00     0.048 C 
HETATM   14  C15 UNL     1      -0.537   2.457   2.125  1.00  0.00     0.102 C 
HETATM   15  C16 UNL     1       2.578   0.805   1.287  1.00  0.00    -0.030 C 
HETATM   16  C17 UNL     1       3.228   0.508  -0.049  1.00  0.00     0.055 C 
HETATM   17  C18 UNL     1       2.252   0.463  -1.246  1.00  0.00     0.122 C 
HETATM   18  C19 UNL     1       1.070   1.443  -1.096  1.00  0.00     0.058 C 
ENDROOT
BRANCH   4  19
HETATM   19  O2  UNL     1      -2.697  -3.664   0.059  1.00  0.00    -0.326 OA
HETATM   20  C8  UNL     1      -4.088  -3.604  -0.223  1.00  0.00     0.181 C 
ENDBRANCH   4  19
BRANCH   5  21
HETATM   21  O1  UNL     1       0.017  -3.678   0.545  1.00  0.00    -0.326 OA
HETATM   22  C7  UNL     1       1.416  -3.629   0.781  1.00  0.00     0.181 C 
ENDBRANCH   5  21
BRANCH  17  23
HETATM   23  O3  UNL     1       2.957   0.766  -2.434  1.00  0.00    -0.354 OA
HETATM   24  C20 UNL     1       3.945  -0.188  -2.752  1.00  0.00     0.174 C 
ENDBRANCH  17  23
TORSDOF 3
