REMARK  4 active torsions:
REMARK  status: ('A' for Active; 'I' for Inactive)
REMARK    1  A    between atoms: C2_2  and  N2_25 
REMARK    2  A    between atoms: C16_16  and  C19_19 
REMARK    3  A    between atoms: C19_19  and  N1_21 
REMARK       I    between atoms: N2_25  and  C24_26 
REMARK    4  A    between atoms: C24_26  and  C25_28 
ROOT
HETATM    1  C1  UNL     1      -3.514   0.652  -0.801  1.00  0.00     0.024 C 
HETATM    2  C2  UNL     1      -3.494  -0.889  -0.689  1.00  0.00     0.107 C 
HETATM    3  C3  UNL     1      -2.424  -1.393   0.311  1.00  0.00     0.024 C 
HETATM    4  C4  UNL     1      -2.016  -0.297   1.313  1.00  0.00     0.002 C 
HETATM    5  C5  UNL     1      -1.348   0.914   0.590  1.00  0.00     0.000 C 
HETATM    6  C6  UNL     1      -2.094   1.233  -0.740  1.00  0.00     0.002 C 
HETATM    7  C7  UNL     1       0.152   0.625   0.272  1.00  0.00     0.000 C 
HETATM    8  C8  UNL     1       0.932   0.111   1.500  1.00  0.00     0.000 C 
HETATM    9  C9  UNL     1       0.268  -1.139   2.090  1.00  0.00     0.000 C 
HETATM   10  C10 UNL     1      -1.180  -0.842   2.484  1.00  0.00     0.000 C 
HETATM   11  C11 UNL     1       2.416  -0.164   1.191  1.00  0.00     0.000 C 
HETATM   12  C12 UNL     1       3.115   1.018   0.502  1.00  0.00     0.002 C 
HETATM   13  C13 UNL     1       2.326   1.502  -0.730  1.00  0.00     0.000 C 
HETATM   14  C14 UNL     1       0.877   1.836  -0.353  1.00  0.00     0.000 C 
HETATM   15  C15 UNL     1       3.356   2.149   1.500  1.00  0.00     0.000 C 
HETATM   16  C16 UNL     1       4.453   0.358   0.141  1.00  0.00     0.031 C 
HETATM   17  C17 UNL     1       4.061  -1.023  -0.389  1.00  0.00     0.002 C 
HETATM   18  C18 UNL     1       2.713  -1.344   0.260  1.00  0.00     0.000 C 
HETATM   19  C23 UNL     1      -1.451   2.131   1.525  1.00  0.00     0.000 C 
ENDROOT
BRANCH   2  20
HETATM   20  N2  UNL     1      -4.838  -1.394  -0.348  1.00  0.00    -0.236 NA
HETATM   21  C24 UNL     1      -5.805  -1.439  -1.312  1.00  0.00     0.275 C 
HETATM   22  O1  UNL     1      -5.561  -1.068  -2.437  1.00  0.00    -0.266 OA
BRANCH  21  23
HETATM   23  C25 UNL     1      -7.158  -1.955  -0.951  1.00  0.00     0.058 A 
HETATM   24  C26 UNL     1      -7.422  -2.383   0.363  1.00  0.00     0.005 A 
HETATM   25  C27 UNL     1      -8.697  -2.867   0.703  1.00  0.00     0.000 A 
HETATM   26  C28 UNL     1      -9.709  -2.924  -0.269  1.00  0.00     0.000 A 
HETATM   27  C29 UNL     1      -9.447  -2.498  -1.582  1.00  0.00     0.000 A 
HETATM   28  C30 UNL     1      -8.174  -2.014  -1.924  1.00  0.00     0.005 A 
ENDBRANCH  21  23
ENDBRANCH   2  20
BRANCH  16  29
HETATM   29  C19 UNL     1       5.285   1.147  -0.867  1.00  0.00     0.219 C 
HETATM   30  C20 UNL     1       6.018   2.279  -0.146  1.00  0.00     0.035 C 
BRANCH  29  31
HETATM   31  N1  UNL     1       6.233   0.274  -1.537  1.00  0.00     0.139 N 
HETATM   32  C21 UNL     1       6.734   0.902  -2.748  1.00  0.00     0.285 C 
HETATM   33  C22 UNL     1       7.330  -0.066  -0.648  1.00  0.00     0.285 C 
ENDBRANCH  29  31
ENDBRANCH  16  29
TORSDOF 4
