REMARK  4 active torsions:
REMARK  status: ('A' for Active; 'I' for Inactive)
REMARK    1  A    between atoms: C2_2  and  N2_25 
REMARK    2  A    between atoms: C16_16  and  C19_19 
REMARK    3  A    between atoms: C19_19  and  N1_21 
REMARK       I    between atoms: N2_25  and  C24_26 
REMARK    4  A    between atoms: C24_26  and  C25_28 
ROOT
HETATM    1  C1  UNL     1      -3.539   0.328  -1.000  1.00  0.00     0.024 C 
HETATM    2  C2  UNL     1      -3.520  -1.213  -0.889  1.00  0.00     0.107 C 
HETATM    3  C3  UNL     1      -2.447  -1.717   0.111  1.00  0.00     0.024 C 
HETATM    4  C4  UNL     1      -2.041  -0.621   1.113  1.00  0.00     0.002 C 
HETATM    5  C5  UNL     1      -1.373   0.590   0.391  1.00  0.00     0.000 C 
HETATM    6  C6  UNL     1      -2.119   0.908  -0.939  1.00  0.00     0.002 C 
HETATM    7  C7  UNL     1       0.127   0.301   0.072  1.00  0.00     0.000 C 
HETATM    8  C8  UNL     1       0.906  -0.213   1.303  1.00  0.00     0.000 C 
HETATM    9  C9  UNL     1       0.242  -1.465   1.893  1.00  0.00     0.000 C 
HETATM   10  C10 UNL     1      -1.203  -1.166   2.287  1.00  0.00     0.000 C 
HETATM   11  C11 UNL     1       2.393  -0.488   0.994  1.00  0.00     0.000 C 
HETATM   12  C12 UNL     1       3.090   0.691   0.303  1.00  0.00     0.002 C 
HETATM   13  C13 UNL     1       2.301   1.178  -0.930  1.00  0.00     0.000 C 
HETATM   14  C14 UNL     1       0.852   1.510  -0.551  1.00  0.00     0.000 C 
HETATM   15  C15 UNL     1       3.330   1.824   1.303  1.00  0.00     0.000 C 
HETATM   16  C16 UNL     1       4.428   0.033  -0.059  1.00  0.00     0.031 C 
HETATM   17  C17 UNL     1       4.035  -1.348  -0.588  1.00  0.00     0.002 C 
HETATM   18  C18 UNL     1       2.689  -1.668   0.063  1.00  0.00     0.000 C 
HETATM   19  C23 UNL     1      -1.477   1.807   1.326  1.00  0.00     0.000 C 
ENDROOT
BRANCH   2  20
HETATM   20  N2  UNL     1      -4.863  -1.721  -0.547  1.00  0.00    -0.236 NA
HETATM   21  C24 UNL     1      -5.820  -1.791  -1.518  1.00  0.00     0.274 C 
HETATM   22  O1  UNL     1      -5.570  -1.443  -2.648  1.00  0.00    -0.266 OA
BRANCH  21  23
HETATM   23  C25 UNL     1      -7.156  -2.295  -1.176  1.00  0.00     0.054 C 
HETATM   24  C26 UNL     1      -7.883  -1.705  -0.213  1.00  0.00    -0.039 C 
HETATM   25  C27 UNL     1      -7.459  -0.500   0.582  1.00  0.00     0.026 C 
HETATM   26  C28 UNL     1      -9.237  -2.277   0.119  1.00  0.00     0.026 C 
ENDBRANCH  21  23
ENDBRANCH   2  20
BRANCH  16  27
HETATM   27  C19 UNL     1       5.260   0.822  -1.064  1.00  0.00     0.219 C 
HETATM   28  C20 UNL     1       6.488   0.004  -1.463  1.00  0.00     0.035 C 
BRANCH  27  29
HETATM   29  N1  UNL     1       5.660   2.100  -0.504  1.00  0.00     0.139 N 
HETATM   30  C21 UNL     1       6.748   1.922   0.443  1.00  0.00     0.285 C 
HETATM   31  C22 UNL     1       6.049   3.019  -1.561  1.00  0.00     0.285 C 
ENDBRANCH  27  29
ENDBRANCH  16  27
TORSDOF 4
