REMARK  5 active torsions:
REMARK  status: ('A' for Active; 'I' for Inactive)
REMARK    1  A    between atoms: C1_1  and  O2_24 
REMARK    2  A    between atoms: C7_7  and  C10_11 
REMARK    3  A    between atoms: C10_11  and  C11_12 
REMARK    4  A    between atoms: C13_15  and  C18_20 
REMARK    5  A    between atoms: C14_16  and  C16_18 
ROOT
HETATM    1  C10 UNL     1      -0.520   0.174   0.611  1.00  0.00     0.206 C 
HETATM    2  O1  UNL     1      -0.725  -0.279   1.930  1.00  0.00    -0.216 OA
ENDROOT
BRANCH   1   3
HETATM    3  C7  UNL     1      -0.486   1.648   0.600  1.00  0.00     0.013 A 
HETATM    4  C5  UNL     1      -1.680   2.432   0.600  1.00  0.00     0.018 A 
HETATM    5  C4  UNL     1      -1.574   3.863   0.586  1.00  0.00     0.081 A 
HETATM    6  C6  UNL     1      -2.963   1.818   0.613  1.00  0.00     0.025 A 
HETATM    7  C3  UNL     1      -2.754   4.647   0.586  1.00  0.00     0.021 A 
HETATM    8  N1  UNL     1      -0.336   4.475   0.572  1.00  0.00    -0.244 NA
HETATM    9  C2  UNL     1      -4.025   4.027   0.600  1.00  0.00     0.026 A 
HETATM   10  C1  UNL     1      -4.129   2.617   0.613  1.00  0.00     0.094 A 
HETATM   11  C9  UNL     1       0.818   3.719   0.572  1.00  0.00     0.099 A 
HETATM   12  C8  UNL     1       0.771   2.305   0.586  1.00  0.00     0.019 A 
BRANCH  10  13
HETATM   13  O2  UNL     1      -5.336   2.037   0.627  1.00  0.00    -0.328 OA
HETATM   14  C21 UNL     1      -6.481   2.879   0.625  1.00  0.00     0.181 C 
ENDBRANCH  10  13
ENDBRANCH   1   3
BRANCH   1  15
HETATM   15  C11 UNL     1       0.797  -0.426   0.098  1.00  0.00     0.254 C 
HETATM   16  N2  UNL     1       1.633  -0.879   1.223  1.00  0.00     0.140 N 
HETATM   17  C12 UNL     1       2.906  -1.469   0.785  1.00  0.00     0.255 C 
HETATM   18  C20 UNL     1       1.869   0.178   2.201  1.00  0.00     0.285 C 
HETATM   19  C13 UNL     1       2.682  -2.668  -0.156  1.00  0.00     0.055 C 
HETATM   20  C14 UNL     1       1.803  -2.270  -1.358  1.00  0.00     0.008 C 
HETATM   21  C15 UNL     1       0.514  -1.594  -0.863  1.00  0.00     0.037 C 
BRANCH  19  22
HETATM   22  C18 UNL     1       4.004  -3.246  -0.604  1.00  0.00    -0.024 C 
HETATM   23  C19 UNL     1       4.291  -4.516  -0.274  1.00  0.00    -0.005 C 
ENDBRANCH  19  22
BRANCH  20  24
HETATM   24  C16 UNL     1       1.479  -3.469  -2.256  1.00  0.00     0.000 C 
HETATM   25  C17 UNL     1       0.801  -3.061  -3.563  1.00  0.00     0.000 C 
ENDBRANCH  20  24
ENDBRANCH   1  15
TORSDOF 5
