REMARK  8 active torsions:
REMARK  status: ('A' for Active; 'I' for Inactive)
REMARK    1  A    between atoms: C4_4  and  O2_8 
REMARK    2  A    between atoms: O2_8  and  C7_9 
REMARK    3  A    between atoms: C8_11  and  C18_30 
REMARK    4  A    between atoms: C11_14  and  O4_15 
REMARK    5  A    between atoms: O4_15  and  C12_16 
REMARK    6  A    between atoms: C13_18  and  C17_25 
REMARK    7  A    between atoms: C19_34  and  C22_38 
REMARK    8  A    between atoms: C25_41  and  O17_44 
ROOT
HETATM    1  C7  UNL     1      -1.963  -0.453  -0.143  1.00  0.00     0.271 C 
HETATM    2  O3  UNL     1      -2.440  -1.609  -0.832  1.00  0.00    -0.318 OA
HETATM    3  C8  UNL     1      -3.033  -1.393  -2.113  1.00  0.00     0.237 C 
HETATM    4  C9  UNL     1      -4.225  -0.402  -2.012  1.00  0.00     0.223 C 
HETATM    5  C10 UNL     1      -3.885   0.885  -1.223  1.00  0.00     0.217 C 
HETATM    6  C11 UNL     1      -3.092   0.584   0.070  1.00  0.00     0.207 C 
HETATM    7  O11 UNL     1      -3.098   1.727  -2.047  1.00  0.00    -0.218 OA
HETATM    8  O12 UNL     1      -5.315  -1.051  -1.383  1.00  0.00    -0.217 OA
ENDROOT
BRANCH   1   9
HETATM    9  O2  UNL     1      -0.877   0.148  -0.834  1.00  0.00    -0.304 OA
BRANCH   9  10
HETATM   10  C4  UNL     1       0.350  -0.355  -0.639  1.00  0.00     0.101 A 
HETATM   11  C3  UNL     1       1.488   0.424  -0.951  1.00  0.00     0.049 A 
HETATM   12  C2  UNL     1       2.785  -0.103  -0.746  1.00  0.00     0.107 A 
HETATM   13  C1  UNL     1       2.937  -1.418  -0.227  1.00  0.00     0.087 A 
HETATM   14  O15 UNL     1       3.871   0.643  -1.043  1.00  0.00    -0.307 OA
HETATM   15  C6  UNL     1       1.795  -2.199   0.086  1.00  0.00     0.138 A 
HETATM   16  C21 UNL     1       4.314  -1.947  -0.025  1.00  0.00     0.202 A 
HETATM   17  C5  UNL     1       0.502  -1.664  -0.121  1.00  0.00     0.052 A 
HETATM   18  O1  UNL     1       1.922  -3.441   0.578  1.00  0.00    -0.190 OA
HETATM   19  C20 UNL     1       5.406  -1.021  -0.393  1.00  0.00     0.067 A 
HETATM   20  O16 UNL     1       4.631  -3.035   0.400  1.00  0.00    -0.286 OA
HETATM   21  C19 UNL     1       5.139   0.213  -0.877  1.00  0.00     0.103 A 
BRANCH  21  22
HETATM   22  C22 UNL     1       6.281   1.109  -1.233  1.00  0.00     0.023 A 
HETATM   23  C23 UNL     1       7.525   0.949  -0.598  1.00  0.00     0.004 A 
HETATM   24  C24 UNL     1       8.600   1.793  -0.934  1.00  0.00     0.024 A 
HETATM   25  C25 UNL     1       8.434   2.799  -1.900  1.00  0.00     0.094 A 
HETATM   26  C26 UNL     1       7.188   2.957  -2.533  1.00  0.00     0.024 A 
HETATM   27  C27 UNL     1       6.111   2.115  -2.199  1.00  0.00     0.004 A 
BRANCH  25  28
HETATM   28  O17 UNL     1       9.440   3.590  -2.215  1.00  0.00    -0.328 OA
HETATM   29  C28 UNL     1       9.248   4.533  -3.258  1.00  0.00     0.181 C 
ENDBRANCH  25  28
ENDBRANCH  21  22
ENDBRANCH   9  10
ENDBRANCH   1   9
BRANCH   6  30
HETATM   30  O4  UNL     1      -3.983   0.104   1.062  1.00  0.00    -0.324 OA
BRANCH  30  31
HETATM   31  C12 UNL     1      -3.418   0.094   2.359  1.00  0.00     0.270 C 
HETATM   32  O5  UNL     1      -3.233  -1.229   2.873  1.00  0.00    -0.318 OA
HETATM   33  C13 UNL     1      -4.406  -1.975   3.205  1.00  0.00     0.237 C 
HETATM   34  C14 UNL     1      -5.291  -1.205   4.223  1.00  0.00     0.223 C 
HETATM   35  C15 UNL     1      -5.551   0.266   3.820  1.00  0.00     0.221 C 
HETATM   36  O8  UNL     1      -4.666  -1.230   5.494  1.00  0.00    -0.217 OA
HETATM   37  C16 UNL     1      -4.268   0.971   3.318  1.00  0.00     0.241 C 
HETATM   38  O7  UNL     1      -6.518   0.291   2.787  1.00  0.00    -0.218 OA
HETATM   39  O6  UNL     1      -3.471   1.320   4.437  1.00  0.00    -0.215 OA
BRANCH  33  40
HETATM   40  C17 UNL     1      -5.154  -2.400   1.965  1.00  0.00     0.217 C 
HETATM   41  O9  UNL     1      -4.402  -2.920   1.000  1.00  0.00    -0.646 OA
HETATM   42  O10 UNL     1      -6.354  -2.264   1.883  1.00  0.00    -0.646 OA
ENDBRANCH  33  40
ENDBRANCH  30  31
ENDBRANCH   6  30
BRANCH   3  43
HETATM   43  C18 UNL     1      -1.994  -0.975  -3.127  1.00  0.00     0.217 C 
HETATM   44  O13 UNL     1      -0.893  -1.717  -3.145  1.00  0.00    -0.646 OA
HETATM   45  O14 UNL     1      -2.182  -0.029  -3.856  1.00  0.00    -0.646 OA
ENDBRANCH   3  43
TORSDOF 8
