REMARK  1 active torsions:
REMARK  status: ('A' for Active; 'I' for Inactive)
REMARK    1  A    between atoms: C16_17  and  C25_26 
ROOT
HETATM    1  C1  UNL     1      -4.740  -1.178   2.371  1.00  0.00     0.033 C 
HETATM    2  C2  UNL     1      -5.229   0.277   2.346  1.00  0.00     0.152 C 
HETATM    3  C3  UNL     1      -4.879   0.996   1.022  1.00  0.00     0.028 C 
HETATM    4  C4  UNL     1      -3.348   0.867   0.766  1.00  0.00     0.002 C 
HETATM    5  C5  UNL     1      -2.807  -0.592   0.793  1.00  0.00     0.000 C 
HETATM    6  C6  UNL     1      -3.230  -1.256   2.123  1.00  0.00     0.003 C 
HETATM    7  C7  UNL     1      -1.246  -0.574   0.652  1.00  0.00     0.003 C 
HETATM    8  C8  UNL     1      -0.734   0.203  -0.607  1.00  0.00     0.002 C 
HETATM    9  C9  UNL     1      -1.379   1.611  -0.648  1.00  0.00     0.000 C 
HETATM   10  C10 UNL     1      -2.904   1.588  -0.520  1.00  0.00     0.000 C 
HETATM   11  C11 UNL     1       0.832   0.354  -0.576  1.00  0.00     0.025 C 
HETATM   12  C12 UNL     1       1.613  -0.959  -0.293  1.00  0.00     0.118 A 
HETATM   13  C13 UNL     1       0.852  -2.096   0.473  1.00  0.00     0.140 A 
HETATM   14  C14 UNL     1      -0.646  -2.000   0.764  1.00  0.00     0.032 C 
HETATM   15  O1  UNL     1       1.027  -2.066  -0.906  1.00  0.00    -0.357 OA
HETATM   16  C15 UNL     1       3.149  -1.055  -0.477  1.00  0.00     0.037 C 
HETATM   17  C16 UNL     1       3.594  -0.387  -1.809  1.00  0.00     0.081 C 
HETATM   18  C17 UNL     1       2.940   1.006  -1.934  1.00  0.00     0.010 C 
HETATM   19  C18 UNL     1       1.402   0.959  -1.883  1.00  0.00     0.003 C 
HETATM   20  C19 UNL     1       5.145  -0.291  -1.924  1.00  0.00     0.010 C 
HETATM   21  C20 UNL     1       5.908  -0.695  -0.652  1.00  0.00     0.001 C 
HETATM   22  C21 UNL     1       5.317  -0.051   0.606  1.00  0.00     0.000 C 
HETATM   23  C22 UNL     1       3.859  -0.529   0.803  1.00  0.00     0.003 C 
HETATM   24  C23 UNL     1       6.156  -0.439   1.830  1.00  0.00     0.000 C 
HETATM   25  C24 UNL     1       5.363   1.480   0.473  1.00  0.00     0.000 C 
HETATM   26  C26 UNL     1       1.232   1.250   0.606  1.00  0.00     0.002 C 
HETATM   27  C27 UNL     1      -1.172  -0.529  -1.889  1.00  0.00     0.000 C 
HETATM   28  C28 UNL     1      -3.424  -1.412  -0.353  1.00  0.00     0.000 C 
HETATM   29  C29 UNL     1      -5.254   2.482   1.150  1.00  0.00     0.003 C 
HETATM   30  C30 UNL     1      -5.680   0.412  -0.156  1.00  0.00     0.003 C 
HETATM   31  O4  UNL     1      -6.627   0.295   2.578  1.00  0.00    -0.224 OA
ENDROOT
BRANCH  17  32
HETATM   32  C25 UNL     1       3.113  -1.232  -2.971  1.00  0.00     0.184 C 
HETATM   33  O2  UNL     1       2.854  -0.563  -4.090  1.00  0.00    -0.647 OA
HETATM   34  O3  UNL     1       2.982  -2.430  -2.857  1.00  0.00    -0.647 OA
ENDBRANCH  17  32
TORSDOF 1
