REMARK  2 active torsions:
REMARK  status: ('A' for Active; 'I' for Inactive)
REMARK    1  A    between atoms: C9_11  and  C10_12 
REMARK    2  A    between atoms: C10_12  and  C11_13 
ROOT
HETATM    1  C1  UNL     1      -5.010  -0.749   0.500  1.00  0.00     0.037 C 
HETATM    2  C2  UNL     1      -5.342   0.502  -0.312  1.00  0.00     0.147 A 
HETATM    3  C3  UNL     1      -4.440   1.712  -0.195  1.00  0.00     0.169 A 
HETATM    4  C4  UNL     1      -3.029   1.126  -0.124  1.00  0.00     0.068 A 
HETATM    5  C5  UNL     1      -2.688  -0.162  -0.027  1.00  0.00     0.004 A 
HETATM    6  C6  UNL     1      -3.691  -1.313   0.020  1.00  0.00     0.031 C 
HETATM    7  C7  UNL     1      -1.180  -0.208  -0.060  1.00  0.00     0.095 A 
HETATM    8  O1  UNL     1      -0.718   1.082  -0.179  1.00  0.00    -0.274 OA
HETATM    9  C8  UNL     1      -1.812   1.902  -0.234  1.00  0.00     0.298 A 
HETATM   10  O2  UNL     1      -1.769   3.130  -0.364  1.00  0.00    -0.259 OA
HETATM   11  C9  UNL     1      -0.333  -1.252  -0.006  1.00  0.00    -0.002 C 
HETATM   12  O3  UNL     1      -5.589   1.468   0.685  1.00  0.00    -0.349 OA
ENDROOT
BRANCH  11  13
HETATM   13  C10 UNL     1      -0.703  -2.709   0.116  1.00  0.00     0.028 C 
BRANCH  13  14
HETATM   14  C11 UNL     1       0.581  -3.558   0.078  1.00  0.00     0.005 C 
HETATM   15  C12 UNL     1       0.218  -5.049   0.188  1.00  0.00     0.000 C 
ENDBRANCH  13  14
ENDBRANCH  11  13
TORSDOF 2
