REMARK  1 active torsions:
REMARK  status: ('A' for Active; 'I' for Inactive)
REMARK    1  A    between atoms: C10_10  and  C12_12 
ROOT
HETATM    1  C1  UNL     1      -0.994  -0.295   0.504  1.00  0.00     0.122 A 
HETATM    2  C2  UNL     1      -0.631  -1.803   0.512  1.00  0.00     0.166 A 
HETATM    3  C3  UNL     1      -1.746  -2.576  -0.176  1.00  0.00     0.037 C 
HETATM    4  C4  UNL     1      -2.408  -1.465  -1.008  1.00  0.00     0.005 C 
HETATM    5  C5  UNL     1      -2.324  -0.133  -0.234  1.00  0.00     0.028 C 
HETATM    6  C6  UNL     1      -3.522   0.059   0.697  1.00  0.00     0.003 C 
HETATM    7  C7  UNL     1       0.801  -2.264   0.664  1.00  0.00     0.177 C 
HETATM    8  C8  UNL     1       1.787  -1.738  -0.348  1.00  0.00     0.067 C 
HETATM    9  C9  UNL     1       2.230  -0.289  -0.090  1.00  0.00     0.012 C 
HETATM   10  C10 UNL     1       1.156   0.795  -0.346  1.00  0.00     0.021 C 
HETATM   11  C11 UNL     1       0.031   0.826   0.711  1.00  0.00     0.034 C 
HETATM   12  O1  UNL     1       1.141  -3.021   1.545  1.00  0.00    -0.293 OA
HETATM   13  O2  UNL     1      -1.092  -1.115   1.631  1.00  0.00    -0.352 OA
ENDROOT
BRANCH  10  14
HETATM   14  C12 UNL     1       1.824   2.149  -0.400  1.00  0.00    -0.044 C 
HETATM   15  C13 UNL     1       2.617   2.719   0.744  1.00  0.00     0.026 C 
HETATM   16  C14 UNL     1       1.705   2.877  -1.523  1.00  0.00    -0.009 C 
ENDBRANCH  10  14
TORSDOF 1
