REMARK  7 active torsions:
REMARK  status: ('A' for Active; 'I' for Inactive)
REMARK    1  A    between atoms: C5_5  and  O1_7 
REMARK    2  A    between atoms: O1_7  and  C7_8 
REMARK    3  A    between atoms: C9_10  and  C13_17 
REMARK    4  A    between atoms: C13_17  and  O5_18 
REMARK    5  A    between atoms: O5_18  and  C14_19 
REMARK    6  A    between atoms: C15_21  and  C19_28 
REMARK    7  A    between atoms: C22_33  and  C23_35 
ROOT
HETATM    1  C7  UNL     1      -2.719   2.455  -0.838  1.00  0.00     0.154 C 
HETATM    2  C8  UNL     1      -1.246   2.420  -0.406  1.00  0.00     0.038 C 
HETATM    3  C9  UNL     1      -0.488   3.684  -0.842  1.00  0.00     0.065 C 
HETATM    4  C10 UNL     1      -1.193   4.955  -0.318  1.00  0.00     0.187 C 
HETATM    5  C11 UNL     1      -2.689   5.006  -0.721  1.00  0.00     0.215 C 
HETATM    6  C12 UNL     1      -3.432   3.713  -0.307  1.00  0.00     0.212 C 
HETATM    7  O2  UNL     1      -4.756   3.727  -0.813  1.00  0.00    -0.218 OA
HETATM    8  O3  UNL     1      -3.309   6.121  -0.096  1.00  0.00    -0.218 OA
HETATM    9  O4  UNL     1      -0.521   6.094  -0.834  1.00  0.00    -0.221 OA
ENDROOT
BRANCH   1  10
HETATM   10  O1  UNL     1      -3.369   1.289  -0.350  1.00  0.00    -0.331 OA
BRANCH  10  11
HETATM   11  C5  UNL     1      -2.871   0.096  -0.701  1.00  0.00     0.098 A 
HETATM   12  C4  UNL     1      -2.295  -0.080  -1.983  1.00  0.00     0.052 A 
HETATM   13  C3  UNL     1      -1.766  -1.338  -2.358  1.00  0.00     0.138 A 
HETATM   14  C2  UNL     1      -1.818  -2.422  -1.443  1.00  0.00     0.089 A 
HETATM   15  O11 UNL     1      -1.223  -1.486  -3.576  1.00  0.00    -0.190 OA
HETATM   16  C1  UNL     1      -2.396  -2.248  -0.160  1.00  0.00     0.107 A 
HETATM   17  C20 UNL     1      -1.273  -3.760  -1.801  1.00  0.00     0.227 A 
HETATM   18  C6  UNL     1      -2.922  -0.986   0.207  1.00  0.00     0.049 A 
HETATM   19  O12 UNL     1      -2.447  -3.281   0.707  1.00  0.00    -0.305 OA
HETATM   20  C22 UNL     1      -1.973  -4.514   0.434  1.00  0.00     0.128 A 
HETATM   21  C21 UNL     1      -1.395  -4.807  -0.758  1.00  0.00     0.192 A 
HETATM   22  O14 UNL     1      -0.926  -6.029  -1.018  1.00  0.00    -0.185 OA
HETATM   23  O15 UNL     1      -0.748  -4.078  -2.844  1.00  0.00    -0.284 OA
BRANCH  20  24
HETATM   24  C23 UNL     1      -2.086  -5.578   1.473  1.00  0.00     0.025 A 
HETATM   25  C24 UNL     1      -1.648  -5.332   2.787  1.00  0.00     0.004 A 
HETATM   26  C25 UNL     1      -1.758  -6.334   3.764  1.00  0.00     0.028 A 
HETATM   27  C26 UNL     1      -2.305  -7.588   3.436  1.00  0.00     0.131 A 
HETATM   28  C27 UNL     1      -2.742  -7.832   2.121  1.00  0.00     0.028 A 
HETATM   29  O13 UNL     1      -2.406  -8.528   4.354  1.00  0.00    -0.190 OA
HETATM   30  C28 UNL     1      -2.635  -6.830   1.143  1.00  0.00     0.004 A 
ENDBRANCH  20  24
ENDBRANCH  10  11
ENDBRANCH   1  10
BRANCH   3  31
HETATM   31  C13 UNL     1       0.977   3.607  -0.389  1.00  0.00     0.148 C 
BRANCH  31  32
HETATM   32  O5  UNL     1       1.588   2.527  -1.053  1.00  0.00    -0.329 OA
BRANCH  32  33
HETATM   33  C14 UNL     1       2.977   2.432  -0.801  1.00  0.00     0.270 C 
HETATM   34  O6  UNL     1       3.162   2.074   0.561  1.00  0.00    -0.326 OA
HETATM   35  C15 UNL     1       4.516   1.988   0.982  1.00  0.00     0.184 C 
HETATM   36  C16 UNL     1       5.234   0.887   0.170  1.00  0.00     0.215 C 
HETATM   37  C17 UNL     1       5.104   1.133  -1.350  1.00  0.00     0.220 C 
HETATM   38  O9  UNL     1       6.604   0.871   0.539  1.00  0.00    -0.218 OA
HETATM   39  C18 UNL     1       3.621   1.361  -1.721  1.00  0.00     0.241 C 
HETATM   40  O8  UNL     1       5.613   0.017  -2.063  1.00  0.00    -0.218 OA
HETATM   41  O7  UNL     1       3.537   1.791  -3.070  1.00  0.00    -0.215 OA
BRANCH  35  42
HETATM   42  C19 UNL     1       4.494   1.701   2.486  1.00  0.00     0.214 C 
HETATM   43  O10 UNL     1       3.969   2.834   3.143  1.00  0.00    -0.218 OA
ENDBRANCH  35  42
ENDBRANCH  32  33
ENDBRANCH  31  32
ENDBRANCH   3  31
TORSDOF 7
