REMARK  1 active torsions:
REMARK  status: ('A' for Active; 'I' for Inactive)
REMARK    1  A    between atoms: C1_1  and  C13_13 
ROOT
HETATM    1  C1  UNL     1       1.574   0.789   0.059  1.00  0.00     0.019 C 
HETATM    2  C2  UNL     1       2.135  -0.471  -0.629  1.00  0.00     0.008 C 
HETATM    3  C3  UNL     1       1.545  -1.760  -0.039  1.00  0.00     0.022 C 
HETATM    4  C4  UNL     1       0.035  -1.670  -0.027  1.00  0.00    -0.049 C 
HETATM    5  C5  UNL     1      -0.563  -0.494   0.740  1.00  0.00     0.015 C 
HETATM    6  C6  UNL     1       0.027   0.783   0.086  1.00  0.00     0.008 C 
HETATM    7  C7  UNL     1      -2.119  -0.494   0.740  1.00  0.00     0.004 C 
HETATM    8  C8  UNL     1      -2.699  -1.043  -0.568  1.00  0.00     0.005 C 
HETATM    9  C9  UNL     1      -2.211  -2.478  -0.785  1.00  0.00     0.025 C 
HETATM   10  C10 UNL     1      -0.709  -2.576  -0.701  1.00  0.00    -0.034 C 
HETATM   11  C11 UNL     1      -2.727   0.871   1.092  1.00  0.00     0.000 C 
HETATM   12  C12 UNL     1      -0.092  -0.572   2.201  1.00  0.00     0.004 C 
ENDROOT
BRANCH   1  13
HETATM   13  C13 UNL     1       2.100   2.043  -0.598  1.00  0.00    -0.044 C 
HETATM   14  C14 UNL     1       1.748   2.442  -2.004  1.00  0.00     0.026 C 
HETATM   15  C15 UNL     1       2.922   2.838   0.107  1.00  0.00    -0.009 C 
ENDBRANCH   1  13
TORSDOF 1
