REMARK  5 active torsions:
REMARK  status: ('A' for Active; 'I' for Inactive)
REMARK    1  A    between atoms: C13_14  and  C16_18 
REMARK       I    between atoms: C16_18  and  N3_19 
REMARK    2  A    between atoms: N3_19  and  C17_20 
REMARK    3  A    between atoms: C17_20  and  C33_42 
REMARK    4  A    between atoms: C25_32  and  C26_33 
REMARK    5  A    between atoms: C26_33  and  C27_34 
ROOT
HETATM    1  C17 UNL     1       2.047  -1.771   1.611  1.00  0.00     0.254 C 
HETATM    2  C18 UNL     1       2.414  -0.307   1.557  1.00  0.00     0.284 C 
HETATM    3  O1  UNL     1       3.475   0.195   1.268  1.00  0.00    -0.267 OA
HETATM    4  N4  UNL     1       1.266   0.395   1.934  1.00  0.00    -0.265 N 
HETATM    5  C19 UNL     1       0.162  -0.506   2.209  1.00  0.00     0.316 C 
HETATM    6  O2  UNL     1       0.809  -1.766   2.318  1.00  0.00    -0.290 OA
HETATM    7  C20 UNL     1      -0.527  -0.096   3.522  1.00  0.00     0.160 C 
HETATM    8  C21 UNL     1      -1.834  -0.801   3.908  1.00  0.00     0.032 C 
HETATM    9  C22 UNL     1      -2.496   0.223   4.852  1.00  0.00     0.026 C 
HETATM   10  C23 UNL     1      -2.113   1.584   4.260  1.00  0.00     0.104 C 
HETATM   11  N5  UNL     1      -0.887   1.317   3.533  1.00  0.00    -0.314 N 
HETATM   12  C24 UNL     1      -0.113   2.309   2.869  1.00  0.00     0.255 C 
HETATM   13  C25 UNL     1       1.133   1.854   2.100  1.00  0.00     0.171 C 
HETATM   14  O3  UNL     1      -0.443   3.471   2.908  1.00  0.00    -0.270 OA
HETATM   15  O4  UNL     1      -0.742  -0.502   1.115  1.00  0.00    -0.170 OA
ENDROOT
BRANCH   1  16
HETATM   16  N3  UNL     1       1.852  -2.332   0.260  1.00  0.00    -0.205 NA
HETATM   17  C16 UNL     1       1.686  -1.484  -0.799  1.00  0.00     0.259 C 
HETATM   18  O5  UNL     1       1.697  -0.289  -0.633  1.00  0.00    -0.270 OA
BRANCH  17  19
HETATM   19  C13 UNL     1       1.486  -2.076  -2.174  1.00  0.00     0.136 C 
HETATM   20  C12 UNL     1       0.057  -2.555  -2.289  1.00  0.00    -0.018 C 
HETATM   21  C5  UNL     1      -0.854  -1.922  -3.064  1.00  0.00     0.005 C 
HETATM   22  C4  UNL     1      -0.449  -0.705  -3.918  1.00  0.00     0.246 C 
HETATM   23  C6  UNL     1      -2.285  -2.371  -3.148  1.00  0.00    -0.001 A 
HETATM   24  C3  UNL     1      -1.572   0.367  -4.061  1.00  0.00     0.066 C 
HETATM   25  N2  UNL     1       0.809  -0.084  -3.455  1.00  0.00     0.142 N 
HETATM   26  C2  UNL     1      -2.945  -0.277  -4.182  1.00  0.00     0.001 A 
HETATM   27  C1  UNL     1      -3.234  -1.510  -3.740  1.00  0.00     0.015 A 
HETATM   28  C11 UNL     1      -4.151   0.221  -4.717  1.00  0.00     0.095 A 
HETATM   29  C10 UNL     1      -4.541  -1.857  -3.912  1.00  0.00     0.081 A 
HETATM   30  C9  UNL     1      -5.026  -3.109  -3.463  1.00  0.00     0.019 A 
HETATM   31  N1  UNL     1      -5.147  -0.779  -4.545  1.00  0.00    -0.244 NA
HETATM   32  C8  UNL     1      -4.113  -3.994  -2.826  1.00  0.00     0.002 A 
HETATM   33  C7  UNL     1      -2.744  -3.633  -2.666  1.00  0.00    -0.000 A 
HETATM   34  C14 UNL     1       1.869  -1.078  -3.277  1.00  0.00     0.264 C 
HETATM   35  C15 UNL     1       1.256   0.994  -4.332  1.00  0.00     0.286 C 
ENDBRANCH  17  19
ENDBRANCH   1  16
BRANCH   1  36
HETATM   36  C33 UNL     1       3.037  -2.600   2.418  1.00  0.00     0.056 C 
HETATM   37  C34 UNL     1       2.504  -4.025   2.572  1.00  0.00     0.005 C 
HETATM   38  C35 UNL     1       3.295  -1.918   3.764  1.00  0.00     0.005 C 
ENDBRANCH   1  36
BRANCH  13  39
HETATM   39  C26 UNL     1       1.189   2.543   0.732  1.00  0.00     0.059 C 
BRANCH  39  40
HETATM   40  C27 UNL     1       1.365   4.014   0.869  1.00  0.00    -0.020 A 
HETATM   41  C28 UNL     1       0.334   4.885   0.475  1.00  0.00    -0.004 A 
HETATM   42  C29 UNL     1       0.498   6.274   0.604  1.00  0.00    -0.000 A 
HETATM   43  C30 UNL     1       1.695   6.795   1.127  1.00  0.00    -0.000 A 
HETATM   44  C31 UNL     1       2.725   5.924   1.522  1.00  0.00    -0.000 A 
HETATM   45  C32 UNL     1       2.561   4.535   1.395  1.00  0.00    -0.004 A 
ENDBRANCH  39  40
ENDBRANCH  13  39
TORSDOF 5
