REMARK  3 active torsions:
REMARK  status: ('A' for Active; 'I' for Inactive)
REMARK    1  A    between atoms: C13_14  and  C16_18 
REMARK       I    between atoms: C16_18  and  N3_20 
REMARK    2  A    between atoms: N3_20  and  C17_21 
REMARK    3  A    between atoms: C19_24  and  C21_28 
ROOT
HETATM    1  C1  UNL     1       3.914   2.031  -0.016  1.00  0.00     0.015 A 
HETATM    2  C2  UNL     1       3.820   3.367  -0.049  1.00  0.00     0.001 A 
HETATM    3  C3  UNL     1       2.518   4.144  -0.055  1.00  0.00     0.054 C 
HETATM    4  C4  UNL     1       1.269   3.277   0.314  1.00  0.00     0.104 C 
HETATM    5  C5  UNL     1       1.430   1.754   0.193  1.00  0.00    -0.006 C 
HETATM    6  C6  UNL     1       2.807   1.164   0.068  1.00  0.00    -0.001 A 
HETATM    7  C7  UNL     1       3.059  -0.240   0.047  1.00  0.00    -0.000 A 
HETATM    8  C8  UNL     1       4.400  -0.719  -0.027  1.00  0.00     0.002 A 
HETATM    9  C9  UNL     1       5.488   0.193  -0.080  1.00  0.00     0.019 A 
HETATM   10  C10 UNL     1       5.203   1.578  -0.070  1.00  0.00     0.081 A 
HETATM   11  N1  UNL     1       6.010   2.705  -0.113  1.00  0.00    -0.244 NA
HETATM   12  C11 UNL     1       5.148   3.836  -0.100  1.00  0.00     0.095 A 
HETATM   13  C12 UNL     1       0.309   0.998   0.232  1.00  0.00    -0.018 C 
HETATM   14  C13 UNL     1      -1.025   1.687   0.381  1.00  0.00     0.124 C 
HETATM   15  C14 UNL     1      -1.088   2.906  -0.559  1.00  0.00     0.111 C 
HETATM   16  N2  UNL     1       0.094   3.783  -0.437  1.00  0.00    -0.364 N 
HETATM   17  C15 UNL     1      -0.250   5.164  -0.105  1.00  0.00     0.121 C 
ENDROOT
BRANCH  14  18
HETATM   18  C16 UNL     1      -2.154   0.723   0.115  1.00  0.00     0.259 C 
HETATM   19  O1  UNL     1      -2.852   0.834  -0.865  1.00  0.00    -0.270 OA
HETATM   20  N3  UNL     1      -2.375  -0.287   1.008  1.00  0.00    -0.205 NA
BRANCH  20  21
HETATM   21  C17 UNL     1      -3.475  -1.240   0.764  1.00  0.00     0.260 C 
HETATM   22  C18 UNL     1      -3.365  -2.445   1.684  1.00  0.00     0.299 C 
HETATM   23  N4  UNL     1      -2.537  -3.475   1.318  1.00  0.00    -0.226 NA
HETATM   24  O4  UNL     1      -3.990  -2.510   2.717  1.00  0.00    -0.266 OA
HETATM   25  C19 UNL     1      -1.774  -3.385   0.055  1.00  0.00     0.192 C 
HETATM   26  C20 UNL     1      -2.531  -2.580  -0.986  1.00  0.00     0.296 C 
HETATM   27  O2  UNL     1      -3.406  -1.625  -0.619  1.00  0.00    -0.274 OA
HETATM   28  O3  UNL     1      -2.338  -2.822  -2.156  1.00  0.00    -0.262 OA
HETATM   29  C24 UNL     1      -4.807  -0.512   0.965  1.00  0.00     0.066 C 
BRANCH  25  30
HETATM   30  C21 UNL     1      -1.424  -4.791  -0.445  1.00  0.00     0.032 C 
HETATM   31  C22 UNL     1      -2.643  -5.555  -0.967  1.00  0.00     0.003 C 
HETATM   32  C23 UNL     1      -0.258  -4.793  -1.436  1.00  0.00     0.003 C 
ENDBRANCH  25  30
ENDBRANCH  20  21
ENDBRANCH  14  18
TORSDOF 3
