REMARK  4 active torsions:
REMARK  status: ('A' for Active; 'I' for Inactive)
REMARK    1  A    between atoms: C13_14  and  C16_18 
REMARK       I    between atoms: C16_18  and  N3_19 
REMARK    2  A    between atoms: N3_19  and  C17_20 
REMARK    3  A    between atoms: C25_32  and  C26_33 
REMARK    4  A    between atoms: C26_33  and  C27_34 
ROOT
HETATM    1  C17 UNL     1       0.869  -1.889   2.178  1.00  0.00     0.255 C 
HETATM    2  C18 UNL     1       2.068  -0.973   2.238  1.00  0.00     0.284 C 
HETATM    3  O1  UNL     1       3.240  -1.266   2.270  1.00  0.00    -0.267 OA
HETATM    4  N4  UNL     1       1.562   0.328   2.268  1.00  0.00    -0.265 N 
HETATM    5  C19 UNL     1       0.113   0.334   2.205  1.00  0.00     0.316 C 
HETATM    6  O2  UNL     1      -0.215  -1.018   2.494  1.00  0.00    -0.290 OA
HETATM    7  C20 UNL     1      -0.447   1.301   3.264  1.00  0.00     0.160 C 
HETATM    8  C21 UNL     1      -1.951   1.600   3.252  1.00  0.00     0.032 C 
HETATM    9  C22 UNL     1      -2.026   2.965   3.967  1.00  0.00     0.026 C 
HETATM   10  C23 UNL     1      -0.754   3.693   3.516  1.00  0.00     0.104 C 
HETATM   11  N5  UNL     1       0.162   2.621   3.176  1.00  0.00    -0.314 N 
HETATM   12  C24 UNL     1       1.510   2.816   2.766  1.00  0.00     0.254 C 
HETATM   13  C25 UNL     1       2.336   1.576   2.391  1.00  0.00     0.167 C 
HETATM   14  O3  UNL     1       1.980   3.930   2.713  1.00  0.00    -0.270 OA
HETATM   15  O4  UNL     1      -0.311   0.682   0.898  1.00  0.00    -0.170 OA
HETATM   16  C30 UNL     1       0.906  -2.984   3.234  1.00  0.00     0.066 C 
ENDROOT
BRANCH   1  17
HETATM   17  N3  UNL     1       0.682  -2.451   0.826  1.00  0.00    -0.205 NA
HETATM   18  C16 UNL     1       1.092  -1.734  -0.262  1.00  0.00     0.259 C 
HETATM   19  O5  UNL     1       1.601  -0.647  -0.119  1.00  0.00    -0.270 OA
BRANCH  18  20
HETATM   20  C13 UNL     1       0.892  -2.324  -1.637  1.00  0.00     0.136 C 
HETATM   21  C12 UNL     1      -0.537  -2.803  -1.750  1.00  0.00    -0.018 C 
HETATM   22  C5  UNL     1      -1.447  -2.170  -2.527  1.00  0.00     0.005 C 
HETATM   23  C4  UNL     1      -1.043  -0.953  -3.379  1.00  0.00     0.246 C 
HETATM   24  C6  UNL     1      -2.881  -2.619  -2.609  1.00  0.00    -0.001 A 
HETATM   25  C3  UNL     1      -2.166   0.119  -3.522  1.00  0.00     0.066 C 
HETATM   26  N2  UNL     1       0.215  -0.332  -2.916  1.00  0.00     0.142 N 
HETATM   27  C2  UNL     1      -3.539  -0.525  -3.645  1.00  0.00     0.001 A 
HETATM   28  C1  UNL     1      -3.828  -1.758  -3.203  1.00  0.00     0.015 A 
HETATM   29  C11 UNL     1      -4.744  -0.029  -4.180  1.00  0.00     0.095 A 
HETATM   30  C10 UNL     1      -5.135  -2.106  -3.373  1.00  0.00     0.081 A 
HETATM   31  C9  UNL     1      -5.619  -3.357  -2.926  1.00  0.00     0.019 A 
HETATM   32  N1  UNL     1      -5.740  -1.029  -4.006  1.00  0.00    -0.244 NA
HETATM   33  C8  UNL     1      -4.707  -4.242  -2.289  1.00  0.00     0.002 A 
HETATM   34  C7  UNL     1      -3.338  -3.881  -2.127  1.00  0.00    -0.000 A 
HETATM   35  C14 UNL     1       1.275  -1.326  -2.740  1.00  0.00     0.264 C 
HETATM   36  C15 UNL     1       0.662   0.746  -3.795  1.00  0.00     0.286 C 
ENDBRANCH  18  20
ENDBRANCH   1  17
BRANCH  13  37
HETATM   37  C26 UNL     1       3.121   1.838   1.104  1.00  0.00     0.032 C 
BRANCH  37  38
HETATM   38  C27 UNL     1       4.596   2.145   1.363  1.00  0.00     0.002 C 
HETATM   39  C28 UNL     1       5.430   2.164   0.080  1.00  0.00     0.000 C 
HETATM   40  C29 UNL     1       4.797   3.397   2.217  1.00  0.00     0.000 C 
ENDBRANCH  37  38
ENDBRANCH  13  37
TORSDOF 4
