REMARK  1 active torsions:
REMARK  status: ('A' for Active; 'I' for Inactive)
REMARK    1  A    between atoms: C20_27  and  C23_30 
ROOT
HETATM    1  C1  UNL     1      -5.555   1.873   1.871  1.00  0.00     0.068 C 
HETATM    2  C2  UNL     1      -6.217   1.623   0.502  1.00  0.00     0.121 C 
HETATM    3  O1  UNL     1      -5.438   0.690  -0.232  1.00  0.00    -0.330 OA
HETATM    4  C3  UNL     1      -5.297  -0.603   0.361  1.00  0.00     0.294 C 
HETATM    5  C4  UNL     1      -4.676  -0.512   1.797  1.00  0.00     0.300 C 
HETATM    6  C5  UNL     1      -5.385   0.568   2.666  1.00  0.00     0.213 C 
HETATM    7  O2  UNL     1      -6.682   0.143   3.063  1.00  0.00    -0.218 OA
HETATM    8  O3  UNL     1      -3.291  -0.156   1.693  1.00  0.00    -0.327 OA
HETATM    9  C6  UNL     1      -2.520  -1.012   0.852  1.00  0.00     0.145 C 
HETATM   10  C7  UNL     1      -3.129  -1.025  -0.559  1.00  0.00     0.145 C 
HETATM   11  O4  UNL     1      -4.492  -1.428  -0.480  1.00  0.00    -0.327 OA
HETATM   12  C8  UNL     1      -2.340  -1.982  -1.455  1.00  0.00     0.032 C 
HETATM   13  C9  UNL     1      -0.850  -1.588  -1.523  1.00  0.00     0.005 C 
HETATM   14  C10 UNL     1      -0.180  -1.443  -0.121  1.00  0.00     0.008 C 
HETATM   15  C11 UNL     1      -1.057  -0.543   0.795  1.00  0.00     0.032 C 
HETATM   16  C12 UNL     1       1.244  -0.805  -0.283  1.00  0.00     0.068 C 
HETATM   17  C13 UNL     1       2.068  -1.336  -1.475  1.00  0.00     0.146 A 
HETATM   18  C14 UNL     1       1.377  -2.230  -2.561  1.00  0.00     0.142 A 
HETATM   19  C15 UNL     1      -0.102  -2.582  -2.438  1.00  0.00     0.032 C 
HETATM   20  O5  UNL     1       2.098  -2.734  -1.475  1.00  0.00    -0.354 OA
HETATM   21  C16 UNL     1       3.426  -0.654  -1.805  1.00  0.00     0.158 C 
HETATM   22  C17 UNL     1       4.139  -0.100  -0.529  1.00  0.00     0.086 C 
HETATM   23  C18 UNL     1       3.641  -0.740   0.756  1.00  0.00     0.183 C 
HETATM   24  C19 UNL     1       2.148  -0.861   0.986  1.00  0.00     0.211 C 
HETATM   25  O6  UNL     1       1.773   0.166   1.883  1.00  0.00    -0.215 OA
HETATM   26  O7  UNL     1       4.416  -1.160   1.588  1.00  0.00    -0.293 OA
HETATM   27  C20 UNL     1       3.822   1.408  -0.582  1.00  0.00     0.030 C 
HETATM   28  C21 UNL     1       3.943   1.713  -2.072  1.00  0.00     0.007 C 
HETATM   29  C22 UNL     1       3.113   0.586  -2.668  1.00  0.00     0.034 C 
HETATM   30  C27 UNL     1       5.674  -0.223  -0.611  1.00  0.00     0.010 C 
HETATM   31  O10 UNL     1       4.289  -1.506  -2.555  1.00  0.00    -0.223 OA
HETATM   32  C28 UNL     1      -0.090  -2.834   0.531  1.00  0.00     0.000 C 
HETATM   33  O11 UNL     1      -4.783  -1.773   2.445  1.00  0.00    -0.187 OA
HETATM   34  C29 UNL     1      -6.303   2.897  -0.338  1.00  0.00     0.032 C 
ENDROOT
BRANCH  27  35
HETATM   35  C23 UNL     1       4.691   2.295   0.279  1.00  0.00    -0.009 A 
HETATM   36  C24 UNL     1       5.498   3.264  -0.150  1.00  0.00     0.062 A 
HETATM   37  C25 UNL     1       6.131   3.844   1.023  1.00  0.00     0.296 A 
HETATM   38  O8  UNL     1       5.711   3.233   2.141  1.00  0.00    -0.294 OA
HETATM   39  O9  UNL     1       6.926   4.754   0.971  1.00  0.00    -0.259 OA
HETATM   40  C26 UNL     1       4.771   2.205   1.779  1.00  0.00     0.175 A 
ENDBRANCH  27  35
TORSDOF 1
