REMARK  2 active torsions:
REMARK  status: ('A' for Active; 'I' for Inactive)
REMARK    1  A    between atoms: C2_2  and  O2_11 
REMARK    2  A    between atoms: O2_11  and  C9_12 
ROOT
HETATM    1  C1  UNL     1       0.396  -0.988  -0.385  1.00  0.00     0.068 C 
HETATM    2  C2  UNL     1       0.160   0.506  -0.662  1.00  0.00     0.158 C 
HETATM    3  C3  UNL     1      -0.691   0.965   0.531  1.00  0.00     0.247 C 
HETATM    4  C4  UNL     1      -2.195   0.840   0.213  1.00  0.00     0.038 C 
HETATM    5  C5  UNL     1      -2.541  -0.600  -0.219  1.00  0.00     0.037 C 
HETATM    6  C6  UNL     1      -1.844  -1.643   0.680  1.00  0.00     0.183 C 
HETATM    7  C7  UNL     1      -0.371  -1.244   0.922  1.00  0.00     0.252 C 
HETATM    8  N1  UNL     1      -0.373   0.041   1.615  1.00  0.00     0.140 N 
HETATM    9  C8  UNL     1       0.908   0.342   2.254  1.00  0.00     0.285 C 
HETATM   10  O1  UNL     1      -1.914  -2.920   0.076  1.00  0.00    -0.221 OA
ENDROOT
BRANCH   2  11
HETATM   11  O2  UNL     1       1.402   1.199  -0.662  1.00  0.00    -0.302 OA
BRANCH  11  12
HETATM   12  C9  UNL     1       2.139   0.916  -1.735  1.00  0.00     0.272 C 
HETATM   13  C10 UNL     1       3.473   1.611  -1.795  1.00  0.00     0.106 C 
HETATM   14  O3  UNL     1       1.791   0.160  -2.610  1.00  0.00    -0.264 OA
ENDBRANCH  11  12
ENDBRANCH   2  11
TORSDOF 2
