REMARK  7 active torsions:
REMARK  status: ('A' for Active; 'I' for Inactive)
REMARK    1  A    between atoms: C2_2  and  O5_28 
REMARK    2  A    between atoms: C5_5  and  C23_26 
REMARK    3  A    between atoms: C15_15  and  C18_18 
REMARK    4  A    between atoms: O5_28  and  C24_29 
REMARK    5  A    between atoms: C26_32  and  O9_37 
REMARK    6  A    between atoms: O9_37  and  C29_38 
REMARK    7  A    between atoms: C30_40  and  C34_47 
ROOT
HETATM    1  C1  UNL     1       0.490   2.893  -1.805  1.00  0.00     0.030 C 
HETATM    2  C2  UNL     1       1.291   2.320  -0.615  1.00  0.00     0.118 C 
HETATM    3  C3  UNL     1       0.557   2.516   0.719  1.00  0.00     0.030 C 
HETATM    4  C4  UNL     1      -0.863   1.895   0.742  1.00  0.00     0.005 C 
HETATM    5  C5  UNL     1      -1.639   2.033  -0.613  1.00  0.00     0.031 C 
HETATM    6  C6  UNL     1      -0.994   3.149  -1.473  1.00  0.00     0.005 C 
HETATM    7  C7  UNL     1      -3.154   2.352  -0.387  1.00  0.00     0.005 C 
HETATM    8  C8  UNL     1      -3.756   1.514   0.770  1.00  0.00     0.028 C 
HETATM    9  C9  UNL     1      -3.010   1.758   2.105  1.00  0.00     0.002 C 
HETATM   10  C10 UNL     1      -1.652   2.453   1.934  1.00  0.00     0.000 C 
HETATM   11  C11 UNL     1      -5.289   1.699   0.941  1.00  0.00     0.127 C 
HETATM   12  C12 UNL     1      -6.092   1.608  -0.381  1.00  0.00     0.032 C 
HETATM   13  C13 UNL     1      -5.473   2.537  -1.443  1.00  0.00     0.003 C 
HETATM   14  C14 UNL     1      -3.998   2.199  -1.672  1.00  0.00     0.000 C 
HETATM   15  C15 UNL     1      -7.484   2.172  -0.025  1.00  0.00     0.048 C 
HETATM   16  C16 UNL     1      -7.178   3.275   0.998  1.00  0.00     0.009 C 
HETATM   17  C17 UNL     1      -5.736   3.072   1.469  1.00  0.00     0.031 C 
HETATM   18  C22 UNL     1      -6.172   0.176  -0.926  1.00  0.00     0.003 C 
HETATM   19  O3  UNL     1      -5.744   0.711   1.855  1.00  0.00    -0.226 OA
ENDROOT
BRANCH   2  20
HETATM   20  O5  UNL     1       1.531   0.940  -0.811  1.00  0.00    -0.332 OA
BRANCH  20  21
HETATM   21  C24 UNL     1       2.660   0.463  -0.104  1.00  0.00     0.270 C 
HETATM   22  O6  UNL     1       3.832   0.949  -0.752  1.00  0.00    -0.329 OA
HETATM   23  C25 UNL     1       5.065   0.572  -0.148  1.00  0.00     0.148 C 
HETATM   24  C26 UNL     1       5.180  -0.971  -0.147  1.00  0.00     0.178 C 
HETATM   25  C35 UNL     1       6.178   1.252  -0.955  1.00  0.00     0.035 C 
HETATM   26  C27 UNL     1       3.973  -1.637   0.553  1.00  0.00     0.217 C 
HETATM   27  C28 UNL     1       2.676  -1.090  -0.088  1.00  0.00     0.241 C 
HETATM   28  O8  UNL     1       3.994  -1.346   1.945  1.00  0.00    -0.218 OA
HETATM   29  O7  UNL     1       1.533  -1.600   0.582  1.00  0.00    -0.215 OA
BRANCH  24  30
HETATM   30  O9  UNL     1       6.399  -1.369   0.455  1.00  0.00    -0.326 OA
BRANCH  30  31
HETATM   31  C29 UNL     1       6.965  -2.518  -0.141  1.00  0.00     0.270 C 
HETATM   32  O10 UNL     1       6.149  -3.637   0.178  1.00  0.00    -0.326 OA
HETATM   33  C30 UNL     1       6.563  -4.867  -0.398  1.00  0.00     0.184 C 
HETATM   34  C31 UNL     1       7.971  -5.230   0.125  1.00  0.00     0.215 C 
HETATM   35  C32 UNL     1       8.979  -4.088  -0.135  1.00  0.00     0.220 C 
HETATM   36  O13 UNL     1       8.406  -6.410  -0.525  1.00  0.00    -0.218 OA
HETATM   37  C33 UNL     1       8.404  -2.750   0.387  1.00  0.00     0.241 C 
HETATM   38  O12 UNL     1      10.205  -4.371   0.518  1.00  0.00    -0.218 OA
HETATM   39  O11 UNL     1       9.238  -1.684  -0.039  1.00  0.00    -0.215 OA
BRANCH  33  40
HETATM   40  C34 UNL     1       5.502  -5.908  -0.023  1.00  0.00     0.214 C 
HETATM   41  O14 UNL     1       4.307  -5.582  -0.699  1.00  0.00    -0.218 OA
ENDBRANCH  33  40
ENDBRANCH  30  31
ENDBRANCH  24  30
ENDBRANCH  20  21
ENDBRANCH   2  20
BRANCH   5  42
HETATM   42  C23 UNL     1      -1.514   0.703  -1.379  1.00  0.00     0.182 C 
HETATM   43  O4  UNL     1      -1.652   0.973  -2.756  1.00  0.00    -0.221 OA
ENDBRANCH   5  42
BRANCH  15  44
HETATM   44  C18 UNL     1      -8.447   1.154   0.527  1.00  0.00     0.075 A 
HETATM   45  C19 UNL     1      -9.440   0.633  -0.201  1.00  0.00     0.060 A 
HETATM   46  C20 UNL     1     -10.152  -0.299   0.641  1.00  0.00     0.205 A 
HETATM   47  C21 UNL     1      -9.467  -0.275   1.977  1.00  0.00     0.217 A 
HETATM   48  O2  UNL     1     -11.113  -0.967   0.336  1.00  0.00    -0.289 OA
HETATM   49  O1  UNL     1      -8.404   0.676   1.783  1.00  0.00    -0.327 OA
ENDBRANCH  15  44
TORSDOF 7
