REMARK  5 active torsions:
REMARK  status: ('A' for Active; 'I' for Inactive)
REMARK    1  A    between atoms: C1_1  and  O3_21 
REMARK    2  A    between atoms: C15_16  and  O1_18 
REMARK    3  A    between atoms: O3_21  and  S1_22 
REMARK    4  A    between atoms: S1_22  and  C18_23 
REMARK    5  A    between atoms: C18_23  and  C19_24 
ROOT
HETATM    1  C1  UNL     1       1.130   1.280   0.576  1.00  0.00     0.138 A 
HETATM    2  C2  UNL     1       2.514   1.012   0.512  1.00  0.00     0.154 A 
HETATM    3  C3  UNL     1       2.967  -0.222  -0.002  1.00  0.00     0.025 A 
HETATM    4  C4  UNL     1       2.042  -1.192  -0.463  1.00  0.00    -0.020 A 
HETATM    5  C5  UNL     1       0.637  -0.920  -0.435  1.00  0.00     0.009 A 
HETATM    6  C6  UNL     1       0.203   0.322   0.109  1.00  0.00     0.025 A 
HETATM    7  C7  UNL     1      -0.360  -1.924  -0.967  1.00  0.00     0.232 C 
HETATM    8  N1  UNL     1       0.224  -3.276  -1.105  1.00  0.00     0.145 N 
HETATM    9  C8  UNL     1       1.543  -3.328  -1.731  1.00  0.00     0.256 C 
HETATM   10  C9  UNL     1       2.567  -2.492  -0.952  1.00  0.00     0.061 C 
HETATM   11  C10 UNL     1       0.054  -3.966   0.185  1.00  0.00     0.277 C 
HETATM   12  C11 UNL     1      -1.205  -3.341   0.713  1.00  0.00     0.007 C 
HETATM   13  C12 UNL     1      -1.469  -2.235   0.007  1.00  0.00     0.008 C 
HETATM   14  C13 UNL     1      -2.691  -1.418   0.076  1.00  0.00    -0.005 C 
HETATM   15  C14 UNL     1      -2.983  -0.544  -0.908  1.00  0.00     0.003 C 
HETATM   16  C15 UNL     1      -2.061  -0.353  -2.103  1.00  0.00     0.140 C 
HETATM   17  C16 UNL     1      -1.010  -1.481  -2.297  1.00  0.00     0.074 C 
HETATM   18  O2  UNL     1       3.399   1.921   0.944  1.00  0.00    -0.188 OA
ENDROOT
BRANCH   1  19
HETATM   19  O3  UNL     1       0.692   2.443   1.078  1.00  0.00    -0.228 OA
BRANCH  19  20
HETATM   20  S1  UNL     1       1.465   3.148   2.208  1.00  0.00     0.294 S 
HETATM   21  O6  UNL     1       2.031   2.225   3.176  1.00  0.00    -0.197 OA
HETATM   22  O7  UNL     1       2.421   4.127   1.722  1.00  0.00    -0.197 OA
BRANCH  20  23
HETATM   23  C18 UNL     1       0.092   4.008   2.965  1.00  0.00     0.249 C 
BRANCH  23  24
HETATM   24  C19 UNL     1       0.322   4.881   4.169  1.00  0.00     0.205 C 
HETATM   25  O4  UNL     1      -0.765   5.475   4.654  1.00  0.00    -0.646 OA
HETATM   26  O5  UNL     1       1.428   5.013   4.639  1.00  0.00    -0.646 OA
ENDBRANCH  23  24
ENDBRANCH  20  23
ENDBRANCH  19  20
ENDBRANCH   1  19
BRANCH  16  27
HETATM   27  O1  UNL     1      -2.835  -0.251  -3.280  1.00  0.00    -0.350 OA
HETATM   28  C17 UNL     1      -3.457   1.005  -3.428  1.00  0.00     0.175 C 
ENDBRANCH  16  27
TORSDOF 5
