REMARK  3 active torsions:
REMARK  status: ('A' for Active; 'I' for Inactive)
REMARK    1  A    between atoms: C1_1  and  O3_22 
REMARK    2  A    between atoms: C2_2  and  O2_20 
REMARK    3  A    between atoms: C15_16  and  O1_18 
ROOT
HETATM    1  C1  UNL     1       2.961   0.676   1.545  1.00  0.00     0.116 A 
HETATM    2  C2  UNL     1       1.727   0.564   2.227  1.00  0.00     0.116 A 
HETATM    3  C3  UNL     1       0.553   0.225   1.516  1.00  0.00     0.024 A 
HETATM    4  C4  UNL     1       0.603  -0.012   0.115  1.00  0.00     0.009 A 
HETATM    5  C5  UNL     1       1.846   0.113  -0.560  1.00  0.00    -0.020 A 
HETATM    6  C6  UNL     1       3.021   0.453   0.152  1.00  0.00     0.022 A 
HETATM    7  C7  UNL     1       1.867  -0.121  -2.021  1.00  0.00     0.061 C 
HETATM    8  C8  UNL     1       1.020  -1.350  -2.414  1.00  0.00     0.256 C 
HETATM    9  N1  UNL     1      -0.262  -1.453  -1.676  1.00  0.00     0.145 N 
HETATM   10  C9  UNL     1      -0.607  -0.381  -0.699  1.00  0.00     0.232 C 
HETATM   11  C10 UNL     1      -1.670  -1.104   0.100  1.00  0.00     0.008 C 
HETATM   12  C11 UNL     1      -1.555  -2.432   0.002  1.00  0.00     0.007 C 
HETATM   13  C12 UNL     1      -0.482  -2.746  -0.998  1.00  0.00     0.277 C 
HETATM   14  C13 UNL     1      -2.715  -0.361   0.811  1.00  0.00    -0.005 C 
HETATM   15  C14 UNL     1      -3.219   0.732   0.209  1.00  0.00     0.003 C 
HETATM   16  C15 UNL     1      -2.736   1.102  -1.184  1.00  0.00     0.140 C 
HETATM   17  C16 UNL     1      -1.211   0.883  -1.387  1.00  0.00     0.074 C 
ENDROOT
BRANCH   1  18
HETATM   18  O3  UNL     1       4.076   0.996   2.219  1.00  0.00    -0.326 OA
HETATM   19  C19 UNL     1       5.293   1.080   1.490  1.00  0.00     0.181 C 
ENDBRANCH   1  18
BRANCH   2  20
HETATM   20  O2  UNL     1       1.666   0.779   3.549  1.00  0.00    -0.326 OA
HETATM   21  C18 UNL     1       0.404   0.648   4.188  1.00  0.00     0.181 C 
ENDBRANCH   2  20
BRANCH  16  22
HETATM   22  O1  UNL     1      -3.440   0.324  -2.131  1.00  0.00    -0.350 OA
HETATM   23  C17 UNL     1      -4.813   0.641  -2.199  1.00  0.00     0.175 C 
ENDBRANCH  16  22
TORSDOF 3
