REMARK  1 active torsions:
REMARK  status: ('A' for Active; 'I' for Inactive)
REMARK    1  A    between atoms: C15_16  and  O1_18 
ROOT
HETATM    1  C1  UNL     1      -3.422   1.123  -0.196  1.00  0.00     0.119 A 
HETATM    2  C2  UNL     1      -3.010  -0.182  -0.471  1.00  0.00     0.119 A 
HETATM    3  C3  UNL     1      -1.627  -0.490  -0.463  1.00  0.00     0.024 A 
HETATM    4  C4  UNL     1      -0.635   0.486  -0.190  1.00  0.00     0.009 A 
HETATM    5  C5  UNL     1      -1.066   1.813   0.094  1.00  0.00    -0.020 A 
HETATM    6  C6  UNL     1      -2.449   2.112   0.088  1.00  0.00     0.022 A 
HETATM    7  C7  UNL     1      -0.092   2.893   0.385  1.00  0.00     0.061 C 
HETATM    8  C8  UNL     1       1.313   2.373   0.730  1.00  0.00     0.256 C 
HETATM    9  N1  UNL     1       1.719   1.297  -0.178  1.00  0.00     0.145 N 
HETATM   10  C9  UNL     1       0.826   0.110  -0.186  1.00  0.00     0.232 C 
HETATM   11  C10 UNL     1       1.246  -0.498  -1.506  1.00  0.00     0.008 C 
HETATM   12  C11 UNL     1       1.807   0.399  -2.323  1.00  0.00     0.007 C 
HETATM   13  C12 UNL     1       1.965   1.692  -1.578  1.00  0.00     0.277 C 
HETATM   14  C13 UNL     1       1.086  -1.933  -1.756  1.00  0.00    -0.005 C 
HETATM   15  C14 UNL     1       1.336  -2.769  -0.733  1.00  0.00     0.003 C 
HETATM   16  C15 UNL     1       1.848  -2.185   0.574  1.00  0.00     0.140 C 
HETATM   17  C16 UNL     1       1.143  -0.863   0.992  1.00  0.00     0.074 C 
HETATM   18  O2  UNL     1      -4.084  -0.937  -0.705  1.00  0.00    -0.300 OA
HETATM   19  C18 UNL     1      -5.272  -0.125  -0.588  1.00  0.00     0.304 A 
HETATM   20  O3  UNL     1      -4.752   1.182  -0.256  1.00  0.00    -0.300 OA
ENDROOT
BRANCH  16  21
HETATM   21  O1  UNL     1       1.727  -3.135   1.613  1.00  0.00    -0.350 OA
HETATM   22  C17 UNL     1       2.432  -2.773   2.779  1.00  0.00     0.175 C 
ENDBRANCH  16  21
TORSDOF 1
