REMARK  3 active torsions:
REMARK  status: ('A' for Active; 'I' for Inactive)
REMARK    1  A    between atoms: C1_1  and  O4_23 
REMARK    2  A    between atoms: C2_2  and  O3_21 
REMARK    3  A    between atoms: C15_16  and  O1_18 
ROOT
HETATM    1  C1  UNL     1       2.910  -0.781  -1.191  1.00  0.00     0.116 A 
HETATM    2  C2  UNL     1       1.635  -0.822  -1.793  1.00  0.00     0.116 A 
HETATM    3  C3  UNL     1       0.514  -0.299  -1.111  1.00  0.00     0.024 A 
HETATM    4  C4  UNL     1       0.645   0.264   0.191  1.00  0.00     0.008 A 
HETATM    5  C5  UNL     1       1.949   0.346   0.770  1.00  0.00    -0.020 A 
HETATM    6  C6  UNL     1       3.067  -0.193   0.084  1.00  0.00     0.022 A 
HETATM    7  C7  UNL     1       2.170   1.008   2.080  1.00  0.00     0.061 C 
HETATM    8  C8  UNL     1       0.883   1.342   2.856  1.00  0.00     0.256 C 
HETATM    9  N1  UNL     1      -0.201   1.760   1.961  1.00  0.00     0.141 N 
HETATM   10  C9  UNL     1      -0.566   0.764   0.942  1.00  0.00     0.228 C 
HETATM   11  C10 UNL     1      -1.455   1.627   0.084  1.00  0.00    -0.012 C 
HETATM   12  C11 UNL     1      -0.965   3.045   0.070  1.00  0.00     0.059 C 
HETATM   13  C12 UNL     1      -0.047   3.069   1.295  1.00  0.00     0.255 C 
HETATM   14  C13 UNL     1      -2.576   1.199  -0.533  1.00  0.00     0.002 C 
HETATM   15  C14 UNL     1      -3.150  -0.182  -0.283  1.00  0.00     0.201 C 
HETATM   16  C15 UNL     1      -2.203  -1.133   0.512  1.00  0.00     0.152 C 
HETATM   17  C16 UNL     1      -1.373  -0.389   1.582  1.00  0.00     0.072 C 
HETATM   18  O2  UNL     1      -4.365   0.027   0.416  1.00  0.00    -0.216 OA
ENDROOT
BRANCH   1  19
HETATM   19  O4  UNL     1       3.975  -1.291  -1.826  1.00  0.00    -0.326 OA
HETATM   20  C19 UNL     1       5.233  -1.232  -1.172  1.00  0.00     0.181 C 
ENDBRANCH   1  19
BRANCH   2  21
HETATM   21  O3  UNL     1       1.481  -1.359  -3.012  1.00  0.00    -0.326 OA
HETATM   22  C18 UNL     1       0.176  -1.383  -3.570  1.00  0.00     0.181 C 
ENDBRANCH   2  21
BRANCH  16  23
HETATM   23  O1  UNL     1      -2.906  -2.203   1.121  1.00  0.00    -0.351 OA
HETATM   24  C17 UNL     1      -3.506  -3.076   0.190  1.00  0.00     0.174 C 
ENDBRANCH  16  23
TORSDOF 3
