REMARK  4 active torsions:
REMARK  status: ('A' for Active; 'I' for Inactive)
REMARK    1  A    between atoms: C1_2  and  C5_8 
REMARK    2  A    between atoms: C5_8  and  C6_9 
REMARK    3  A    between atoms: C6_9  and  C7_10 
REMARK    4  A    between atoms: C7_10  and  C8_11 
ROOT
HETATM    1  O1  UNL     1       2.240  -0.504  -0.385  1.00  0.00    -0.302 OA
HETATM    2  C1  UNL     1       1.490   0.699  -0.543  1.00  0.00     0.155 C 
HETATM    3  C2  UNL     1       2.424   1.844  -0.121  1.00  0.00     0.190 C 
HETATM    4  C3  UNL     1       3.764   1.289  -0.603  1.00  0.00     0.131 C 
HETATM    5  C4  UNL     1       3.526  -0.188  -0.496  1.00  0.00     0.275 C 
HETATM    6  O2  UNL     1       4.432  -0.986  -0.502  1.00  0.00    -0.264 OA
HETATM    7  O3  UNL     1       2.096   3.059  -0.765  1.00  0.00    -0.220 OA
ENDROOT
BRANCH   2   8
HETATM    8  C5  UNL     1       0.219   0.633   0.293  1.00  0.00     0.033 C 
BRANCH   8   9
HETATM    9  C6  UNL     1      -0.666  -0.508  -0.211  1.00  0.00     0.003 C 
BRANCH   9  10
HETATM   10  C7  UNL     1      -1.975  -0.629   0.569  1.00  0.00     0.000 C 
BRANCH  10  11
HETATM   11  C8  UNL     1      -2.859  -1.770   0.065  1.00  0.00     0.000 C 
HETATM   12  C9  UNL     1      -4.168  -1.891   0.844  1.00  0.00     0.000 C 
ENDBRANCH  10  11
ENDBRANCH   9  10
ENDBRANCH   8   9
ENDBRANCH   2   8
TORSDOF 4
