REMARK  3 active torsions:
REMARK  status: ('A' for Active; 'I' for Inactive)
REMARK    1  A    between atoms: C1_2  and  C2_3 
REMARK    2  A    between atoms: C2_3  and  C3_4 
REMARK    3  A    between atoms: C3_4  and  C4_6 
ROOT
HETATM    1  C2  UNL     1       0.916   0.566  -0.115  1.00  0.00     0.218 C 
HETATM    2  O4  UNL     1       1.191   1.121   1.153  1.00  0.00    -0.218 OA
ENDROOT
BRANCH   1   3
HETATM    3  C1  UNL     1       1.395  -0.887  -0.115  1.00  0.00     0.218 C 
HETATM    4  O1  UNL     1       2.803  -0.887  -0.115  1.00  0.00    -0.218 OA
ENDBRANCH   1   3
BRANCH   1   5
HETATM    5  C3  UNL     1      -0.586   0.693  -0.377  1.00  0.00     0.218 C 
HETATM    6  O2  UNL     1      -0.828   0.353  -1.722  1.00  0.00    -0.218 OA
BRANCH   5   7
HETATM    7  C4  UNL     1      -1.420  -0.235   0.508  1.00  0.00     0.218 C 
HETATM    8  O3  UNL     1      -2.773   0.133   0.379  1.00  0.00    -0.218 OA
ENDBRANCH   5   7
ENDBRANCH   1   5
TORSDOF 3
