REMARK  1 active torsions:
REMARK  status: ('A' for Active; 'I' for Inactive)
REMARK    1  A    between atoms: C14_16  and  O2_18 
ROOT
HETATM    1  O1  UNL     1       2.719   2.727   0.986  1.00  0.00    -0.298 OA
HETATM    2  C1  UNL     1       1.432   3.023   0.738  1.00  0.00     0.295 C 
HETATM    3  C2  UNL     1       0.475   1.961   0.371  1.00  0.00     0.062 C 
HETATM    4  C3  UNL     1       0.885   0.705   0.082  1.00  0.00    -0.004 C 
HETATM    5  C4  UNL     1       2.391   0.531   0.021  1.00  0.00     0.053 C 
HETATM    6  C5  UNL     1       3.035   1.340   1.162  1.00  0.00     0.156 C 
HETATM    7  C6  UNL     1       2.826  -0.928  -0.035  1.00  0.00     0.042 C 
HETATM    8  C7  UNL     1       2.002  -1.617  -1.125  1.00  0.00     0.252 C 
HETATM    9  N1  UNL     1       0.598  -1.713  -0.701  1.00  0.00     0.145 N 
HETATM   10  C8  UNL     1      -0.078  -0.473  -0.176  1.00  0.00     0.229 A 
HETATM   11  C9  UNL     1      -0.684  -0.971   1.113  1.00  0.00     0.007 A 
HETATM   12  C10 UNL     1      -0.361  -2.234   1.396  1.00  0.00     0.007 A 
HETATM   13  C11 UNL     1       0.398  -2.826   0.254  1.00  0.00     0.277 A 
HETATM   14  C12 UNL     1      -1.590  -0.133   1.891  1.00  0.00    -0.005 C 
HETATM   15  C13 UNL     1      -2.420   0.688   1.219  1.00  0.00     0.003 C 
HETATM   16  C14 UNL     1      -2.426   0.729  -0.307  1.00  0.00     0.140 C 
HETATM   17  C15 UNL     1      -1.311  -0.092  -1.043  1.00  0.00     0.074 C 
HETATM   18  O3  UNL     1       1.012   4.164   0.801  1.00  0.00    -0.259 OA
ENDROOT
BRANCH  16  19
HETATM   19  O2  UNL     1      -3.691   0.283  -0.750  1.00  0.00    -0.350 OA
HETATM   20  C16 UNL     1      -3.963   0.627  -2.090  1.00  0.00     0.175 C 
ENDBRANCH  16  19
TORSDOF 1
