REMARK  1 active torsions:
REMARK  status: ('A' for Active; 'I' for Inactive)
REMARK    1  A    between atoms: C13_14  and  O3_17 
ROOT
HETATM    1  C1  UNL     1       4.721   0.383   0.504  1.00  0.00     0.000 A 
HETATM    2  C2  UNL     1       4.662  -1.022   0.635  1.00  0.00     0.000 A 
HETATM    3  C3  UNL     1       3.418  -1.684   0.564  1.00  0.00     0.003 A 
HETATM    4  C4  UNL     1       2.217  -0.953   0.361  1.00  0.00     0.042 A 
HETATM    5  C5  UNL     1       2.273   0.465   0.232  1.00  0.00     0.042 A 
HETATM    6  C6  UNL     1       3.533   1.121   0.305  1.00  0.00     0.003 A 
HETATM    7  C7  UNL     1       1.043   1.289   0.020  1.00  0.00     0.198 A 
HETATM    8  C8  UNL     1      -0.256   0.543  -0.066  1.00  0.00     0.069 A 
HETATM    9  C9  UNL     1      -0.311  -0.877   0.064  1.00  0.00     0.044 A 
HETATM   10  C10 UNL     1       0.922  -1.699   0.291  1.00  0.00     0.196 A 
HETATM   11  O1  UNL     1       0.871  -2.904   0.410  1.00  0.00    -0.287 OA
HETATM   12  C11 UNL     1      -1.563  -1.543  -0.023  1.00  0.00     0.005 A 
HETATM   13  C12 UNL     1      -2.752  -0.815  -0.238  1.00  0.00     0.026 A 
HETATM   14  C13 UNL     1      -2.703   0.588  -0.367  1.00  0.00     0.119 A 
HETATM   15  C14 UNL     1      -1.467   1.268  -0.279  1.00  0.00     0.156 A 
HETATM   16  O2  UNL     1      -1.459   2.603  -0.406  1.00  0.00    -0.188 OA
HETATM   17  O4  UNL     1       1.102   2.494  -0.080  1.00  0.00    -0.286 OA
ENDROOT
BRANCH  14  18
HETATM   18  O3  UNL     1      -3.836   1.275  -0.570  1.00  0.00    -0.326 OA
HETATM   19  C15 UNL     1      -5.047   0.545  -0.699  1.00  0.00     0.181 C 
ENDBRANCH  14  18
TORSDOF 1
