REMARK  7 active torsions:
REMARK  status: ('A' for Active; 'I' for Inactive)
REMARK    1  A    between atoms: C3_3  and  C23_28 
REMARK    2  A    between atoms: C15_17  and  C16_18 
REMARK    3  A    between atoms: C16_18  and  O3_19 
REMARK    4  A    between atoms: O3_19  and  C17_20 
REMARK    5  A    between atoms: C17_20  and  C18_21 
REMARK    6  A    between atoms: C18_21  and  N1_22 
REMARK    7  A    between atoms: C23_28  and  O6_30 
ROOT
HETATM    1  C1  UNL     1       4.742   1.172   2.211  1.00  0.00     0.001 C 
HETATM    2  C2  UNL     1       5.211   0.371   1.000  1.00  0.00     0.009 C 
HETATM    3  C3  UNL     1       4.375  -0.918   0.815  1.00  0.00     0.081 C 
HETATM    4  C4  UNL     1       2.881  -0.728   1.268  1.00  0.00     0.047 C 
HETATM    5  C5  UNL     1       2.397   0.748   1.152  1.00  0.00     0.004 C 
HETATM    6  C6  UNL     1       3.299   1.668   2.026  1.00  0.00     0.000 C 
HETATM    7  C7  UNL     1       0.922   0.899   1.637  1.00  0.00     0.008 C 
HETATM    8  C8  UNL     1      -0.053  -0.084   0.942  1.00  0.00     0.064 C 
HETATM    9  C9  UNL     1       0.457  -1.506   1.029  1.00  0.00     0.181 C 
HETATM   10  C10 UNL     1       1.891  -1.721   0.592  1.00  0.00     0.209 C 
HETATM   11  O1  UNL     1       2.291  -3.053   0.865  1.00  0.00    -0.215 OA
HETATM   12  O2  UNL     1      -0.244  -2.414   1.420  1.00  0.00    -0.293 OA
HETATM   13  C11 UNL     1      -1.502   0.063   1.471  1.00  0.00     0.025 C 
HETATM   14  C12 UNL     1      -1.965   1.506   1.393  1.00  0.00    -0.039 C 
HETATM   15  C13 UNL     1      -1.029   2.527   2.000  1.00  0.00     0.022 C 
HETATM   16  C14 UNL     1       0.406   2.352   1.494  1.00  0.00     0.005 C 
HETATM   17  C15 UNL     1      -3.129   1.885   0.822  1.00  0.00     0.060 C 
HETATM   18  C21 UNL     1      -1.652  -0.422   2.920  1.00  0.00     0.005 C 
HETATM   19  C22 UNL     1       2.494   1.184  -0.322  1.00  0.00     0.000 C 
HETATM   20  C25 UNL     1       5.018  -2.045   1.635  1.00  0.00     0.010 C 
ENDROOT
BRANCH  17  21
HETATM   21  C16 UNL     1      -4.096   0.959   0.215  1.00  0.00     0.295 C 
HETATM   22  O4  UNL     1      -4.461  -0.025   0.815  1.00  0.00    -0.259 OA
BRANCH  21  23
HETATM   23  O3  UNL     1      -4.518   1.283  -1.004  1.00  0.00    -0.296 OA
BRANCH  23  24
HETATM   24  C17 UNL     1      -5.426   0.328  -1.533  1.00  0.00     0.188 C 
BRANCH  24  25
HETATM   25  C18 UNL     1      -5.853   0.756  -2.937  1.00  0.00     0.283 C 
BRANCH  25  26
HETATM   26  N1  UNL     1      -6.914  -0.105  -3.432  1.00  0.00     0.144 N 
HETATM   27  C19 UNL     1      -7.551   0.484  -4.596  1.00  0.00     0.286 C 
HETATM   28  C20 UNL     1      -6.391  -1.424  -3.752  1.00  0.00     0.286 C 
ENDBRANCH  25  26
ENDBRANCH  24  25
ENDBRANCH  23  24
ENDBRANCH  21  23
ENDBRANCH  17  21
BRANCH   3  29
HETATM   29  C23 UNL     1       4.496  -1.320  -0.639  1.00  0.00     0.271 C 
HETATM   30  O5  UNL     1       3.727  -0.894  -1.469  1.00  0.00    -0.264 OA
BRANCH  29  31
HETATM   31  O6  UNL     1       5.494  -2.156  -0.912  1.00  0.00    -0.299 OA
HETATM   32  C24 UNL     1       5.547  -2.500  -2.289  1.00  0.00     0.184 C 
ENDBRANCH  29  31
ENDBRANCH   3  29
TORSDOF 7
