REMARK  2 active torsions:
REMARK  status: ('A' for Active; 'I' for Inactive)
REMARK    1  A    between atoms: C1_1  and  O2_19 
REMARK       I    between atoms: N2_11  and  C12_14 
REMARK       I    between atoms: C12_14  and  N3_15 
REMARK    2  A    between atoms: O2_19  and  C15_20 
REMARK       I    between atoms: C15_20  and  N4_22 
ROOT
HETATM    1  C1  UNL     1      -2.231  -1.744  -0.516  1.00  0.00     0.105 A 
HETATM    2  C2  UNL     1      -2.883  -0.588  -0.020  1.00  0.00     0.026 A 
HETATM    3  C3  UNL     1      -2.189   0.641   0.033  1.00  0.00     0.019 A 
HETATM    4  C4  UNL     1      -0.854   0.666  -0.430  1.00  0.00     0.054 A 
HETATM    5  C5  UNL     1      -0.158  -0.441  -0.932  1.00  0.00    -0.002 A 
HETATM    6  C6  UNL     1      -0.885  -1.664  -0.959  1.00  0.00     0.022 A 
HETATM    7  C7  UNL     1       1.260  -0.125  -1.365  1.00  0.00     0.061 A 
HETATM    8  C8  UNL     1       1.398   1.379  -0.973  1.00  0.00     0.174 A 
HETATM    9  N1  UNL     1       0.070   1.799  -0.482  1.00  0.00    -0.330 N 
HETATM   10  C9  UNL     1      -0.254   3.174  -0.115  1.00  0.00     0.127 C 
HETATM   11  N2  UNL     1       2.375   1.389   0.107  1.00  0.00    -0.284 N 
HETATM   12  C10 UNL     1       2.729   0.068   0.588  1.00  0.00     0.108 C 
HETATM   13  C11 UNL     1       2.340  -0.877  -0.549  1.00  0.00     0.032 C 
HETATM   14  C12 UNL     1       2.938   2.566   0.635  1.00  0.00     0.343 C 
HETATM   15  N3  UNL     1       3.801   2.490   1.689  1.00  0.00    -0.217 NA
HETATM   16  C13 UNL     1       4.387   3.723   2.234  1.00  0.00     0.157 C 
HETATM   17  O1  UNL     1       2.654   3.639   0.154  1.00  0.00    -0.245 OA
HETATM   18  C14 UNL     1       1.436  -0.352  -2.865  1.00  0.00     0.008 C 
ENDROOT
BRANCH   1  19
HETATM   19  O2  UNL     1      -2.881  -2.914  -0.570  1.00  0.00    -0.258 OA
BRANCH  19  20
HETATM   20  C15 UNL     1      -3.742  -3.219   0.396  1.00  0.00     0.388 C 
HETATM   21  O3  UNL     1      -3.756  -2.682   1.480  1.00  0.00    -0.236 OA
HETATM   22  N4  UNL     1      -4.647  -4.199   0.102  1.00  0.00    -0.210 NA
HETATM   23  C16 UNL     1      -5.635  -4.598   1.115  1.00  0.00     0.158 C 
ENDBRANCH  19  20
ENDBRANCH   1  19
TORSDOF 2
