REMARK  2 active torsions:
REMARK  status: ('A' for Active; 'I' for Inactive)
REMARK    1  A    between atoms: C1_1  and  O2_17 
REMARK    2  A    between atoms: O2_17  and  C14_18 
REMARK       I    between atoms: C14_18  and  N3_19 
ROOT
HETATM    1  C1  UNL     1       1.932  -1.297   0.516  1.00  0.00     0.105 A 
HETATM    2  C2  UNL     1       2.693  -0.129   0.266  1.00  0.00     0.026 A 
HETATM    3  C3  UNL     1       2.055   1.033  -0.219  1.00  0.00     0.019 A 
HETATM    4  C4  UNL     1       0.660   0.977  -0.439  1.00  0.00     0.054 A 
HETATM    5  C5  UNL     1      -0.143  -0.150  -0.217  1.00  0.00    -0.001 A 
HETATM    6  C6  UNL     1       0.533  -1.301   0.274  1.00  0.00     0.022 A 
HETATM    7  C7  UNL     1      -1.609   0.068  -0.543  1.00  0.00     0.069 A 
HETATM    8  C8  UNL     1      -1.621   1.582  -0.963  1.00  0.00     0.225 A 
HETATM    9  N1  UNL     1      -0.221   2.037  -0.928  1.00  0.00    -0.323 N 
HETATM   10  C9  UNL     1       0.203   3.371  -1.342  1.00  0.00     0.128 C 
HETATM   11  O1  UNL     1      -2.395   2.367  -0.062  1.00  0.00    -0.262 OA
HETATM   12  N2  UNL     1      -3.756   1.867   0.039  1.00  0.00    -0.163 NA
HETATM   13  C10 UNL     1      -3.885   0.449   0.430  1.00  0.00     0.102 C 
HETATM   14  C11 UNL     1      -2.518  -0.219   0.668  1.00  0.00     0.028 C 
HETATM   15  C12 UNL     1      -4.543   2.768   0.871  1.00  0.00     0.121 C 
HETATM   16  C13 UNL     1      -2.000  -0.779  -1.752  1.00  0.00     0.009 C 
ENDROOT
BRANCH   1  17
HETATM   17  O2  UNL     1       2.533  -2.402   0.979  1.00  0.00    -0.258 OA
BRANCH  17  18
HETATM   18  C14 UNL     1       3.777  -2.668   0.592  1.00  0.00     0.388 C 
HETATM   19  N3  UNL     1       4.480  -3.521   1.395  1.00  0.00    -0.210 NA
HETATM   20  C15 UNL     1       5.863  -3.869   1.041  1.00  0.00     0.158 C 
HETATM   21  O3  UNL     1       4.289  -2.205  -0.400  1.00  0.00    -0.236 OA
ENDBRANCH  17  18
ENDBRANCH   1  17
TORSDOF 2
