REMARK  4 active torsions:
REMARK  status: ('A' for Active; 'I' for Inactive)
REMARK    1  A    between atoms: C1_1  and  C11_12 
REMARK    2  A    between atoms: C2_3  and  C5_6 
REMARK    3  A    between atoms: C6_7  and  C7_8 
REMARK    4  A    between atoms: C8_9  and  C9_10 
ROOT
HETATM    1  C11 UNL     1       4.023   0.635   0.157  1.00  0.00    -0.058 C 
HETATM    2  C12 UNL     1       5.172   0.865   0.367  1.00  0.00    -0.085 C 
HETATM    3  C13 UNL     1       6.582   1.141   0.629  1.00  0.00     0.090 C 
ENDROOT
BRANCH   1   4
HETATM    4  C1  UNL     1       2.641   0.351  -0.095  1.00  0.00     0.071 A 
HETATM    5  S1  UNL     1       1.303   0.810   0.844  1.00  0.00    -0.070 SA
HETATM    6  C2  UNL     1       0.223   0.045  -0.222  1.00  0.00     0.072 A 
HETATM    7  C3  UNL     1       0.875  -0.568  -1.306  1.00  0.00     0.016 A 
HETATM    8  C4  UNL     1       2.273  -0.391  -1.232  1.00  0.00     0.016 A 
BRANCH   6   9
HETATM    9  C5  UNL     1      -1.207  -0.027  -0.119  1.00  0.00    -0.044 C 
HETATM   10  C6  UNL     1      -2.393  -0.076  -0.035  1.00  0.00    -0.009 C 
BRANCH  10  11
HETATM   11  C7  UNL     1      -3.770  -0.123   0.057  1.00  0.00    -0.009 C 
HETATM   12  C8  UNL     1      -4.957  -0.160   0.131  1.00  0.00    -0.050 C 
BRANCH  12  13
HETATM   13  C9  UNL     1      -6.393  -0.197   0.219  1.00  0.00     0.050 C 
HETATM   14  C10 UNL     1      -7.039  -1.248   0.754  1.00  0.00     0.009 C 
ENDBRANCH  12  13
ENDBRANCH  10  11
ENDBRANCH   6   9
ENDBRANCH   1   4
TORSDOF 4
