REMARK  3 active torsions:
REMARK  status: ('A' for Active; 'I' for Inactive)
REMARK    1  A    between atoms: C1_1  and  C15_15 
REMARK    2  A    between atoms: C3_3  and  C10_10 
REMARK    3  A    between atoms: C4_4  and  C8_8 
ROOT
HETATM    1  C1  UNL     1      -1.973   0.369  -0.504  1.00  0.00     0.033 C 
HETATM    2  C2  UNL     1      -0.709   1.092   0.021  1.00  0.00     0.006 C 
HETATM    3  C3  UNL     1       0.572   0.299  -0.369  1.00  0.00     0.022 C 
HETATM    4  C4  UNL     1       0.539  -1.195   0.063  1.00  0.00     0.022 C 
HETATM    5  C5  UNL     1      -0.756  -1.867  -0.439  1.00  0.00     0.004 C 
HETATM    6  C6  UNL     1      -2.020  -1.094  -0.031  1.00  0.00     0.003 C 
HETATM    7  C7  UNL     1       1.744  -1.941  -0.525  1.00  0.00     0.005 C 
HETATM    8  C13 UNL     1      -0.811   1.254   1.545  1.00  0.00     0.000 C 
HETATM    9  C14 UNL     1      -0.648   2.506  -0.576  1.00  0.00     0.000 C 
ENDROOT
BRANCH   3  10
HETATM   10  C10 UNL     1       1.828   0.992   0.115  1.00  0.00    -0.044 C 
HETATM   11  C11 UNL     1       2.490   0.668   1.428  1.00  0.00     0.026 C 
HETATM   12  C12 UNL     1       2.375   1.942  -0.662  1.00  0.00    -0.009 C 
ENDBRANCH   3  10
BRANCH   4  13
HETATM   13  C8  UNL     1       0.631  -1.346   1.564  1.00  0.00    -0.026 C 
HETATM   14  C9  UNL     1       0.734  -2.580   2.084  1.00  0.00    -0.005 C 
ENDBRANCH   4  13
BRANCH   1  15
HETATM   15  C15 UNL     1      -2.086   0.442  -2.035  1.00  0.00     0.182 C 
HETATM   16  O1  UNL     1      -3.326  -0.115  -2.408  1.00  0.00    -0.221 OA
ENDBRANCH   1  15
TORSDOF 3
