REMARK  2 active torsions:
REMARK  status: ('A' for Active; 'I' for Inactive)
REMARK    1  A    between atoms: C8_8  and  O3_16 
REMARK    2  A    between atoms: O3_16  and  C14_17 
ROOT
HETATM    1  C1  UNL     1      -3.672   0.635  -0.750  1.00  0.00     0.004 C 
HETATM    2  C2  UNL     1      -3.527  -0.881  -0.953  1.00  0.00     0.022 C 
HETATM    3  C3  UNL     1      -2.262  -1.418  -0.318  1.00  0.00    -0.044 C 
HETATM    4  C4  UNL     1      -0.967  -0.678  -0.627  1.00  0.00     0.019 C 
HETATM    5  C5  UNL     1      -1.156   0.846  -0.311  1.00  0.00     0.009 C 
HETATM    6  C6  UNL     1      -2.377   1.397  -1.086  1.00  0.00     0.001 C 
HETATM    7  C7  UNL     1       0.117   1.660  -0.691  1.00  0.00     0.061 C 
HETATM    8  C8  UNL     1       1.387   1.108  -0.020  1.00  0.00     0.211 C 
HETATM    9  C9  UNL     1       1.455  -0.385  -0.176  1.00  0.00     0.008 C 
HETATM   10  C10 UNL     1       0.262  -1.250   0.135  1.00  0.00     0.030 C 
HETATM   11  C11 UNL     1       2.651  -0.726  -0.650  1.00  0.00     0.038 C 
HETATM   12  C12 UNL     1       3.373   0.506  -0.928  1.00  0.00     0.293 C 
HETATM   13  O1  UNL     1       2.598   1.569  -0.652  1.00  0.00    -0.274 OA
HETATM   14  O2  UNL     1       4.506   0.543  -1.352  1.00  0.00    -0.259 OA
HETATM   15  C13 UNL     1       3.154  -2.127  -0.887  1.00  0.00     0.036 C 
HETATM   16  C16 UNL     1      -1.441   1.037   1.191  1.00  0.00     0.001 C 
HETATM   17  C17 UNL     1      -0.719  -0.883  -2.133  1.00  0.00     0.004 C 
HETATM   18  C18 UNL     1      -2.307  -2.500   0.482  1.00  0.00    -0.009 C 
ENDROOT
BRANCH   8  19
HETATM   19  O3  UNL     1       1.428   1.461   1.350  1.00  0.00    -0.331 OA
BRANCH  19  20
HETATM   20  C14 UNL     1       2.629   1.086   1.984  1.00  0.00     0.145 C 
HETATM   21  C15 UNL     1       2.547   1.512   3.451  1.00  0.00     0.035 C 
ENDBRANCH  19  20
ENDBRANCH   8  19
TORSDOF 2
