REMARK  3 active torsions:
REMARK  status: ('A' for Active; 'I' for Inactive)
REMARK    1  A    between atoms: C7_7  and  C10_12 
REMARK    2  A    between atoms: C10_12  and  O2_13 
REMARK    3  A    between atoms: O2_13  and  C11_14 
ROOT
HETATM    1  C1  UNL     1      -2.766  -0.500  -0.555  1.00  0.00     0.000 A 
HETATM    2  C2  UNL     1      -3.072  -1.853  -0.291  1.00  0.00     0.002 A 
HETATM    3  C3  UNL     1      -2.039  -2.775  -0.012  1.00  0.00     0.019 A 
HETATM    4  C4  UNL     1      -0.682  -2.351   0.010  1.00  0.00     0.085 A 
HETATM    5  C5  UNL     1      -0.377  -0.980  -0.258  1.00  0.00     0.023 A 
HETATM    6  C6  UNL     1      -1.422  -0.060  -0.539  1.00  0.00     0.002 A 
HETATM    7  C7  UNL     1       1.055  -0.529  -0.235  1.00  0.00     0.069 A 
HETATM    8  C8  UNL     1       2.002  -1.451   0.041  1.00  0.00     0.068 A 
HETATM    9  C9  UNL     1       1.637  -2.861   0.308  1.00  0.00     0.280 A 
HETATM   10  N1  UNL     1       0.311  -3.244   0.279  1.00  0.00    -0.208 NA
HETATM   11  O1  UNL     1       2.502  -3.672   0.553  1.00  0.00    -0.265 OA
ENDROOT
BRANCH   7  12
HETATM   12  C10 UNL     1       1.426   0.873  -0.498  1.00  0.00     0.296 C 
HETATM   13  O3  UNL     1       2.199   1.143  -1.387  1.00  0.00    -0.259 OA
BRANCH  12  14
HETATM   14  O2  UNL     1       0.859   1.779   0.291  1.00  0.00    -0.298 OA
BRANCH  14  15
HETATM   15  C11 UNL     1       1.266   3.104  -0.026  1.00  0.00     0.152 C 
HETATM   16  C12 UNL     1       0.578   4.088   0.920  1.00  0.00     0.035 C 
ENDBRANCH  14  15
ENDBRANCH  12  14
ENDBRANCH   7  12
TORSDOF 3
