REMARK  6 active torsions:
REMARK  status: ('A' for Active; 'I' for Inactive)
REMARK    1  A    between atoms: C9_10  and  C11_13 
REMARK    2  A    between atoms: C11_13  and  O3_14 
REMARK    3  A    between atoms: C11_13  and  C17_21 
REMARK    4  A    between atoms: O3_14  and  C12_15 
REMARK    5  A    between atoms: C12_15  and  C13_16 
REMARK    6  A    between atoms: C17_21  and  C18_22 
ROOT
HETATM    1  C1  UNL     1      -4.785  -2.209   0.998  1.00  0.00     0.030 A 
HETATM    2  C2  UNL     1      -4.863  -0.822   0.742  1.00  0.00     0.030 A 
HETATM    3  C3  UNL     1      -3.691  -0.078   0.486  1.00  0.00     0.134 A 
HETATM    4  C4  UNL     1      -2.424  -0.723   0.486  1.00  0.00     0.069 A 
HETATM    5  C5  UNL     1      -2.346  -2.123   0.744  1.00  0.00     0.069 A 
HETATM    6  C6  UNL     1      -3.531  -2.861   0.998  1.00  0.00     0.134 A 
HETATM    7  O1  UNL     1      -3.484  -4.180   1.242  1.00  0.00    -0.190 OA
HETATM    8  C7  UNL     1      -1.018  -2.809   0.746  1.00  0.00     0.198 A 
HETATM    9  C8  UNL     1       0.178  -1.984   0.482  1.00  0.00     0.043 A 
HETATM   10  C9  UNL     1       0.109  -0.660   0.236  1.00  0.00     0.048 A 
HETATM   11  C10 UNL     1      -1.182   0.065   0.215  1.00  0.00     0.196 A 
HETATM   12  O2  UNL     1      -1.123   1.250  -0.023  1.00  0.00    -0.287 OA
HETATM   13  O5  UNL     1      -0.810  -3.984   0.945  1.00  0.00    -0.286 OA
HETATM   14  O6  UNL     1      -3.795   1.238   0.246  1.00  0.00    -0.190 OA
ENDROOT
BRANCH  10  15
HETATM   15  C11 UNL     1       1.391   0.092  -0.023  1.00  0.00     0.154 C 
BRANCH  15  16
HETATM   16  O3  UNL     1       1.246   0.887  -1.191  1.00  0.00    -0.296 OA
BRANCH  16  17
HETATM   17  C12 UNL     1       1.131   0.151  -2.293  1.00  0.00     0.292 C 
HETATM   18  O4  UNL     1       1.320  -1.043  -2.328  1.00  0.00    -0.260 OA
BRANCH  17  19
HETATM   19  C13 UNL     1       0.748   0.879  -3.508  1.00  0.00     0.037 C 
HETATM   20  C14 UNL     1       0.942   2.199  -3.662  1.00  0.00    -0.025 C 
HETATM   21  C15 UNL     1       0.510   2.842  -4.953  1.00  0.00     0.030 C 
HETATM   22  C16 UNL     1       0.111   0.109  -4.635  1.00  0.00     0.036 C 
ENDBRANCH  17  19
ENDBRANCH  16  17
ENDBRANCH  15  16
BRANCH  15  23
HETATM   23  C17 UNL     1       1.791   0.985   1.152  1.00  0.00     0.060 C 
BRANCH  23  24
HETATM   24  C18 UNL     1       1.986   0.203   2.426  1.00  0.00    -0.032 C 
HETATM   25  C19 UNL     1       2.897   0.639   3.311  1.00  0.00    -0.048 C 
HETATM   26  C20 UNL     1       3.721   1.891   3.166  1.00  0.00     0.026 C 
HETATM   27  C21 UNL     1       3.133  -0.174   4.557  1.00  0.00     0.026 C 
ENDBRANCH  23  24
ENDBRANCH  15  23
ENDBRANCH  10  15
TORSDOF 6
