REMARK  4 active torsions:
REMARK  status: ('A' for Active; 'I' for Inactive)
REMARK    1  A    between atoms: C6_6  and  C7_7 
REMARK    2  A    between atoms: C8_8  and  C9_9 
REMARK    3  A    between atoms: C9_9  and  O1_10 
REMARK    4  A    between atoms: O1_10  and  C10_11 
ROOT
HETATM    1  C7  UNL     1       0.564  -0.504   0.666  1.00  0.00     0.005 C 
HETATM    2  C8  UNL     1      -0.090   0.572   0.203  1.00  0.00     0.068 C 
ENDROOT
BRANCH   1   3
HETATM    3  C6  UNL     1      -0.135  -1.824   0.666  1.00  0.00     0.000 A 
HETATM    4  C1  UNL     1      -1.541  -1.877   0.666  1.00  0.00     0.000 A 
HETATM    5  C2  UNL     1      -2.199  -3.119   0.666  1.00  0.00     0.000 A 
HETATM    6  C3  UNL     1      -1.451  -4.311   0.666  1.00  0.00     0.000 A 
HETATM    7  C4  UNL     1      -0.047  -4.260   0.666  1.00  0.00     0.000 A 
HETATM    8  C5  UNL     1       0.611  -3.018   0.666  1.00  0.00     0.000 A 
ENDBRANCH   1   3
BRANCH   2   9
HETATM    9  C9  UNL     1       0.555   1.891   0.183  1.00  0.00     0.296 C 
HETATM   10  O2  UNL     1       1.688   2.022   0.584  1.00  0.00    -0.259 OA
BRANCH   9  11
HETATM   11  O1  UNL     1      -0.182   2.889  -0.297  1.00  0.00    -0.298 OA
BRANCH  11  12
HETATM   12  C10 UNL     1       0.582   4.063  -0.526  1.00  0.00     0.152 C 
HETATM   13  C11 UNL     1       1.145   4.035  -1.947  1.00  0.00     0.035 C 
ENDBRANCH  11  12
ENDBRANCH   9  11
ENDBRANCH   2   9
TORSDOF 4
