REMARK  3 active torsions:
REMARK  status: ('A' for Active; 'I' for Inactive)
REMARK    1  A    between atoms: C3_3  and  O2_18 
REMARK    2  A    between atoms: C9_9  and  C13_15 
REMARK    3  A    between atoms: C11_12  and  O1_13 
ROOT
HETATM    1  C1  UNL     1       3.576  -1.279  -0.762  1.00  0.00     0.002 A 
HETATM    2  C2  UNL     1       3.920  -0.479   0.363  1.00  0.00     0.026 A 
HETATM    3  C3  UNL     1       2.937   0.252   1.088  1.00  0.00     0.112 A 
HETATM    4  C4  UNL     1       1.598   0.145   0.635  1.00  0.00     0.104 A 
HETATM    5  C5  UNL     1       1.258  -0.637  -0.465  1.00  0.00     0.023 A 
HETATM    6  C6  UNL     1       2.228  -1.367  -1.190  1.00  0.00     0.002 A 
HETATM    7  C7  UNL     1      -0.072  -0.555  -0.670  1.00  0.00     0.044 A 
HETATM    8  C8  UNL     1      -0.611   0.285   0.301  1.00  0.00     0.097 A 
HETATM    9  C9  UNL     1      -2.002   0.512   0.269  1.00  0.00     0.077 A 
HETATM   10  N1  UNL     1      -2.840  -0.053  -0.664  1.00  0.00    -0.245 NA
HETATM   11  C10 UNL     1      -2.274  -0.887  -1.621  1.00  0.00     0.123 A 
HETATM   12  C11 UNL     1      -0.875  -1.178  -1.674  1.00  0.00     0.115 A 
HETATM   13  N2  UNL     1       0.424   0.742   1.141  1.00  0.00    -0.242 NA
ENDROOT
BRANCH   3  14
HETATM   14  O2  UNL     1       3.404   0.961   2.125  1.00  0.00    -0.327 OA
HETATM   15  C15 UNL     1       2.465   1.652   2.937  1.00  0.00     0.181 C 
ENDBRANCH   3  14
BRANCH  12  16
HETATM   16  O1  UNL     1      -0.500  -2.002  -2.662  1.00  0.00    -0.327 OA
HETATM   17  C12 UNL     1      -1.426  -2.990  -3.094  1.00  0.00     0.181 C 
ENDBRANCH  12  16
BRANCH   9  18
HETATM   18  C13 UNL     1      -2.604   1.393   1.283  1.00  0.00     0.047 C 
HETATM   19  C14 UNL     1      -3.258   2.619   0.643  1.00  0.00     0.007 C 
ENDBRANCH   9  18
TORSDOF 3
