REMARK  3 active torsions:
REMARK  status: ('A' for Active; 'I' for Inactive)
REMARK    1  A    between atoms: C5_6  and  C6_7 
REMARK    2  A    between atoms: C6_7  and  O3_9 
REMARK    3  A    between atoms: C13_18  and  C14_19 
ROOT
HETATM    1  C1  UNL     1       1.441  -0.908  -0.488  1.00  0.00     0.059 C 
HETATM    2  C2  UNL     1       0.242   0.047  -0.506  1.00  0.00     0.097 C 
HETATM    3  C3  UNL     1       0.410   1.359   0.291  1.00  0.00     0.243 C 
HETATM    4  O1  UNL     1       1.674   1.523   0.951  1.00  0.00    -0.304 OA
HETATM    5  C4  UNL     1       2.769   0.949   0.432  1.00  0.00     0.120 C 
HETATM    6  C5  UNL     1       2.752  -0.190  -0.285  1.00  0.00     0.069 C 
HETATM    7  O4  UNL     1      -0.600   1.363   1.279  1.00  0.00    -0.330 OA
HETATM    8  C8  UNL     1      -1.582   0.383   1.025  1.00  0.00     0.159 C 
HETATM    9  C9  UNL     1      -0.861  -0.717   0.250  1.00  0.00     0.150 C 
HETATM   10  C10 UNL     1      -0.127  -1.764   1.041  1.00  0.00    -0.001 C 
HETATM   11  C11 UNL     1       1.142  -1.865   0.635  1.00  0.00    -0.024 C 
HETATM   12  O5  UNL     1      -1.799  -1.295  -0.654  1.00  0.00    -0.300 OA
HETATM   13  C12 UNL     1      -2.764  -0.402  -0.852  1.00  0.00     0.277 C 
HETATM   14  C13 UNL     1      -2.627   0.832  -0.006  1.00  0.00     0.147 C 
HETATM   15  O7  UNL     1      -3.680  -0.551  -1.627  1.00  0.00    -0.264 OA
ENDROOT
BRANCH   6  16
HETATM   16  C6  UNL     1       3.978  -0.752  -0.869  1.00  0.00     0.294 C 
HETATM   17  O2  UNL     1       5.006  -0.115  -0.865  1.00  0.00    -0.259 OA
BRANCH  16  18
HETATM   18  O3  UNL     1       3.869  -1.975  -1.383  1.00  0.00    -0.296 OA
HETATM   19  C7  UNL     1       5.092  -2.443  -1.930  1.00  0.00     0.185 C 
ENDBRANCH  16  18
ENDBRANCH   6  16
BRANCH  14  20
HETATM   20  C14 UNL     1      -3.924   1.256   0.672  1.00  0.00     0.164 C 
HETATM   21  C15 UNL     1      -3.656   2.451   1.588  1.00  0.00     0.036 C 
HETATM   22  O6  UNL     1      -4.832   1.660  -0.328  1.00  0.00    -0.223 OA
ENDBRANCH  14  20
TORSDOF 3
