REMARK  5 active torsions:
REMARK  status: ('A' for Active; 'I' for Inactive)
REMARK    1  A    between atoms: C1_1  and  O4_20 
REMARK    2  A    between atoms: C2_2  and  C13_15 
REMARK    3  A    between atoms: C3_3  and  O2_13 
REMARK    4  A    between atoms: C13_15  and  O3_17 
REMARK    5  A    between atoms: O3_17  and  C15_18 
ROOT
HETATM    1  C1  UNL     1       1.148   0.945   0.383  1.00  0.00     0.096 A 
HETATM    2  C2  UNL     1       1.203  -0.445   0.115  1.00  0.00     0.049 A 
HETATM    3  C3  UNL     1       0.008  -1.162  -0.152  1.00  0.00     0.096 A 
HETATM    4  C4  UNL     1      -1.234  -0.479  -0.147  1.00  0.00     0.044 A 
HETATM    5  C5  UNL     1      -1.289   0.910   0.127  1.00  0.00     0.098 A 
HETATM    6  C6  UNL     1      -0.094   1.621   0.387  1.00  0.00     0.048 A 
HETATM    7  O1  UNL     1      -2.471   1.566   0.127  1.00  0.00    -0.332 OA
HETATM    8  C7  UNL     1      -3.723   0.867   0.248  1.00  0.00     0.117 C 
HETATM    9  C8  UNL     1      -3.674  -0.551  -0.295  1.00  0.00     0.001 C 
HETATM   10  C9  UNL     1      -2.500  -1.194  -0.438  1.00  0.00     0.002 C 
HETATM   11  C10 UNL     1      -4.076   0.805   1.736  1.00  0.00     0.035 C 
HETATM   12  C11 UNL     1      -4.777   1.681  -0.504  1.00  0.00     0.035 C 
ENDROOT
BRANCH   2  13
HETATM   13  C13 UNL     1       2.498  -1.147   0.113  1.00  0.00     0.141 C 
HETATM   14  C14 UNL     1       3.137  -1.153   1.504  1.00  0.00     0.037 C 
BRANCH  13  15
HETATM   15  O3  UNL     1       3.383  -0.498  -0.774  1.00  0.00    -0.352 OA
BRANCH  15  16
HETATM   16  C15 UNL     1       2.984  -0.594  -2.123  1.00  0.00     0.143 C 
HETATM   17  C16 UNL     1       4.061   0.062  -2.986  1.00  0.00     0.035 C 
ENDBRANCH  15  16
ENDBRANCH  13  15
ENDBRANCH   2  13
BRANCH   1  18
HETATM   18  O4  UNL     1       2.271   1.631   0.637  1.00  0.00    -0.328 OA
HETATM   19  C17 UNL     1       2.150   2.996   1.012  1.00  0.00     0.181 C 
ENDBRANCH   1  18
BRANCH   3  20
HETATM   20  O2  UNL     1       0.059  -2.479  -0.410  1.00  0.00    -0.328 OA
HETATM   21  C12 UNL     1      -0.178  -3.377   0.664  1.00  0.00     0.181 C 
ENDBRANCH   3  20
TORSDOF 5
