REMARK  6 active torsions:
REMARK  status: ('A' for Active; 'I' for Inactive)
REMARK    1  A    between atoms: O1_1  and  C1_2 
REMARK    2  A    between atoms: O1_1  and  C3_4 
REMARK    3  A    between atoms: C3_4  and  C4_5 
REMARK    4  A    between atoms: C8_9  and  O3_12 
REMARK    5  A    between atoms: O3_12  and  C10_13 
REMARK    6  A    between atoms: C10_13  and  C11_15 
ROOT
HETATM    1  C4  UNL     1       2.520   0.899   0.361  1.00  0.00     0.091 A 
HETATM    2  C5  UNL     1       3.266  -0.295   0.361  1.00  0.00     0.010 A 
HETATM    3  C6  UNL     1       2.607  -1.533   0.361  1.00  0.00     0.030 A 
HETATM    4  C7  UNL     1       1.203  -1.590   0.361  1.00  0.00     0.156 A 
HETATM    5  C8  UNL     1       0.455  -0.396   0.361  1.00  0.00     0.154 A 
HETATM    6  C9  UNL     1       1.111   0.850   0.361  1.00  0.00     0.161 A 
HETATM    7  O2  UNL     1       0.404   1.963   0.361  1.00  0.00    -0.188 OA
HETATM    8  O8  UNL     1       0.592  -2.758   0.361  1.00  0.00    -0.188 OA
ENDROOT
BRANCH   5   9
HETATM    9  O3  UNL     1      -0.863  -0.447   0.361  1.00  0.00    -0.269 OA
BRANCH   9  10
HETATM   10  C10 UNL     1      -1.479  -1.199  -0.545  1.00  0.00     0.300 C 
HETATM   11  O4  UNL     1      -0.928  -1.682  -1.508  1.00  0.00    -0.259 OA
BRANCH  10  12
HETATM   12  C11 UNL     1      -2.936  -1.424  -0.301  1.00  0.00     0.068 A 
HETATM   13  C12 UNL     1      -3.559  -0.855   0.824  1.00  0.00     0.035 A 
HETATM   14  C13 UNL     1      -4.928  -1.066   1.055  1.00  0.00     0.158 A 
HETATM   15  C14 UNL     1      -5.680  -1.848   0.158  1.00  0.00     0.181 A 
HETATM   16  O7  UNL     1      -5.506  -0.529   2.111  1.00  0.00    -0.188 OA
HETATM   17  C15 UNL     1      -5.059  -2.418  -0.971  1.00  0.00     0.158 A 
HETATM   18  O6  UNL     1      -6.965  -2.045   0.373  1.00  0.00    -0.186 OA
HETATM   19  C16 UNL     1      -3.688  -2.205  -1.197  1.00  0.00     0.035 A 
HETATM   20  O5  UNL     1      -5.758  -3.150  -1.813  1.00  0.00    -0.188 OA
ENDBRANCH  10  12
ENDBRANCH   9  10
ENDBRANCH   5   9
BRANCH   1  21
HETATM   21  C3  UNL     1       3.230   2.213   0.361  1.00  0.00     0.298 C 
HETATM   22  O9  UNL     1       2.781   3.162   0.959  1.00  0.00    -0.259 OA
BRANCH  21  23
HETATM   23  O1  UNL     1       4.365   2.244  -0.332  1.00  0.00    -0.298 OA
BRANCH  23  24
HETATM   24  C1  UNL     1       4.990   3.518  -0.291  1.00  0.00     0.152 C 
HETATM   25  C2  UNL     1       6.283   3.479  -1.105  1.00  0.00     0.035 C 
ENDBRANCH  23  24
ENDBRANCH  21  23
ENDBRANCH   1  21
TORSDOF 6
