REMARK  5 active torsions:
REMARK  status: ('A' for Active; 'I' for Inactive)
REMARK    1  A    between atoms: C2_2  and  C3_3 
REMARK    2  A    between atoms: C3_3  and  C4_4 
REMARK    3  A    between atoms: C4_4  and  C5_5 
REMARK    4  A    between atoms: C5_5  and  C6_6 
REMARK    5  A    between atoms: C5_5  and  C8_8 
ROOT
HETATM    1  C4  UNL     1      -0.406   0.041  -0.209  1.00  0.00     0.000 C 
ENDROOT
BRANCH   1   2
HETATM    2  C3  UNL     1       0.305   0.810   0.904  1.00  0.00     0.000 C 
BRANCH   2   3
HETATM    3  C2  UNL     1       0.016   2.312   0.859  1.00  0.00     0.000 C 
HETATM    4  C1  UNL     1       0.557   3.053   2.082  1.00  0.00     0.000 C 
HETATM    5  C10 UNL     1       0.445   2.957  -0.459  1.00  0.00     0.000 C 
ENDBRANCH   2   3
ENDBRANCH   1   2
BRANCH   1   6
HETATM    6  C5  UNL     1      -0.363  -1.475   0.002  1.00  0.00     0.000 C 
BRANCH   6   7
HETATM    7  C6  UNL     1      -1.142  -2.240  -1.068  1.00  0.00     0.000 C 
HETATM    8  C7  UNL     1      -2.656  -2.061  -0.938  1.00  0.00     0.000 C 
ENDBRANCH   6   7
BRANCH   6   9
HETATM    9  C8  UNL     1       1.059  -2.004   0.187  1.00  0.00     0.000 C 
HETATM   10  C9  UNL     1       1.949  -1.744  -1.027  1.00  0.00     0.000 C 
ENDBRANCH   6   9
ENDBRANCH   1   6
TORSDOF 5
