REMARK  6 active torsions:
REMARK  status: ('A' for Active; 'I' for Inactive)
REMARK    1  A    between atoms: C1_1  and  C14_21 
REMARK    2  A    between atoms: C4_4  and  O2_8 
REMARK    3  A    between atoms: O2_8  and  C7_9 
REMARK    4  A    between atoms: C7_9  and  C8_11 
REMARK    5  A    between atoms: C14_21  and  O8_22 
REMARK    6  A    between atoms: O8_22  and  C15_23 
ROOT
HETATM    1  C1  UNL     1       2.305  -2.067   0.223  1.00  0.00     0.067 A 
HETATM    2  C2  UNL     1       0.901  -2.115   0.223  1.00  0.00     0.035 A 
HETATM    3  C3  UNL     1       0.152  -0.926   0.223  1.00  0.00     0.156 A 
HETATM    4  C4  UNL     1       0.811   0.318   0.223  1.00  0.00     0.154 A 
HETATM    5  C5  UNL     1       2.217   0.369   0.223  1.00  0.00     0.156 A 
HETATM    6  C6  UNL     1       2.961  -0.824   0.223  1.00  0.00     0.035 A 
HETATM    7  O1  UNL     1       2.838   1.531   0.223  1.00  0.00    -0.188 OA
HETATM    8  O7  UNL     1      -1.166  -0.979   0.223  1.00  0.00    -0.188 OA
ENDROOT
BRANCH   4   9
HETATM    9  O2  UNL     1       0.109   1.435   0.223  1.00  0.00    -0.269 OA
BRANCH   9  10
HETATM   10  C7  UNL     1      -0.851   1.594  -0.684  1.00  0.00     0.300 C 
HETATM   11  O3  UNL     1      -0.996   0.875  -1.645  1.00  0.00    -0.259 OA
BRANCH  10  12
HETATM   12  C8  UNL     1      -1.771   2.744  -0.438  1.00  0.00     0.068 A 
HETATM   13  C9  UNL     1      -2.826   3.006  -1.332  1.00  0.00     0.035 A 
HETATM   14  C10 UNL     1      -3.693   4.088  -1.104  1.00  0.00     0.158 A 
HETATM   15  C11 UNL     1      -3.508   4.910   0.021  1.00  0.00     0.181 A 
HETATM   16  O6  UNL     1      -4.680   4.328  -1.945  1.00  0.00    -0.188 OA
HETATM   17  C12 UNL     1      -2.453   4.650   0.918  1.00  0.00     0.158 A 
HETATM   18  O5  UNL     1      -4.320   5.926   0.238  1.00  0.00    -0.186 OA
HETATM   19  C13 UNL     1      -1.588   3.566   0.686  1.00  0.00     0.035 A 
HETATM   20  O4  UNL     1      -2.275   5.418   1.975  1.00  0.00    -0.188 OA
ENDBRANCH  10  12
ENDBRANCH   9  10
ENDBRANCH   4   9
BRANCH   1  21
HETATM   21  C14 UNL     1       3.098  -3.332   0.223  1.00  0.00     0.296 C 
HETATM   22  O9  UNL     1       4.307  -3.309   0.223  1.00  0.00    -0.259 OA
BRANCH  21  23
HETATM   23  O8  UNL     1       2.381  -4.451   0.223  1.00  0.00    -0.298 OA
BRANCH  23  24
HETATM   24  C15 UNL     1       3.194  -5.616   0.223  1.00  0.00     0.152 C 
HETATM   25  C16 UNL     1       2.303  -6.860   0.223  1.00  0.00     0.035 C 
ENDBRANCH  23  24
ENDBRANCH  21  23
ENDBRANCH   1  21
TORSDOF 6
