REMARK  1 active torsions:
REMARK  status: ('A' for Active; 'I' for Inactive)
REMARK    1  A    between atoms: C3_3  and  C7_8 
ROOT
HETATM    1  C1  UNL     1      -1.877  -0.856  -0.297  1.00  0.00     0.027 A 
HETATM    2  C2  UNL     1      -1.221   0.387  -0.297  1.00  0.00    -0.002 A 
HETATM    3  C3  UNL     1       0.186   0.439  -0.297  1.00  0.00    -0.022 A 
HETATM    4  C4  UNL     1       0.930  -0.752  -0.297  1.00  0.00    -0.002 A 
HETATM    5  C5  UNL     1       0.271  -1.994  -0.297  1.00  0.00     0.027 A 
HETATM    6  C6  UNL     1      -1.133  -2.049  -0.297  1.00  0.00     0.131 A 
HETATM    7  O1  UNL     1      -1.750  -3.213  -0.297  1.00  0.00    -0.190 OA
ENDROOT
BRANCH   3   8
HETATM    8  C7  UNL     1       0.881   1.752  -0.297  1.00  0.00     0.026 C 
HETATM    9  C8  UNL     1       1.133   2.256   1.125  1.00  0.00     0.005 C 
ENDBRANCH   3   8
TORSDOF 1
