REMARK  3 active torsions:
REMARK  status: ('A' for Active; 'I' for Inactive)
REMARK    1  A    between atoms: C3_4  and  C6_8 
REMARK    2  A    between atoms: C9_11  and  O3_14 
REMARK    3  A    between atoms: C14_17  and  O5_22 
ROOT
HETATM    1  C1  UNL     1      -0.985  -1.766   0.772  1.00  0.00     0.087 A 
HETATM    2  C2  UNL     1      -1.137  -0.451   0.254  1.00  0.00     0.103 A 
HETATM    3  O1  UNL     1      -0.049   0.295  -0.045  1.00  0.00    -0.307 OA
HETATM    4  C3  UNL     1       1.219  -0.133   0.121  1.00  0.00     0.103 A 
HETATM    5  C4  UNL     1       1.486  -1.365   0.606  1.00  0.00     0.067 A 
HETATM    6  C5  UNL     1       0.396  -2.293   0.975  1.00  0.00     0.202 A 
HETATM    7  O2  UNL     1       0.715  -3.379   1.400  1.00  0.00    -0.286 OA
HETATM    8  C13 UNL     1      -2.436   0.076   0.049  1.00  0.00     0.023 A 
HETATM    9  C14 UNL     1      -3.576  -0.705   0.361  1.00  0.00     0.090 A 
HETATM   10  C15 UNL     1      -3.420  -2.016   0.881  1.00  0.00     0.026 A 
HETATM   11  C16 UNL     1      -2.123  -2.549   1.086  1.00  0.00     0.134 A 
HETATM   12  O4  UNL     1      -1.983  -3.791   1.576  1.00  0.00    -0.190 OA
HETATM   13  C17 UNL     1      -4.610  -2.824   1.205  1.00  0.00     0.035 C 
HETATM   14  C19 UNL     1      -2.598   1.438  -0.490  1.00  0.00     0.035 C 
ENDROOT
BRANCH   4  15
HETATM   15  C6  UNL     1       2.357   0.766  -0.234  1.00  0.00     0.023 A 
HETATM   16  C7  UNL     1       2.187   1.770  -1.205  1.00  0.00     0.004 A 
HETATM   17  C8  UNL     1       3.260   2.613  -1.539  1.00  0.00     0.024 A 
HETATM   18  C9  UNL     1       4.506   2.459  -0.904  1.00  0.00     0.094 A 
HETATM   19  C10 UNL     1       4.674   1.455   0.065  1.00  0.00     0.024 A 
HETATM   20  C11 UNL     1       3.601   0.609   0.400  1.00  0.00     0.004 A 
BRANCH  18  21
HETATM   21  O3  UNL     1       5.510   3.252  -1.219  1.00  0.00    -0.328 OA
HETATM   22  C12 UNL     1       6.725   3.106  -0.498  1.00  0.00     0.181 C 
ENDBRANCH  18  21
ENDBRANCH   4  15
BRANCH   9  23
HETATM   23  O5  UNL     1      -4.805  -0.203   0.168  1.00  0.00    -0.329 OA
HETATM   24  C18 UNL     1      -5.481  -0.541  -1.035  1.00  0.00     0.181 C 
ENDBRANCH   9  23
TORSDOF 3
