REMARK  1 active torsions:
REMARK  status: ('A' for Active; 'I' for Inactive)
REMARK    1  A    between atoms: C2_3  and  N3_7 
REMARK       I    between atoms: N3_7  and  C4_8 
ROOT
HETATM    1  N1  UNL     1       2.272  -0.631   0.803  1.00  0.00    -0.152 NA
HETATM    2  C1  UNL     1       0.926  -1.027   0.719  1.00  0.00     0.306 A 
HETATM    3  C2  UNL     1       0.055   0.213   0.693  1.00  0.00     0.295 A 
HETATM    4  N2  UNL     1       1.018   1.308   0.779  1.00  0.00    -0.185 NA
HETATM    5  C3  UNL     1       2.303   0.766   0.838  1.00  0.00     0.369 A 
HETATM    6  O1  UNL     1       3.315   1.420   0.912  1.00  0.00    -0.243 OA
HETATM    7  O3  UNL     1       0.559  -2.178   0.676  1.00  0.00    -0.266 OA
ENDROOT
BRANCH   3   8
HETATM    8  N3  UNL     1      -0.736   0.322  -0.545  1.00  0.00    -0.183 NA
HETATM    9  C4  UNL     1      -1.885  -0.408  -0.674  1.00  0.00     0.384 C 
HETATM   10  N4  UNL     1      -2.617  -0.307  -1.822  1.00  0.00    -0.084 N 
HETATM   11  O2  UNL     1      -2.248  -1.135   0.221  1.00  0.00    -0.241 OA
ENDBRANCH   3   8
TORSDOF 1
