REMARK  7 active torsions:
REMARK  status: ('A' for Active; 'I' for Inactive)
REMARK    1  A    between atoms: C1_1  and  C14_22 
REMARK    2  A    between atoms: C2_2  and  O3_10 
REMARK    3  A    between atoms: C4_4  and  C7_8 
REMARK    4  A    between atoms: C5_5  and  C6_6 
REMARK    5  A    between atoms: O3_10  and  C8_11 
REMARK    6  A    between atoms: C9_13  and  C13_20 
REMARK    7  A    between atoms: C14_22  and  C15_23 
ROOT
HETATM    1  C1  UNL     1       1.568  -1.232  -0.523  1.00  0.00     0.051 C 
HETATM    2  C2  UNL     1       0.395  -0.570   0.240  1.00  0.00     0.126 C 
HETATM    3  C3  UNL     1       1.027  -0.121   1.574  1.00  0.00     0.054 C 
HETATM    4  C4  UNL     1       2.492  -0.019   1.264  1.00  0.00    -0.015 C 
HETATM    5  C5  UNL     1       2.789  -0.627   0.111  1.00  0.00    -0.015 C 
ENDROOT
BRANCH   2   6
HETATM    6  O3  UNL     1      -0.049   0.569  -0.475  1.00  0.00    -0.331 OA
BRANCH   6   7
HETATM    7  C8  UNL     1      -1.297   1.057  -0.023  1.00  0.00     0.270 C 
HETATM    8  O4  UNL     1      -2.314   0.180  -0.486  1.00  0.00    -0.326 OA
HETATM    9  C9  UNL     1      -3.631   0.510  -0.064  1.00  0.00     0.184 C 
HETATM   10  C10 UNL     1      -4.012   1.904  -0.615  1.00  0.00     0.215 C 
HETATM   11  C11 UNL     1      -2.973   2.973  -0.209  1.00  0.00     0.220 C 
HETATM   12  O7  UNL     1      -5.287   2.260  -0.109  1.00  0.00    -0.218 OA
HETATM   13  C12 UNL     1      -1.549   2.487  -0.566  1.00  0.00     0.241 C 
HETATM   14  O6  UNL     1      -3.248   4.192  -0.883  1.00  0.00    -0.218 OA
HETATM   15  O5  UNL     1      -0.596   3.377  -0.006  1.00  0.00    -0.215 OA
BRANCH   9  16
HETATM   16  C13 UNL     1      -4.551  -0.603  -0.576  1.00  0.00     0.214 C 
HETATM   17  O8  UNL     1      -4.133  -1.820   0.004  1.00  0.00    -0.218 OA
ENDBRANCH   9  16
ENDBRANCH   6   7
ENDBRANCH   2   6
BRANCH   1  18
HETATM   18  C14 UNL     1       1.535  -2.742  -0.309  1.00  0.00     0.042 C 
BRANCH  18  19
HETATM   19  C15 UNL     1       2.649  -3.396  -1.129  1.00  0.00     0.183 C 
HETATM   20  O9  UNL     1       2.445  -4.791  -1.113  1.00  0.00    -0.221 OA
ENDBRANCH  18  19
ENDBRANCH   1  18
BRANCH   5  21
HETATM   21  C6  UNL     1       4.162  -0.709  -0.504  1.00  0.00     0.204 C 
HETATM   22  O1  UNL     1       4.563   0.574  -0.928  1.00  0.00    -0.216 OA
ENDBRANCH   5  21
BRANCH   4  23
HETATM   23  C7  UNL     1       3.475   0.692   2.158  1.00  0.00     0.204 C 
HETATM   24  O2  UNL     1       3.945  -0.201   3.143  1.00  0.00    -0.216 OA
ENDBRANCH   4  23
TORSDOF 7
