REMARK  6 active torsions:
REMARK  status: ('A' for Active; 'I' for Inactive)
REMARK    1  A    between atoms: C1_1  and  O6_27 
REMARK    2  A    between atoms: C4_4  and  C8_9 
REMARK    3  A    between atoms: C6_6  and  O1_7 
REMARK    4  A    between atoms: C13_16  and  C14_17 
REMARK    5  A    between atoms: C17_20  and  O5_25 
REMARK    6  A    between atoms: C18_21  and  O4_23 
ROOT
HETATM    1  C8  UNL     1       1.031   0.361  -0.393  1.00  0.00     0.140 C 
HETATM    2  O2  UNL     1       0.938  -1.039  -0.498  1.00  0.00    -0.352 OA
HETATM    3  C9  UNL     1      -0.367  -1.447  -0.176  1.00  0.00     0.145 C 
HETATM    4  C10 UNL     1      -1.230  -0.428  -0.928  1.00  0.00     0.066 C 
HETATM    5  C11 UNL     1      -0.357   0.840  -0.850  1.00  0.00     0.066 C 
HETATM    6  C12 UNL     1      -1.121   1.678   0.176  1.00  0.00     0.145 C 
HETATM    7  O3  UNL     1      -2.463   1.375  -0.117  1.00  0.00    -0.352 OA
HETATM    8  C13 UNL     1      -2.611  -0.002  -0.383  1.00  0.00     0.140 C 
ENDROOT
BRANCH   1   9
HETATM    9  C4  UNL     1       2.160   0.865  -1.219  1.00  0.00     0.007 A 
HETATM   10  C3  UNL     1       2.119   2.164  -1.752  1.00  0.00     0.000 A 
HETATM   11  C2  UNL     1       3.186   2.637  -2.533  1.00  0.00     0.026 A 
HETATM   12  C1  UNL     1       4.299   1.814  -2.785  1.00  0.00     0.116 A 
HETATM   13  C6  UNL     1       4.342   0.514  -2.250  1.00  0.00     0.116 A 
HETATM   14  C5  UNL     1       3.272   0.041  -1.469  1.00  0.00     0.024 A 
BRANCH  12  15
HETATM   15  O6  UNL     1       5.297   2.266  -3.520  1.00  0.00    -0.326 OA
HETATM   16  C22 UNL     1       5.147   3.531  -4.143  1.00  0.00     0.181 C 
ENDBRANCH  12  15
BRANCH  13  17
HETATM   17  O1  UNL     1       5.381  -0.266  -2.481  1.00  0.00    -0.326 OA
HETATM   18  C7  UNL     1       5.940  -0.262  -3.787  1.00  0.00     0.181 C 
ENDBRANCH  13  17
ENDBRANCH   1   9
BRANCH   8  19
HETATM   19  C14 UNL     1      -3.055  -0.715   0.849  1.00  0.00     0.007 A 
HETATM   20  C15 UNL     1      -4.266  -1.426   0.855  1.00  0.00     0.000 A 
HETATM   21  C16 UNL     1      -4.680  -2.096   2.019  1.00  0.00     0.026 A 
HETATM   22  C17 UNL     1      -3.887  -2.057   3.180  1.00  0.00     0.116 A 
HETATM   23  C18 UNL     1      -2.674  -1.344   3.174  1.00  0.00     0.116 A 
HETATM   24  C19 UNL     1      -2.260  -0.674   2.008  1.00  0.00     0.024 A 
BRANCH  22  25
HETATM   25  O5  UNL     1      -4.283  -2.688   4.267  1.00  0.00    -0.326 OA
HETATM   26  C21 UNL     1      -5.256  -3.711   4.127  1.00  0.00     0.181 C 
ENDBRANCH  22  25
BRANCH  23  27
HETATM   27  O4  UNL     1      -1.924  -1.301   4.258  1.00  0.00    -0.326 OA
HETATM   28  C20 UNL     1      -2.174  -0.270   5.201  1.00  0.00     0.181 C 
ENDBRANCH  23  27
ENDBRANCH   8  19
TORSDOF 6
