REMARK  6 active torsions:
REMARK  status: ('A' for Active; 'I' for Inactive)
REMARK    1  A    between atoms: C2_2  and  O5_17 
REMARK    2  A    between atoms: C3_3  and  C9_11 
REMARK    3  A    between atoms: C4_4  and  O2_9 
REMARK    4  A    between atoms: C6_6  and  O1_7 
REMARK    5  A    between atoms: C9_11  and  C10_12 
REMARK    6  A    between atoms: C10_12  and  C11_13 
ROOT
HETATM    1  C1  UNL     1       1.951  -0.957   0.133  1.00  0.00     0.049 A 
HETATM    2  C2  UNL     1       1.209   0.238   0.133  1.00  0.00     0.101 A 
HETATM    3  C3  UNL     1      -0.199   0.185   0.133  1.00  0.00     0.080 A 
HETATM    4  C4  UNL     1      -0.859  -1.059   0.133  1.00  0.00     0.101 A 
HETATM    5  C5  UNL     1      -0.107  -2.248   0.133  1.00  0.00     0.049 A 
HETATM    6  C6  UNL     1       1.297  -2.201   0.133  1.00  0.00     0.098 A 
ENDROOT
BRANCH   3   7
HETATM    7  C9  UNL     1      -0.992   1.453   0.133  1.00  0.00     0.184 C 
HETATM    8  O4  UNL     1      -2.102   1.492   0.613  1.00  0.00    -0.291 OA
BRANCH   7   9
HETATM    9  C10 UNL     1      -0.373   2.678  -0.482  1.00  0.00     0.134 C 
BRANCH   9  10
HETATM   10  C11 UNL     1      -1.439   3.637  -0.941  1.00  0.00     0.159 C 
HETATM   11  C12 UNL     1      -2.006   4.600   0.069  1.00  0.00     0.073 C 
HETATM   12  O3  UNL     1      -1.830   3.631  -2.084  1.00  0.00    -0.296 OA
ENDBRANCH   9  10
ENDBRANCH   7   9
ENDBRANCH   3   7
BRANCH   2  13
HETATM   13  O5  UNL     1       1.840   1.394   0.133  1.00  0.00    -0.328 OA
HETATM   14  C13 UNL     1       3.256   1.383   0.022  1.00  0.00     0.181 C 
ENDBRANCH   2  13
BRANCH   4  15
HETATM   15  O2  UNL     1      -2.176  -1.123   0.133  1.00  0.00    -0.328 OA
HETATM   16  C8  UNL     1      -2.781  -2.406   0.133  1.00  0.00     0.181 C 
ENDBRANCH   4  15
BRANCH   6  17
HETATM   17  O1  UNL     1       1.996  -3.317   0.133  1.00  0.00    -0.328 OA
HETATM   18  C7  UNL     1       1.291  -4.547   0.201  1.00  0.00     0.181 C 
ENDBRANCH   6  17
TORSDOF 6
