REMARK  5 active torsions:
REMARK  status: ('A' for Active; 'I' for Inactive)
REMARK    1  A    between atoms: C2_2  and  C23_26 
REMARK    2  A    between atoms: C6_6  and  C7_7 
REMARK    3  A    between atoms: C10_12  and  C11_13 
REMARK    4  A    between atoms: C11_13  and  C12_14 
REMARK    5  A    between atoms: C17_19  and  C20_22 
ROOT
HETATM    1  C1  UNL     1      -3.746  -1.672   1.226  1.00  0.00     0.141 A 
HETATM    2  C2  UNL     1      -4.299  -0.433   0.818  1.00  0.00     0.093 A 
HETATM    3  C3  UNL     1      -3.514   0.496   0.090  1.00  0.00     0.134 A 
HETATM    4  C4  UNL     1      -2.166   0.190  -0.233  1.00  0.00     0.026 A 
HETATM    5  C5  UNL     1      -1.604  -1.051   0.185  1.00  0.00     0.097 A 
HETATM    6  C6  UNL     1      -2.400  -1.976   0.908  1.00  0.00     0.090 A 
HETATM    7  O2  UNL     1      -0.322  -1.373  -0.096  1.00  0.00    -0.336 OA
HETATM    8  C8  UNL     1       0.598  -0.391  -0.586  1.00  0.00     0.099 C 
HETATM    9  C9  UNL     1      -0.090   0.504  -1.625  1.00  0.00     0.032 C 
HETATM   10  C10 UNL     1      -1.342   1.160  -1.004  1.00  0.00     0.029 C 
HETATM   11  C15 UNL     1       1.803  -1.115  -1.182  1.00  0.00     0.025 A 
HETATM   12  C16 UNL     1       3.119  -0.404  -1.422  1.00  0.00     0.002 A 
HETATM   13  C17 UNL     1       2.889  -1.195  -0.149  1.00  0.00     0.002 A 
HETATM   14  C18 UNL     1       2.383  -0.500   1.109  1.00  0.00     0.003 C 
HETATM   15  C19 UNL     1       1.225   0.367   0.601  1.00  0.00     0.028 C 
HETATM   16  O3  UNL     1      -4.045   1.666  -0.295  1.00  0.00    -0.190 OA
HETATM   17  O5  UNL     1      -4.492  -2.551   1.912  1.00  0.00    -0.190 OA
ENDROOT
BRANCH  10  18
HETATM   18  C11 UNL     1      -0.980   2.371  -0.133  1.00  0.00     0.005 C 
BRANCH  18  19
HETATM   19  C12 UNL     1      -0.104   3.385  -0.867  1.00  0.00     0.000 C 
HETATM   20  C13 UNL     1      -0.705   3.828  -2.203  1.00  0.00     0.000 C 
HETATM   21  C14 UNL     1       0.301   4.565   0.015  1.00  0.00     0.000 C 
ENDBRANCH  18  19
ENDBRANCH  10  18
BRANCH  13  22
HETATM   22  C20 UNL     1       3.666  -2.494   0.031  1.00  0.00     0.000 C 
HETATM   23  C21 UNL     1       4.908  -2.234   0.883  1.00  0.00     0.000 C 
HETATM   24  C22 UNL     1       2.748  -3.557   0.637  1.00  0.00     0.000 C 
ENDBRANCH  13  22
BRANCH   6  25
HETATM   25  C7  UNL     1      -1.820  -3.269   1.332  1.00  0.00     0.238 C 
HETATM   26  O1  UNL     1      -2.389  -4.299   1.613  1.00  0.00    -0.283 OA
ENDBRANCH   6  25
BRANCH   2  27
HETATM   27  C23 UNL     1      -5.703  -0.107   1.152  1.00  0.00     0.238 C 
HETATM   28  O4  UNL     1      -6.238   0.975   1.205  1.00  0.00    -0.283 OA
ENDBRANCH   2  27
TORSDOF 5
