REMARK  4 active torsions:
REMARK  status: ('A' for Active; 'I' for Inactive)
REMARK    1  A    between atoms: C2_2  and  C27_30 
REMARK    2  A    between atoms: C6_6  and  C7_7 
REMARK    3  A    between atoms: C10_12  and  C11_13 
REMARK    4  A    between atoms: C11_13  and  C12_14 
ROOT
HETATM    1  C1  UNL     1      -4.221  -2.031  -0.451  1.00  0.00     0.141 A 
HETATM    2  C2  UNL     1      -4.053  -1.324  -1.670  1.00  0.00     0.093 A 
HETATM    3  C3  UNL     1      -3.072  -0.305  -1.779  1.00  0.00     0.134 A 
HETATM    4  C4  UNL     1      -2.256   0.010  -0.660  1.00  0.00     0.026 A 
HETATM    5  C5  UNL     1      -2.387  -0.730   0.533  1.00  0.00     0.097 A 
HETATM    6  C6  UNL     1      -3.381  -1.730   0.650  1.00  0.00     0.090 A 
HETATM    7  O2  UNL     1      -1.557  -0.461   1.557  1.00  0.00    -0.336 OA
HETATM    8  C8  UNL     1      -0.162  -0.201   1.326  1.00  0.00     0.099 C 
HETATM    9  C9  UNL     1       0.043   0.744   0.072  1.00  0.00     0.030 C 
HETATM   10  C10 UNL     1      -1.275   1.119  -0.666  1.00  0.00     0.029 C 
HETATM   11  C14 UNL     1       0.889   2.022   0.324  1.00  0.00     0.007 C 
HETATM   12  C15 UNL     1       2.361   1.826   0.731  1.00  0.00     0.022 C 
HETATM   13  C16 UNL     1       3.340   1.637  -0.416  1.00  0.00    -0.048 C 
HETATM   14  C17 UNL     1       3.981   2.906  -0.928  1.00  0.00     0.026 C 
HETATM   15  C18 UNL     1       3.670   0.445  -0.977  1.00  0.00    -0.035 C 
HETATM   16  C19 UNL     1       3.008  -0.832  -0.484  1.00  0.00     0.021 A 
HETATM   17  C20 UNL     1       3.102  -1.260   0.969  1.00  0.00     0.004 A 
HETATM   18  C21 UNL     1       1.900  -1.871   1.693  1.00  0.00     0.003 C 
HETATM   19  C22 UNL     1       0.482  -1.613   1.131  1.00  0.00     0.028 C 
HETATM   20  C23 UNL     1       3.859  -2.029  -0.100  1.00  0.00     0.004 A 
HETATM   21  C24 UNL     1       3.357  -3.404  -0.527  1.00  0.00     0.000 C 
HETATM   22  C25 UNL     1       5.377  -1.883  -0.115  1.00  0.00     0.000 C 
HETATM   23  C26 UNL     1       0.311   0.439   2.639  1.00  0.00     0.030 C 
HETATM   24  O3  UNL     1      -2.932   0.375  -2.928  1.00  0.00    -0.190 OA
HETATM   25  O5  UNL     1      -5.162  -2.982  -0.344  1.00  0.00    -0.190 OA
ENDROOT
BRANCH  10  26
HETATM   26  C11 UNL     1      -1.947   2.365  -0.070  1.00  0.00     0.005 C 
BRANCH  26  27
HETATM   27  C12 UNL     1      -3.285   2.688  -0.736  1.00  0.00     0.000 C 
HETATM   28  C13 UNL     1      -3.846   4.045  -0.305  1.00  0.00     0.000 C 
ENDBRANCH  26  27
ENDBRANCH  10  26
BRANCH   2  29
HETATM   29  C27 UNL     1      -4.912  -1.650  -2.832  1.00  0.00     0.238 C 
HETATM   30  O4  UNL     1      -5.143  -0.984  -3.814  1.00  0.00    -0.283 OA
ENDBRANCH   2  29
BRANCH   6  31
HETATM   31  C7  UNL     1      -3.541  -2.469   1.924  1.00  0.00     0.238 C 
HETATM   32  O1  UNL     1      -3.264  -2.111   3.045  1.00  0.00    -0.283 OA
ENDBRANCH   6  31
TORSDOF 4
