REMARK  6 active torsions:
REMARK  status: ('A' for Active; 'I' for Inactive)
REMARK    1  A    between atoms: C5_5  and  O2_11 
REMARK    2  A    between atoms: C7_7  and  C8_8 
REMARK    3  A    between atoms: O2_11  and  C9_12 
REMARK    4  A    between atoms: C9_12  and  C10_13 
REMARK    5  A    between atoms: C19_25  and  O6_26 
REMARK    6  A    between atoms: O6_26  and  C20_27 
ROOT
HETATM    1  C1  UNL     1       1.410  -1.486   1.549  1.00  0.00     0.096 C 
HETATM    2  C2  UNL     1       0.506  -2.408   0.668  1.00  0.00     0.172 C 
HETATM    3  C3  UNL     1      -0.533  -1.668  -0.203  1.00  0.00     0.163 C 
HETATM    4  C4  UNL     1      -1.623  -0.924   0.598  1.00  0.00     0.086 C 
HETATM    5  C5  UNL     1      -1.305   0.557   0.832  1.00  0.00     0.134 C 
HETATM    6  C6  UNL     1       0.156   0.842   1.244  1.00  0.00     0.063 C 
HETATM    7  C7  UNL     1       0.855  -0.178   2.185  1.00  0.00     0.149 C 
HETATM    8  O1  UNL     1      -0.031  -0.512   3.234  1.00  0.00    -0.224 OA
HETATM    9  C14 UNL     1      -2.834  -1.221  -0.233  1.00  0.00     0.045 C 
HETATM   10  C15 UNL     1      -2.486  -2.254  -1.195  1.00  0.00     0.292 C 
HETATM   11  O4  UNL     1      -1.199  -2.584  -1.090  1.00  0.00    -0.298 OA
HETATM   12  O5  UNL     1      -3.276  -2.740  -1.971  1.00  0.00    -0.260 OA
HETATM   13  C16 UNL     1      -4.033  -0.629  -0.096  1.00  0.00     0.001 C 
HETATM   14  C17 UNL     1       1.504  -3.143  -0.193  1.00  0.00    -0.016 C 
HETATM   15  C18 UNL     1       2.707  -2.563  -0.186  1.00  0.00    -0.002 C 
HETATM   16  C19 UNL     1       2.691  -1.346   0.687  1.00  0.00     0.151 C 
HETATM   17  C22 UNL     1       1.180  -4.395  -0.971  1.00  0.00     0.029 C 
HETATM   18  O8  UNL     1      -0.162  -3.348   1.496  1.00  0.00    -0.219 OA
ENDROOT
BRANCH   5  19
HETATM   19  O2  UNL     1      -1.584   1.305  -0.346  1.00  0.00    -0.301 OA
BRANCH  19  20
HETATM   20  C9  UNL     1      -1.674   2.609  -0.109  1.00  0.00     0.291 C 
HETATM   21  O3  UNL     1      -1.727   3.090   1.000  1.00  0.00    -0.260 OA
BRANCH  20  22
HETATM   22  C10 UNL     1      -1.707   3.473  -1.295  1.00  0.00     0.037 C 
HETATM   23  C11 UNL     1      -2.766   3.545  -2.119  1.00  0.00    -0.025 C 
HETATM   24  C12 UNL     1      -3.973   2.699  -1.811  1.00  0.00     0.030 C 
HETATM   25  C13 UNL     1      -0.500   4.318  -1.604  1.00  0.00     0.036 C 
ENDBRANCH  20  22
ENDBRANCH  19  20
ENDBRANCH   5  19
BRANCH   7  26
HETATM   26  C8  UNL     1       2.053   0.482   2.883  1.00  0.00     0.126 C 
HETATM   27 CL1  UNL     1       2.664  -0.596   4.164  1.00  0.00    -0.111 Cl
ENDBRANCH   7  26
BRANCH  16  28
HETATM   28  O6  UNL     1       2.652  -0.197  -0.147  1.00  0.00    -0.300 OA
BRANCH  28  29
HETATM   29  C20 UNL     1       3.816   0.033  -0.746  1.00  0.00     0.273 C 
HETATM   30  C21 UNL     1       3.832   1.207  -1.690  1.00  0.00     0.106 C 
HETATM   31  O7  UNL     1       4.809  -0.635  -0.568  1.00  0.00    -0.264 OA
ENDBRANCH  28  29
ENDBRANCH  16  28
TORSDOF 6
