REMARK  5 active torsions:
REMARK  status: ('A' for Active; 'I' for Inactive)
REMARK    1  A    between atoms: C3_3  and  O7_26 
REMARK    2  A    between atoms: C8_8  and  O3_16 
REMARK    3  A    between atoms: O3_16  and  C14_17 
REMARK    4  A    between atoms: C14_17  and  C15_18 
REMARK    5  A    between atoms: O7_26  and  C20_27 
ROOT
HETATM    1  C1  UNL     1      -0.133  -1.879   1.922  1.00  0.00    -0.002 C 
HETATM    2  C2  UNL     1       1.154  -2.274   1.783  1.00  0.00    -0.018 C 
HETATM    3  C3  UNL     1       1.949  -2.272   0.490  1.00  0.00     0.145 C 
HETATM    4  C4  UNL     1       2.760  -0.990   0.197  1.00  0.00     0.072 C 
HETATM    5  C5  UNL     1       1.949   0.324   0.096  1.00  0.00     0.173 C 
HETATM    6  C6  UNL     1       1.551   0.932   1.434  1.00  0.00    -0.016 C 
HETATM    7  C7  UNL     1       0.313   1.344   1.787  1.00  0.00    -0.002 C 
HETATM    8  C8  UNL     1      -0.963   1.273   0.967  1.00  0.00     0.153 C 
HETATM    9  C9  UNL     1      -1.748  -0.023   1.230  1.00  0.00     0.092 C 
HETATM   10  C10 UNL     1      -1.018  -1.318   0.826  1.00  0.00     0.153 C 
HETATM   11  O1  UNL     1      -2.018  -2.272   0.443  1.00  0.00    -0.296 OA
HETATM   12  C11 UNL     1      -3.115  -1.611   0.076  1.00  0.00     0.292 C 
HETATM   13  C12 UNL     1      -3.018  -0.209   0.457  1.00  0.00     0.046 C 
HETATM   14  C13 UNL     1      -3.902   0.762   0.170  1.00  0.00     0.001 C 
HETATM   15  O2  UNL     1      -4.074  -2.090  -0.484  1.00  0.00    -0.259 OA
HETATM   16  C19 UNL     1       2.654   1.084   2.455  1.00  0.00     0.029 C 
HETATM   17  O6  UNL     1       2.740   1.279  -0.584  1.00  0.00    -0.219 OA
HETATM   18  C22 UNL     1       1.881  -2.770   3.008  1.00  0.00     0.029 C 
ENDROOT
BRANCH   8  19
HETATM   19  O3  UNL     1      -0.732   1.459  -0.424  1.00  0.00    -0.298 OA
BRANCH  19  20
HETATM   20  C14 UNL     1      -0.389   2.711  -0.717  1.00  0.00     0.299 C 
HETATM   21  O5  UNL     1      -0.150   3.555   0.115  1.00  0.00    -0.262 OA
BRANCH  20  22
HETATM   22  C15 UNL     1      -0.314   3.014  -2.199  1.00  0.00     0.195 A 
HETATM   23  C16 UNL     1      -1.562   2.904  -3.147  1.00  0.00     0.150 A 
HETATM   24  O4  UNL     1      -1.168   4.072  -2.500  1.00  0.00    -0.347 OA
HETATM   25  C17 UNL     1      -2.941   2.516  -2.635  1.00  0.00     0.035 C 
HETATM   26  C18 UNL     1       1.070   3.350  -2.733  1.00  0.00     0.043 C 
ENDBRANCH  20  22
ENDBRANCH  19  20
ENDBRANCH   8  19
BRANCH   3  27
HETATM   27  O7  UNL     1       1.143  -2.606  -0.631  1.00  0.00    -0.300 OA
BRANCH  27  28
HETATM   28  C20 UNL     1       0.656  -3.842  -0.555  1.00  0.00     0.273 C 
HETATM   29  C21 UNL     1      -0.193  -4.268  -1.721  1.00  0.00     0.106 C 
HETATM   30  O8  UNL     1       0.865  -4.592   0.369  1.00  0.00    -0.264 OA
ENDBRANCH  27  28
ENDBRANCH   3  27
TORSDOF 5
