REMARK  2 active torsions:
REMARK  status: ('A' for Active; 'I' for Inactive)
REMARK    1  A    between atoms: C3_3  and  O4_19 
REMARK    2  A    between atoms: O4_19  and  C16_20 
ROOT
HETATM    1  C1  UNL     1      -0.160   1.772  -0.355  1.00  0.00    -0.032 C 
HETATM    2  C2  UNL     1      -1.525   1.572   0.258  1.00  0.00     0.060 C 
HETATM    3  C3  UNL     1      -1.789   0.080   0.539  1.00  0.00     0.147 C 
HETATM    4  C4  UNL     1      -1.650  -0.781  -0.707  1.00  0.00    -0.018 C 
HETATM    5  C5  UNL     1      -0.502  -1.373  -1.109  1.00  0.00    -0.002 C 
HETATM    6  C6  UNL     1       0.844  -1.295  -0.402  1.00  0.00     0.153 C 
HETATM    7  C7  UNL     1       1.945  -0.621  -1.273  1.00  0.00     0.090 C 
HETATM    8  C8  UNL     1       2.900   0.369  -0.557  1.00  0.00     0.163 C 
HETATM    9  C9  UNL     1       2.316   1.781  -0.316  1.00  0.00     0.055 C 
HETATM   10  C10 UNL     1       0.973   1.764   0.375  1.00  0.00    -0.045 C 
HETATM   11  C11 UNL     1       0.949   1.713   1.883  1.00  0.00     0.026 C 
HETATM   12  O1  UNL     1       3.344  -0.174   0.676  1.00  0.00    -0.223 OA
HETATM   13  C12 UNL     1       2.664  -1.844  -1.766  1.00  0.00     0.046 C 
HETATM   14  C13 UNL     1       2.219  -2.994  -1.000  1.00  0.00     0.292 C 
HETATM   15  O2  UNL     1       1.258  -2.647  -0.146  1.00  0.00    -0.296 OA
HETATM   16  O3  UNL     1       2.678  -4.106  -1.129  1.00  0.00    -0.259 OA
HETATM   17  C14 UNL     1       3.570  -1.854  -2.762  1.00  0.00     0.001 C 
HETATM   18  C15 UNL     1      -2.891  -0.980  -1.543  1.00  0.00     0.029 C 
ENDROOT
BRANCH   3  19
HETATM   19  O4  UNL     1      -3.104  -0.053   1.065  1.00  0.00    -0.300 OA
BRANCH  19  20
HETATM   20  C16 UNL     1      -3.197   0.396   2.313  1.00  0.00     0.273 C 
HETATM   21  C17 UNL     1      -4.592   0.414   2.881  1.00  0.00     0.106 C 
HETATM   22  O5  UNL     1      -2.252   0.770   2.967  1.00  0.00    -0.264 OA
ENDBRANCH  19  20
ENDBRANCH   3  19
TORSDOF 2
