REMARK  3 active torsions:
REMARK  status: ('A' for Active; 'I' for Inactive)
REMARK    1  A    between atoms: C1_1  and  O7_23 
REMARK    2  A    between atoms: C2_2  and  O6_21 
REMARK    3  A    between atoms: C7_8  and  C10_13 
ROOT
HETATM    1  C1  UNL     1      -3.141  -0.482   0.117  1.00  0.00     0.120 A 
HETATM    2  C2  UNL     1      -2.988  -1.787   0.646  1.00  0.00     0.142 A 
HETATM    3  C3  UNL     1      -1.695  -2.328   0.842  1.00  0.00     0.160 A 
HETATM    4  C4  UNL     1      -0.553  -1.557   0.504  1.00  0.00     0.091 A 
HETATM    5  C5  UNL     1      -0.705  -0.250  -0.025  1.00  0.00     0.107 A 
HETATM    6  C6  UNL     1      -2.000   0.285  -0.219  1.00  0.00     0.051 A 
HETATM    7  O1  UNL     1       0.383   0.484  -0.346  1.00  0.00    -0.305 OA
HETATM    8  C7  UNL     1       1.650   0.053  -0.193  1.00  0.00     0.128 A 
HETATM    9  C8  UNL     1       1.928  -1.180   0.303  1.00  0.00     0.192 A 
HETATM   10  C9  UNL     1       0.824  -2.090   0.693  1.00  0.00     0.227 A 
HETATM   11  O2  UNL     1       1.133  -3.176   1.127  1.00  0.00    -0.284 OA
HETATM   12  O3  UNL     1       3.187  -1.598   0.449  1.00  0.00    -0.185 OA
HETATM   13  O5  UNL     1      -1.563  -3.564   1.346  1.00  0.00    -0.188 OA
ENDROOT
BRANCH   8  14
HETATM   14  C10 UNL     1       2.773   0.955  -0.580  1.00  0.00     0.025 A 
HETATM   15  C11 UNL     1       2.678   1.742  -1.742  1.00  0.00     0.004 A 
HETATM   16  C12 UNL     1       3.736   2.592  -2.106  1.00  0.00     0.028 A 
HETATM   17  C13 UNL     1       4.895   2.662  -1.311  1.00  0.00     0.131 A 
HETATM   18  C14 UNL     1       4.988   1.875  -0.148  1.00  0.00     0.028 A 
HETATM   19  O4  UNL     1       5.885   3.459  -1.652  1.00  0.00    -0.190 OA
HETATM   20  C15 UNL     1       3.932   1.024   0.217  1.00  0.00     0.004 A 
ENDBRANCH   8  14
BRANCH   1  21
HETATM   21  O7  UNL     1      -4.365   0.029  -0.066  1.00  0.00    -0.326 OA
HETATM   22  C17 UNL     1      -4.467   1.357  -0.561  1.00  0.00     0.181 C 
ENDBRANCH   1  21
BRANCH   2  23
HETATM   23  O6  UNL     1      -4.070  -2.510   0.965  1.00  0.00    -0.324 OA
HETATM   24  C16 UNL     1      -5.164  -1.842   1.578  1.00  0.00     0.182 C 
ENDBRANCH   2  23
TORSDOF 3
