REMARK  1 active torsions:
REMARK  status: ('A' for Active; 'I' for Inactive)
REMARK    1  A    between atoms: C16_17  and  C25_27 
ROOT
HETATM    1  C1  UNL     1      -0.014  -0.773  -2.720  1.00  0.00     0.239 C 
HETATM    2  C2  UNL     1      -0.079  -2.285  -2.647  1.00  0.00     0.182 C 
HETATM    3  C3  UNL     1       0.557  -3.008  -1.457  1.00  0.00     0.054 C 
HETATM    4  C4  UNL     1       0.459  -2.186  -0.129  1.00  0.00     0.009 C 
HETATM    5  C5  UNL     1       0.522  -0.625  -0.172  1.00  0.00     0.032 C 
HETATM    6  C6  UNL     1      -0.329  -0.153  -1.379  1.00  0.00     0.189 C 
HETATM    7  O1  UNL     1      -0.322   1.245  -1.543  1.00  0.00    -0.220 OA
HETATM    8  C7  UNL     1       2.017  -0.160  -0.176  1.00  0.00     0.007 C 
HETATM    9  C8  UNL     1       2.981  -0.713   0.916  1.00  0.00     0.004 C 
HETATM   10  C9  UNL     1       2.770  -2.239   1.065  1.00  0.00     0.000 C 
HETATM   11  C10 UNL     1       1.315  -2.727   1.037  1.00  0.00     0.001 C 
HETATM   12  C11 UNL     1       4.488  -0.407   0.505  1.00  0.00     0.018 C 
HETATM   13  C12 UNL     1       4.662   1.105   0.447  1.00  0.00    -0.032 C 
HETATM   14  C13 UNL     1       3.613   1.859   0.068  1.00  0.00    -0.031 C 
HETATM   15  C14 UNL     1       2.252   1.355  -0.335  1.00  0.00     0.026 C 
HETATM   16  C15 UNL     1       6.005   1.780   0.718  1.00  0.00    -0.012 C 
HETATM   17  C16 UNL     1       6.847   1.055   1.802  1.00  0.00     0.095 C 
HETATM   18  C17 UNL     1       6.866  -0.467   1.549  1.00  0.00     0.014 C 
HETATM   19  C18 UNL     1       5.460  -1.075   1.514  1.00  0.00     0.005 C 
HETATM   20  C19 UNL     1       8.302   1.583   1.806  1.00  0.00     0.014 C 
HETATM   21  C20 UNL     1       8.360   3.061   1.412  1.00  0.00     0.004 C 
HETATM   22  C21 UNL     1       7.917   3.264  -0.053  1.00  0.00     0.032 C 
HETATM   23  C22 UNL     1       6.831   2.252  -0.504  1.00  0.00     0.142 C 
HETATM   24  C23 UNL     1       5.986   2.881  -1.621  1.00  0.00     0.037 C 
HETATM   25  O2  UNL     1       7.457   1.147  -1.095  1.00  0.00    -0.222 OA
HETATM   26  C24 UNL     1       9.149   3.307  -0.981  1.00  0.00     0.003 C 
HETATM   27  C26 UNL     1       4.883  -0.923  -0.905  1.00  0.00     0.004 C 
HETATM   28  C27 UNL     1       2.667  -0.040   2.286  1.00  0.00     0.000 C 
HETATM   29  C28 UNL     1      -0.248  -0.065   1.062  1.00  0.00     0.003 C 
HETATM   30  C29 UNL     1      -0.214  -4.348  -1.295  1.00  0.00     0.007 C 
HETATM   31  C30 UNL     1       1.976  -3.386  -1.927  1.00  0.00     0.007 C 
HETATM   32  O5  UNL     1      -0.613  -2.890  -3.552  1.00  0.00    -0.293 OA
HETATM   33  O6  UNL     1       1.233  -0.311  -3.198  1.00  0.00    -0.213 OA
ENDROOT
BRANCH  17  34
HETATM   34  C25 UNL     1       6.244   1.347   3.185  1.00  0.00     0.188 C 
HETATM   35  O3  UNL     1       5.418   2.186   3.458  1.00  0.00    -0.647 OA
HETATM   36  O4  UNL     1       6.755   0.570   4.158  1.00  0.00    -0.647 OA
ENDBRANCH  17  34
TORSDOF 1
