REMARK  5 active torsions:
REMARK  status: ('A' for Active; 'I' for Inactive)
REMARK    1  A    between atoms: C3_3  and  O4_20 
REMARK    2  A    between atoms: C4_4  and  C8_9 
REMARK    3  A    between atoms: C5_5  and  O1_7 
REMARK    4  A    between atoms: C8_9  and  C9_10 
REMARK    5  A    between atoms: C10_11  and  C11_12 
ROOT
HETATM    1  C1  UNL     1       2.489  -0.017   1.539  1.00  0.00     0.135 A 
HETATM    2  C2  UNL     1       2.112  -0.468   0.337  1.00  0.00     0.052 A 
HETATM    3  C3  UNL     1       0.899  -0.997   0.083  1.00  0.00     0.101 A 
HETATM    4  C4  UNL     1       0.014  -1.088   1.113  1.00  0.00     0.084 A 
HETATM    5  C5  UNL     1       0.369  -0.661   2.355  1.00  0.00     0.101 A 
HETATM    6  C6  UNL     1       1.607  -0.163   2.533  1.00  0.00     0.052 A 
HETATM    7  O5  UNL     1       3.728   0.498   1.761  1.00  0.00    -0.190 OA
ENDROOT
BRANCH   4   8
HETATM    8  C8  UNL     1      -1.232  -1.634   0.928  1.00  0.00     0.199 C 
HETATM    9  O3  UNL     1      -1.807  -2.163   1.856  1.00  0.00    -0.286 OA
BRANCH   8  10
HETATM   10  C9  UNL     1      -1.936  -1.695  -0.241  1.00  0.00     0.042 C 
HETATM   11  C10 UNL     1      -1.915  -0.956  -1.369  1.00  0.00     0.003 C 
BRANCH  11  12
HETATM   12  C11 UNL     1      -1.386   0.252  -1.665  1.00  0.00     0.000 A 
HETATM   13  C12 UNL     1      -1.371   0.671  -2.947  1.00  0.00     0.002 A 
HETATM   14  C13 UNL     1      -0.868   1.866  -3.296  1.00  0.00     0.027 A 
HETATM   15  C14 UNL     1      -0.378   2.715  -2.379  1.00  0.00     0.131 A 
HETATM   16  C15 UNL     1      -0.440   2.328  -1.096  1.00  0.00     0.027 A 
HETATM   17  O2  UNL     1       0.127   3.930  -2.723  1.00  0.00    -0.190 OA
HETATM   18  C16 UNL     1      -0.941   1.132  -0.748  1.00  0.00     0.002 A 
ENDBRANCH  11  12
ENDBRANCH   8  10
ENDBRANCH   4   8
BRANCH   3  19
HETATM   19  O4  UNL     1       0.626  -1.564  -1.141  1.00  0.00    -0.328 OA
HETATM   20  C17 UNL     1       1.685  -2.041  -1.939  1.00  0.00     0.181 C 
ENDBRANCH   3  19
BRANCH   5  21
HETATM   21  O1  UNL     1      -0.419  -0.764   3.479  1.00  0.00    -0.328 OA
HETATM   22  C7  UNL     1      -1.310   0.316   3.653  1.00  0.00     0.181 C 
ENDBRANCH   5  21
TORSDOF 5
