REMARK  0 active torsions:
REMARK  status: ('A' for Active; 'I' for Inactive)
ROOT
HETATM    1  C1  UNL     1       4.190  -0.369   1.504  1.00  0.00    -0.002 C 
HETATM    2  C2  UNL     1       3.046  -1.065   1.482  1.00  0.00    -0.043 C 
HETATM    3  C3  UNL     1       1.859  -0.183   1.159  1.00  0.00     0.053 C 
HETATM    4  C4  UNL     1       2.559   1.076   0.583  1.00  0.00     0.059 C 
HETATM    5  C5  UNL     1       3.955   1.084   1.223  1.00  0.00     0.178 C 
HETATM    6  O1  UNL     1       4.955   1.659   0.408  1.00  0.00    -0.218 OA
HETATM    7  C6  UNL     1       2.522   1.042  -0.935  1.00  0.00    -0.039 C 
HETATM    8  C7  UNL     1       1.339   1.726  -1.582  1.00  0.00     0.055 C 
HETATM    9  C8  UNL     1       0.095   0.835  -1.616  1.00  0.00     0.163 C 
HETATM   10  C9  UNL     1      -0.255   0.212  -0.261  1.00  0.00     0.086 C 
HETATM   11  C10 UNL     1       0.813  -0.801   0.230  1.00  0.00     0.135 C 
HETATM   12  O2  UNL     1       0.174  -1.877   0.874  1.00  0.00    -0.300 OA
HETATM   13  C11 UNL     1      -1.146  -1.810   0.587  1.00  0.00     0.292 C 
HETATM   14  C12 UNL     1      -1.510  -0.624  -0.202  1.00  0.00     0.045 C 
HETATM   15  C13 UNL     1      -2.746  -0.400  -0.681  1.00  0.00     0.001 C 
HETATM   16  O3  UNL     1      -1.953  -2.652   0.973  1.00  0.00    -0.260 OA
HETATM   17  O4  UNL     1      -0.968   1.635  -2.076  1.00  0.00    -0.223 OA
HETATM   18  C14 UNL     1       3.390   0.342  -1.684  1.00  0.00    -0.009 C 
HETATM   19  C15 UNL     1       2.923  -2.518   1.832  1.00  0.00     0.026 C 
ENDROOT
TORSDOF 0
