REMARK  5 active torsions:
REMARK  status: ('A' for Active; 'I' for Inactive)
REMARK    1  A    between atoms: C7_7  and  C12_12 
REMARK    2  A    between atoms: C12_12  and  C13_13 
REMARK    3  A    between atoms: C13_13  and  C14_14 
REMARK    4  A    between atoms: C15_15  and  C16_16 
REMARK    5  A    between atoms: C16_16  and  O1_17 
ROOT
HETATM    1  C1  UNL     1      -1.724  -1.326  -0.367  1.00  0.00     0.174 C 
HETATM    2  C2  UNL     1      -1.730  -2.800  -0.083  1.00  0.00    -0.002 C 
HETATM    3  C3  UNL     1      -0.630  -3.567   0.001  1.00  0.00    -0.046 C 
HETATM    4  C4  UNL     1       0.770  -3.003  -0.280  1.00  0.00     0.015 C 
HETATM    5  C5  UNL     1       0.776  -1.465  -0.023  1.00  0.00     0.006 C 
HETATM    6  C6  UNL     1      -0.364  -0.805  -0.817  1.00  0.00     0.038 C 
HETATM    7  C7  UNL     1       2.146  -0.691  -0.038  1.00  0.00     0.001 C 
HETATM    8  C8  UNL     1       3.150  -1.478   0.866  1.00  0.00     0.000 C 
HETATM    9  C9  UNL     1       3.179  -2.990   0.575  1.00  0.00     0.000 C 
HETATM   10  C10 UNL     1       1.796  -3.639   0.679  1.00  0.00     0.004 C 
HETATM   11  C11 UNL     1       4.611  -0.977   0.829  1.00  0.00     0.000 C 
HETATM   12  C19 UNL     1       2.738  -0.536  -1.454  1.00  0.00     0.000 C 
HETATM   13  C20 UNL     1       1.060  -3.428  -1.738  1.00  0.00     0.004 C 
HETATM   14  C21 UNL     1      -0.781  -5.044   0.300  1.00  0.00     0.026 C 
HETATM   15  O3  UNL     1      -2.694  -1.001  -1.347  1.00  0.00    -0.219 OA
ENDROOT
BRANCH   7  16
HETATM   16  C12 UNL     1       1.948   0.736   0.595  1.00  0.00     0.004 C 
BRANCH  16  17
HETATM   17  C13 UNL     1       1.749   1.948  -0.340  1.00  0.00     0.022 C 
BRANCH  17  18
HETATM   18  C14 UNL     1       1.523   3.288   0.347  1.00  0.00    -0.039 C 
HETATM   19  C15 UNL     1       2.055   4.405  -0.201  1.00  0.00     0.060 C 
HETATM   20  C18 UNL     1       0.619   3.269   1.556  1.00  0.00     0.026 C 
BRANCH  19  21
HETATM   21  C16 UNL     1       1.925   5.808   0.274  1.00  0.00     0.295 C 
HETATM   22  O2  UNL     1       1.608   6.050   1.434  1.00  0.00    -0.259 OA
BRANCH  21  23
HETATM   23  O1  UNL     1       2.225   6.830  -0.583  1.00  0.00    -0.296 OA
HETATM   24  C17 UNL     1       2.132   8.143  -0.084  1.00  0.00     0.185 C 
ENDBRANCH  21  23
ENDBRANCH  19  21
ENDBRANCH  17  18
ENDBRANCH  16  17
ENDBRANCH   7  16
TORSDOF 5
