REMARK  6 active torsions:
REMARK  status: ('A' for Active; 'I' for Inactive)
REMARK    1  A    between atoms: C5_5  and  O1_6 
REMARK    2  A    between atoms: C7_9  and  O7_24 
REMARK    3  A    between atoms: C8_10  and  O5_18 
REMARK    4  A    between atoms: O5_18  and  C14_19 
REMARK    5  A    between atoms: C14_19  and  C15_20 
REMARK    6  A    between atoms: O7_24  and  C18_25 
ROOT
HETATM    1  C1  UNL     1       4.872  -1.727   2.449  1.00  0.00    -0.002 C 
HETATM    2  C2  UNL     1       3.667  -2.299   2.503  1.00  0.00    -0.043 C 
HETATM    3  C3  UNL     1       2.571  -1.325   2.143  1.00  0.00     0.052 C 
HETATM    4  C4  UNL     1       3.345  -0.114   1.542  1.00  0.00     0.071 C 
HETATM    5  C5  UNL     1       4.814  -0.293   2.012  1.00  0.00     0.179 C 
HETATM    6  C6  UNL     1       3.263   0.207   0.030  1.00  0.00     0.158 C 
HETATM    7  C7  UNL     1       1.886   0.679  -0.481  1.00  0.00     0.180 C 
HETATM    8  C8  UNL     1       0.748  -0.353  -0.533  1.00  0.00     0.161 C 
HETATM    9  C9  UNL     1       0.388  -0.892   0.858  1.00  0.00     0.086 C 
HETATM   10  C10 UNL     1       1.423  -1.931   1.345  1.00  0.00     0.135 C 
HETATM   11  O3  UNL     1       0.763  -2.919   2.102  1.00  0.00    -0.300 OA
HETATM   12  C11 UNL     1      -0.565  -2.803   1.877  1.00  0.00     0.292 C 
HETATM   13  C12 UNL     1      -0.908  -1.647   1.034  1.00  0.00     0.045 C 
HETATM   14  C13 UNL     1      -2.165  -1.370   0.642  1.00  0.00     0.001 C 
HETATM   15  O4  UNL     1      -1.391  -3.574   2.356  1.00  0.00    -0.260 OA
HETATM   16  O9  UNL     1       4.095   1.333  -0.181  1.00  0.00    -0.223 OA
HETATM   17  C20 UNL     1       3.837  -0.896  -0.872  1.00  0.00     0.036 C 
HETATM   18  C21 UNL     1       3.421  -3.701   2.982  1.00  0.00     0.026 C 
ENDROOT
BRANCH   8  19
HETATM   19  O5  UNL     1      -0.383   0.245  -1.106  1.00  0.00    -0.301 OA
BRANCH  19  20
HETATM   20  C14 UNL     1      -0.425   0.427  -2.453  1.00  0.00     0.271 C 
HETATM   21  O6  UNL     1       0.452   0.087  -3.213  1.00  0.00    -0.264 OA
BRANCH  20  22
HETATM   22  C15 UNL     1      -1.728   1.101  -2.871  1.00  0.00     0.086 C 
HETATM   23  C16 UNL     1      -2.165   2.225  -1.915  1.00  0.00     0.010 C 
HETATM   24  C17 UNL     1      -1.634   1.647  -4.306  1.00  0.00     0.010 C 
ENDBRANCH  20  22
ENDBRANCH  19  20
ENDBRANCH   8  19
BRANCH   7  25
HETATM   25  O7  UNL     1       1.456   1.776   0.283  1.00  0.00    -0.299 OA
BRANCH  25  26
HETATM   26  C18 UNL     1       1.446   3.075  -0.135  1.00  0.00     0.273 C 
HETATM   27  O8  UNL     1       1.113   3.974   0.608  1.00  0.00    -0.264 OA
HETATM   28  C19 UNL     1       1.819   3.357  -1.580  1.00  0.00     0.106 C 
ENDBRANCH  25  26
ENDBRANCH   7  25
BRANCH   5  29
HETATM   29  O1  UNL     1       5.127   0.561   3.095  1.00  0.00    -0.187 OA
HETATM   30  O2  UNL     1       5.218   1.891   2.467  1.00  0.00    -0.034 OA
ENDBRANCH   5  29
TORSDOF 6
