REMARK  5 active torsions:
REMARK  status: ('A' for Active; 'I' for Inactive)
REMARK    1  A    between atoms: C1_1  and  O2_22 
REMARK    2  A    between atoms: C7_7  and  C12_12 
REMARK    3  A    between atoms: C12_12  and  C13_13 
REMARK    4  A    between atoms: C13_13  and  C14_14 
REMARK    5  A    between atoms: C14_14  and  C16_16 
ROOT
HETATM    1  C1  UNL     1      -1.105  -0.817  -0.620  1.00  0.00     0.177 C 
HETATM    2  C2  UNL     1      -1.106  -2.288  -0.291  1.00  0.00    -0.002 C 
HETATM    3  C3  UNL     1      -0.005  -3.051  -0.171  1.00  0.00    -0.046 C 
HETATM    4  C4  UNL     1       1.400  -2.493  -0.436  1.00  0.00     0.015 C 
HETATM    5  C5  UNL     1       1.386  -0.949  -0.229  1.00  0.00     0.006 C 
HETATM    6  C6  UNL     1       0.269  -0.352  -1.101  1.00  0.00     0.038 C 
HETATM    7  C7  UNL     1       2.741  -0.153  -0.210  1.00  0.00     0.001 C 
HETATM    8  C8  UNL     1       3.752  -0.927   0.701  1.00  0.00     0.000 C 
HETATM    9  C9  UNL     1       3.791  -2.444   0.440  1.00  0.00     0.000 C 
HETATM   10  C10 UNL     1       2.410  -3.092   0.562  1.00  0.00     0.004 C 
HETATM   11  C11 UNL     1       5.212  -0.421   0.658  1.00  0.00     0.000 C 
HETATM   12  C18 UNL     1       3.345   0.033  -1.616  1.00  0.00     0.000 C 
HETATM   13  C19 UNL     1       1.737  -2.961  -1.872  1.00  0.00     0.004 C 
HETATM   14  C20 UNL     1      -0.156  -4.523   0.150  1.00  0.00     0.026 C 
ENDROOT
BRANCH   7  15
HETATM   15  C12 UNL     1       2.523   1.260   0.448  1.00  0.00     0.003 C 
BRANCH  15  16
HETATM   16  C13 UNL     1       2.238   2.501  -0.426  1.00  0.00     0.035 C 
BRANCH  16  17
HETATM   17  C14 UNL     1       2.299   3.855   0.305  1.00  0.00     0.145 C 
HETATM   18  C15 UNL     1       1.447   3.873   1.576  1.00  0.00     0.038 C 
HETATM   19  O1  UNL     1       1.762   4.824  -0.575  1.00  0.00    -0.222 OA
BRANCH  17  20
HETATM   20  C16 UNL     1       3.723   4.269   0.614  1.00  0.00     0.003 C 
HETATM   21  C17 UNL     1       4.064   5.484   1.065  1.00  0.00    -0.002 C 
ENDBRANCH  17  20
ENDBRANCH  16  17
ENDBRANCH  15  16
ENDBRANCH   7  15
BRANCH   1  22
HETATM   22  O2  UNL     1      -1.454  -0.054   0.522  1.00  0.00    -0.188 OA
HETATM   23  O3  UNL     1      -2.851  -0.416   0.807  1.00  0.00    -0.034 OA
ENDBRANCH   1  22
TORSDOF 5
