REMARK  7 active torsions:
REMARK  status: ('A' for Active; 'I' for Inactive)
REMARK    1  A    between atoms: C7_7  and  C14_16 
REMARK    2  A    between atoms: C9_9  and  O1_11 
REMARK    3  A    between atoms: O1_11  and  C11_12 
REMARK    4  A    between atoms: C14_16  and  C15_17 
REMARK    5  A    between atoms: C15_17  and  C16_18 
REMARK    6  A    between atoms: C17_19  and  C18_20 
REMARK    7  A    between atoms: C18_20  and  O3_21 
ROOT
HETATM    1  C1  UNL     1      -1.999  -1.058  -0.145  1.00  0.00     0.174 C 
HETATM    2  C2  UNL     1      -1.927  -2.526   0.164  1.00  0.00    -0.002 C 
HETATM    3  C3  UNL     1      -0.796  -3.251   0.186  1.00  0.00    -0.046 C 
HETATM    4  C4  UNL     1       0.563  -2.638  -0.186  1.00  0.00     0.017 C 
HETATM    5  C5  UNL     1       0.519  -1.101   0.063  1.00  0.00     0.006 C 
HETATM    6  C6  UNL     1      -0.685  -0.498  -0.681  1.00  0.00     0.038 C 
HETATM    7  C7  UNL     1       1.852  -0.272  -0.013  1.00  0.00     0.003 C 
HETATM    8  C8  UNL     1       2.928  -1.017   0.848  1.00  0.00     0.028 C 
HETATM    9  C9  UNL     1       3.019  -2.538   0.623  1.00  0.00     0.124 C 
HETATM   10  C10 UNL     1       1.661  -3.228   0.723  1.00  0.00     0.034 C 
HETATM   11  C13 UNL     1       4.356  -0.426   0.793  1.00  0.00     0.003 C 
HETATM   12  C21 UNL     1       2.365  -0.072  -1.453  1.00  0.00     0.000 C 
HETATM   13  C22 UNL     1       0.751  -3.057  -1.662  1.00  0.00     0.004 C 
HETATM   14  C23 UNL     1      -0.873  -4.731   0.500  1.00  0.00     0.026 C 
HETATM   15  O5  UNL     1      -2.360  -0.352   1.031  1.00  0.00    -0.219 OA
ENDROOT
BRANCH   7  16
HETATM   16  C14 UNL     1       1.612   1.145   0.634  1.00  0.00     0.004 C 
BRANCH  16  17
HETATM   17  C15 UNL     1       1.327   2.357  -0.280  1.00  0.00     0.022 C 
BRANCH  17  18
HETATM   18  C16 UNL     1       1.105   3.676   0.446  1.00  0.00    -0.039 C 
HETATM   19  C17 UNL     1       1.693   4.801  -0.021  1.00  0.00     0.060 C 
HETATM   20  C20 UNL     1       0.151   3.627   1.616  1.00  0.00     0.026 C 
BRANCH  19  21
HETATM   21  C18 UNL     1       1.579   6.179   0.527  1.00  0.00     0.295 C 
HETATM   22  O4  UNL     1       1.235   6.361   1.691  1.00  0.00    -0.259 OA
BRANCH  21  23
HETATM   23  O3  UNL     1       1.941   7.240  -0.254  1.00  0.00    -0.296 OA
HETATM   24  C19 UNL     1       1.901   8.520   0.331  1.00  0.00     0.185 C 
ENDBRANCH  21  23
ENDBRANCH  19  21
ENDBRANCH  17  18
ENDBRANCH  16  17
ENDBRANCH   7  16
BRANCH   9  25
HETATM   25  O1  UNL     1       3.614  -2.831  -0.608  1.00  0.00    -0.304 OA
BRANCH  25  26
HETATM   26  C11 UNL     1       4.680  -3.674  -0.663  1.00  0.00     0.272 C 
HETATM   27  C12 UNL     1       5.158  -3.799  -2.096  1.00  0.00     0.106 C 
HETATM   28  O2  UNL     1       5.186  -4.241   0.278  1.00  0.00    -0.264 OA
ENDBRANCH  25  26
ENDBRANCH   9  25
TORSDOF 7
