REMARK  1 active torsions:
REMARK  status: ('A' for Active; 'I' for Inactive)
REMARK    1  A    between atoms: C12_12  and  C15_15 
ROOT
HETATM    1  C1  UNL     1      -0.433  -0.281  -0.544  1.00  0.00     0.054 C 
HETATM    2  C2  UNL     1      -0.326  -1.773  -0.722  1.00  0.00     0.101 C 
HETATM    3  C3  UNL     1       0.856  -2.417  -0.679  1.00  0.00    -0.023 C 
HETATM    4  C4  UNL     1       2.167  -1.677  -0.464  1.00  0.00     0.024 C 
HETATM    5  C5  UNL     1       2.001  -0.296   0.219  1.00  0.00     0.022 C 
HETATM    6  C6  UNL     1       0.917   0.444  -0.595  1.00  0.00     0.011 C 
HETATM    7  C7  UNL     1       3.343   0.438   0.229  1.00  0.00    -0.025 A 
HETATM    8  C8  UNL     1       4.562  -0.259   0.218  1.00  0.00    -0.001 A 
HETATM    9  C9  UNL     1       4.604  -1.770   0.141  1.00  0.00     0.028 C 
HETATM   10  C10 UNL     1       3.251  -2.480   0.268  1.00  0.00     0.009 C 
HETATM   11  C11 UNL     1       5.795   0.418   0.246  1.00  0.00     0.125 A 
HETATM   12  C12 UNL     1       5.835   1.822   0.273  1.00  0.00     0.030 A 
HETATM   13  C13 UNL     1       4.620   2.510   0.319  1.00  0.00    -0.000 A 
HETATM   14  C14 UNL     1       3.404   1.831   0.320  1.00  0.00    -0.005 A 
HETATM   15  O2  UNL     1       6.950  -0.300   0.182  1.00  0.00    -0.191 OA
HETATM   16  C18 UNL     1       1.560  -0.398   1.697  1.00  0.00     0.005 C 
HETATM   17  C19 UNL     1       0.952  -3.902  -0.954  1.00  0.00     0.028 C 
HETATM   18  O3  UNL     1      -1.515  -2.402  -0.929  1.00  0.00    -0.196 OA
ENDROOT
BRANCH  12  19
HETATM   19  C15 UNL     1       7.168   2.560   0.271  1.00  0.00     0.147 C 
HETATM   20  C16 UNL     1       7.116   3.990   0.822  1.00  0.00     0.038 C 
HETATM   21  C17 UNL     1       7.731   2.592  -1.154  1.00  0.00     0.038 C 
HETATM   22  O1  UNL     1       8.070   1.846   1.095  1.00  0.00    -0.221 OA
ENDBRANCH  12  19
TORSDOF 1
