REMARK  0 active torsions:
REMARK  status: ('A' for Active; 'I' for Inactive)
ROOT
HETATM    1  C1  UNL     1       3.555  -0.629  -0.233  1.00  0.00     0.141 A 
HETATM    2  C2  UNL     1       4.268   0.500  -0.151  1.00  0.00     0.121 A 
HETATM    3  C3  UNL     1       3.718   1.631   0.304  1.00  0.00     0.026 A 
HETATM    4  C4  UNL     1       2.429   1.581   0.673  1.00  0.00     0.002 A 
HETATM    5  C5  UNL     1       1.709   0.444   0.590  1.00  0.00     0.030 A 
HETATM    6  C6  UNL     1       2.266  -0.704   0.143  1.00  0.00     0.117 A 
HETATM    7  O1  UNL     1       1.566  -1.874   0.010  1.00  0.00    -0.329 OA
HETATM    8  C7  UNL     1       0.192  -1.712  -0.215  1.00  0.00     0.156 C 
HETATM    9  C8  UNL     1      -0.428  -0.907   0.918  1.00  0.00     0.086 C 
HETATM   10  C9  UNL     1       0.277   0.452   1.063  1.00  0.00     0.152 C 
HETATM   11  O2  UNL     1      -0.569   1.405   0.415  1.00  0.00    -0.329 OA
HETATM   12  C10 UNL     1      -1.696   0.937   0.249  1.00  0.00     0.093 A 
HETATM   13  C11 UNL     1      -1.776  -0.371   0.534  1.00  0.00     0.007 A 
HETATM   14  C12 UNL     1      -2.924  -1.056   0.428  1.00  0.00     0.024 A 
HETATM   15  C13 UNL     1      -3.998  -0.362   0.024  1.00  0.00     0.119 A 
HETATM   16  C14 UNL     1      -3.921   0.943  -0.273  1.00  0.00     0.121 A 
HETATM   17  C15 UNL     1      -2.769   1.624  -0.173  1.00  0.00     0.050 A 
HETATM   18  O3  UNL     1      -5.013   1.382  -0.625  1.00  0.00    -0.299 OA
HETATM   19  C16 UNL     1      -5.948   0.303  -0.573  1.00  0.00     0.304 A 
HETATM   20  O4  UNL     1      -5.139  -0.789  -0.136  1.00  0.00    -0.300 OA
HETATM   21  O5  UNL     1       5.423   0.337  -0.536  1.00  0.00    -0.299 OA
HETATM   22  C17 UNL     1       5.551  -1.030  -0.926  1.00  0.00     0.304 A 
HETATM   23  O6  UNL     1       4.243  -1.546  -0.676  1.00  0.00    -0.298 OA
ENDROOT
TORSDOF 0
