REMARK  3 active torsions:
REMARK  status: ('A' for Active; 'I' for Inactive)
REMARK    1  A    between atoms: C5_5  and  C7_7 
REMARK    2  A    between atoms: C7_7  and  C8_8 
REMARK    3  A    between atoms: C8_8  and  C9_9 
ROOT
HETATM    1  C1  UNL     1      -3.295   1.764   0.173  1.00  0.00     0.024 A 
HETATM    2  C2  UNL     1      -3.295   0.427   0.173  1.00  0.00     0.095 A 
HETATM    3  C3  UNL     1      -2.137  -0.241   0.173  1.00  0.00     0.031 A 
HETATM    4  C4  UNL     1      -0.979   0.427   0.193  1.00  0.00     0.091 A 
HETATM    5  C5  UNL     1      -0.979   1.764   0.213  1.00  0.00     0.001 A 
HETATM    6  C6  UNL     1      -2.137   2.433   0.173  1.00  0.00    -0.000 A 
HETATM    7  O3  UNL     1       0.195  -0.251   0.193  1.00  0.00    -0.304 OA
HETATM    8  C10 UNL     1       1.409   0.450   0.214  1.00  0.00     0.274 C 
HETATM    9  C11 UNL     1       2.214   0.056   1.442  1.00  0.00     0.241 C 
HETATM   10  C12 UNL     1       2.454  -1.448   1.423  1.00  0.00     0.220 C 
HETATM   11  C13 UNL     1       3.009  -1.856   0.064  1.00  0.00     0.215 C 
HETATM   12  C14 UNL     1       2.131  -1.276  -1.037  1.00  0.00     0.181 C 
HETATM   13  O4  UNL     1       2.170   0.120  -0.916  1.00  0.00    -0.326 OA
HETATM   14  C15 UNL     1       0.700  -1.772  -0.876  1.00  0.00     0.181 C 
HETATM   15  O5  UNL     1       0.311  -2.462  -2.033  1.00  0.00    -0.326 OA
HETATM   16  O6  UNL     1       4.315  -1.365  -0.073  1.00  0.00    -0.218 OA
HETATM   17  O7  UNL     1       1.244  -2.118   1.653  1.00  0.00    -0.218 OA
HETATM   18  O8  UNL     1       3.444   0.727   1.431  1.00  0.00    -0.215 OA
HETATM   19  C16 UNL     1      -2.371  -1.720   0.164  1.00  0.00     0.110 A 
HETATM   20  C17 UNL     1      -3.888  -1.853   0.155  1.00  0.00     0.253 A 
HETATM   21  O9  UNL     1      -4.247  -0.344   0.162  1.00  0.00    -0.305 OA
HETATM   22  O10 UNL     1      -4.174  -2.396  -1.105  1.00  0.00    -0.303 OA
HETATM   23  C18 UNL     1      -3.032  -3.147  -1.418  1.00  0.00     0.117 C 
HETATM   24  C19 UNL     1      -1.951  -2.284  -1.158  1.00  0.00     0.035 C 
HETATM   25  C20 UNL     1      -0.857  -2.037  -1.886  1.00  0.00     0.114 C 
ENDROOT
BRANCH   5  26
HETATM   26  C7  UNL     1       0.316   2.512   0.280  1.00  0.00     0.040 C 
BRANCH  26  27
HETATM   27  C8  UNL     1       0.037   4.008   0.327  1.00  0.00     0.102 C 
BRANCH  27  28
HETATM   28  C9  UNL     1       1.342   4.762   0.394  1.00  0.00     0.186 C 
HETATM   29  O1  UNL     1       1.341   6.099   0.444  1.00  0.00    -0.647 OA
HETATM   30  O2  UNL     1       2.389   4.159   0.404  1.00  0.00    -0.647 OA
ENDBRANCH  27  28
ENDBRANCH  26  27
ENDBRANCH   5  26
TORSDOF 3
