REMARK  1 active torsions:
REMARK  status: ('A' for Active; 'I' for Inactive)
REMARK    1  A    between atoms: C3_3  and  O3_14 
ROOT
HETATM    1  C1  UNL     1      -2.515   0.690   0.193  1.00  0.00    -0.003 A 
HETATM    2  C2  UNL     1      -2.565  -0.639   0.332  1.00  0.00     0.024 A 
HETATM    3  C3  UNL     1      -1.459  -1.406   0.341  1.00  0.00     0.099 A 
HETATM    4  C4  UNL     1      -0.261  -0.769   0.277  1.00  0.00     0.081 A 
HETATM    5  C5  UNL     1      -0.205   0.576   0.154  1.00  0.00    -0.017 A 
HETATM    6  C6  UNL     1      -1.333   1.317   0.102  1.00  0.00    -0.025 A 
HETATM    7  C7  UNL     1      -1.311   2.828   0.002  1.00  0.00     0.031 C 
HETATM    8  C8  UNL     1       1.136   1.268   0.167  1.00  0.00     0.057 C 
HETATM    9  C9  UNL     1       2.240   0.382  -0.375  1.00  0.00     0.129 C 
HETATM   10  O1  UNL     1       2.160  -0.904   0.146  1.00  0.00    -0.301 OA
HETATM   11  C10 UNL     1       0.922  -1.454   0.336  1.00  0.00     0.297 C 
HETATM   12  O2  UNL     1       0.925  -2.648   0.558  1.00  0.00    -0.259 OA
HETATM   13  C11 UNL     1       3.632   0.950  -0.097  1.00  0.00     0.033 C 
ENDROOT
BRANCH   3  14
HETATM   14  O3  UNL     1      -1.625  -2.757   0.537  1.00  0.00    -0.328 OA
HETATM   15  C12 UNL     1      -1.722  -3.501  -0.657  1.00  0.00     0.181 C 
ENDBRANCH   3  14
TORSDOF 1
