REMARK  7 active torsions:
REMARK  status: ('A' for Active; 'I' for Inactive)
REMARK    1  A    between atoms: C2_2  and  O2_16 
REMARK    2  A    between atoms: C4_4  and  C7_8 
REMARK    3  A    between atoms: C8_9  and  C9_10 
REMARK    4  A    between atoms: O2_16  and  C15_17 
REMARK    5  A    between atoms: C16_19  and  C26_36 
REMARK    6  A    between atoms: C19_22  and  O4_23 
REMARK    7  A    between atoms: O4_23  and  C20_24 
ROOT
HETATM    1  C15 UNL     1       9.011  -0.013   1.215  1.00  0.00     0.271 C 
HETATM    2  O3  UNL     1       9.990   0.157   2.224  1.00  0.00    -0.326 OA
HETATM    3  C16 UNL     1      10.760  -0.995   2.443  1.00  0.00     0.184 C 
HETATM    4  C17 UNL     1      11.542  -1.310   1.176  1.00  0.00     0.215 C 
HETATM    5  C18 UNL     1      10.565  -1.551   0.044  1.00  0.00     0.217 C 
HETATM    6  C19 UNL     1       9.664  -0.338  -0.119  1.00  0.00     0.207 C 
HETATM    7  O9  UNL     1      11.275  -1.778  -1.150  1.00  0.00    -0.218 OA
HETATM    8  O10 UNL     1      12.318  -2.472   1.333  1.00  0.00    -0.218 OA
ENDROOT
BRANCH   1   9
HETATM    9  O2  UNL     1       8.419   1.270   1.166  1.00  0.00    -0.304 OA
BRANCH   9  10
HETATM   10  C2  UNL     1       7.058   1.443   1.208  1.00  0.00     0.099 A 
HETATM   11  C1  UNL     1       6.584   2.752   1.381  1.00  0.00     0.052 A 
HETATM   12  C6  UNL     1       5.230   3.084   1.452  1.00  0.00     0.133 A 
HETATM   13  C5  UNL     1       4.300   2.045   1.386  1.00  0.00     0.028 A 
HETATM   14  O1  UNL     1       4.842   4.378   1.602  1.00  0.00    -0.190 OA
HETATM   15  C4  UNL     1       4.702   0.711   1.238  1.00  0.00     0.004 A 
HETATM   16  C3  UNL     1       6.080   0.443   1.130  1.00  0.00     0.024 A 
BRANCH  15  17
HETATM   17  C7  UNL     1       3.760  -0.421   1.215  1.00  0.00     0.000 C 
HETATM   18  C8  UNL     1       2.420  -0.343   1.394  1.00  0.00     0.000 C 
BRANCH  18  19
HETATM   19  C9  UNL     1       1.499  -1.492   1.441  1.00  0.00     0.000 A 
HETATM   20  C10 UNL     1       0.118  -1.254   1.322  1.00  0.00     0.000 A 
HETATM   21  C11 UNL     1      -0.806  -2.295   1.411  1.00  0.00     0.000 A 
HETATM   22  C12 UNL     1      -0.367  -3.601   1.640  1.00  0.00     0.000 A 
HETATM   23  C13 UNL     1       0.997  -3.852   1.787  1.00  0.00     0.000 A 
HETATM   24  C14 UNL     1       1.920  -2.807   1.695  1.00  0.00     0.000 A 
ENDBRANCH  18  19
ENDBRANCH  15  17
ENDBRANCH   9  10
ENDBRANCH   1   9
BRANCH   6  25
HETATM   25  O4  UNL     1       8.712  -0.669  -1.092  1.00  0.00    -0.324 OA
BRANCH  25  26
HETATM   26  C20 UNL     1       8.344   0.391  -1.952  1.00  0.00     0.270 C 
HETATM   27  O5  UNL     1       6.957   0.193  -2.120  1.00  0.00    -0.329 OA
HETATM   28  C21 UNL     1       6.354   1.123  -2.979  1.00  0.00     0.151 C 
HETATM   29  C22 UNL     1       7.037   1.186  -4.343  1.00  0.00     0.212 C 
HETATM   30  C25 UNL     1       6.167   2.484  -2.302  1.00  0.00     0.035 C 
HETATM   31  C23 UNL     1       8.552   1.247  -4.274  1.00  0.00     0.220 C 
HETATM   32  O8  UNL     1       6.687   0.037  -5.083  1.00  0.00    -0.218 OA
HETATM   33  C24 UNL     1       9.073   0.244  -3.268  1.00  0.00     0.241 C 
HETATM   34  O7  UNL     1       8.981   2.525  -3.873  1.00  0.00    -0.218 OA
HETATM   35  O6  UNL     1      10.446   0.491  -3.081  1.00  0.00    -0.215 OA
ENDBRANCH  25  26
ENDBRANCH   6  25
BRANCH   3  36
HETATM   36  C26 UNL     1      11.670  -0.750   3.638  1.00  0.00     0.214 C 
HETATM   37  O11 UNL     1      10.889  -0.644   4.813  1.00  0.00    -0.218 OA
ENDBRANCH   3  36
TORSDOF 7
