REMARK  1 active torsions:
REMARK  status: ('A' for Active; 'I' for Inactive)
REMARK    1  A    between atoms: C2_2  and  O4_15 
ROOT
HETATM    1  C1  UNL     1      -2.026   0.785   0.136  1.00  0.00     0.022 A 
HETATM    2  C2  UNL     1      -2.235  -0.540   0.054  1.00  0.00     0.119 A 
HETATM    3  C3  UNL     1      -1.143  -1.344   0.020  1.00  0.00     0.158 A 
HETATM    4  C4  UNL     1       0.099  -0.791   0.030  1.00  0.00     0.086 A 
HETATM    5  C5  UNL     1       0.261   0.547   0.106  1.00  0.00    -0.016 A 
HETATM    6  C6  UNL     1      -0.815   1.354   0.165  1.00  0.00    -0.024 A 
HETATM    7  C7  UNL     1      -0.704   2.859   0.294  1.00  0.00     0.031 C 
HETATM    8  C8  UNL     1       1.643   1.145   0.212  1.00  0.00     0.057 C 
HETATM    9  C9  UNL     1       2.686   0.275  -0.461  1.00  0.00     0.129 C 
HETATM   10  O1  UNL     1       2.513  -1.061  -0.119  1.00  0.00    -0.301 OA
HETATM   11  C10 UNL     1       1.241  -1.547   0.001  1.00  0.00     0.297 C 
HETATM   12  O2  UNL     1       1.169  -2.754   0.098  1.00  0.00    -0.259 OA
HETATM   13  C11 UNL     1       4.110   0.703  -0.113  1.00  0.00     0.033 C 
HETATM   14  O3  UNL     1      -1.334  -2.689  -0.094  1.00  0.00    -0.188 OA
ENDROOT
BRANCH   2  15
HETATM   15  O4  UNL     1      -3.563  -0.919   0.046  1.00  0.00    -0.326 OA
HETATM   16  C12 UNL     1      -3.966  -2.263   0.147  1.00  0.00     0.181 C 
ENDBRANCH   2  15
TORSDOF 1
