REMARK  16 active torsions:
REMARK  status: ('A' for Active; 'I' for Inactive)
REMARK    1  A    between atoms: C3_3  and  C30_42 
REMARK    2  A    between atoms: C4_5  and  O3_8 
REMARK    3  A    between atoms: O3_8  and  C6_9 
REMARK    4  A    between atoms: C6_9  and  C29_40 
REMARK    5  A    between atoms: C7_10  and  O9_28 
REMARK    6  A    between atoms: C9_12  and  C10_14 
REMARK    7  A    between atoms: C10_14  and  O5_15 
REMARK    8  A    between atoms: O5_15  and  C11_16 
REMARK    9  A    between atoms: C11_16  and  C12_17 
REMARK   10  A    between atoms: C12_17  and  C13_18 
REMARK   11  A    between atoms: C13_18  and  C14_19 
REMARK   12  A    between atoms: O9_28  and  C20_29 
REMARK   13  A    between atoms: C20_29  and  C21_30 
REMARK   14  A    between atoms: C22_31  and  C23_32 
REMARK   15  A    between atoms: C30_42  and  O13_43 
REMARK   16  A    between atoms: O13_43  and  C31_44 
ROOT
HETATM    1  C6  UNL     1       8.169  -2.926   0.224  1.00  0.00     0.249 C 
HETATM    2  C7  UNL     1       7.350  -2.698   1.496  1.00  0.00     0.211 C 
HETATM    3  C8  UNL     1       5.925  -2.662   0.967  1.00  0.00     0.214 C 
HETATM    4  C9  UNL     1       6.108  -2.108  -0.433  1.00  0.00     0.180 C 
HETATM    5  O4  UNL     1       7.414  -2.404  -0.841  1.00  0.00    -0.328 OA
HETATM    6  O8  UNL     1       5.391  -3.964   0.915  1.00  0.00    -0.218 OA
ENDROOT
BRANCH   1   7
HETATM    7  O3  UNL     1       9.399  -2.245   0.353  1.00  0.00    -0.304 OA
BRANCH   7   8
HETATM    8  C4  UNL     1      10.049  -1.894  -0.851  1.00  0.00     0.272 C 
HETATM    9  O1  UNL     1       9.697  -0.549  -1.084  1.00  0.00    -0.326 OA
HETATM   10  C3  UNL     1      10.165  -0.070  -2.316  1.00  0.00     0.181 C 
HETATM   11  C2  UNL     1      11.686  -0.175  -2.397  1.00  0.00     0.215 C 
HETATM   12  C1  UNL     1      12.233  -1.530  -1.972  1.00  0.00     0.220 C 
HETATM   13  O15 UNL     1      12.234   0.793  -1.529  1.00  0.00    -0.218 OA
HETATM   14  C5  UNL     1      11.549  -2.000  -0.701  1.00  0.00     0.241 C 
HETATM   15  O16 UNL     1      12.022  -2.469  -2.998  1.00  0.00    -0.218 OA
HETATM   16  O2  UNL     1      11.974  -1.185   0.368  1.00  0.00    -0.215 OA
BRANCH  10  17
HETATM   17  C30 UNL     1       9.390  -0.669  -3.490  1.00  0.00     0.184 C 
BRANCH  17  18
HETATM   18  O13 UNL     1       9.644   0.083  -4.649  1.00  0.00    -0.299 OA
BRANCH  18  19
HETATM   19  C31 UNL     1       8.882  -0.195  -5.742  1.00  0.00     0.273 C 
HETATM   20  C32 UNL     1       9.286   0.690  -6.903  1.00  0.00     0.106 C 
HETATM   21  O14 UNL     1       8.004  -1.027  -5.785  1.00  0.00    -0.264 OA
ENDBRANCH  18  19
ENDBRANCH  17  18
ENDBRANCH  10  17
ENDBRANCH   7   8
ENDBRANCH   1   7
BRANCH   1  22
HETATM   22  C29 UNL     1       8.411  -4.419   0.028  1.00  0.00     0.241 C 
HETATM   23  O12 UNL     1       9.092  -4.705  -1.176  1.00  0.00    -0.215 OA
ENDBRANCH   1  22
BRANCH   2  24
HETATM   24  O9  UNL     1       7.601  -1.448   2.079  1.00  0.00    -0.293 OA
BRANCH  24  25
HETATM   25  C20 UNL     1       8.487  -1.351   3.113  1.00  0.00     0.296 C 
HETATM   26  O11 UNL     1       9.118  -2.331   3.501  1.00  0.00    -0.259 OA
BRANCH  25  27
HETATM   27  C21 UNL     1       8.617  -0.065   3.839  1.00  0.00     0.068 C 
HETATM   28  C22 UNL     1       9.383   0.097   4.945  1.00  0.00     0.005 C 
BRANCH  28  29
HETATM   29  C23 UNL     1       9.505   1.345   5.714  1.00  0.00     0.000 A 
HETATM   30  C24 UNL     1      10.140   1.314   6.967  1.00  0.00     0.002 A 
HETATM   31  C25 UNL     1      10.268   2.467   7.740  1.00  0.00     0.027 A 
HETATM   32  C26 UNL     1       9.781   3.701   7.295  1.00  0.00     0.131 A 
HETATM   33  C27 UNL     1       9.174   3.737   6.037  1.00  0.00     0.027 A 
HETATM   34  O10 UNL     1       9.900   4.829   8.045  1.00  0.00    -0.190 OA
HETATM   35  C28 UNL     1       9.039   2.588   5.256  1.00  0.00     0.002 A 
ENDBRANCH  28  29
ENDBRANCH  25  27
ENDBRANCH  24  25
ENDBRANCH   2  24
BRANCH   4  36
HETATM   36  C10 UNL     1       5.863  -0.604  -0.529  1.00  0.00     0.177 C 
BRANCH  36  37
HETATM   37  O5  UNL     1       4.488  -0.364  -0.373  1.00  0.00    -0.326 OA
BRANCH  37  38
HETATM   38  C11 UNL     1       4.085   0.878   0.010  1.00  0.00     0.270 C 
HETATM   39  O7  UNL     1       4.940   1.785   0.444  1.00  0.00    -0.190 OA
BRANCH  38  40
HETATM   40  C12 UNL     1       2.638   1.322  -0.178  1.00  0.00     0.069 C 
BRANCH  40  41
HETATM   41  C13 UNL     1       2.316   2.467  -1.103  1.00  0.00     0.027 C 
BRANCH  41  42
HETATM   42  C14 UNL     1       0.907   2.729  -1.561  1.00  0.00    -0.048 C 
HETATM   43  C15 UNL     1       0.234   3.921  -1.111  1.00  0.00     0.024 C 
HETATM   44  C16 UNL     1      -1.042   4.390  -1.764  1.00  0.00     0.038 C 
HETATM   45  C17 UNL     1      -1.752   3.436  -2.697  1.00  0.00     0.157 C 
HETATM   46  C18 UNL     1      -1.136   2.063  -2.818  1.00  0.00     0.058 C 
HETATM   47  O6  UNL     1      -3.050   3.636  -3.042  1.00  0.00    -0.223 OA
HETATM   48  C19 UNL     1       0.287   1.854  -2.400  1.00  0.00    -0.032 C 
ENDBRANCH  41  42
ENDBRANCH  40  41
ENDBRANCH  38  40
ENDBRANCH  37  38
ENDBRANCH  36  37
ENDBRANCH   4  36
TORSDOF 16
