REMARK  1 active torsions:
REMARK  status: ('A' for Active; 'I' for Inactive)
REMARK    1  A    between atoms: C1_1  and  O3_14 
ROOT
HETATM    1  C1  UNL     1      -1.831   0.531  -0.245  1.00  0.00     0.092 A 
HETATM    2  C2  UNL     1      -1.807  -0.821  -0.261  1.00  0.00     0.025 A 
HETATM    3  C3  UNL     1      -0.648  -1.511  -0.304  1.00  0.00     0.127 A 
HETATM    4  C4  UNL     1       0.526  -0.852  -0.332  1.00  0.00     0.029 A 
HETATM    5  C5  UNL     1       0.530   0.491  -0.308  1.00  0.00    -0.017 A 
HETATM    6  C6  UNL     1      -0.637   1.153  -0.269  1.00  0.00     0.020 A 
HETATM    7  C7  UNL     1       1.835   1.247  -0.329  1.00  0.00     0.056 C 
HETATM    8  C8  UNL     1       3.010   0.359   0.071  1.00  0.00     0.120 C 
HETATM    9  O1  UNL     1       2.969  -0.824  -0.672  1.00  0.00    -0.352 OA
HETATM   10  C9  UNL     1       1.832  -1.615  -0.387  1.00  0.00     0.170 C 
HETATM   11  C10 UNL     1       3.097   0.103   1.577  1.00  0.00     0.033 C 
HETATM   12  O2  UNL     1      -0.665  -2.874  -0.316  1.00  0.00    -0.191 OA
HETATM   13  C11 UNL     1      -3.100  -1.615  -0.231  1.00  0.00     0.035 C 
ENDROOT
BRANCH   1  14
HETATM   14  O3  UNL     1      -3.042   1.183  -0.211  1.00  0.00    -0.328 OA
HETATM   15  C12 UNL     1      -3.069   2.591  -0.237  1.00  0.00     0.181 C 
ENDBRANCH   1  14
TORSDOF 1
