REMARK  1 active torsions:
REMARK  status: ('A' for Active; 'I' for Inactive)
REMARK    1  A    between atoms: C1_1  and  O4_15 
ROOT
HETATM    1  C1  UNL     1      -1.963  -0.388  -0.229  1.00  0.00     0.092 A 
HETATM    2  C2  UNL     1      -1.301  -1.566  -0.183  1.00  0.00     0.026 A 
HETATM    3  C3  UNL     1       0.048  -1.626  -0.178  1.00  0.00     0.129 A 
HETATM    4  C4  UNL     1       0.762  -0.485  -0.230  1.00  0.00     0.058 A 
HETATM    5  C5  UNL     1       0.130   0.698  -0.274  1.00  0.00    -0.015 A 
HETATM    6  C6  UNL     1      -1.212   0.728  -0.272  1.00  0.00     0.020 A 
HETATM    7  C7  UNL     1       0.921   1.981  -0.329  1.00  0.00     0.056 C 
HETATM    8  C8  UNL     1       2.352   1.780   0.160  1.00  0.00     0.123 C 
HETATM    9  O1  UNL     1       2.924   0.694  -0.506  1.00  0.00    -0.328 OA
HETATM   10  C9  UNL     1       2.274  -0.530  -0.221  1.00  0.00     0.294 C 
HETATM   11  O2  UNL     1       2.765  -1.266  -1.339  1.00  0.00    -0.185 OA
HETATM   12  C10 UNL     1       2.462   1.646   1.680  1.00  0.00     0.033 C 
HETATM   13  O3  UNL     1       0.692  -2.827  -0.142  1.00  0.00    -0.191 OA
HETATM   14  C11 UNL     1      -2.121  -2.843  -0.136  1.00  0.00     0.035 C 
ENDROOT
BRANCH   1  15
HETATM   15  O4  UNL     1      -3.339  -0.399  -0.226  1.00  0.00    -0.328 OA
HETATM   16  C12 UNL     1      -4.036   0.826  -0.235  1.00  0.00     0.181 C 
ENDBRANCH   1  15
TORSDOF 1
