REMARK  3 active torsions:
REMARK  status: ('A' for Active; 'I' for Inactive)
REMARK    1  A    between atoms: C6_8  and  C10_14 
REMARK    2  A    between atoms: C7_9  and  O3_10 
REMARK    3  A    between atoms: O3_10  and  C8_11 
ROOT
HETATM    1  C1  UNL     1       4.105   0.340  -1.988  1.00  0.00     0.066 C 
HETATM    2  C2  UNL     1       3.523  -0.877  -1.372  1.00  0.00     0.296 C 
HETATM    3  O1  UNL     1       2.180  -1.062  -1.225  1.00  0.00    -0.295 OA
HETATM    4  C3  UNL     1       1.307  -0.102  -1.752  1.00  0.00     0.186 C 
HETATM    5  C4  UNL     1       1.855   1.314  -1.776  1.00  0.00     0.168 C 
HETATM    6  C5  UNL     1       3.292   1.385  -2.204  1.00  0.00     0.011 C 
HETATM    7  O2  UNL     1       1.703   1.802  -0.466  1.00  0.00    -0.345 OA
HETATM    8  C6  UNL     1       0.585   1.173   0.122  1.00  0.00     0.168 C 
HETATM    9  C7  UNL     1       0.106   0.072  -0.828  1.00  0.00     0.186 C 
HETATM   10  O5  UNL     1       4.303  -1.751  -1.002  1.00  0.00    -0.259 OA
ENDROOT
BRANCH   8  11
HETATM   11  C10 UNL     1       0.888   0.618   1.504  1.00  0.00     0.007 A 
HETATM   12  C11 UNL     1      -0.160   0.429   2.414  1.00  0.00    -0.002 A 
HETATM   13  C12 UNL     1       0.074  -0.086   3.691  1.00  0.00    -0.000 A 
HETATM   14  C13 UNL     1       1.369  -0.431   4.078  1.00  0.00    -0.000 A 
HETATM   15  C14 UNL     1       2.422  -0.263   3.179  1.00  0.00    -0.000 A 
HETATM   16  C15 UNL     1       2.181   0.254   1.904  1.00  0.00    -0.002 A 
ENDBRANCH   8  11
BRANCH   9  17
HETATM   17  O3  UNL     1      -0.989   0.540  -1.569  1.00  0.00    -0.299 OA
BRANCH  17  18
HETATM   18  C8  UNL     1      -2.138  -0.162  -1.784  1.00  0.00     0.273 C 
HETATM   19  O4  UNL     1      -3.053   0.300  -2.433  1.00  0.00    -0.264 OA
HETATM   20  C9  UNL     1      -2.228  -1.553  -1.184  1.00  0.00     0.106 C 
ENDBRANCH  17  18
ENDBRANCH   9  17
TORSDOF 3
