REMARK  4 active torsions:
REMARK  status: ('A' for Active; 'I' for Inactive)
REMARK    1  A    between atoms: C3_3  and  C11_14 
REMARK    2  A    between atoms: C5_5  and  C8_8 
REMARK    3  A    between atoms: C8_8  and  O1_9 
REMARK    4  A    between atoms: O1_9  and  C9_10 
ROOT
HETATM    1  C1  UNL     1       2.283  -0.043   0.567  1.00  0.00     0.024 A 
HETATM    2  C2  UNL     1       2.508  -1.358   0.677  1.00  0.00     0.136 A 
HETATM    3  C3  UNL     1       1.471  -2.183   0.431  1.00  0.00     0.093 A 
HETATM    4  C4  UNL     1       0.258  -1.691   0.070  1.00  0.00     0.141 A 
HETATM    5  C5  UNL     1       0.070  -0.347  -0.055  1.00  0.00     0.085 A 
HETATM    6  C6  UNL     1       1.103   0.489   0.211  1.00  0.00    -0.013 A 
HETATM    7  C7  UNL     1       1.071   2.008   0.146  1.00  0.00     0.031 C 
HETATM    8  O3  UNL     1      -0.756  -2.588  -0.120  1.00  0.00    -0.190 OA
HETATM    9  O5  UNL     1       3.757  -1.764   1.048  1.00  0.00    -0.190 OA
ENDROOT
BRANCH   5  10
HETATM   10  C8  UNL     1      -1.142   0.166  -0.456  1.00  0.00     0.297 C 
HETATM   11  O2  UNL     1      -2.053  -0.577  -0.746  1.00  0.00    -0.259 OA
BRANCH  10  12
HETATM   12  O1  UNL     1      -1.393   1.502  -0.610  1.00  0.00    -0.298 OA
BRANCH  12  13
HETATM   13  C9  UNL     1      -2.619   1.925  -1.151  1.00  0.00     0.152 C 
HETATM   14  C10 UNL     1      -3.721   1.916  -0.095  1.00  0.00     0.035 C 
ENDBRANCH  12  13
ENDBRANCH  10  12
ENDBRANCH   5  10
BRANCH   3  15
HETATM   15  C11 UNL     1       1.673  -3.528   0.547  1.00  0.00     0.238 C 
HETATM   16  O4  UNL     1       0.884  -4.425   0.362  1.00  0.00    -0.283 OA
ENDBRANCH   3  15
TORSDOF 4
