REMARK  1 active torsions:
REMARK  status: ('A' for Active; 'I' for Inactive)
REMARK    1  A    between atoms: C4_5  and  C6_7 
ROOT
HETATM    1  C1  UNL     1      -0.582  -0.929   0.557  1.00  0.00    -0.020 A 
HETATM    2  C2  UNL     1       0.245   0.200   0.487  1.00  0.00    -0.004 A 
HETATM    3  C3  UNL     1       1.379   0.298  -0.526  1.00  0.00     0.099 C 
HETATM    4  N1  UNL     1       1.536  -0.934  -1.315  1.00  0.00    -0.286 NA
HETATM    5  C4  UNL     1       0.312  -1.646  -1.674  1.00  0.00     0.189 C 
HETATM    6  C5  UNL     1      -0.391  -2.086  -0.387  1.00  0.00     0.061 C 
HETATM    7  C7  UNL     1       2.723   0.506   0.208  1.00  0.00     0.029 C 
HETATM    8  C8  UNL     1       1.153   1.505  -1.461  1.00  0.00     0.029 C 
HETATM    9  C9  UNL     1      -0.011   1.250   1.377  1.00  0.00     0.027 A 
HETATM   10  C10 UNL     1      -1.036   1.205   2.326  1.00  0.00     0.156 A 
HETATM   11  C11 UNL     1      -1.846   0.069   2.397  1.00  0.00     0.156 A 
HETATM   12  C12 UNL     1      -1.607  -0.979   1.507  1.00  0.00     0.025 A 
HETATM   13  O3  UNL     1      -2.843   0.020   3.318  1.00  0.00    -0.188 OA
HETATM   14  O4  UNL     1      -1.254   2.245   3.172  1.00  0.00    -0.188 OA
ENDROOT
BRANCH   5  15
HETATM   15  C6  UNL     1      -0.512  -0.867  -2.685  1.00  0.00     0.208 C 
HETATM   16  O1  UNL     1      -0.221  -0.671  -3.841  1.00  0.00    -0.646 OA
HETATM   17  O2  UNL     1      -1.653  -0.379  -2.166  1.00  0.00    -0.646 OA
ENDBRANCH   5  15
TORSDOF 1
