REMARK  6 active torsions:
REMARK  status: ('A' for Active; 'I' for Inactive)
REMARK    1  A    between atoms: C3_3  and  O5_13 
REMARK    2  A    between atoms: C4_5  and  O4_11 
REMARK    3  A    between atoms: C5_6  and  C6_7 
REMARK    4  A    between atoms: C6_7  and  O2_8 
REMARK    5  A    between atoms: O5_13  and  C9_14 
REMARK    6  A    between atoms: C10_16  and  C14_23 
ROOT
HETATM    1  C1  UNL     1      -1.740   2.072   1.035  1.00  0.00    -0.031 C 
HETATM    2  C2  UNL     1      -1.612   0.591   0.841  1.00  0.00     0.078 C 
HETATM    3  C3  UNL     1      -0.262   0.237   0.261  1.00  0.00     0.243 C 
HETATM    4  O1  UNL     1       0.719   0.730   1.148  1.00  0.00    -0.302 OA
HETATM    5  C4  UNL     1       0.728   2.150   1.245  1.00  0.00     0.267 C 
HETATM    6  C5  UNL     1      -0.644   2.806   1.288  1.00  0.00     0.089 C 
HETATM    7  C15 UNL     1      -2.897   0.194   0.103  1.00  0.00     0.039 C 
HETATM    8  C16 UNL     1      -3.924   1.111   0.781  1.00  0.00     0.157 C 
HETATM    9  C17 UNL     1      -3.199   2.443   1.012  1.00  0.00     0.055 C 
HETATM   10  O11 UNL     1      -4.287   0.567   2.030  1.00  0.00    -0.223 OA
HETATM   11  C18 UNL     1      -2.823   0.423  -1.413  1.00  0.00     0.003 C 
ENDROOT
BRANCH   3  12
HETATM   12  O5  UNL     1      -0.122  -1.163   0.318  1.00  0.00    -0.304 OA
BRANCH  12  13
HETATM   13  C9  UNL     1       1.088  -1.663  -0.215  1.00  0.00     0.272 C 
HETATM   14  O6  UNL     1       0.681  -2.510  -1.270  1.00  0.00    -0.326 OA
HETATM   15  C10 UNL     1       1.751  -3.212  -1.849  1.00  0.00     0.184 C 
HETATM   16  C11 UNL     1       2.410  -4.096  -0.797  1.00  0.00     0.215 C 
HETATM   17  C12 UNL     1       2.932  -3.234   0.332  1.00  0.00     0.220 C 
HETATM   18  O9  UNL     1       3.501  -4.806  -1.331  1.00  0.00    -0.218 OA
HETATM   19  C13 UNL     1       1.775  -2.438   0.886  1.00  0.00     0.241 C 
HETATM   20  O8  UNL     1       3.468  -4.054   1.338  1.00  0.00    -0.218 OA
HETATM   21  O7  UNL     1       2.257  -1.533   1.849  1.00  0.00    -0.215 OA
BRANCH  15  22
HETATM   22  C14 UNL     1       1.219  -4.029  -3.017  1.00  0.00     0.214 C 
HETATM   23  O10 UNL     1       0.768  -3.166  -4.041  1.00  0.00    -0.218 OA
ENDBRANCH  15  22
ENDBRANCH  12  13
ENDBRANCH   3  12
BRANCH   5  24
HETATM   24  O4  UNL     1       1.432   2.608   0.099  1.00  0.00    -0.325 OA
HETATM   25  C8  UNL     1       2.834   2.521   0.231  1.00  0.00     0.177 C 
ENDBRANCH   5  24
BRANCH   6  26
HETATM   26  C6  UNL     1      -0.686   4.266   1.673  1.00  0.00     0.296 C 
HETATM   27  O3  UNL     1      -0.007   4.522   2.662  1.00  0.00    -0.259 OA
BRANCH  26  28
HETATM   28  O2  UNL     1      -1.323   5.303   1.051  1.00  0.00    -0.296 OA
HETATM   29  C7  UNL     1      -1.920   5.149  -0.210  1.00  0.00     0.185 C 
ENDBRANCH  26  28
ENDBRANCH   6  26
TORSDOF 6
