REMARK  6 active torsions:
REMARK  status: ('A' for Active; 'I' for Inactive)
REMARK    1  A    between atoms: C15_15  and  C18_19 
REMARK    2  A    between atoms: C18_19  and  C19_20 
REMARK    3  A    between atoms: C18_19  and  C20_22 
REMARK    4  A    between atoms: C20_22  and  C21_23 
REMARK    5  A    between atoms: C21_23  and  C22_24 
REMARK    6  A    between atoms: C23_25  and  C25_27 
ROOT
HETATM    1  C1  UNL     1      -4.798   0.130  -0.876  1.00  0.00     0.033 C 
HETATM    2  C2  UNL     1      -5.106  -1.294  -1.315  1.00  0.00     0.152 C 
HETATM    3  C3  UNL     1      -4.088  -2.323  -0.780  1.00  0.00     0.029 C 
HETATM    4  C4  UNL     1      -3.901  -2.130   0.764  1.00  0.00     0.006 C 
HETATM    5  C5  UNL     1      -3.778  -0.679   1.323  1.00  0.00     0.015 C 
HETATM    6  C6  UNL     1      -4.856   0.201   0.651  1.00  0.00     0.006 C 
HETATM    7  C7  UNL     1      -2.357  -0.127   1.195  1.00  0.00    -0.053 C 
HETATM    8  C8  UNL     1      -1.290  -0.951   1.172  1.00  0.00    -0.053 C 
HETATM    9  C9  UNL     1      -1.398  -2.455   1.274  1.00  0.00     0.021 C 
HETATM   10  C10 UNL     1      -2.819  -3.014   1.409  1.00  0.00     0.005 C 
HETATM   11  C11 UNL     1       0.114  -0.375   1.193  1.00  0.00     0.017 C 
HETATM   12  C12 UNL     1       0.184   0.982   0.430  1.00  0.00     0.006 C 
HETATM   13  C13 UNL     1      -0.736   1.938   1.204  1.00  0.00     0.005 C 
HETATM   14  C14 UNL     1      -2.178   1.387   1.244  1.00  0.00     0.021 C 
HETATM   15  C15 UNL     1       1.713   1.270   0.407  1.00  0.00     0.038 C 
HETATM   16  C16 UNL     1       2.298  -0.139   0.162  1.00  0.00     0.153 C 
HETATM   17  C17 UNL     1       1.206  -1.172   0.465  1.00  0.00     0.037 C 
HETATM   18  O1  UNL     1       2.703  -0.322  -1.174  1.00  0.00    -0.223 OA
HETATM   19  C26 UNL     1      -0.328   0.928  -1.031  1.00  0.00     0.000 C 
HETATM   20  C27 UNL     1       0.496  -0.324   2.699  1.00  0.00     0.004 C 
HETATM   21  C28 UNL     1      -4.086  -0.651   2.845  1.00  0.00     0.004 C 
HETATM   22  C29 UNL     1      -4.677  -3.731  -1.066  1.00  0.00     0.003 C 
HETATM   23  C30 UNL     1      -2.768  -2.249  -1.574  1.00  0.00     0.003 C 
HETATM   24  O5  UNL     1      -5.194  -1.321  -2.721  1.00  0.00    -0.224 OA
ENDROOT
BRANCH  15  25
HETATM   25  C18 UNL     1       2.254   2.412  -0.489  1.00  0.00     0.068 C 
BRANCH  25  26
HETATM   26  C19 UNL     1       1.476   3.699  -0.238  1.00  0.00     0.207 C 
HETATM   27  O2  UNL     1       0.904   4.301  -1.117  1.00  0.00    -0.288 OA
ENDBRANCH  25  26
BRANCH  25  28
HETATM   28  C20 UNL     1       3.746   2.777  -0.276  1.00  0.00     0.013 C 
BRANCH  28  29
HETATM   29  C21 UNL     1       4.769   1.816  -0.901  1.00  0.00     0.026 C 
BRANCH  29  30
HETATM   30  C22 UNL     1       6.191   2.320  -0.899  1.00  0.00    -0.024 C 
HETATM   31  C23 UNL     1       7.238   1.633  -1.400  1.00  0.00     0.038 C 
HETATM   32  C24 UNL     1       7.090   0.260  -2.023  1.00  0.00     0.037 C 
BRANCH  31  33
HETATM   33  C25 UNL     1       8.490   2.167  -1.358  1.00  0.00     0.206 C 
HETATM   34  O3  UNL     1       9.566   1.511  -1.848  1.00  0.00    -0.644 OA
HETATM   35  O4  UNL     1       8.715   3.256  -0.881  1.00  0.00    -0.644 OA
ENDBRANCH  31  33
ENDBRANCH  29  30
ENDBRANCH  28  29
ENDBRANCH  25  28
ENDBRANCH  15  25
TORSDOF 6
