REMARK  2 active torsions:
REMARK  status: ('A' for Active; 'I' for Inactive)
REMARK    1  A    between atoms: C2_2  and  O5_29 
REMARK    2  A    between atoms: C15_16  and  C18_19 
ROOT
HETATM    1  C1  UNL     1      -4.798  -1.205   0.546  1.00  0.00     0.035 C 
HETATM    2  C2  UNL     1      -5.184   0.228   0.910  1.00  0.00     0.137 C 
HETATM    3  C3  UNL     1      -4.289   1.205   0.185  1.00  0.00    -0.006 C 
HETATM    4  C4  UNL     1      -3.094   0.908  -0.355  1.00  0.00    -0.047 C 
HETATM    5  C5  UNL     1      -2.494  -0.492  -0.337  1.00  0.00     0.015 C 
HETATM    6  C6  UNL     1      -3.280  -1.384   0.656  1.00  0.00     0.007 C 
HETATM    7  C7  UNL     1      -1.004  -0.397   0.119  1.00  0.00     0.008 C 
HETATM    8  C8  UNL     1      -0.184   0.654  -0.658  1.00  0.00     0.029 C 
HETATM    9  C9  UNL     1      -0.869   2.029  -0.569  1.00  0.00     0.007 C 
HETATM   10  C10 UNL     1      -2.306   1.963  -1.098  1.00  0.00     0.022 C 
HETATM   11  C11 UNL     1       1.309   0.725  -0.280  1.00  0.00     0.129 C 
HETATM   12  C12 UNL     1       2.025  -0.640  -0.209  1.00  0.00     0.058 C 
HETATM   13  C13 UNL     1       1.157  -1.617   0.614  1.00  0.00     0.155 C 
HETATM   14  C14 UNL     1      -0.273  -1.750   0.102  1.00  0.00     0.033 C 
HETATM   15  O1  UNL     1       1.747  -2.896   0.641  1.00  0.00    -0.223 OA
HETATM   16  C15 UNL     1       3.320  -0.330   0.597  1.00  0.00     0.029 C 
HETATM   17  C16 UNL     1       2.897   0.748   1.613  1.00  0.00     0.007 C 
HETATM   18  C17 UNL     1       1.612   1.394   1.067  1.00  0.00     0.031 C 
HETATM   19  C23 UNL     1       2.302  -1.227  -1.610  1.00  0.00     0.005 C 
HETATM   20  O4  UNL     1       1.934   1.500  -1.276  1.00  0.00    -0.226 OA
HETATM   21  C24 UNL     1      -2.640  -1.091  -1.756  1.00  0.00     0.004 C 
ENDROOT
BRANCH  16  22
HETATM   22  C18 UNL     1       4.546  -0.000  -0.244  1.00  0.00     0.003 A 
HETATM   23  C19 UNL     1       5.349  -1.110  -0.756  1.00  0.00     0.003 A 
HETATM   24  C20 UNL     1       6.435  -0.861  -1.519  1.00  0.00     0.068 A 
HETATM   25  C21 UNL     1       6.779   0.549  -1.793  1.00  0.00     0.300 A 
HETATM   26  O2  UNL     1       6.046   1.577  -1.283  1.00  0.00    -0.271 OA
HETATM   27  O3  UNL     1       7.759   0.777  -2.498  1.00  0.00    -0.259 OA
HETATM   28  C22 UNL     1       4.950   1.259  -0.532  1.00  0.00     0.122 A 
ENDBRANCH  16  22
BRANCH   2  29
HETATM   29  O5  UNL     1      -5.096   0.374   2.311  1.00  0.00    -0.350 OA
HETATM   30  C25 UNL     1      -5.781   1.508   2.798  1.00  0.00     0.175 C 
ENDBRANCH   2  29
TORSDOF 2
