REMARK  3 active torsions:
REMARK  status: ('A' for Active; 'I' for Inactive)
REMARK    1  A    between atoms: C6_7  and  C9_10 
REMARK    2  A    between atoms: C9_10  and  O1_11 
REMARK    3  A    between atoms: O1_11  and  C10_12 
ROOT
HETATM    1  C1  UNL     1      -1.790   3.506  -0.099  1.00  0.00     0.073 C 
HETATM    2  C2  UNL     1      -0.272   3.428  -0.113  1.00  0.00     0.189 C 
HETATM    3  C3  UNL     1       0.267   2.184  -0.111  1.00  0.00     0.095 A 
HETATM    4  N1  UNL     1      -0.340   1.071  -0.119  1.00  0.00    -0.327 N 
HETATM    5  C4  UNL     1      -1.810   0.998  -0.143  1.00  0.00     0.106 C 
HETATM    6  C5  UNL     1      -2.410   2.246   0.518  1.00  0.00     0.033 C 
HETATM    7  C6  UNL     1       0.411   0.044  -0.113  1.00  0.00     0.067 A 
HETATM    8  C7  UNL     1       1.659   0.548  -0.101  1.00  0.00     0.017 A 
HETATM    9  C8  UNL     1       1.576   1.889  -0.102  1.00  0.00     0.021 A 
HETATM   10  O2  UNL     1       0.401   4.434  -0.125  1.00  0.00    -0.290 OA
ENDROOT
BRANCH   7  11
HETATM   11  C9  UNL     1       0.054  -1.421  -0.121  1.00  0.00     0.186 C 
BRANCH  11  12
HETATM   12  O1  UNL     1       1.203  -2.239  -0.000  1.00  0.00    -0.348 OA
BRANCH  12  13
HETATM   13  C10 UNL     1       0.895  -3.611  -0.031  1.00  0.00     0.143 C 
HETATM   14  C11 UNL     1       2.183  -4.404   0.172  1.00  0.00     0.035 C 
ENDBRANCH  12  13
ENDBRANCH  11  12
ENDBRANCH   7  11
TORSDOF 3
