REMARK  3 active torsions:
REMARK  status: ('A' for Active; 'I' for Inactive)
REMARK    1  A    between atoms: C5_5  and  C9_9 
REMARK    2  A    between atoms: C9_9  and  C10_10 
REMARK    3  A    between atoms: C10_10  and  C11_11 
ROOT
HETATM    1  C1  UNL     1      -0.424  -0.775   0.910  1.00  0.00     0.037 C 
HETATM    2  C2  UNL     1      -1.288   0.178   0.107  1.00  0.00     0.157 C 
HETATM    3  C3  UNL     1      -0.676   1.563   0.200  1.00  0.00     0.055 C 
HETATM    4  C4  UNL     1       0.814   1.570  -0.068  1.00  0.00    -0.046 C 
HETATM    5  C5  UNL     1       1.613   0.478   0.031  1.00  0.00    -0.034 C 
HETATM    6  C6  UNL     1       1.011  -0.902   0.341  1.00  0.00     0.021 C 
HETATM    7  C7  UNL     1       0.964  -1.732  -0.960  1.00  0.00     0.004 C 
HETATM    8  C8  UNL     1       1.774  -1.694   1.429  1.00  0.00     0.004 C 
HETATM    9  C13 UNL     1       1.284   2.966  -0.439  1.00  0.00     0.026 C 
HETATM   10  O2  UNL     1      -2.594   0.202   0.633  1.00  0.00    -0.223 OA
ENDROOT
BRANCH   5  11
HETATM   11  C9  UNL     1       3.078   0.636  -0.368  1.00  0.00    -0.023 C 
BRANCH  11  12
HETATM   12  C10 UNL     1       4.153  -0.419  -0.075  1.00  0.00     0.090 C 
BRANCH  12  13
HETATM   13  C11 UNL     1       5.538  -0.042  -0.590  1.00  0.00     0.155 C 
HETATM   14  C12 UNL     1       6.631  -1.078  -0.405  1.00  0.00     0.073 C 
HETATM   15  O1  UNL     1       5.767   1.020  -1.125  1.00  0.00    -0.296 OA
ENDBRANCH  12  13
ENDBRANCH  11  12
ENDBRANCH   5  11
TORSDOF 3
