REMARK  2 active torsions:
REMARK  status: ('A' for Active; 'I' for Inactive)
REMARK    1  A    between atoms: C5_5  and  C8_8 
REMARK    2  A    between atoms: C9_9  and  C10_10 
ROOT
HETATM    1  C1  UNL     1      -1.879   0.522   0.308  1.00  0.00     0.170 C 
HETATM    2  C2  UNL     1      -2.255  -0.934   0.083  1.00  0.00     0.037 C 
HETATM    3  C3  UNL     1      -1.312  -1.823   0.894  1.00  0.00     0.007 C 
HETATM    4  C4  UNL     1       0.153  -1.662   0.438  1.00  0.00     0.018 C 
HETATM    5  C5  UNL     1       0.540  -0.186   0.330  1.00  0.00    -0.028 C 
HETATM    6  C6  UNL     1      -0.389   0.796   0.305  1.00  0.00    -0.018 C 
HETATM    7  C7  UNL     1      -0.054   2.274   0.367  1.00  0.00     0.029 C 
HETATM    8  C12 UNL     1       1.027  -2.418   1.466  1.00  0.00     0.004 C 
HETATM    9  C13 UNL     1       0.376  -2.314  -0.943  1.00  0.00     0.004 C 
HETATM   10  O2  UNL     1      -2.529   1.309  -0.674  1.00  0.00    -0.219 OA
ENDROOT
BRANCH   5  11
HETATM   11  C8  UNL     1       1.988   0.146   0.270  1.00  0.00    -0.002 C 
HETATM   12  C9  UNL     1       2.531   1.003  -0.622  1.00  0.00     0.037 C 
BRANCH  12  13
HETATM   13  C10 UNL     1       3.977   1.323  -0.626  1.00  0.00     0.173 C 
HETATM   14  C11 UNL     1       4.411   2.510  -1.468  1.00  0.00     0.077 C 
HETATM   15  O1  UNL     1       4.796   0.692   0.034  1.00  0.00    -0.291 OA
ENDBRANCH  12  13
ENDBRANCH   5  11
TORSDOF 2
