REMARK  16 active torsions:
REMARK  status: ('A' for Active; 'I' for Inactive)
REMARK    1  A    between atoms: C3_3  and  C32_44 
REMARK    2  A    between atoms: C5_5  and  O2_8 
REMARK    3  A    between atoms: O2_8  and  C7_9 
REMARK    4  A    between atoms: C7_9  and  C31_42 
REMARK    5  A    between atoms: C8_10  and  O9_30 
REMARK    6  A    between atoms: C10_12  and  C11_14 
REMARK    7  A    between atoms: C11_14  and  O4_15 
REMARK    8  A    between atoms: O4_15  and  C12_16 
REMARK    9  A    between atoms: C12_16  and  C13_17 
REMARK   10  A    between atoms: C14_18  and  C15_19 
REMARK   11  A    between atoms: C19_23  and  O5_25 
REMARK   12  A    between atoms: O9_30  and  C22_31 
REMARK   13  A    between atoms: C22_31  and  C23_32 
REMARK   14  A    between atoms: C24_33  and  C25_34 
REMARK   15  A    between atoms: C32_44  and  O13_45 
REMARK   16  A    between atoms: O13_45  and  C33_46 
ROOT
HETATM    1  C7  UNL     1      -0.933  -0.294   1.214  1.00  0.00     0.247 C 
HETATM    2  C8  UNL     1      -0.538  -1.774   1.214  1.00  0.00     0.211 C 
HETATM    3  C9  UNL     1       0.825  -1.802   1.891  1.00  0.00     0.214 C 
HETATM    4  C10 UNL     1       1.077  -0.332   2.129  1.00  0.00     0.181 C 
HETATM    5  O3  UNL     1       0.296   0.390   1.215  1.00  0.00    -0.328 OA
HETATM    6  O8  UNL     1       0.760  -2.506   3.102  1.00  0.00    -0.218 OA
ENDROOT
BRANCH   1   7
HETATM    7  O2  UNL     1      -1.653  -0.013   0.038  1.00  0.00    -0.331 OA
BRANCH   7   8
HETATM    8  C5  UNL     1      -2.116   1.303  -0.118  1.00  0.00     0.151 C 
HETATM    9  C4  UNL     1      -3.642   1.319  -0.241  1.00  0.00     0.038 C 
HETATM   10  C3  UNL     1      -4.168   2.738  -0.427  1.00  0.00     0.066 C 
HETATM   11  C2  UNL     1      -3.570   3.275  -1.714  1.00  0.00     0.188 C 
HETATM   12  C1  UNL     1      -2.054   3.283  -1.617  1.00  0.00     0.215 C 
HETATM   13  O15 UNL     1      -4.013   4.591  -1.902  1.00  0.00    -0.221 OA
HETATM   14  C6  UNL     1      -1.560   1.868  -1.418  1.00  0.00     0.212 C 
HETATM   15  O16 UNL     1      -1.545   3.789  -2.821  1.00  0.00    -0.218 OA
HETATM   16  O1  UNL     1      -0.163   1.877  -1.315  1.00  0.00    -0.218 OA
BRANCH  10  17
HETATM   17  C32 UNL     1      -5.693   2.729  -0.494  1.00  0.00     0.154 C 
BRANCH  17  18
HETATM   18  O13 UNL     1      -6.196   3.532   0.550  1.00  0.00    -0.302 OA
BRANCH  18  19
HETATM   19  C33 UNL     1      -7.547   3.638   0.603  1.00  0.00     0.272 C 
HETATM   20  C34 UNL     1      -8.080   4.513   1.726  1.00  0.00     0.106 C 
HETATM   21  O14 UNL     1      -8.297   3.081  -0.164  1.00  0.00    -0.264 OA
ENDBRANCH  18  19
ENDBRANCH  17  18
ENDBRANCH  10  17
ENDBRANCH   7   8
ENDBRANCH   1   7
BRANCH   1  22
HETATM   22  C31 UNL     1      -1.760   0.058   2.437  1.00  0.00     0.241 C 
HETATM   23  O12 UNL     1      -3.111  -0.072   2.096  1.00  0.00    -0.215 OA
ENDBRANCH   1  22
BRANCH   2  24
HETATM   24  O9  UNL     1      -0.416  -2.247  -0.097  1.00  0.00    -0.293 OA
BRANCH  24  25
HETATM   25  C22 UNL     1      -1.173  -3.314  -0.448  1.00  0.00     0.296 C 
HETATM   26  O11 UNL     1      -1.934  -3.853   0.326  1.00  0.00    -0.259 OA
BRANCH  25  27
HETATM   27  C23 UNL     1      -1.101  -3.804  -1.706  1.00  0.00     0.068 C 
HETATM   28  C24 UNL     1      -1.822  -4.850  -2.137  1.00  0.00     0.005 C 
BRANCH  28  29
HETATM   29  C25 UNL     1      -1.732  -5.321  -3.396  1.00  0.00     0.000 A 
HETATM   30  C26 UNL     1      -2.477  -6.376  -3.780  1.00  0.00     0.002 A 
HETATM   31  C27 UNL     1      -2.381  -6.840  -5.038  1.00  0.00     0.027 A 
HETATM   32  C28 UNL     1      -1.549  -6.271  -5.935  1.00  0.00     0.131 A 
HETATM   33  C29 UNL     1      -0.808  -5.219  -5.550  1.00  0.00     0.027 A 
HETATM   34  O10 UNL     1      -1.464  -6.763  -7.200  1.00  0.00    -0.190 OA
HETATM   35  C30 UNL     1      -0.903  -4.756  -4.296  1.00  0.00     0.002 A 
ENDBRANCH  28  29
ENDBRANCH  25  27
ENDBRANCH  24  25
ENDBRANCH   2  24
BRANCH   4  36
HETATM   36  C11 UNL     1       2.519  -0.013   1.963  1.00  0.00     0.184 C 
BRANCH  36  37
HETATM   37  O4  UNL     1       2.925   0.530   3.229  1.00  0.00    -0.296 OA
BRANCH  37  38
HETATM   38  C12 UNL     1       4.162   0.879   3.344  1.00  0.00     0.296 C 
HETATM   39  O7  UNL     1       4.485   0.585   2.230  1.00  0.00    -0.259 OA
BRANCH  38  40
HETATM   40  C13 UNL     1       4.874   1.410   4.355  1.00  0.00     0.068 C 
HETATM   41  C14 UNL     1       6.176   1.757   4.364  1.00  0.00     0.005 C 
BRANCH  41  42
HETATM   42  C15 UNL     1       7.046   1.641   3.339  1.00  0.00     0.002 A 
HETATM   43  C16 UNL     1       8.336   1.984   3.349  1.00  0.00     0.002 A 
HETATM   44  C17 UNL     1       9.084   1.808   2.245  1.00  0.00     0.029 A 
HETATM   45  C18 UNL     1       8.628   1.294   1.082  1.00  0.00     0.153 A 
HETATM   46  C19 UNL     1       7.361   0.919   0.966  1.00  0.00     0.119 A 
HETATM   47  O6  UNL     1       9.403   1.141   0.000  1.00  0.00    -0.188 OA
HETATM   48  C20 UNL     1       6.792   1.165   2.130  1.00  0.00     0.026 A 
BRANCH  46  49
HETATM   49  O5  UNL     1       6.774   0.373  -0.166  1.00  0.00    -0.326 OA
HETATM   50  C21 UNL     1       5.400   0.012  -0.193  1.00  0.00     0.181 C 
ENDBRANCH  46  49
ENDBRANCH  41  42
ENDBRANCH  38  40
ENDBRANCH  37  38
ENDBRANCH  36  37
ENDBRANCH   4  36
TORSDOF 16
