REMARK  4 active torsions:
REMARK  status: ('A' for Active; 'I' for Inactive)
REMARK    1  A    between atoms: C4_4  and  O4_11 
REMARK    2  A    between atoms: C6_6  and  C7_7 
REMARK    3  A    between atoms: O4_11  and  C8_12 
REMARK    4  A    between atoms: C8_12  and  C9_14 
ROOT
HETATM    1  C1  UNL     1       4.825  -2.147   0.696  1.00  0.00     0.077 C 
HETATM    2  C2  UNL     1       4.221  -1.134   1.667  1.00  0.00     0.188 C 
HETATM    3  C3  UNL     1       3.498   0.004   0.968  1.00  0.00     0.210 C 
HETATM    4  C4  UNL     1       2.514  -0.454  -0.104  1.00  0.00     0.160 C 
HETATM    5  C5  UNL     1       3.163  -1.481  -1.043  1.00  0.00     0.074 C 
HETATM    6  C6  UNL     1       3.801  -2.668  -0.315  1.00  0.00     0.209 C 
HETATM    7  O3  UNL     1       4.485  -3.455  -1.271  1.00  0.00    -0.215 OA
HETATM    8  O9  UNL     1       4.468   0.842   0.387  1.00  0.00    -0.218 OA
HETATM    9  O10 UNL     1       5.251  -0.568   2.442  1.00  0.00    -0.221 OA
ENDROOT
BRANCH   4  10
HETATM   10  O4  UNL     1       1.392  -1.031   0.496  1.00  0.00    -0.298 OA
BRANCH  10  11
HETATM   11  C8  UNL     1       0.150  -0.454   0.457  1.00  0.00     0.296 C 
HETATM   12  O5  UNL     1      -0.794  -1.128   0.866  1.00  0.00    -0.259 OA
BRANCH  11  13
HETATM   13  C9  UNL     1      -0.219   0.923  -0.013  1.00  0.00     0.067 A 
HETATM   14  C10 UNL     1      -1.445   1.113  -0.662  1.00  0.00     0.035 A 
HETATM   15  C11 UNL     1      -1.839   2.375  -1.118  1.00  0.00     0.158 A 
HETATM   16  C12 UNL     1      -0.991   3.467  -0.918  1.00  0.00     0.181 A 
HETATM   17  O8  UNL     1      -3.024   2.571  -1.754  1.00  0.00    -0.188 OA
HETATM   18  C13 UNL     1       0.233   3.306  -0.258  1.00  0.00     0.158 A 
HETATM   19  O7  UNL     1      -1.352   4.701  -1.354  1.00  0.00    -0.186 OA
HETATM   20  C14 UNL     1       0.600   2.040   0.199  1.00  0.00     0.035 A 
HETATM   21  O6  UNL     1       1.035   4.383  -0.059  1.00  0.00    -0.188 OA
ENDBRANCH  11  13
ENDBRANCH  10  11
ENDBRANCH   4  10
BRANCH   6  22
HETATM   22  C7  UNL     1       2.757  -3.563   0.343  1.00  0.00     0.214 C 
HETATM   23  O1  UNL     1       2.009  -4.177  -0.591  1.00  0.00    -0.646 OA
HETATM   24  O2  UNL     1       2.604  -3.781   1.522  1.00  0.00    -0.646 OA
ENDBRANCH   6  22
TORSDOF 4
