REMARK  4 active torsions:
REMARK  status: ('A' for Active; 'I' for Inactive)
REMARK    1  A    between atoms: C2_2  and  O3_33 
REMARK    2  A    between atoms: C19_19  and  C25_25 
REMARK    3  A    between atoms: O3_33  and  C31_34 
REMARK    4  A    between atoms: C32_36  and  C36_43 
ROOT
HETATM    1  C1  UNL     1       1.168  -1.729  -1.517  1.00  0.00     0.030 C 
HETATM    2  C2  UNL     1       0.785  -1.712   0.197  1.00  0.00     0.118 C 
HETATM    3  C3  UNL     1      -0.719  -1.049   0.833  1.00  0.00     0.025 C 
HETATM    4  C4  UNL     1      -1.539   0.076  -0.376  1.00  0.00     0.002 A 
HETATM    5  C5  UNL     1      -0.895   0.414  -2.101  1.00  0.00     0.001 C 
HETATM    6  C6  UNL     1       0.384  -0.738  -2.725  1.00  0.00     0.003 C 
HETATM    7  C7  UNL     1       0.099   1.460  -1.882  1.00  0.00     0.005 C 
HETATM    8  C8  UNL     1       0.478   0.346  -0.874  1.00  0.00     0.004 C 
HETATM    9  C9  UNL     1      -0.826  -1.199  -1.182  1.00  0.00     0.000 A 
HETATM   10  C10 UNL     1      -2.353  -0.970  -0.997  1.00  0.00     0.000 A 
HETATM   11  C11 UNL     1       2.199   0.790  -1.179  1.00  0.00     0.018 C 
HETATM   12  C12 UNL     1       2.346   2.406  -1.107  1.00  0.00    -0.035 C 
HETATM   13  C13 UNL     1       1.321   3.283  -1.267  1.00  0.00    -0.031 C 
HETATM   14  C14 UNL     1      -0.119   2.901  -1.503  1.00  0.00     0.026 C 
HETATM   15  C15 UNL     1       3.701   3.078  -0.854  1.00  0.00    -0.048 C 
HETATM   16  C16 UNL     1       4.554   2.392   0.217  1.00  0.00     0.028 C 
HETATM   17  C17 UNL     1       4.649   0.892  -0.063  1.00  0.00     0.005 C 
HETATM   18  C18 UNL     1       3.247   0.258  -0.128  1.00  0.00     0.004 C 
HETATM   19  C19 UNL     1       5.936   3.047   0.435  1.00  0.00     0.091 C 
HETATM   20  C20 UNL     1       6.147   4.296  -0.437  1.00  0.00     0.011 C 
HETATM   21  C21 UNL     1       5.870   4.047  -1.933  1.00  0.00     0.004 C 
HETATM   22  C22 UNL     1       4.423   3.537  -2.136  1.00  0.00     0.022 C 
HETATM   23  C23 UNL     1       6.069   5.374  -2.700  1.00  0.00     0.000 C 
HETATM   24  C24 UNL     1       6.880   3.031  -2.512  1.00  0.00     0.000 C 
HETATM   25  C26 UNL     1       2.919   0.548  -2.554  1.00  0.00     0.004 C 
HETATM   26  C27 UNL     1       0.479   1.153   0.518  1.00  0.00     0.000 C 
HETATM   27  C28 UNL     1      -1.873   0.869  -3.201  1.00  0.00     0.000 C 
HETATM   28  C29 UNL     1      -0.694  -0.464   2.306  1.00  0.00     0.002 C 
HETATM   29  C30 UNL     1      -1.584  -2.325   1.271  1.00  0.00     0.002 C 
ENDROOT
BRANCH   2  30
HETATM   30  O3  UNL     1       0.979  -3.053   0.603  1.00  0.00    -0.332 OA
BRANCH  30  31
HETATM   31  C31 UNL     1       1.741  -3.218   1.781  1.00  0.00     0.270 C 
HETATM   32  O4  UNL     1       3.082  -2.986   1.407  1.00  0.00    -0.326 OA
HETATM   33  C32 UNL     1       3.955  -3.026   2.503  1.00  0.00     0.184 C 
HETATM   34  C33 UNL     1       3.899  -4.376   3.215  1.00  0.00     0.215 C 
HETATM   35  C34 UNL     1       2.471  -4.790   3.513  1.00  0.00     0.220 C 
HETATM   36  O7  UNL     1       4.469  -5.387   2.417  1.00  0.00    -0.218 OA
HETATM   37  C35 UNL     1       1.622  -4.641   2.267  1.00  0.00     0.241 C 
HETATM   38  O6  UNL     1       2.447  -6.135   3.920  1.00  0.00    -0.218 OA
HETATM   39  O5  UNL     1       0.290  -4.939   2.592  1.00  0.00    -0.215 OA
BRANCH  33  40
HETATM   40  C36 UNL     1       5.351  -2.672   2.012  1.00  0.00     0.214 C 
HETATM   41  O8  UNL     1       6.192  -2.402   3.114  1.00  0.00    -0.218 OA
ENDBRANCH  33  40
ENDBRANCH  30  31
ENDBRANCH   2  30
BRANCH  19  42
HETATM   42  C25 UNL     1       6.154   3.415   1.898  1.00  0.00     0.185 C 
HETATM   43  O1  UNL     1       7.229   2.804   2.429  1.00  0.00    -0.647 OA
HETATM   44  O2  UNL     1       5.474   4.169   2.553  1.00  0.00    -0.647 OA
ENDBRANCH  19  42
TORSDOF 4
