REMARK  6 active torsions:
REMARK  status: ('A' for Active; 'I' for Inactive)
REMARK    1  A    between atoms: C2_2  and  O8_44 
REMARK    2  A    between atoms: C3_3  and  C36_42 
REMARK    3  A    between atoms: C17_17  and  C23_23 
REMARK    4  A    between atoms: C23_23  and  O2_25 
REMARK    5  A    between atoms: O2_25  and  C24_26 
REMARK    6  A    between atoms: O8_44  and  C37_45 
ROOT
HETATM    1  C1  UNL     1      -3.277  -0.963  -3.579  1.00  0.00     0.030 C 
HETATM    2  C2  UNL     1      -3.383  -2.487  -3.484  1.00  0.00     0.120 C 
HETATM    3  C3  UNL     1      -2.272  -3.013  -2.536  1.00  0.00     0.056 C 
HETATM    4  C4  UNL     1      -2.465  -2.355  -1.120  1.00  0.00     0.005 C 
HETATM    5  C5  UNL     1      -2.697  -0.811  -1.018  1.00  0.00     0.001 C 
HETATM    6  C6  UNL     1      -3.553  -0.311  -2.222  1.00  0.00     0.003 C 
HETATM    7  C7  UNL     1      -1.336  -0.032  -0.911  1.00  0.00     0.005 C 
HETATM    8  C8  UNL     1      -0.194  -0.574   0.006  1.00  0.00     0.004 C 
HETATM    9  C9  UNL     1      -0.135  -2.117  -0.048  1.00  0.00     0.000 C 
HETATM   10  C10 UNL     1      -1.495  -2.814  -0.014  1.00  0.00     0.000 C 
HETATM   11  C11 UNL     1       1.193   0.059  -0.444  1.00  0.00     0.015 C 
HETATM   12  C12 UNL     1       1.095   1.587  -0.423  1.00  0.00    -0.049 C 
HETATM   13  C13 UNL     1       2.407   2.381  -0.415  1.00  0.00     0.018 C 
HETATM   14  C14 UNL     1       3.366   1.843   0.665  1.00  0.00     0.013 C 
HETATM   15  C15 UNL     1       3.631   0.349   0.417  1.00  0.00     0.001 C 
HETATM   16  C16 UNL     1       2.319  -0.434   0.500  1.00  0.00     0.004 C 
HETATM   17  C17 UNL     1       4.706   2.606   0.729  1.00  0.00     0.087 C 
HETATM   18  C18 UNL     1       4.486   4.119   0.865  1.00  0.00     0.010 C 
HETATM   19  C19 UNL     1       3.585   4.695  -0.243  1.00  0.00     0.001 C 
HETATM   20  C20 UNL     1       2.256   3.909  -0.272  1.00  0.00     0.004 C 
HETATM   21  C21 UNL     1       3.287   6.177   0.080  1.00  0.00     0.000 C 
HETATM   22  C22 UNL     1       4.292   4.654  -1.615  1.00  0.00     0.000 C 
HETATM   23  C30 UNL     1      -0.105   2.184  -0.545  1.00  0.00    -0.035 C 
HETATM   24  C31 UNL     1      -1.438   1.486  -0.663  1.00  0.00     0.025 C 
HETATM   25  C32 UNL     1       1.625  -0.295  -1.895  1.00  0.00     0.004 C 
HETATM   26  C33 UNL     1      -0.462  -0.188   1.492  1.00  0.00     0.000 C 
HETATM   27  C34 UNL     1      -3.633  -0.530   0.197  1.00  0.00     0.000 C 
HETATM   28  C35 UNL     1      -2.386  -4.558  -2.417  1.00  0.00     0.005 C 
ENDROOT
BRANCH  17  29
HETATM   29  C23 UNL     1       5.645   2.137   1.838  1.00  0.00     0.273 C 
HETATM   30  O1  UNL     1       6.848   2.061   1.740  1.00  0.00    -0.264 OA
BRANCH  29  31
HETATM   31  O2  UNL     1       4.944   1.849   2.965  1.00  0.00    -0.273 OA
BRANCH  31  32
HETATM   32  C24 UNL     1       5.634   1.359   4.092  1.00  0.00     0.276 C 
HETATM   33  O3  UNL     1       4.767   0.399   4.665  1.00  0.00    -0.329 OA
HETATM   34  C25 UNL     1       3.581   0.934   5.189  1.00  0.00     0.151 C 
HETATM   35  C26 UNL     1       3.900   1.954   6.270  1.00  0.00     0.212 C 
HETATM   36  C29 UNL     1       2.737  -0.225   5.723  1.00  0.00     0.035 C 
HETATM   37  C27 UNL     1       4.772   3.059   5.710  1.00  0.00     0.220 C 
HETATM   38  O6  UNL     1       2.722   2.546   6.762  1.00  0.00    -0.218 OA
HETATM   39  C28 UNL     1       6.000   2.473   5.048  1.00  0.00     0.241 C 
HETATM   40  O5  UNL     1       5.170   3.895   6.770  1.00  0.00    -0.218 OA
HETATM   41  O4  UNL     1       6.843   1.978   6.061  1.00  0.00    -0.215 OA
ENDBRANCH  31  32
ENDBRANCH  29  31
ENDBRANCH  17  29
BRANCH   3  42
HETATM   42  C36 UNL     1      -0.888  -2.784  -3.182  1.00  0.00     0.184 C 
HETATM   43  O7  UNL     1      -0.875  -3.173  -4.542  1.00  0.00    -0.221 OA
ENDBRANCH   3  42
BRANCH   2  44
HETATM   44  O8  UNL     1      -4.664  -2.806  -3.004  1.00  0.00    -0.332 OA
BRANCH  44  45
HETATM   45  C37 UNL     1      -5.295  -3.923  -3.594  1.00  0.00     0.270 C 
HETATM   46  O9  UNL     1      -6.014  -3.465  -4.720  1.00  0.00    -0.326 OA
HETATM   47  C38 UNL     1      -7.106  -2.631  -4.416  1.00  0.00     0.181 C 
HETATM   48  C39 UNL     1      -8.076  -3.300  -3.461  1.00  0.00     0.215 C 
HETATM   49  C40 UNL     1      -7.370  -3.740  -2.196  1.00  0.00     0.220 C 
HETATM   50  O12 UNL     1      -9.095  -2.396  -3.102  1.00  0.00    -0.218 OA
HETATM   51  C41 UNL     1      -6.177  -4.598  -2.563  1.00  0.00     0.241 C 
HETATM   52  O11 UNL     1      -6.939  -2.593  -1.497  1.00  0.00    -0.218 OA
HETATM   53  O10 UNL     1      -6.623  -5.836  -3.067  1.00  0.00    -0.215 OA
ENDBRANCH  44  45
ENDBRANCH   2  44
TORSDOF 6
