REMARK  2 active torsions:
REMARK  status: ('A' for Active; 'I' for Inactive)
REMARK    1  A    between atoms: C3_3  and  C19_19 
REMARK    2  A    between atoms: C12_12  and  C15_15 
ROOT
HETATM    1  C1  UNL     1       3.127   1.260   1.566  1.00  0.00     0.001 C 
HETATM    2  C2  UNL     1       3.918   0.101   0.965  1.00  0.00     0.010 C 
HETATM    3  C3  UNL     1       3.123  -1.225   1.000  1.00  0.00     0.079 C 
HETATM    4  C4  UNL     1       1.576  -0.985   0.912  1.00  0.00     0.014 C 
HETATM    5  C5  UNL     1       1.184   0.291   0.121  1.00  0.00     0.005 C 
HETATM    6  C6  UNL     1       1.865   1.551   0.738  1.00  0.00     0.000 C 
HETATM    7  C7  UNL     1      -0.359   0.484   0.191  1.00  0.00     0.022 C 
HETATM    8  C8  UNL     1      -1.180  -0.766  -0.092  1.00  0.00    -0.027 C 
HETATM    9  C9  UNL     1      -0.643  -1.994   0.047  1.00  0.00    -0.030 C 
HETATM   10  C10 UNL     1       0.805  -2.229   0.410  1.00  0.00     0.026 C 
HETATM   11  C11 UNL     1      -2.588  -0.604  -0.518  1.00  0.00    -0.013 C 
HETATM   12  C12 UNL     1      -3.156   0.603  -0.713  1.00  0.00    -0.045 C 
HETATM   13  C13 UNL     1      -2.371   1.879  -0.502  1.00  0.00     0.022 C 
HETATM   14  C14 UNL     1      -0.861   1.660  -0.676  1.00  0.00     0.009 C 
HETATM   15  C18 UNL     1       1.633   0.123  -1.342  1.00  0.00     0.000 C 
HETATM   16  C20 UNL     1       3.656  -2.117  -0.133  1.00  0.00     0.011 C 
ENDROOT
BRANCH   3  17
HETATM   17  C19 UNL     1       3.426  -1.953   2.289  1.00  0.00     0.184 C 
HETATM   18  O1  UNL     1       2.992  -3.209   2.344  1.00  0.00    -0.647 OA
HETATM   19  O2  UNL     1       4.022  -1.406   3.187  1.00  0.00    -0.647 OA
ENDBRANCH   3  17
BRANCH  12  20
HETATM   20  C15 UNL     1      -4.594   0.715  -1.154  1.00  0.00     0.018 C 
HETATM   21  C16 UNL     1      -4.727   1.213  -2.592  1.00  0.00     0.004 C 
HETATM   22  C17 UNL     1      -5.445   1.517  -0.170  1.00  0.00     0.004 C 
ENDBRANCH  12  20
TORSDOF 2
