REMARK  5 active torsions:
REMARK  status: ('A' for Active; 'I' for Inactive)
REMARK    1  A    between atoms: C6_6  and  O3_16 
REMARK    2  A    between atoms: C10_10  and  O1_11 
REMARK    3  A    between atoms: O1_11  and  C11_12 
REMARK    4  A    between atoms: O3_16  and  C14_17 
REMARK    5  A    between atoms: C14_17  and  C15_18 
ROOT
HETATM    1  C1  UNL     1       1.643  -2.754  -1.170  1.00  0.00    -0.018 C 
HETATM    2  C2  UNL     1       0.303  -2.873  -1.320  1.00  0.00    -0.002 C 
HETATM    3  C3  UNL     1      -0.760  -2.248  -0.432  1.00  0.00     0.153 C 
HETATM    4  C4  UNL     1      -1.703  -1.283  -1.211  1.00  0.00     0.093 C 
HETATM    5  C5  UNL     1      -2.057  -0.002  -0.400  1.00  0.00     0.190 C 
HETATM    6  C6  UNL     1      -0.973   1.105  -0.461  1.00  0.00     0.173 C 
HETATM    7  C7  UNL     1       0.377   0.619   0.012  1.00  0.00    -0.018 C 
HETATM    8  C8  UNL     1       1.289   0.189  -0.881  1.00  0.00    -0.029 C 
HETATM    9  C9  UNL     1       2.572  -0.486  -0.467  1.00  0.00     0.060 C 
HETATM   10  C10 UNL     1       2.318  -1.953  -0.066  1.00  0.00     0.147 C 
HETATM   11  C13 UNL     1       0.650   0.602   1.496  1.00  0.00     0.029 C 
HETATM   12  O6  UNL     1      -3.252   0.570  -0.900  1.00  0.00    -0.220 OA
HETATM   13  C19 UNL     1      -2.856  -2.223  -1.441  1.00  0.00     0.046 C 
HETATM   14  C20 UNL     1      -2.713  -3.377  -0.574  1.00  0.00     0.292 C 
HETATM   15  O7  UNL     1      -1.559  -3.326   0.084  1.00  0.00    -0.296 OA
HETATM   16  O8  UNL     1      -3.543  -4.250  -0.473  1.00  0.00    -0.259 OA
HETATM   17  C21 UNL     1      -3.848  -2.024  -2.328  1.00  0.00     0.001 C 
HETATM   18  C22 UNL     1       2.541  -3.453  -2.158  1.00  0.00     0.029 C 
ENDROOT
BRANCH   6  19
HETATM   19  O3  UNL     1      -1.369   2.209   0.346  1.00  0.00    -0.296 OA
BRANCH  19  20
HETATM   20  C14 UNL     1      -0.645   3.299   0.106  1.00  0.00     0.299 C 
HETATM   21  O5  UNL     1       0.234   3.354  -0.723  1.00  0.00    -0.262 OA
BRANCH  20  22
HETATM   22  C15 UNL     1      -1.004   4.498   0.961  1.00  0.00     0.195 A 
HETATM   23  C16 UNL     1      -2.492   4.947   1.186  1.00  0.00     0.150 A 
HETATM   24  O4  UNL     1      -1.664   5.443   0.184  1.00  0.00    -0.347 OA
HETATM   25  C17 UNL     1      -2.859   6.096   2.115  1.00  0.00     0.035 C 
HETATM   26  C18 UNL     1       0.166   5.180   1.656  1.00  0.00     0.043 C 
ENDBRANCH  20  22
ENDBRANCH  19  20
ENDBRANCH   6  19
BRANCH  10  27
HETATM   27  O1  UNL     1       3.566  -2.553   0.256  1.00  0.00    -0.300 OA
BRANCH  27  28
HETATM   28  C11 UNL     1       3.420  -3.715   0.889  1.00  0.00     0.273 C 
HETATM   29  C12 UNL     1       4.703  -4.416   1.244  1.00  0.00     0.106 C 
HETATM   30  O2  UNL     1       2.350  -4.199   1.168  1.00  0.00    -0.264 OA
ENDBRANCH  27  28
ENDBRANCH  10  27
TORSDOF 5
