REMARK  5 active torsions:
REMARK  status: ('A' for Active; 'I' for Inactive)
REMARK    1  A    between atoms: C1_1  and  C18_28 
REMARK    2  A    between atoms: C2_2  and  O6_17 
REMARK    3  A    between atoms: C7_8  and  O4_14 
REMARK    4  A    between atoms: C8_9  and  O3_12 
REMARK    5  A    between atoms: O6_17  and  C12_18 
ROOT
HETATM    1  C1  UNL     1      -0.336   0.414  -0.840  1.00  0.00     0.125 A 
HETATM    2  C2  UNL     1      -0.059  -0.818  -0.346  1.00  0.00     0.158 A 
HETATM    3  C3  UNL     1      -1.162  -1.729   0.045  1.00  0.00     0.224 A 
HETATM    4  C4  UNL     1      -2.541  -1.195  -0.144  1.00  0.00     0.091 A 
HETATM    5  C5  UNL     1      -2.691   0.113  -0.674  1.00  0.00     0.107 A 
HETATM    6  O1  UNL     1      -1.606   0.846  -0.994  1.00  0.00    -0.305 OA
HETATM    7  C6  UNL     1      -3.988   0.646  -0.867  1.00  0.00     0.051 A 
HETATM    8  C7  UNL     1      -5.127  -0.121  -0.531  1.00  0.00     0.120 A 
HETATM    9  C8  UNL     1      -4.975  -1.426   0.000  1.00  0.00     0.142 A 
HETATM   10  C9  UNL     1      -3.682  -1.967   0.195  1.00  0.00     0.160 A 
HETATM   11  O2  UNL     1      -3.551  -3.203   0.697  1.00  0.00    -0.188 OA
HETATM   12  O5  UNL     1      -0.854  -2.815   0.479  1.00  0.00    -0.284 OA
ENDROOT
BRANCH   2  13
HETATM   13  O6  UNL     1       1.199  -1.236  -0.199  1.00  0.00    -0.298 OA
BRANCH  13  14
HETATM   14  C12 UNL     1       1.562  -1.397   1.168  1.00  0.00     0.274 C 
HETATM   15  O7  UNL     1       2.162  -0.199   1.660  1.00  0.00    -0.329 OA
HETATM   16  C13 UNL     1       3.369   0.189   1.014  1.00  0.00     0.151 C 
HETATM   17  C14 UNL     1       4.432  -0.922   1.168  1.00  0.00     0.212 C 
HETATM   18  C17 UNL     1       3.801   1.518   1.647  1.00  0.00     0.035 C 
HETATM   19  C15 UNL     1       3.893  -2.277   0.660  1.00  0.00     0.220 C 
HETATM   20  O10 UNL     1       5.584  -0.555   0.430  1.00  0.00    -0.218 OA
HETATM   21  C16 UNL     1       2.527  -2.594   1.313  1.00  0.00     0.241 C 
HETATM   22  O9  UNL     1       4.824  -3.322   0.899  1.00  0.00    -0.218 OA
HETATM   23  O8  UNL     1       2.674  -2.895   2.692  1.00  0.00    -0.215 OA
ENDBRANCH  13  14
ENDBRANCH   2  13
BRANCH   1  24
HETATM   24  C18 UNL     1       0.787   1.318  -1.228  1.00  0.00     0.027 A 
HETATM   25  C19 UNL     1       0.795   2.656  -0.797  1.00  0.00     0.032 A 
HETATM   26  C20 UNL     1       1.852   3.512  -1.158  1.00  0.00     0.156 A 
HETATM   27  C21 UNL     1       2.904   3.025  -1.957  1.00  0.00     0.156 A 
HETATM   28  O12 UNL     1       1.852   4.764  -0.750  1.00  0.00    -0.188 OA
HETATM   29  C22 UNL     1       2.895   1.687  -2.387  1.00  0.00     0.030 A 
HETATM   30  O11 UNL     1       3.898   3.820  -2.301  1.00  0.00    -0.188 OA
HETATM   31  C23 UNL     1       1.840   0.834  -2.025  1.00  0.00     0.004 A 
ENDBRANCH   1  24
BRANCH   9  32
HETATM   32  O3  UNL     1      -6.059  -2.149   0.317  1.00  0.00    -0.324 OA
HETATM   33  C10 UNL     1      -7.149  -1.481   0.934  1.00  0.00     0.182 C 
ENDBRANCH   9  32
BRANCH   8  34
HETATM   34  O4  UNL     1      -6.354   0.391  -0.715  1.00  0.00    -0.326 OA
HETATM   35  C11 UNL     1      -6.455   1.725  -1.187  1.00  0.00     0.181 C 
ENDBRANCH   8  34
TORSDOF 5
