REMARK  10 active torsions:
REMARK  status: ('A' for Active; 'I' for Inactive)
REMARK    1  A    between atoms: C4_4  and  C28_33 
REMARK    2  A    between atoms: C9_9  and  O3_27 
REMARK    3  A    between atoms: C10_10  and  O1_15 
REMARK    4  A    between atoms: O1_15  and  C15_16 
REMARK    5  A    between atoms: C15_16  and  C16_18 
REMARK    6  A    between atoms: C17_19  and  C18_20 
REMARK    7  A    between atoms: C19_21  and  C20_22 
REMARK    8  A    between atoms: C21_23  and  C22_24 
REMARK    9  A    between atoms: C22_24  and  C23_25 
REMARK   10  A    between atoms: O3_27  and  C25_28 
ROOT
HETATM    1  C1  UNL     1       3.449  -1.324  -0.121  1.00  0.00     0.058 C 
HETATM    2  C2  UNL     1       4.182  -0.240   0.717  1.00  0.00     0.072 C 
HETATM    3  C3  UNL     1       4.223   1.109  -0.006  1.00  0.00     0.032 C 
HETATM    4  C4  UNL     1       2.996   1.475  -0.820  1.00  0.00    -0.015 C 
HETATM    5  C5  UNL     1       1.750   0.973  -0.646  1.00  0.00    -0.030 C 
HETATM    6  C6  UNL     1       1.307  -0.002   0.439  1.00  0.00     0.052 C 
HETATM    7  C7  UNL     1       1.957  -1.418   0.293  1.00  0.00     0.137 C 
HETATM    8  C8  UNL     1       1.150  -2.293  -0.695  1.00  0.00     0.059 C 
HETATM    9  C9  UNL     1      -0.322  -2.488  -0.273  1.00  0.00     0.152 C 
HETATM   10  C10 UNL     1      -1.121  -1.178   0.016  1.00  0.00     0.127 A 
HETATM   11  C11 UNL     1      -0.242  -0.008   0.479  1.00  0.00     0.037 A 
HETATM   12  C12 UNL     1      -1.115  -0.697   1.484  1.00  0.00     0.029 A 
HETATM   13  C13 UNL     1      -2.379   0.035   1.918  1.00  0.00     0.003 C 
HETATM   14  C14 UNL     1      -0.498  -1.457   2.650  1.00  0.00     0.003 C 
HETATM   15  C27 UNL     1       1.209  -1.740  -2.127  1.00  0.00     0.005 C 
HETATM   16  O5  UNL     1       1.953  -2.061   1.557  1.00  0.00    -0.225 OA
HETATM   17  C29 UNL     1       5.522  -0.867   1.000  1.00  0.00     0.169 C 
HETATM   18  C30 UNL     1       5.469  -2.274   0.631  1.00  0.00     0.009 C 
HETATM   19  C31 UNL     1       4.307  -2.568   0.035  1.00  0.00    -0.025 C 
HETATM   20  C32 UNL     1       6.568  -3.268   0.893  1.00  0.00     0.034 C 
HETATM   21  O7  UNL     1       6.482  -0.293   1.459  1.00  0.00    -0.292 OA
ENDROOT
BRANCH  10  22
HETATM   22  O1  UNL     1      -2.135  -1.342  -0.971  1.00  0.00    -0.301 OA
BRANCH  22  23
HETATM   23  C15 UNL     1      -2.045  -0.441  -1.945  1.00  0.00     0.296 C 
HETATM   24  O2  UNL     1      -1.211   0.434  -1.977  1.00  0.00    -0.259 OA
BRANCH  23  25
HETATM   25  C16 UNL     1      -3.037  -0.563  -3.018  1.00  0.00     0.068 C 
HETATM   26  C17 UNL     1      -4.072   0.291  -3.092  1.00  0.00     0.005 C 
BRANCH  26  27
HETATM   27  C18 UNL     1      -4.234   1.361  -2.102  1.00  0.00     0.000 C 
HETATM   28  C19 UNL     1      -5.274   2.209  -2.170  1.00  0.00    -0.000 C 
BRANCH  28  29
HETATM   29  C20 UNL     1      -5.434   3.279  -1.180  1.00  0.00    -0.005 C 
HETATM   30  C21 UNL     1      -4.365   3.953  -0.721  1.00  0.00    -0.026 C 
BRANCH  30  31
HETATM   31  C22 UNL     1      -4.586   5.041   0.297  1.00  0.00     0.026 C 
BRANCH  31  32
HETATM   32  C23 UNL     1      -3.830   4.783   1.600  1.00  0.00     0.005 C 
HETATM   33  C24 UNL     1      -2.313   4.752   1.406  1.00  0.00     0.000 C 
ENDBRANCH  31  32
ENDBRANCH  30  31
ENDBRANCH  28  29
ENDBRANCH  26  27
ENDBRANCH  23  25
ENDBRANCH  22  23
ENDBRANCH  10  22
BRANCH   9  34
HETATM   34  O3  UNL     1      -0.402  -3.383   0.828  1.00  0.00    -0.302 OA
BRANCH  34  35
HETATM   35  C25 UNL     1      -1.615  -3.910   0.963  1.00  0.00     0.272 C 
HETATM   36  C26 UNL     1      -1.777  -4.854   2.127  1.00  0.00     0.106 C 
HETATM   37  O4  UNL     1      -2.541  -3.670   0.225  1.00  0.00    -0.264 OA
ENDBRANCH  34  35
ENDBRANCH   9  34
BRANCH   4  38
HETATM   38  C28 UNL     1       3.217   2.475  -1.928  1.00  0.00     0.204 C 
HETATM   39  O6  UNL     1       3.488   1.793  -3.129  1.00  0.00    -0.216 OA
ENDBRANCH   4  38
TORSDOF 10
