REMARK  4 active torsions:
REMARK  status: ('A' for Active; 'I' for Inactive)
REMARK    1  A    between atoms: C5_5  and  O2_10 
REMARK    2  A    between atoms: C7_7  and  C8_8 
REMARK    3  A    between atoms: O2_10  and  C9_11 
REMARK    4  A    between atoms: C9_11  and  C10_12 
ROOT
HETATM    1  C1  UNL     1       1.695  -0.637   0.936  1.00  0.00    -0.043 A 
HETATM    2  C2  UNL     1       0.776  -1.717   1.504  1.00  0.00     0.073 A 
HETATM    3  C3  UNL     1      -0.592  -1.686   0.807  1.00  0.00     0.137 C 
HETATM    4  C4  UNL     1      -1.502  -0.580   1.360  1.00  0.00     0.084 C 
HETATM    5  C5  UNL     1      -1.178   0.820   0.840  1.00  0.00     0.135 C 
HETATM    6  C6  UNL     1       0.152   1.313   1.442  1.00  0.00     0.055 C 
HETATM    7  C7  UNL     1       1.420   0.688   0.889  1.00  0.00    -0.017 C 
HETATM    8  C14 UNL     1      -2.828  -1.184   1.014  1.00  0.00     0.045 C 
HETATM    9  C15 UNL     1      -2.629  -2.619   0.863  1.00  0.00     0.292 C 
HETATM   10  O4  UNL     1      -1.328  -2.910   0.938  1.00  0.00    -0.300 OA
HETATM   11  O5  UNL     1      -3.525  -3.414   0.705  1.00  0.00    -0.260 OA
HETATM   12  C16 UNL     1      -3.984  -0.510   0.873  1.00  0.00     0.001 C 
HETATM   13  C17 UNL     1       1.531  -3.033   1.244  1.00  0.00     0.124 A 
HETATM   14  C18 UNL     1       2.897  -2.715   0.570  1.00  0.00     0.144 A 
HETATM   15  C19 UNL     1       2.992  -1.209   0.399  1.00  0.00     0.054 A 
HETATM   16  O6  UNL     1       2.756  -3.049   1.916  1.00  0.00    -0.356 OA
HETATM   17  C20 UNL     1       0.942  -4.436   1.332  1.00  0.00     0.033 C 
ENDROOT
BRANCH   5  18
HETATM   18  O2  UNL     1      -1.117   0.836  -0.582  1.00  0.00    -0.300 OA
BRANCH  18  19
HETATM   19  C9  UNL     1      -1.228   2.063  -1.080  1.00  0.00     0.291 C 
HETATM   20  O3  UNL     1      -1.338   3.059  -0.404  1.00  0.00    -0.260 OA
BRANCH  19  21
HETATM   21  C10 UNL     1      -1.207   2.160  -2.545  1.00  0.00     0.037 C 
HETATM   22  C11 UNL     1      -1.920   1.102  -3.346  1.00  0.00     0.036 C 
HETATM   23  C12 UNL     1      -0.584   3.148  -3.205  1.00  0.00    -0.025 C 
HETATM   24  C13 UNL     1       0.129   4.207  -2.406  1.00  0.00     0.030 C 
ENDBRANCH  19  21
ENDBRANCH  18  19
ENDBRANCH   5  18
BRANCH   7  25
HETATM   25  C8  UNL     1       2.414   1.637   0.264  1.00  0.00     0.204 C 
HETATM   26  O1  UNL     1       3.369   2.020   1.229  1.00  0.00    -0.216 OA
ENDBRANCH   7  25
TORSDOF 4
