REMARK  3 active torsions:
REMARK  status: ('A' for Active; 'I' for Inactive)
REMARK    1  A    between atoms: C8_9  and  C10_12 
REMARK    2  A    between atoms: C14_16  and  C16_19 
REMARK    3  A    between atoms: C16_19  and  C17_20 
ROOT
HETATM    1  C10 UNL     1       0.226  -0.361   1.199  1.00  0.00     0.030 A 
HETATM    2  C11 UNL     1       0.076  -1.469   2.053  1.00  0.00     0.004 A 
HETATM    3  C12 UNL     1      -1.141  -2.168   2.090  1.00  0.00     0.027 A 
HETATM    4  C13 UNL     1      -2.215  -1.766   1.277  1.00  0.00     0.129 A 
HETATM    5  C14 UNL     1      -2.065  -0.654   0.424  1.00  0.00     0.033 A 
HETATM    6  C15 UNL     1      -0.846   0.051   0.383  1.00  0.00     0.129 A 
HETATM    7  O3  UNL     1      -0.709   1.090  -0.418  1.00  0.00    -0.190 OA
HETATM    8  O4  UNL     1      -3.352  -2.430   1.320  1.00  0.00    -0.190 OA
ENDROOT
BRANCH   1   9
HETATM    9  C8  UNL     1       1.527   0.375   1.170  1.00  0.00     0.066 A 
HETATM   10  C7  UNL     1       1.527   1.729   1.172  1.00  0.00     0.126 A 
HETATM   11  O1  UNL     1       2.666   2.451   1.143  1.00  0.00    -0.305 OA
HETATM   12  C5  UNL     1       3.894   1.889   1.113  1.00  0.00     0.105 A 
HETATM   13  C4  UNL     1       4.037   0.477   1.109  1.00  0.00     0.062 A 
HETATM   14  C6  UNL     1       5.045   2.709   1.084  1.00  0.00     0.052 A 
HETATM   15  C3  UNL     1       5.324  -0.113   1.084  1.00  0.00     0.007 A 
HETATM   16  C9  UNL     1       2.812  -0.371   1.137  1.00  0.00     0.200 A 
HETATM   17  C2  UNL     1       6.473   0.715   1.057  1.00  0.00     0.028 A 
HETATM   18  C1  UNL     1       6.334   2.123   1.057  1.00  0.00     0.133 A 
HETATM   19  O5  UNL     1       7.424   2.902   1.029  1.00  0.00    -0.190 OA
HETATM   20  O2  UNL     1       2.771  -1.580   1.133  1.00  0.00    -0.286 OA
ENDBRANCH   1   9
BRANCH   5  21
HETATM   21  C16 UNL     1      -3.199  -0.225  -0.439  1.00  0.00     0.056 C 
BRANCH  21  22
HETATM   22  C17 UNL     1      -3.184  -0.908  -1.779  1.00  0.00    -0.030 C 
HETATM   23  C18 UNL     1      -4.262  -0.789  -2.572  1.00  0.00    -0.048 C 
HETATM   24  C19 UNL     1      -4.258  -1.500  -3.900  1.00  0.00     0.026 C 
HETATM   25  C20 UNL     1      -5.416   0.051  -2.096  1.00  0.00     0.026 C 
ENDBRANCH  21  22
ENDBRANCH   5  21
TORSDOF 3
