REMARK  0 active torsions:
REMARK  status: ('A' for Active; 'I' for Inactive)
ROOT
HETATM    1  C1  UNL     1      -3.689   0.889  -1.065  1.00  0.00     0.004 A 
HETATM    2  C2  UNL     1      -3.838  -0.396  -0.496  1.00  0.00     0.028 A 
HETATM    3  C3  UNL     1      -2.711  -1.086   0.012  1.00  0.00     0.136 A 
HETATM    4  C4  UNL     1      -1.424  -0.484  -0.047  1.00  0.00     0.087 A 
HETATM    5  C5  UNL     1      -1.281   0.815  -0.617  1.00  0.00     0.105 A 
HETATM    6  C6  UNL     1      -2.414   1.494  -1.123  1.00  0.00     0.025 A 
HETATM    7  O1  UNL     1      -0.072   1.414  -0.680  1.00  0.00    -0.307 OA
HETATM    8  C7  UNL     1       1.072   0.858  -0.229  1.00  0.00     0.103 A 
HETATM    9  C8  UNL     1       1.067  -0.439   0.359  1.00  0.00     0.064 A 
HETATM   10  C9  UNL     1      -0.217  -1.205   0.486  1.00  0.00     0.201 A 
HETATM   11  O2  UNL     1      -0.269  -2.311   0.976  1.00  0.00    -0.286 OA
HETATM   12  C10 UNL     1       2.281  -1.004   0.824  1.00  0.00     0.033 A 
HETATM   13  C11 UNL     1       3.492  -0.281   0.709  1.00  0.00     0.131 A 
HETATM   14  C12 UNL     1       3.492   1.008   0.127  1.00  0.00     0.029 A 
HETATM   15  C13 UNL     1       2.285   1.576  -0.340  1.00  0.00     0.027 A 
HETATM   16  O3  UNL     1       4.639  -0.816   1.148  1.00  0.00    -0.190 OA
HETATM   17  O4  UNL     1      -2.881  -2.305   0.545  1.00  0.00    -0.190 OA
ENDROOT
TORSDOF 0
