REMARK  1 active torsions:
REMARK  status: ('A' for Active; 'I' for Inactive)
REMARK    1  A    between atoms: C13_14  and  C14_15 
ROOT
HETATM    1  C1  UNL     1      -2.020  -0.338  -0.039  1.00  0.00     0.073 C 
HETATM    2  C2  UNL     1      -2.234  -1.010   1.295  1.00  0.00     0.012 C 
HETATM    3  C3  UNL     1      -1.441  -2.010   1.727  1.00  0.00     0.160 C 
HETATM    4  C4  UNL     1      -0.174  -2.215   1.014  1.00  0.00     0.199 C 
HETATM    5  C5  UNL     1       0.484  -0.926   0.537  1.00  0.00     0.084 C 
HETATM    6  C6  UNL     1      -0.498  -0.072  -0.322  1.00  0.00     0.018 C 
HETATM    7  C7  UNL     1      -0.029   1.397  -0.398  1.00  0.00     0.001 C 
HETATM    8  C8  UNL     1       1.508   1.553  -0.474  1.00  0.00     0.005 C 
HETATM    9  C9  UNL     1       2.272   0.332  -1.051  1.00  0.00     0.056 C 
HETATM   10  C10 UNL     1       1.797  -0.945  -0.289  1.00  0.00     0.136 A 
HETATM   11  C11 UNL     1       2.871  -2.076  -0.139  1.00  0.00     0.226 A 
HETATM   12  C12 UNL     1       4.193  -1.873  -0.849  1.00  0.00     0.302 C 
HETATM   13  O1  UNL     1       4.557  -0.645  -1.244  1.00  0.00    -0.298 OA
HETATM   14  C13 UNL     1       3.793   0.467  -0.750  1.00  0.00     0.151 C 
HETATM   15  O3  UNL     1       4.895  -2.834  -1.060  1.00  0.00    -0.261 OA
HETATM   16  O4  UNL     1       1.859  -2.092  -1.090  1.00  0.00    -0.346 OA
HETATM   17  C18 UNL     1       2.016   0.246  -2.568  1.00  0.00     0.005 C 
HETATM   18  C19 UNL     1       0.912  -0.213   1.830  1.00  0.00     0.010 C 
HETATM   19  O5  UNL     1       0.291  -3.318   0.854  1.00  0.00    -0.289 OA
HETATM   20  O6  UNL     1      -1.770  -2.764   2.774  1.00  0.00    -0.188 OA
HETATM   21  C20 UNL     1      -3.383  -0.408   2.045  1.00  0.00     0.110 C 
HETATM   22  O7  UNL     1      -3.473   0.865   1.430  1.00  0.00    -0.357 OA
HETATM   23  C21 UNL     1      -2.977   0.883   0.092  1.00  0.00     0.131 C 
HETATM   24  C22 UNL     1      -4.160   0.893  -0.889  1.00  0.00     0.126 C 
HETATM   25  C23 UNL     1      -4.770  -0.480  -1.016  1.00  0.00     0.274 C 
HETATM   26  O8  UNL     1      -3.967  -1.551  -1.021  1.00  0.00    -0.301 OA
HETATM   27  C24 UNL     1      -2.568  -1.277  -1.150  1.00  0.00     0.158 C 
HETATM   28  O9  UNL     1      -5.973  -0.584  -1.088  1.00  0.00    -0.264 OA
HETATM   29  C25 UNL     1      -4.691  -1.166   1.860  1.00  0.00     0.034 C 
HETATM   30  C26 UNL     1      -3.086  -0.168   3.520  1.00  0.00     0.034 C 
ENDROOT
BRANCH  14  31
HETATM   31  C14 UNL     1       4.377   1.734  -1.346  1.00  0.00     0.032 A 
HETATM   32  C15 UNL     1       4.889   1.902  -2.635  1.00  0.00     0.121 A 
HETATM   33  O2  UNL     1       5.336   3.176  -2.848  1.00  0.00    -0.303 OA
HETATM   34  C16 UNL     1       5.098   3.816  -1.668  1.00  0.00     0.122 A 
HETATM   35  C17 UNL     1       4.510   2.973  -0.719  1.00  0.00     0.027 A 
ENDBRANCH  14  31
TORSDOF 1
