REMARK  1 active torsions:
REMARK  status: ('A' for Active; 'I' for Inactive)
REMARK    1  A    between atoms: C16_17  and  C19_20 
ROOT
HETATM    1  C1  UNL     1      -6.064   1.154  -0.256  1.00  0.00     0.000 A 
HETATM    2  C2  UNL     1      -5.750   0.724  -1.574  1.00  0.00     0.002 A 
HETATM    3  C3  UNL     1      -4.445   0.265  -1.891  1.00  0.00     0.019 A 
HETATM    4  C4  UNL     1      -3.469   0.246  -0.867  1.00  0.00     0.081 A 
HETATM    5  C5  UNL     1      -3.781   0.666   0.420  1.00  0.00     0.019 A 
HETATM    6  C6  UNL     1      -5.076   1.129   0.762  1.00  0.00     0.002 A 
HETATM    7  C7  UNL     1      -2.683   0.549   1.197  1.00  0.00     0.019 A 
HETATM    8  C8  UNL     1      -1.642   0.053   0.418  1.00  0.00     0.079 A 
HETATM    9  C9  UNL     1      -0.369  -0.180   0.984  1.00  0.00     0.018 A 
HETATM   10  C10 UNL     1      -0.164   0.215   2.399  1.00  0.00     0.091 A 
HETATM   11  C11 UNL     1      -1.258   0.674   3.174  1.00  0.00     0.024 A 
HETATM   12  C12 UNL     1      -2.533   0.846   2.574  1.00  0.00     0.004 A 
HETATM   13  O1  UNL     1       1.119   0.160   2.920  1.00  0.00    -0.336 OA
HETATM   14  C13 UNL     1       2.051   0.082   1.854  1.00  0.00     0.099 C 
HETATM   15  C14 UNL     1       1.637  -1.334   1.268  1.00  0.00     0.032 C 
HETATM   16  C15 UNL     1       0.768  -0.867   0.188  1.00  0.00     0.028 C 
HETATM   17  C16 UNL     1       1.910  -0.145  -0.707  1.00  0.00     0.004 C 
HETATM   18  C17 UNL     1       3.422  -0.028  -0.027  1.00  0.00     0.003 C 
HETATM   19  C18 UNL     1       3.528   0.037   1.596  1.00  0.00     0.028 C 
HETATM   20  C22 UNL     1       1.828   1.555   1.289  1.00  0.00     0.030 C 
HETATM   21  N1  UNL     1      -2.117  -0.151  -0.895  1.00  0.00    -0.246 NA
ENDROOT
BRANCH  17  22
HETATM   22  C19 UNL     1       2.030  -0.848  -2.064  1.00  0.00     0.000 C 
HETATM   23  C20 UNL     1       2.860  -0.051  -3.070  1.00  0.00     0.000 C 
HETATM   24  C21 UNL     1       2.489  -2.301  -1.937  1.00  0.00     0.000 C 
ENDBRANCH  17  22
TORSDOF 1
