REMARK  3 active torsions:
REMARK  status: ('A' for Active; 'I' for Inactive)
REMARK    1  A    between atoms: C1_1  and  C11_12 
REMARK    2  A    between atoms: C11_12  and  C12_13 
REMARK    3  A    between atoms: C12_13  and  C13_14 
ROOT
HETATM    1  C1  UNL     1       0.064  -0.234   0.136  1.00  0.00    -0.024 A 
HETATM    2  C2  UNL     1       0.523  -1.456   0.714  1.00  0.00    -0.026 A 
HETATM    3  C3  UNL     1       1.778  -1.967   0.398  1.00  0.00    -0.003 A 
HETATM    4  C4  UNL     1       2.592  -1.258  -0.502  1.00  0.00     0.021 A 
HETATM    5  C5  UNL     1       2.155  -0.063  -1.061  1.00  0.00     0.099 A 
HETATM    6  C6  UNL     1       0.888   0.457  -0.749  1.00  0.00     0.020 A 
HETATM    7  O1  UNL     1       3.110   0.446  -1.900  1.00  0.00    -0.305 OA
HETATM    8  C7  UNL     1       4.157  -0.443  -1.866  1.00  0.00     0.118 A 
HETATM    9  C8  UNL     1       3.909  -1.496  -1.042  1.00  0.00     0.005 A 
HETATM   10  C9  UNL     1       4.806  -2.658  -0.753  1.00  0.00     0.033 C 
HETATM   11  C10 UNL     1      -0.333  -2.229   1.694  1.00  0.00     0.031 C 
ENDROOT
BRANCH   1  12
HETATM   12  C11 UNL     1      -1.321   0.290   0.484  1.00  0.00     0.031 C 
BRANCH  12  13
HETATM   13  C12 UNL     1      -1.868   1.444  -0.372  1.00  0.00     0.030 C 
BRANCH  13  14
HETATM   14  C13 UNL     1      -3.279   1.807   0.024  1.00  0.00    -0.030 C 
HETATM   15  C14 UNL     1      -3.664   3.041   0.386  1.00  0.00    -0.030 C 
HETATM   16  C15 UNL     1      -5.075   3.405   0.766  1.00  0.00     0.030 C 
ENDBRANCH  13  14
ENDBRANCH  12  13
ENDBRANCH   1  12
TORSDOF 3
