REMARK  3 active torsions:
REMARK  status: ('A' for Active; 'I' for Inactive)
REMARK    1  A    between atoms: C7_7  and  C12_12 
REMARK    2  A    between atoms: C12_12  and  O1_13 
REMARK    3  A    between atoms: O1_13  and  C13_14 
ROOT
HETATM    1  C1  UNL     1      -0.380   0.940  -2.918  1.00  0.00     0.033 C 
HETATM    2  C2  UNL     1      -1.106   2.151  -2.340  1.00  0.00     0.152 C 
HETATM    3  C3  UNL     1      -2.465   1.792  -1.705  1.00  0.00     0.028 C 
HETATM    4  C4  UNL     1      -2.243   0.657  -0.652  1.00  0.00     0.003 C 
HETATM    5  C5  UNL     1      -1.404  -0.584  -1.070  1.00  0.00     0.006 C 
HETATM    6  C6  UNL     1      -0.131  -0.100  -1.816  1.00  0.00     0.003 C 
HETATM    7  C7  UNL     1      -1.032  -1.409   0.221  1.00  0.00     0.049 C 
HETATM    8  C8  UNL     1      -2.190  -1.584   1.196  1.00  0.00    -0.042 C 
HETATM    9  C9  UNL     1      -3.547  -1.068   0.804  1.00  0.00     0.022 C 
HETATM   10  C10 UNL     1      -3.507   0.324   0.170  1.00  0.00     0.004 C 
HETATM   11  C11 UNL     1      -2.075  -2.313   2.321  1.00  0.00    -0.009 C 
HETATM   12  C22 UNL     1      -2.146  -1.520  -2.059  1.00  0.00     0.000 C 
HETATM   13  C23 UNL     1      -3.001   3.057  -0.981  1.00  0.00     0.003 C 
HETATM   14  C24 UNL     1      -3.503   1.458  -2.802  1.00  0.00     0.003 C 
HETATM   15  O4  UNL     1      -1.246   3.120  -3.353  1.00  0.00    -0.224 OA
ENDROOT
BRANCH   7  16
HETATM   16  C12 UNL     1       0.233  -0.931   0.972  1.00  0.00     0.153 C 
BRANCH  16  17
HETATM   17  O1  UNL     1       1.370  -1.482   0.351  1.00  0.00    -0.330 OA
BRANCH  17  18
HETATM   18  C13 UNL     1       2.602  -1.300   0.924  1.00  0.00     0.096 A 
HETATM   19  C14 UNL     1       3.583  -2.284   0.729  1.00  0.00     0.024 A 
HETATM   20  C15 UNL     1       4.844  -2.193   1.310  1.00  0.00     0.004 A 
HETATM   21  C16 UNL     1       5.161  -1.105   2.133  1.00  0.00     0.023 A 
HETATM   22  C17 UNL     1       4.205  -0.107   2.390  1.00  0.00     0.105 A 
HETATM   23  C21 UNL     1       6.483  -1.002   2.745  1.00  0.00     0.007 A 
HETATM   24  C18 UNL     1       2.944  -0.253   1.793  1.00  0.00     0.049 A 
HETATM   25  O2  UNL     1       4.452   0.974   3.191  1.00  0.00    -0.273 OA
HETATM   26  C19 UNL     1       5.694   1.077   3.744  1.00  0.00     0.300 A 
HETATM   27  C20 UNL     1       6.751   0.062   3.531  1.00  0.00     0.069 A 
HETATM   28  O3  UNL     1       5.970   2.042   4.455  1.00  0.00    -0.259 OA
ENDBRANCH  17  18
ENDBRANCH  16  17
ENDBRANCH   7  16
TORSDOF 3
