REMARK  6 active torsions:
REMARK  status: ('A' for Active; 'I' for Inactive)
REMARK    1  A    between atoms: C4_4  and  C8_9 
REMARK    2  A    between atoms: C8_9  and  C9_10 
REMARK    3  A    between atoms: C9_10  and  C10_11 
REMARK    4  A    between atoms: C12_13  and  C13_14 
REMARK    5  A    between atoms: C13_14  and  O2_15 
REMARK    6  A    between atoms: O2_15  and  C14_16 
ROOT
HETATM    1  C10 UNL     1      -0.622   1.641  -0.432  1.00  0.00    -0.046 C 
HETATM    2  C11 UNL     1      -1.602   2.750  -0.736  1.00  0.00     0.026 C 
HETATM    3  C12 UNL     1      -0.964   0.536   0.253  1.00  0.00    -0.002 C 
ENDROOT
BRANCH   1   4
HETATM    4  C9  UNL     1       0.799   1.905  -0.903  1.00  0.00     0.022 C 
BRANCH   4   5
HETATM    5  C8  UNL     1       1.638   0.659  -1.245  1.00  0.00     0.007 C 
BRANCH   5   6
HETATM    6  C4  UNL     1       3.054   0.958  -1.778  1.00  0.00     0.028 C 
HETATM    7  C3  UNL     1       3.700  -0.198  -2.605  1.00  0.00     0.027 C 
HETATM    8  C2  UNL     1       5.018  -0.386  -1.827  1.00  0.00     0.115 C 
HETATM    9  C23 UNL     1       2.948  -1.548  -2.576  1.00  0.00     0.003 C 
HETATM   10  C24 UNL     1       3.881   0.200  -4.082  1.00  0.00     0.003 C 
HETATM   11  C1  UNL     1       6.047   0.718  -2.071  1.00  0.00     0.032 C 
HETATM   12  O1  UNL     1       4.627  -0.132  -0.510  1.00  0.00    -0.361 OA
HETATM   13  C6  UNL     1       5.362   1.878  -1.332  1.00  0.00     0.030 C 
HETATM   14  C5  UNL     1       4.150   1.161  -0.705  1.00  0.00     0.093 C 
HETATM   15  C7  UNL     1       3.753   1.794   0.622  1.00  0.00     0.030 C 
ENDBRANCH   5   6
ENDBRANCH   4   5
ENDBRANCH   1   4
BRANCH   3  16
HETATM   16  C13 UNL     1      -2.337   0.214   0.795  1.00  0.00     0.174 C 
BRANCH  16  17
HETATM   17  O2  UNL     1      -2.310  -1.049   1.429  1.00  0.00    -0.326 OA
BRANCH  17  18
HETATM   18  C14 UNL     1      -3.435  -1.510   2.064  1.00  0.00     0.096 A 
HETATM   19  C15 UNL     1      -3.347  -2.719   2.769  1.00  0.00     0.024 A 
HETATM   20  C16 UNL     1      -4.434  -3.254   3.452  1.00  0.00     0.004 A 
HETATM   21  C17 UNL     1      -5.661  -2.578   3.456  1.00  0.00     0.023 A 
HETATM   22  C18 UNL     1      -5.804  -1.358   2.774  1.00  0.00     0.105 A 
HETATM   23  C22 UNL     1      -6.805  -3.134   4.176  1.00  0.00     0.007 A 
HETATM   24  C19 UNL     1      -4.679  -0.862   2.099  1.00  0.00     0.049 A 
HETATM   25  O3  UNL     1      -6.975  -0.650   2.747  1.00  0.00    -0.273 OA
HETATM   26  C20 UNL     1      -8.040  -1.172   3.421  1.00  0.00     0.300 A 
HETATM   27  C21 UNL     1      -7.969  -2.452   4.162  1.00  0.00     0.069 A 
HETATM   28  O4  UNL     1      -9.114  -0.573   3.428  1.00  0.00    -0.259 OA
ENDBRANCH  17  18
ENDBRANCH  16  17
ENDBRANCH   3  16
TORSDOF 6
