REMARK  3 active torsions:
REMARK  status: ('A' for Active; 'I' for Inactive)
REMARK    1  A    between atoms: C3_3  and  O4_15 
REMARK    2  A    between atoms: O4_15  and  C12_16 
REMARK    3  A    between atoms: C12_16  and  C13_17 
ROOT
HETATM    1  C1  UNL     1      -1.494   2.015   1.036  1.00  0.00     0.034 C 
HETATM    2  C2  UNL     1      -1.367   0.495   0.759  1.00  0.00     0.085 C 
HETATM    3  C3  UNL     1      -0.084   0.104  -0.019  1.00  0.00     0.135 C 
HETATM    4  C4  UNL     1       0.844   1.222  -0.546  1.00  0.00     0.068 C 
HETATM    5  C5  UNL     1       1.226   2.441   0.311  1.00  0.00     0.157 C 
HETATM    6  C6  UNL     1       0.915   2.400   1.800  1.00  0.00     0.180 C 
HETATM    7  C7  UNL     1      -0.578   2.606   2.123  1.00  0.00     0.037 C 
HETATM    8  C8  UNL     1      -0.847   4.116   2.306  1.00  0.00     0.003 C 
HETATM    9  O1  UNL     1       1.398   1.197   2.341  1.00  0.00    -0.221 OA
HETATM   10  O2  UNL     1       2.583   2.714   0.107  1.00  0.00    -0.302 OA
HETATM   11  C9  UNL     1       3.164   1.874  -0.776  1.00  0.00     0.272 C 
HETATM   12  C10 UNL     1       2.214   0.731  -1.068  1.00  0.00     0.091 C 
HETATM   13  C11 UNL     1       2.814  -0.540  -0.448  1.00  0.00     0.011 C 
HETATM   14  O3  UNL     1       4.293   1.986  -1.198  1.00  0.00    -0.264 OA
HETATM   15  C17 UNL     1      -2.727   0.198   0.092  1.00  0.00     0.174 C 
HETATM   16  C18 UNL     1      -3.668   1.235   0.568  1.00  0.00     0.033 C 
HETATM   17  C19 UNL     1      -2.982   2.218   1.170  1.00  0.00    -0.023 C 
HETATM   18  O6  UNL     1      -3.050  -0.779  -0.570  1.00  0.00    -0.291 OA
HETATM   19  C20 UNL     1      -1.490  -0.344   2.059  1.00  0.00     0.011 C 
ENDROOT
BRANCH   3  20
HETATM   20  O4  UNL     1      -0.390  -0.697  -1.130  1.00  0.00    -0.300 OA
BRANCH  20  21
HETATM   21  C12 UNL     1      -0.362  -2.060  -1.044  1.00  0.00     0.295 C 
HETATM   22  O5  UNL     1      -0.047  -2.623  -0.002  1.00  0.00    -0.259 OA
BRANCH  21  23
HETATM   23  C13 UNL     1      -0.802  -2.879  -2.211  1.00  0.00     0.060 C 
HETATM   24  C14 UNL     1      -0.320  -4.094  -2.545  1.00  0.00    -0.038 C 
HETATM   25  C15 UNL     1      -0.870  -4.841  -3.738  1.00  0.00     0.026 C 
HETATM   26  C16 UNL     1       0.794  -4.812  -1.822  1.00  0.00     0.026 C 
ENDBRANCH  21  23
ENDBRANCH  20  21
ENDBRANCH   3  20
TORSDOF 3
