REMARK  2 active torsions:
REMARK  status: ('A' for Active; 'I' for Inactive)
REMARK    1  A    between atoms: C7_8  and  O1_13 
REMARK    2  A    between atoms: O1_13  and  C12_14 
ROOT
HETATM    1  C1  UNL     1      -3.044   0.352   1.932  1.00  0.00     0.035 C 
HETATM    2  C2  UNL     1      -3.136  -0.357   0.572  1.00  0.00     0.250 C 
HETATM    3  N1  UNL     1      -1.979  -1.209   0.312  1.00  0.00     0.133 N 
HETATM    4  C3  UNL     1      -0.688  -0.506   0.371  1.00  0.00     0.194 C 
HETATM    5  C4  UNL     1      -0.558   0.232   1.724  1.00  0.00     0.032 C 
HETATM    6  C5  UNL     1       0.808   0.939   1.769  1.00  0.00     0.035 C 
HETATM    7  C6  UNL     1       1.030   1.907   0.587  1.00  0.00     0.033 C 
HETATM    8  C7  UNL     1       0.629   1.426  -0.819  1.00  0.00     0.126 C 
HETATM    9  C8  UNL     1      -0.630   0.553  -0.762  1.00  0.00     0.057 C 
HETATM   10  C9  UNL     1      -1.163   0.077  -2.128  1.00  0.00     0.006 C 
HETATM   11  C10 UNL     1      -1.453  -1.422  -2.181  1.00  0.00     0.035 C 
HETATM   12  C11 UNL     1      -2.144  -1.976  -0.922  1.00  0.00     0.250 C 
HETATM   13  C14 UNL     1       1.912  -0.113   1.927  1.00  0.00     0.152 C 
HETATM   14  C15 UNL     1       1.871  -1.185   0.839  1.00  0.00     0.032 C 
HETATM   15  C16 UNL     1       0.448  -1.576   0.393  1.00  0.00     0.034 C 
HETATM   16  C17 UNL     1       2.699  -2.432   1.209  1.00  0.00     0.003 C 
HETATM   17  O3  UNL     1       1.791  -0.718   3.195  1.00  0.00    -0.224 OA
HETATM   18  C18 UNL     1      -1.742   1.149   2.071  1.00  0.00     0.004 C 
ENDROOT
BRANCH   8  19
HETATM   19  O1  UNL     1       1.674   0.743  -1.442  1.00  0.00    -0.304 OA
BRANCH  19  20
HETATM   20  C12 UNL     1       2.239   1.075  -2.638  1.00  0.00     0.272 C 
HETATM   21  O2  UNL     1       3.113   0.396  -3.137  1.00  0.00    -0.264 OA
HETATM   22  C13 UNL     1       1.758   2.343  -3.322  1.00  0.00     0.106 C 
ENDBRANCH  19  20
ENDBRANCH   8  19
TORSDOF 2
