REMARK  3 active torsions:
REMARK  status: ('A' for Active; 'I' for Inactive)
REMARK    1  A    between atoms: C8_8  and  C10_12 
REMARK    2  A    between atoms: C10_12  and  C11_13 
REMARK    3  A    between atoms: C16_18  and  C17_19 
ROOT
HETATM    1  C1  UNL     1      -4.004   0.745   1.290  1.00  0.00     0.133 A 
HETATM    2  C2  UNL     1      -4.392  -0.440   1.923  1.00  0.00     0.055 A 
HETATM    3  C3  UNL     1      -3.487  -1.432   2.319  1.00  0.00     0.138 A 
HETATM    4  C4  UNL     1      -2.129  -1.201   2.046  1.00  0.00     0.085 A 
HETATM    5  C5  UNL     1      -1.702  -0.025   1.417  1.00  0.00    -0.011 A 
HETATM    6  C6  UNL     1      -2.641   0.937   1.046  1.00  0.00     0.024 A 
HETATM    7  C7  UNL     1      -0.230   0.157   1.163  1.00  0.00     0.057 C 
HETATM    8  C8  UNL     1       0.380  -1.190   0.780  1.00  0.00     0.133 C 
HETATM    9  O1  UNL     1       0.177  -2.140   1.791  1.00  0.00    -0.300 OA
HETATM   10  C9  UNL     1      -1.055  -2.178   2.377  1.00  0.00     0.297 C 
HETATM   11  O2  UNL     1      -1.287  -3.044   3.216  1.00  0.00    -0.259 OA
HETATM   12  O6  UNL     1      -3.953  -2.567   2.909  1.00  0.00    -0.190 OA
HETATM   13  O7  UNL     1      -4.915   1.683   0.920  1.00  0.00    -0.190 OA
ENDROOT
BRANCH   8  14
HETATM   14  C10 UNL     1       1.877  -1.108   0.481  1.00  0.00     0.053 C 
BRANCH  14  15
HETATM   15  C11 UNL     1       2.369  -0.134  -0.571  1.00  0.00    -0.032 C 
HETATM   16  C12 UNL     1       3.606   0.658  -0.250  1.00  0.00     0.076 C 
HETATM   17  C13 UNL     1       3.966   1.832  -1.127  1.00  0.00     0.115 C 
HETATM   18  C14 UNL     1       3.564   1.640  -2.553  1.00  0.00     0.051 C 
HETATM   19  O5  UNL     1       5.067   2.578  -0.847  1.00  0.00    -0.194 OA
HETATM   20  C15 UNL     1       2.551   0.803  -2.886  1.00  0.00     0.134 C 
HETATM   21  C16 UNL     1       1.878   0.009  -1.832  1.00  0.00     0.039 C 
HETATM   22  O4  UNL     1       2.232   0.566  -4.188  1.00  0.00    -0.190 OA
BRANCH  21  23
HETATM   23  C17 UNL     1       0.678  -0.761  -2.360  1.00  0.00     0.110 C 
HETATM   24  O3  UNL     1       0.875  -1.863  -3.046  1.00  0.00    -0.195 OA
HETATM   25  C18 UNL     1      -0.662  -0.049  -2.360  1.00  0.00     0.061 C 
ENDBRANCH  21  23
ENDBRANCH  14  15
ENDBRANCH   8  14
TORSDOF 3
