REMARK  0 active torsions:
REMARK  status: ('A' for Active; 'I' for Inactive)
ROOT
HETATM    1  C1  UNL     1      -2.846   0.397   0.056  1.00  0.00     0.054 A 
HETATM    2  C2  UNL     1      -2.853  -0.997  -0.006  1.00  0.00     0.133 A 
HETATM    3  C3  UNL     1      -1.617  -1.643   0.038  1.00  0.00     0.023 A 
HETATM    4  C4  UNL     1      -0.412  -0.939   0.126  1.00  0.00    -0.020 A 
HETATM    5  C5  UNL     1      -0.435   0.464   0.180  1.00  0.00    -0.001 A 
HETATM    6  C6  UNL     1      -1.667   1.139   0.149  1.00  0.00     0.129 A 
HETATM    7  O1  UNL     1      -1.745   2.496   0.211  1.00  0.00    -0.190 OA
HETATM    8  C7  UNL     1       0.852   1.267   0.265  1.00  0.00     0.027 C 
HETATM    9  C8  UNL     1       2.037   0.406   0.734  1.00  0.00     0.038 C 
HETATM   10  C9  UNL     1       2.114  -0.882  -0.075  1.00  0.00     0.157 C 
HETATM   11  C10 UNL     1       0.875  -1.730   0.187  1.00  0.00     0.059 C 
HETATM   12  O2  UNL     1       3.265  -1.605   0.293  1.00  0.00    -0.223 OA
HETATM   13  C11 UNL     1       1.149   1.949  -1.083  1.00  0.00     0.005 C 
HETATM   14  O3  UNL     1      -4.010  -1.705  -0.092  1.00  0.00    -0.190 OA
ENDROOT
TORSDOF 0
