REMARK  1 active torsions:
REMARK  status: ('A' for Active; 'I' for Inactive)
REMARK    1  A    between atoms: C5_5  and  C7_8 
ROOT
HETATM    1  C1  UNL     1       1.814   0.576  -0.397  1.00  0.00     0.022 A 
HETATM    2  C2  UNL     1       0.551   0.072  -0.058  1.00  0.00    -0.025 A 
HETATM    3  C3  UNL     1       0.396  -1.321  -0.100  1.00  0.00    -0.026 A 
HETATM    4  C4  UNL     1       1.470  -2.121  -0.504  1.00  0.00    -0.007 A 
HETATM    5  C5  UNL     1       2.723  -1.605  -0.851  1.00  0.00     0.003 A 
HETATM    6  C6  UNL     1       2.895  -0.215  -0.797  1.00  0.00     0.127 A 
HETATM    7  O1  UNL     1       4.079   0.389  -1.085  1.00  0.00    -0.191 OA
HETATM    8  C10 UNL     1      -0.897  -2.005   0.272  1.00  0.00     0.026 C 
HETATM    9  C11 UNL     1      -1.876  -1.093   1.018  1.00  0.00     0.005 C 
HETATM   10  C12 UNL     1      -1.936   0.275   0.322  1.00  0.00     0.004 C 
HETATM   11  C13 UNL     1      -0.565   1.002   0.442  1.00  0.00     0.019 C 
HETATM   12  C14 UNL     1      -0.649   2.295  -0.404  1.00  0.00     0.004 C 
HETATM   13  C15 UNL     1      -1.853   3.176  -0.042  1.00  0.00     0.000 C 
HETATM   14  C16 UNL     1      -3.171   2.415  -0.206  1.00  0.00     0.000 C 
HETATM   15  C17 UNL     1      -3.229   1.097   0.600  1.00  0.00     0.000 C 
HETATM   16  C18 UNL     1      -4.479   0.327   0.089  1.00  0.00     0.000 C 
HETATM   17  C19 UNL     1      -3.494   1.386   2.092  1.00  0.00     0.000 C 
HETATM   18  C20 UNL     1      -0.124   1.356   1.881  1.00  0.00     0.004 C 
ENDROOT
BRANCH   5  19
HETATM   19  C7  UNL     1       3.844  -2.558  -1.242  1.00  0.00     0.024 C 
HETATM   20  C8  UNL     1       4.381  -2.297  -2.657  1.00  0.00     0.005 C 
HETATM   21  C9  UNL     1       4.970  -2.559  -0.195  1.00  0.00     0.005 C 
ENDBRANCH   5  19
TORSDOF 1
