REMARK  3 active torsions:
REMARK  status: ('A' for Active; 'I' for Inactive)
REMARK    1  A    between atoms: O1_2  and  C2_3 
REMARK    2  A    between atoms: C6_8  and  C8_10 
REMARK    3  A    between atoms: C9_11  and  C10_12 
ROOT
HETATM    1  C2  UNL     1       1.408   1.305  -0.224  1.00  0.00     0.119 A 
HETATM    2  C3  UNL     1       0.795   2.557  -0.407  1.00  0.00     0.153 A 
HETATM    3  O2  UNL     1       1.541   3.665  -0.667  1.00  0.00    -0.188 OA
HETATM    4  C4  UNL     1      -0.595   2.675  -0.307  1.00  0.00     0.029 A 
HETATM    5  C5  UNL     1      -1.401   1.571  -0.044  1.00  0.00     0.002 A 
HETATM    6  C6  UNL     1      -0.826   0.302   0.119  1.00  0.00     0.002 A 
HETATM    7  C7  UNL     1       0.571   0.202   0.013  1.00  0.00     0.026 A 
ENDROOT
BRANCH   6   8
HETATM    8  C8  UNL     1      -1.716  -0.836   0.391  1.00  0.00     0.006 C 
HETATM    9  C9  UNL     1      -1.329  -2.124   0.565  1.00  0.00     0.070 C 
BRANCH   9  10
HETATM   10  C10 UNL     1      -2.284  -3.220   0.837  1.00  0.00     0.211 C 
HETATM   11  O3  UNL     1      -1.869  -4.493   1.000  1.00  0.00    -0.644 OA
HETATM   12  O4  UNL     1      -3.490  -3.013   0.922  1.00  0.00    -0.644 OA
ENDBRANCH   9  10
ENDBRANCH   6   8
BRANCH   1  13
HETATM   13  O1  UNL     1       2.774   1.235  -0.354  1.00  0.00    -0.326 OA
HETATM   14  C1  UNL     1       3.381  -0.032  -0.465  1.00  0.00     0.181 C 
ENDBRANCH   1  13
TORSDOF 3
