REMARK  10 active torsions:
REMARK  status: ('A' for Active; 'I' for Inactive)
REMARK    1  A    between atoms: C2_2  and  C27_38 
REMARK    2  A    between atoms: C9_11  and  C10_12 
REMARK    3  A    between atoms: C11_14  and  C25_34 
REMARK    4  A    between atoms: C14_17  and  O4_18 
REMARK    5  A    between atoms: O4_18  and  C15_19 
REMARK    6  A    between atoms: C15_19  and  C16_20 
REMARK    7  A    between atoms: C16_20  and  C17_21 
REMARK    8  A    between atoms: C17_21  and  C18_22 
REMARK    9  A    between atoms: C20_24  and  O6_29 
REMARK   10  A    between atoms: C27_38  and  C28_39 
ROOT
HETATM    1  C10 UNL     1       0.218   0.359   3.042  1.00  0.00     0.171 C 
HETATM    2  O3  UNL     1       0.207   0.309   4.453  1.00  0.00    -0.347 OA
HETATM    3  C11 UNL     1      -0.183   1.522   5.045  1.00  0.00     0.181 C 
HETATM    4  C12 UNL     1      -1.601   1.862   4.607  1.00  0.00     0.214 C 
HETATM    5  C13 UNL     1      -1.663   1.968   3.097  1.00  0.00     0.215 C 
HETATM    6  C14 UNL     1      -1.177   0.663   2.488  1.00  0.00     0.182 C 
HETATM    7  O8  UNL     1      -2.992   2.220   2.714  1.00  0.00    -0.218 OA
HETATM    8  O9  UNL     1      -2.014   3.097   5.138  1.00  0.00    -0.218 OA
ENDROOT
BRANCH   1   9
HETATM    9  C9  UNL     1       0.773  -0.936   2.454  1.00  0.00     0.055 A 
HETATM   10  C3  UNL     1       1.837  -0.895   1.535  1.00  0.00     0.097 A 
HETATM   11  O1  UNL     1       2.370   0.321   1.198  1.00  0.00    -0.333 OA
HETATM   12  C4  UNL     1       2.241  -2.091   0.906  1.00  0.00     0.053 A 
HETATM   13  C2  UNL     1       2.917   0.445  -0.078  1.00  0.00     0.136 C 
HETATM   14  C1  UNL     1       3.963  -0.641  -0.287  1.00  0.00     0.100 C 
HETATM   15  C5  UNL     1       3.369  -2.019  -0.062  1.00  0.00     0.177 C 
HETATM   16  O2  UNL     1       3.857  -2.978  -0.647  1.00  0.00    -0.291 OA
HETATM   17  C6  UNL     1       1.620  -3.317   1.198  1.00  0.00    -0.015 A 
HETATM   18  C7  UNL     1       0.602  -3.317   2.154  1.00  0.00     0.023 A 
HETATM   19  C26 UNL     1       1.978  -4.621   0.522  1.00  0.00     0.031 C 
HETATM   20  C8  UNL     1       0.191  -2.161   2.818  1.00  0.00     0.131 A 
HETATM   21  O11 UNL     1      -0.843  -2.243   3.698  1.00  0.00    -0.190 OA
BRANCH  13  22
HETATM   22  C27 UNL     1       3.501   1.859  -0.190  1.00  0.00     0.095 C 
BRANCH  22  23
HETATM   23  C28 UNL     1       3.933   2.274  -1.587  1.00  0.00     0.153 C 
HETATM   24  C29 UNL     1       4.737   3.557  -1.694  1.00  0.00     0.072 C 
HETATM   25  O12 UNL     1       3.636   1.627  -2.565  1.00  0.00    -0.296 OA
ENDBRANCH  22  23
ENDBRANCH  13  22
ENDBRANCH   1   9
BRANCH   6  26
HETATM   26  O4  UNL     1      -1.144   0.812   1.097  1.00  0.00    -0.326 OA
BRANCH  26  27
HETATM   27  C15 UNL     1      -1.457  -0.253   0.306  1.00  0.00     0.274 C 
HETATM   28  O7  UNL     1      -1.810  -1.424   0.799  1.00  0.00    -0.190 OA
BRANCH  27  29
HETATM   29  C16 UNL     1      -1.400  -0.143  -1.213  1.00  0.00     0.090 C 
BRANCH  29  30
HETATM   30  C17 UNL     1      -2.666  -0.265  -2.021  1.00  0.00    -0.021 C 
BRANCH  30  31
HETATM   31  C18 UNL     1      -2.694  -0.069  -3.509  1.00  0.00    -0.006 C 
HETATM   32  C19 UNL     1      -3.498  -0.966  -4.319  1.00  0.00     0.025 C 
HETATM   33  C20 UNL     1      -3.679  -0.787  -5.814  1.00  0.00     0.116 C 
HETATM   34  C21 UNL     1      -2.557   0.028  -6.443  1.00  0.00     0.135 C 
HETATM   35  C22 UNL     1      -2.078   1.159  -5.565  1.00  0.00     0.082 C 
HETATM   36  O5  UNL     1      -2.368   0.131  -7.783  1.00  0.00    -0.192 OA
HETATM   37  C23 UNL     1      -2.014   0.953  -4.087  1.00  0.00    -0.019 C 
BRANCH  33  38
HETATM   38  O6  UNL     1      -4.527  -1.643  -6.466  1.00  0.00    -0.326 OA
HETATM   39  C24 UNL     1      -4.254  -1.993  -7.801  1.00  0.00     0.181 C 
ENDBRANCH  33  38
ENDBRANCH  30  31
ENDBRANCH  29  30
ENDBRANCH  27  29
ENDBRANCH  26  27
ENDBRANCH   6  26
BRANCH   3  40
HETATM   40  C25 UNL     1      -0.070   1.383   6.556  1.00  0.00     0.214 C 
HETATM   41  O10 UNL     1       1.293   1.345   6.932  1.00  0.00    -0.218 OA
ENDBRANCH   3  40
TORSDOF 10
