REMARK  13 active torsions:
REMARK  status: ('A' for Active; 'I' for Inactive)
REMARK    1  A    between atoms: C1_1  and  O17_55 
REMARK    2  A    between atoms: C2_2  and  C16_20 
REMARK    3  A    between atoms: C7_8  and  C10_12 
REMARK    4  A    between atoms: C17_22  and  C38_53 
REMARK    5  A    between atoms: C20_25  and  O6_26 
REMARK    6  A    between atoms: O6_26  and  C21_27 
REMARK    7  A    between atoms: C23_29  and  C27_36 
REMARK    8  A    between atoms: C27_36  and  O10_37 
REMARK    9  A    between atoms: O10_37  and  C28_38 
REMARK   10  A    between atoms: C28_38  and  C29_39 
REMARK   11  A    between atoms: C29_39  and  C30_40 
REMARK   12  A    between atoms: C30_40  and  C31_41 
REMARK   13  A    between atoms: C33_43  and  O12_48 
ROOT
HETATM    1  C16 UNL     1      -3.858   0.960   0.741  1.00  0.00     0.171 C 
HETATM    2  O5  UNL     1      -4.980   0.887   1.599  1.00  0.00    -0.347 OA
HETATM    3  C17 UNL     1      -5.885   1.946   1.486  1.00  0.00     0.181 C 
HETATM    4  C18 UNL     1      -6.470   1.918   0.084  1.00  0.00     0.214 C 
HETATM    5  C19 UNL     1      -5.344   2.135  -0.899  1.00  0.00     0.214 C 
HETATM    6  C20 UNL     1      -4.263   1.073  -0.739  1.00  0.00     0.179 C 
HETATM    7  O14 UNL     1      -5.858   2.098  -2.207  1.00  0.00    -0.218 OA
HETATM    8  O15 UNL     1      -7.410   2.949  -0.096  1.00  0.00    -0.218 OA
ENDROOT
BRANCH   6   9
HETATM    9  O6  UNL     1      -3.230   1.511  -1.584  1.00  0.00    -0.351 OA
BRANCH   9  10
HETATM   10  C21 UNL     1      -2.170   0.624  -1.797  1.00  0.00     0.149 C 
HETATM   11  C22 UNL     1      -0.853   1.375  -1.580  1.00  0.00     0.037 C 
HETATM   12  C23 UNL     1       0.372   0.470  -1.813  1.00  0.00     0.065 C 
HETATM   13  C24 UNL     1       0.280  -0.170  -3.200  1.00  0.00     0.187 C 
HETATM   14  C25 UNL     1      -1.046  -0.871  -3.419  1.00  0.00     0.215 C 
HETATM   15  O9  UNL     1       1.304  -1.121  -3.363  1.00  0.00    -0.221 OA
HETATM   16  C26 UNL     1      -2.207   0.086  -3.218  1.00  0.00     0.212 C 
HETATM   17  O8  UNL     1      -1.084  -1.366  -4.734  1.00  0.00    -0.218 OA
HETATM   18  O7  UNL     1      -3.403  -0.620  -3.434  1.00  0.00    -0.218 OA
BRANCH  12  19
HETATM   19  C27 UNL     1       1.679   1.258  -1.640  1.00  0.00     0.148 C 
BRANCH  19  20
HETATM   20  O10 UNL     1       2.593   0.579  -0.818  1.00  0.00    -0.329 OA
BRANCH  20  21
HETATM   21  C28 UNL     1       2.506   0.827   0.517  1.00  0.00     0.270 C 
HETATM   22  O13 UNL     1       1.421   1.364   1.043  1.00  0.00    -0.190 OA
BRANCH  21  23
HETATM   23  C29 UNL     1       3.719   0.675   1.428  1.00  0.00     0.069 C 
BRANCH  23  24
HETATM   24  C30 UNL     1       5.109   0.879   0.883  1.00  0.00     0.027 C 
BRANCH  24  25
HETATM   25  C31 UNL     1       5.616   2.274   0.636  1.00  0.00    -0.046 C 
HETATM   26  C32 UNL     1       6.771   2.761   1.399  1.00  0.00     0.054 C 
HETATM   27  C33 UNL     1       7.254   4.199   1.289  1.00  0.00     0.150 C 
HETATM   28  C34 UNL     1       7.016   4.710  -0.125  1.00  0.00     0.184 C 
HETATM   29  C35 UNL     1       5.637   4.383  -0.642  1.00  0.00     0.061 C 
HETATM   30  O11 UNL     1       7.642   5.831  -0.570  1.00  0.00    -0.221 OA
HETATM   31  C36 UNL     1       5.081   3.031  -0.347  1.00  0.00    -0.032 C 
BRANCH  27  32
HETATM   32  O12 UNL     1       8.489   4.464   1.824  1.00  0.00    -0.351 OA
HETATM   33  C37 UNL     1       8.430   5.366   2.904  1.00  0.00     0.174 C 
ENDBRANCH  27  32
ENDBRANCH  24  25
ENDBRANCH  23  24
ENDBRANCH  21  23
ENDBRANCH  20  21
ENDBRANCH  19  20
ENDBRANCH  12  19
ENDBRANCH   9  10
ENDBRANCH   6   9
BRANCH   1  34
HETATM   34  C2  UNL     1      -3.044  -0.287   1.049  1.00  0.00     0.051 C 
HETATM   35  C1  UNL     1      -3.622  -1.659   0.709  1.00  0.00     0.079 C 
HETATM   36  C6  UNL     1      -2.637  -2.811   0.670  1.00  0.00     0.102 C 
HETATM   37  C5  UNL     1      -1.172  -2.486   0.544  1.00  0.00     0.087 C 
HETATM   38  C4  UNL     1      -0.745  -1.335   1.407  1.00  0.00     0.066 C 
HETATM   39  O1  UNL     1      -0.273  -3.262  -0.117  1.00  0.00    -0.315 OA
HETATM   40  C3  UNL     1      -1.679  -0.195   1.711  1.00  0.00     0.134 C 
HETATM   41  C9  UNL     1       0.573  -1.481   2.139  1.00  0.00     0.118 C 
HETATM   42  O4  UNL     1      -1.162   0.982   2.149  1.00  0.00    -0.190 OA
HETATM   43  C8  UNL     1       1.362  -2.596   1.701  1.00  0.00     0.105 C 
HETATM   44  O2  UNL     1       0.944  -0.639   3.075  1.00  0.00    -0.194 OA
HETATM   45  C7  UNL     1       0.859  -3.514   0.603  1.00  0.00     0.076 C 
BRANCH  35  46
HETATM   46  O17 UNL     1      -4.975  -1.821   0.576  1.00  0.00    -0.332 OA
HETATM   47  C39 UNL     1      -5.469  -3.138   0.529  1.00  0.00     0.181 C 
ENDBRANCH  35  46
BRANCH  45  48
HETATM   48  C10 UNL     1       1.667  -4.767   0.340  1.00  0.00    -0.025 C 
HETATM   49  C11 UNL     1       1.263  -6.018   1.084  1.00  0.00     0.026 C 
HETATM   50  C12 UNL     1       2.086  -7.265   0.884  1.00  0.00     0.037 C 
HETATM   51  C13 UNL     1       3.572  -7.104   0.662  1.00  0.00     0.153 C 
HETATM   52  C14 UNL     1       3.944  -5.899  -0.170  1.00  0.00     0.037 C 
HETATM   53  O3  UNL     1       4.409  -8.172   0.727  1.00  0.00    -0.223 OA
HETATM   54  C15 UNL     1       3.132  -4.638  -0.010  1.00  0.00     0.026 C 
ENDBRANCH  45  48
ENDBRANCH   1  34
BRANCH   3  55
HETATM   55  C38 UNL     1      -6.959   1.771   2.550  1.00  0.00     0.214 C 
HETATM   56  O16 UNL     1      -6.385   1.896   3.837  1.00  0.00    -0.218 OA
ENDBRANCH   3  55
TORSDOF 13
