REMARK  1 active torsions:
REMARK  status: ('A' for Active; 'I' for Inactive)
REMARK    1  A    between atoms: C19_19  and  C22_22 
ROOT
HETATM    1  C1  UNL     1      -5.290  -0.734   2.464  1.00  0.00     0.025 C 
HETATM    2  C2  UNL     1      -5.524  -2.065   1.805  1.00  0.00    -0.034 C 
HETATM    3  C3  UNL     1      -4.557  -2.899   1.384  1.00  0.00    -0.049 C 
HETATM    4  C4  UNL     1      -3.070  -2.589   1.597  1.00  0.00     0.015 C 
HETATM    5  C5  UNL     1      -2.892  -1.048   1.756  1.00  0.00     0.004 C 
HETATM    6  C6  UNL     1      -3.825  -0.519   2.862  1.00  0.00     0.005 C 
HETATM    7  C7  UNL     1      -1.425  -0.486   1.765  1.00  0.00     0.000 C 
HETATM    8  C8  UNL     1      -0.736  -1.012   0.462  1.00  0.00     0.000 C 
HETATM    9  C9  UNL     1      -0.791  -2.551   0.388  1.00  0.00     0.000 C 
HETATM   10  C10 UNL     1      -2.245  -3.049   0.376  1.00  0.00     0.004 C 
HETATM   11  C11 UNL     1       0.616  -0.340   0.057  1.00  0.00     0.000 C 
HETATM   12  C12 UNL     1       0.330   1.194  -0.138  1.00  0.00     0.000 C 
HETATM   13  C13 UNL     1      -0.187   1.766   1.205  1.00  0.00     0.000 C 
HETATM   14  C14 UNL     1      -1.457   1.071   1.740  1.00  0.00     0.000 C 
HETATM   15  C15 UNL     1       1.663   1.857  -0.564  1.00  0.00     0.000 C 
HETATM   16  C16 UNL     1       2.317   1.388  -1.891  1.00  0.00     0.000 C 
HETATM   17  C17 UNL     1       2.469  -0.145  -1.809  1.00  0.00     0.000 C 
HETATM   18  C18 UNL     1       1.214  -0.881  -1.278  1.00  0.00     0.000 C 
HETATM   19  C19 UNL     1       3.634   2.222  -1.822  1.00  0.00     0.000 C 
HETATM   20  C20 UNL     1       3.157   3.598  -1.289  1.00  0.00     0.000 C 
HETATM   21  C21 UNL     1       1.809   3.383  -0.574  1.00  0.00     0.000 C 
HETATM   22  C25 UNL     1       1.574   1.754  -3.194  1.00  0.00     0.000 C 
HETATM   23  C26 UNL     1      -0.774   1.523  -1.182  1.00  0.00     0.000 C 
HETATM   24  C27 UNL     1       1.690  -0.693   1.122  1.00  0.00     0.000 C 
HETATM   25  C28 UNL     1      -0.709  -0.871   3.083  1.00  0.00     0.000 C 
HETATM   26  C29 UNL     1      -2.662  -3.422   2.833  1.00  0.00     0.004 C 
HETATM   27  C30 UNL     1      -4.942  -4.211   0.731  1.00  0.00     0.026 C 
ENDROOT
BRANCH  19  28
HETATM   28  C22 UNL     1       4.548   2.364  -3.062  1.00  0.00     0.000 C 
HETATM   29  C23 UNL     1       5.034   1.013  -3.616  1.00  0.00     0.000 C 
HETATM   30  C24 UNL     1       5.787   3.226  -2.743  1.00  0.00     0.000 C 
ENDBRANCH  19  28
TORSDOF 1
