REMARK  9 active torsions:
REMARK  status: ('A' for Active; 'I' for Inactive)
REMARK    1  A    between atoms: C5_5  and  C9_11 
REMARK    2  A    between atoms: C6_6  and  N1_7 
REMARK       I    between atoms: N1_7  and  C7_8 
REMARK    3  A    between atoms: C9_11  and  O2_12 
REMARK    4  A    between atoms: O2_12  and  C10_13 
REMARK    5  A    between atoms: C10_13  and  C11_14 
REMARK    6  A    between atoms: C14_17  and  O9_43 
REMARK    7  A    between atoms: C24_27  and  O3_28 
REMARK    8  A    between atoms: C26_30  and  O4_32 
REMARK    9  A    between atoms: N2_38  and  C31_40 
ROOT
HETATM    1  C11 UNL     1      -2.086  -0.587   0.074  1.00  0.00     0.060 C 
HETATM    2  C12 UNL     1      -3.241   0.444  -0.094  1.00  0.00     0.007 C 
HETATM    3  C13 UNL     1      -2.778   1.896  -0.053  1.00  0.00     0.030 C 
HETATM    4  C14 UNL     1      -1.671   2.116  -1.077  1.00  0.00     0.120 C 
HETATM    5  C15 UNL     1      -0.458   1.183  -0.792  1.00  0.00     0.086 C 
HETATM    6  C16 UNL     1      -0.725   0.127   0.328  1.00  0.00     0.013 C 
HETATM    7  C17 UNL     1       0.452  -0.866   0.190  1.00  0.00     0.035 C 
HETATM    8  C18 UNL     1       1.014  -0.612  -1.211  1.00  0.00     0.184 C 
HETATM    9  C19 UNL     1       2.324   0.195  -1.149  1.00  0.00     0.186 C 
HETATM   10  C20 UNL     1       2.167   1.490  -0.349  1.00  0.00     0.205 C 
HETATM   11  C21 UNL     1       0.775   2.108  -0.551  1.00  0.00     0.161 C 
HETATM   12  C22 UNL     1       1.030   3.099  -1.708  1.00  0.00     0.038 C 
HETATM   13  C23 UNL     1       2.509   2.949  -2.111  1.00  0.00     0.060 C 
HETATM   14  C24 UNL     1       3.141   2.593  -0.770  1.00  0.00     0.150 C 
HETATM   15  C26 UNL     1       2.727   1.845  -3.162  1.00  0.00     0.120 C 
HETATM   16  C27 UNL     1       2.920   0.446  -2.552  1.00  0.00     0.065 C 
HETATM   17  O5  UNL     1       0.523   2.859   0.613  1.00  0.00    -0.223 OA
HETATM   18  O6  UNL     1       2.359   1.266   1.023  1.00  0.00    -0.218 OA
HETATM   19  O7  UNL     1       3.261  -0.583  -0.434  1.00  0.00    -0.221 OA
HETATM   20  C29 UNL     1      -0.121   0.157  -1.906  1.00  0.00     0.254 C 
HETATM   21  N2  UNL     1      -1.317  -0.597  -2.307  1.00  0.00     0.138 N 
HETATM   22  C30 UNL     1      -1.923  -1.388  -1.242  1.00  0.00     0.253 C 
HETATM   23  O8  UNL     1       1.239  -1.837  -1.853  1.00  0.00    -0.221 OA
ENDROOT
BRANCH   1  24
HETATM   24  C10 UNL     1      -2.541  -1.510   1.234  1.00  0.00     0.154 C 
BRANCH  24  25
HETATM   25  O2  UNL     1      -1.728  -2.637   1.398  1.00  0.00    -0.298 OA
BRANCH  25  26
HETATM   26  C9  UNL     1      -1.694  -3.310   2.584  1.00  0.00     0.297 C 
HETATM   27  O10 UNL     1      -0.913  -4.252   2.698  1.00  0.00    -0.259 OA
BRANCH  26  28
HETATM   28  C5  UNL     1      -2.536  -3.028   3.801  1.00  0.00     0.081 A 
HETATM   29  C4  UNL     1      -3.923  -2.906   3.656  1.00  0.00     0.007 A 
HETATM   30  C3  UNL     1      -4.733  -2.665   4.765  1.00  0.00     0.000 A 
HETATM   31  C2  UNL     1      -4.152  -2.557   6.028  1.00  0.00     0.002 A 
HETATM   32  C1  UNL     1      -2.769  -2.690   6.176  1.00  0.00     0.019 A 
HETATM   33  C6  UNL     1      -1.940  -2.927   5.074  1.00  0.00     0.089 A 
BRANCH  33  34
HETATM   34  N1  UNL     1      -0.599  -3.047   5.146  1.00  0.00    -0.212 NA
HETATM   35  C7  UNL     1       0.265  -2.999   6.202  1.00  0.00     0.256 C 
HETATM   36  C8  UNL     1       1.716  -3.216   5.816  1.00  0.00     0.100 C 
HETATM   37  O1  UNL     1      -0.069  -2.804   7.345  1.00  0.00    -0.270 OA
ENDBRANCH  33  34
ENDBRANCH  26  28
ENDBRANCH  25  26
ENDBRANCH  24  25
ENDBRANCH   1  24
BRANCH  21  38
HETATM   38  C31 UNL     1      -1.187  -1.394  -3.525  1.00  0.00     0.250 C 
HETATM   39  C32 UNL     1      -0.667  -0.618  -4.746  1.00  0.00     0.037 C 
ENDBRANCH  21  38
BRANCH   4  40
HETATM   40  O9  UNL     1      -2.122   1.970  -2.397  1.00  0.00    -0.354 OA
HETATM   41  C33 UNL     1      -2.873   3.059  -2.892  1.00  0.00     0.174 C 
ENDBRANCH   4  40
BRANCH  14  42
HETATM   42  O3  UNL     1       4.482   2.235  -0.942  1.00  0.00    -0.351 OA
HETATM   43  C25 UNL     1       5.210   2.096   0.258  1.00  0.00     0.174 C 
ENDBRANCH  14  42
BRANCH  15  44
HETATM   44  O4  UNL     1       3.838   2.216  -3.945  1.00  0.00    -0.354 OA
HETATM   45  C28 UNL     1       3.992   1.447  -5.120  1.00  0.00     0.174 C 
ENDBRANCH  15  44
TORSDOF 9
