REMARK  1 active torsions:
REMARK  status: ('A' for Active; 'I' for Inactive)
REMARK    1  A    between atoms: C9_9  and  C10_11 
ROOT
HETATM    1  C1  UNL     1      -3.438   3.252   0.012  1.00  0.00     0.028 A 
HETATM    2  C2  UNL     1      -3.912   1.938  -0.021  1.00  0.00     0.133 A 
HETATM    3  C3  UNL     1      -2.972   0.902  -0.028  1.00  0.00     0.052 A 
HETATM    4  C4  UNL     1      -1.588   1.117  -0.004  1.00  0.00     0.105 A 
HETATM    5  C5  UNL     1      -1.161   2.449   0.030  1.00  0.00     0.064 A 
HETATM    6  C6  UNL     1      -2.068   3.515   0.038  1.00  0.00     0.007 A 
HETATM    7  C7  UNL     1       0.292   2.698   0.058  1.00  0.00     0.225 A 
HETATM    8  C8  UNL     1       1.171   1.505   0.044  1.00  0.00     0.192 A 
HETATM    9  C9  UNL     1       0.628   0.256   0.008  1.00  0.00     0.128 A 
HETATM   10  O1  UNL     1      -0.731   0.058  -0.011  1.00  0.00    -0.305 OA
HETATM   11  O4  UNL     1       2.489   1.834   0.074  1.00  0.00    -0.185 OA
HETATM   12  O5  UNL     1       0.801   3.816   0.094  1.00  0.00    -0.284 OA
HETATM   13  O6  UNL     1      -5.245   1.670  -0.046  1.00  0.00    -0.190 OA
ENDROOT
BRANCH   9  14
HETATM   14  C10 UNL     1       1.469  -0.971  -0.006  1.00  0.00     0.027 A 
HETATM   15  C11 UNL     1       2.872  -1.032  -0.018  1.00  0.00     0.004 A 
HETATM   16  C12 UNL     1       3.556  -2.250  -0.028  1.00  0.00     0.030 A 
HETATM   17  C13 UNL     1       2.877  -3.467  -0.031  1.00  0.00     0.156 A 
HETATM   18  C14 UNL     1       1.478  -3.445  -0.027  1.00  0.00     0.156 A 
HETATM   19  O3  UNL     1       3.526  -4.660  -0.042  1.00  0.00    -0.188 OA
HETATM   20  C15 UNL     1       0.811  -2.219  -0.014  1.00  0.00     0.032 A 
HETATM   21  O2  UNL     1       0.792  -4.617  -0.035  1.00  0.00    -0.188 OA
ENDBRANCH   9  14
TORSDOF 1
