REMARK  1 active torsions:
REMARK  status: ('A' for Active; 'I' for Inactive)
REMARK    1  A    between atoms: C9_9  and  C10_11 
ROOT
HETATM    1  C1  UNL     1      -3.369   2.893   0.035  1.00  0.00     0.000 A 
HETATM    2  C2  UNL     1      -3.849   1.661  -0.180  1.00  0.00     0.002 A 
HETATM    3  C3  UNL     1      -2.997   0.630  -0.278  1.00  0.00     0.025 A 
HETATM    4  C4  UNL     1      -1.666   0.793  -0.157  1.00  0.00     0.103 A 
HETATM    5  C5  UNL     1      -1.198   2.033   0.064  1.00  0.00     0.064 A 
HETATM    6  C6  UNL     1      -2.046   3.076   0.154  1.00  0.00     0.005 A 
HETATM    7  C7  UNL     1       0.142   2.214   0.196  1.00  0.00     0.225 C 
HETATM    8  C8  UNL     1       0.978   1.135   0.164  1.00  0.00     0.192 C 
HETATM    9  C9  UNL     1       0.493  -0.117  -0.015  1.00  0.00     0.128 C 
HETATM   10  O1  UNL     1      -0.843  -0.281  -0.280  1.00  0.00    -0.305 OA
HETATM   11  O2  UNL     1       2.298   1.457   0.258  1.00  0.00    -0.185 OA
HETATM   12  O3  UNL     1       0.599   3.325   0.360  1.00  0.00    -0.284 OA
ENDROOT
BRANCH   9  13
HETATM   13  C10 UNL     1       1.253  -1.249   0.004  1.00  0.00     0.025 A 
HETATM   14  C11 UNL     1       0.680  -2.417  -0.371  1.00  0.00     0.002 A 
HETATM   15  C12 UNL     1       1.334  -3.589  -0.388  1.00  0.00     0.000 A 
HETATM   16  C13 UNL     1       2.614  -3.652  -0.004  1.00  0.00     0.000 A 
HETATM   17  C14 UNL     1       3.210  -2.525   0.404  1.00  0.00     0.000 A 
HETATM   18  C15 UNL     1       2.536  -1.363   0.409  1.00  0.00     0.002 A 
ENDBRANCH   9  13
TORSDOF 1
