REMARK  2 active torsions:
REMARK  status: ('A' for Active; 'I' for Inactive)
REMARK    1  A    between atoms: C3_3  and  C4_4 
REMARK    2  A    between atoms: C5_5  and  C6_6 
ROOT
HETATM    1  C4  UNL     1      -1.613  -0.424  -0.012  1.00  0.00    -0.004 C 
HETATM    2  C5  UNL     1      -0.930   0.732  -0.012  1.00  0.00    -0.001 C 
ENDROOT
BRANCH   1   3
HETATM    3  C3  UNL     1      -0.908  -1.711  -0.012  1.00  0.00    -0.026 C 
HETATM    4  C2  UNL     1      -0.930  -2.551  -1.061  1.00  0.00    -0.030 C 
HETATM    5  C1  UNL     1      -1.709  -2.154  -2.285  1.00  0.00     0.030 C 
HETATM    6  C10 UNL     1      -0.133  -2.111   1.215  1.00  0.00     0.030 C 
ENDBRANCH   1   3
BRANCH   2   7
HETATM    7  C6  UNL     1       0.539   0.732  -0.012  1.00  0.00    -0.008 C 
HETATM    8  C7  UNL     1       1.225   1.797   0.434  1.00  0.00    -0.044 C 
HETATM    9  C8  UNL     1       2.723   1.926   0.441  1.00  0.00     0.026 C 
HETATM   10  C9  UNL     1       0.453   2.971   0.977  1.00  0.00     0.026 C 
ENDBRANCH   2   7
TORSDOF 2
