REMARK  0 active torsions:
REMARK  status: ('A' for Active; 'I' for Inactive)
ROOT
HETATM    1  C1  UNL     1      -2.864   1.030  -1.350  1.00  0.00     0.026 C 
HETATM    2  C2  UNL     1      -2.356  -0.227  -2.067  1.00  0.00     0.120 C 
HETATM    3  N1  UNL     1      -1.535  -1.064  -1.191  1.00  0.00    -0.295 NA
HETATM    4  C3  UNL     1      -0.552  -0.350  -0.361  1.00  0.00     0.103 C 
HETATM    5  C4  UNL     1      -0.377   1.102  -0.841  1.00  0.00     0.029 C 
HETATM    6  C5  UNL     1       0.739   1.756  -0.015  1.00  0.00     0.029 C 
HETATM    7  C6  UNL     1       2.074   1.107  -0.411  1.00  0.00     0.050 C 
HETATM    8  C7  UNL     1       1.964  -0.396  -0.414  1.00  0.00     0.060 A 
HETATM    9  C8  UNL     1       0.792  -1.068  -0.401  1.00  0.00     0.011 A 
HETATM   10  C9  UNL     1       0.851  -2.530  -0.365  1.00  0.00     0.004 A 
HETATM   11  C10 UNL     1       2.041  -3.174  -0.363  1.00  0.00     0.062 A 
HETATM   12  C11 UNL     1       3.300  -2.403  -0.396  1.00  0.00     0.279 A 
HETATM   13  N2  UNL     1       3.135  -1.058  -0.416  1.00  0.00    -0.213 NA
HETATM   14  O1  UNL     1       4.413  -2.903  -0.396  1.00  0.00    -0.265 OA
HETATM   15  C12 UNL     1       0.517   1.569   1.465  1.00  0.00    -0.034 C 
HETATM   16  C13 UNL     1      -0.259   0.605   1.984  1.00  0.00    -0.046 C 
HETATM   17  C14 UNL     1      -1.018  -0.363   1.111  1.00  0.00     0.048 C 
HETATM   18  C15 UNL     1      -0.447   0.445   3.473  1.00  0.00     0.026 C 
HETATM   19  C16 UNL     1      -1.701   1.883  -0.816  1.00  0.00     0.005 C 
ENDROOT
TORSDOF 0
