REMARK  5 active torsions:
REMARK  status: ('A' for Active; 'I' for Inactive)
REMARK    1  A    between atoms: C9_12  and  C11_14 
REMARK    2  A    between atoms: C16_19  and  C17_20 
REMARK    3  A    between atoms: C17_20  and  C18_21 
REMARK    4  A    between atoms: C18_21  and  N2_22 
REMARK    5  A    between atoms: N2_22  and  C20_24 
ROOT
HETATM    1  C11 UNL     1       1.560  -0.496  -0.032  1.00  0.00     0.016 A 
HETATM    2  C12 UNL     1       2.720  -1.209  -0.040  1.00  0.00     0.028 A 
HETATM    3  C13 UNL     1       3.929  -0.641  -0.056  1.00  0.00     0.119 A 
HETATM    4  C14 UNL     1       4.042   0.683  -0.063  1.00  0.00     0.119 A 
HETATM    5  C15 UNL     1       2.937   1.429  -0.052  1.00  0.00     0.022 A 
HETATM    6  C16 UNL     1       1.707   0.869  -0.035  1.00  0.00    -0.017 A 
HETATM    7  O4  UNL     1       5.216   1.042  -0.079  1.00  0.00    -0.300 OA
HETATM    8  C21 UNL     1       6.016  -0.142  -0.084  1.00  0.00     0.304 A 
HETATM    9  O5  UNL     1       5.033  -1.180  -0.068  1.00  0.00    -0.300 OA
ENDROOT
BRANCH   1  10
HETATM   10  C9  UNL     1       0.401  -1.231  -0.025  1.00  0.00     0.081 A 
HETATM   11  N1  UNL     1       0.498  -2.502   0.002  1.00  0.00    -0.244 NA
HETATM   12  C8  UNL     1      -0.489  -3.291   0.009  1.00  0.00     0.101 A 
HETATM   13  C2  UNL     1      -1.766  -2.889  -0.012  1.00  0.00     0.043 A 
HETATM   14  C1  UNL     1      -1.965  -1.562  -0.044  1.00  0.00     0.005 A 
HETATM   15  C3  UNL     1      -2.831  -3.703  -0.007  1.00  0.00     0.121 A 
HETATM   16  C6  UNL     1      -3.222  -1.071  -0.070  1.00  0.00     0.002 A 
HETATM   17  C10 UNL     1      -0.873  -0.775  -0.049  1.00  0.00     0.019 A 
HETATM   18  C5  UNL     1      -4.290  -1.886  -0.065  1.00  0.00     0.026 A 
HETATM   19  C4  UNL     1      -4.074  -3.207  -0.033  1.00  0.00     0.119 A 
HETATM   20  O1  UNL     1      -4.916  -4.101  -0.025  1.00  0.00    -0.300 OA
HETATM   21  C7  UNL     1      -4.216  -5.345   0.011  1.00  0.00     0.304 A 
HETATM   22  O2  UNL     1      -2.849  -4.931   0.020  1.00  0.00    -0.299 OA
ENDBRANCH   1  10
BRANCH   6  23
HETATM   23  C17 UNL     1       0.550   1.863  -0.012  1.00  0.00     0.051 C 
BRANCH  23  24
HETATM   24  C18 UNL     1       0.788   3.387   0.039  1.00  0.00     0.109 C 
BRANCH  24  25
HETATM   25  N2  UNL     1      -0.415   4.232   0.069  1.00  0.00    -0.310 N 
HETATM   26  C19 UNL     1      -0.121   5.662   0.106  1.00  0.00     0.129 C 
BRANCH  25  27
HETATM   27  C20 UNL     1      -1.703   3.759   0.063  1.00  0.00     0.313 C 
HETATM   28  O3  UNL     1      -2.664   4.489   0.089  1.00  0.00    -0.262 OA
ENDBRANCH  25  27
ENDBRANCH  24  25
ENDBRANCH  23  24
ENDBRANCH   6  23
TORSDOF 5
