REMARK  3 active torsions:
REMARK  status: ('A' for Active; 'I' for Inactive)
REMARK    1  A    between atoms: C1_1  and  O3_22 
REMARK    2  A    between atoms: C2_2  and  O2_20 
REMARK    3  A    between atoms: C11_12  and  O1_18 
ROOT
HETATM    1  C1  UNL     1      -3.157   0.929   0.074  1.00  0.00     0.116 A 
HETATM    2  C2  UNL     1      -3.034  -0.422   0.444  1.00  0.00     0.116 A 
HETATM    3  C3  UNL     1      -1.762  -1.003   0.364  1.00  0.00     0.025 A 
HETATM    4  C4  UNL     1      -0.600  -0.324  -0.025  1.00  0.00    -0.005 A 
HETATM    5  C5  UNL     1      -0.717   1.026  -0.379  1.00  0.00    -0.018 A 
HETATM    6  C6  UNL     1      -1.990   1.609  -0.298  1.00  0.00     0.022 A 
HETATM    7  C7  UNL     1       0.410   1.927  -0.842  1.00  0.00     0.062 C 
HETATM    8  C8  UNL     1       1.723   1.363  -1.404  1.00  0.00     0.256 C 
HETATM    9  N1  UNL     1       1.551   0.144  -2.171  1.00  0.00     0.148 N 
HETATM   10  C9  UNL     1       1.518  -1.035  -1.312  1.00  0.00     0.263 C 
HETATM   11  C10 UNL     1       0.713  -1.077  -0.006  1.00  0.00     0.021 C 
HETATM   12  C11 UNL     1       1.502  -0.921   1.307  1.00  0.00     0.158 C 
HETATM   13  C12 UNL     1       2.783  -1.735   1.276  1.00  0.00     0.007 C 
HETATM   14  C13 UNL     1       3.481  -1.957   0.147  1.00  0.00    -0.004 C 
HETATM   15  C14 UNL     1       2.961  -1.383  -1.092  1.00  0.00     0.010 C 
HETATM   16  C15 UNL     1       3.660  -0.935  -2.146  1.00  0.00     0.007 C 
HETATM   17  C16 UNL     1       2.721  -0.142  -3.019  1.00  0.00     0.277 C 
ENDROOT
BRANCH   1  18
HETATM   18  O3  UNL     1      -4.402   1.507   0.157  1.00  0.00    -0.326 OA
HETATM   19  C19 UNL     1      -4.514   2.905   0.033  1.00  0.00     0.181 C 
ENDBRANCH   1  18
BRANCH   2  20
HETATM   20  O2  UNL     1      -4.177  -1.103   0.788  1.00  0.00    -0.326 OA
HETATM   21  C18 UNL     1      -4.156  -2.512   0.759  1.00  0.00     0.181 C 
ENDBRANCH   2  20
BRANCH  12  22
HETATM   22  O1  UNL     1       1.751   0.444   1.549  1.00  0.00    -0.345 OA
HETATM   23  C17 UNL     1       2.127   0.728   2.878  1.00  0.00     0.175 C 
ENDBRANCH  12  22
TORSDOF 3
