REMARK  5 active torsions:
REMARK  status: ('A' for Active; 'I' for Inactive)
REMARK    1  A    between atoms: C2_2  and  C3_3 
REMARK    2  A    between atoms: C3_3  and  S1_4 
REMARK    3  A    between atoms: S1_4  and  S2_5 
REMARK    4  A    between atoms: S2_5  and  C4_6 
REMARK    5  A    between atoms: C4_6  and  C5_7 
ROOT
HETATM    1  S1  UNL     1       0.886   1.149   1.063  1.00  0.00    -0.076 SA
ENDROOT
BRANCH   1   2
HETATM    2  C3  UNL     1       1.492  -0.562   1.063  1.00  0.00     0.094 C 
BRANCH   2   3
HETATM    3  C2  UNL     1       2.998  -0.562   1.063  1.00  0.00    -0.014 C 
HETATM    4  C1  UNL     1       3.638  -0.299  -0.088  1.00  0.00    -0.004 C 
ENDBRANCH   2   3
ENDBRANCH   1   2
BRANCH   1   5
HETATM    5  S2  UNL     1      -1.139   0.920   1.063  1.00  0.00    -0.076 SA
BRANCH   5   6
HETATM    6  C4  UNL     1      -1.545   0.873  -0.705  1.00  0.00     0.094 C 
BRANCH   6   7
HETATM    7  C5  UNL     1      -3.032   0.705  -0.875  1.00  0.00    -0.014 C 
HETATM    8  C6  UNL     1      -3.563  -0.514  -0.691  1.00  0.00    -0.004 C 
ENDBRANCH   6   7
ENDBRANCH   5   6
ENDBRANCH   1   5
TORSDOF 5
