REMARK  0 active torsions:
REMARK  status: ('A' for Active; 'I' for Inactive)
ROOT
HETATM    1  C1  UNL     1      -5.412  -0.039   2.039  1.00  0.00     0.129 C 
HETATM    2  C2  UNL     1      -5.458  -1.526   1.762  1.00  0.00     0.158 C 
HETATM    3  C3  UNL     1      -4.801  -2.001   0.490  1.00  0.00     0.059 C 
HETATM    4  C4  UNL     1      -3.365  -1.494   0.490  1.00  0.00     0.015 C 
HETATM    5  C5  UNL     1      -3.365   0.029   0.490  1.00  0.00     0.059 C 
HETATM    6  C6  UNL     1      -4.025   0.490   1.766  1.00  0.00     0.158 C 
HETATM    7  O1  UNL     1      -3.471   1.245   2.530  1.00  0.00    -0.296 OA
HETATM    8  C7  UNL     1      -1.929   0.537   0.499  1.00  0.00     0.009 C 
HETATM    9  C8  UNL     1      -0.972  -0.648   0.494  1.00  0.00     0.031 C 
HETATM   10  C9  UNL     1      -1.211  -1.489  -0.752  1.00  0.00     0.152 C 
HETATM   11  C10 UNL     1      -2.647  -2.001  -0.753  1.00  0.00     0.034 C 
HETATM   12  O2  UNL     1      -0.995  -0.705  -1.894  1.00  0.00    -0.224 OA
HETATM   13  C11 UNL     1       0.464  -0.140   0.496  1.00  0.00     0.002 C 
HETATM   14  C12 UNL     1       0.702   0.715  -0.742  1.00  0.00     0.000 C 
HETATM   15  C13 UNL     1      -0.252   1.902  -0.730  1.00  0.00     0.000 C 
HETATM   16  C14 UNL     1      -1.685   1.391  -0.738  1.00  0.00     0.001 C 
HETATM   17  C15 UNL     1       2.139   1.218  -0.743  1.00  0.00     0.000 C 
HETATM   18  C16 UNL     1       2.856   0.709   0.501  1.00  0.00     0.000 C 
HETATM   19  C17 UNL     1       2.858  -0.814   0.498  1.00  0.00     0.000 C 
HETATM   20  C18 UNL     1       1.421  -1.325   0.487  1.00  0.00     0.000 C 
HETATM   21  C19 UNL     1       4.291   1.218   0.504  1.00  0.00     0.000 C 
HETATM   22  C20 UNL     1       4.536   2.055  -0.745  1.00  0.00     0.000 C 
HETATM   23  C21 UNL     1       4.296   1.200  -1.981  1.00  0.00     0.000 C 
HETATM   24  C22 UNL     1       2.855   0.707  -1.986  1.00  0.00     0.000 C 
HETATM   25  C23 UNL     1       4.551   2.032  -3.231  1.00  0.00     0.000 C 
HETATM   26  C24 UNL     1       5.241   0.006  -1.963  1.00  0.00     0.000 C 
HETATM   27  C25 UNL     1       2.136   1.214   1.744  1.00  0.00     0.000 C 
HETATM   28  C26 UNL     1       0.456  -0.121  -1.991  1.00  0.00     0.000 C 
HETATM   29  C27 UNL     1       0.705   0.698   1.745  1.00  0.00     0.000 C 
HETATM   30  C28 UNL     1      -1.694   1.375   1.749  1.00  0.00     0.001 C 
HETATM   31  C29 UNL     1      -2.647  -2.002   1.734  1.00  0.00     0.001 C 
HETATM   32  C30 UNL     1      -4.812  -3.523   0.440  1.00  0.00     0.008 C 
HETATM   33  O3  UNL     1      -5.996  -2.295   2.523  1.00  0.00    -0.296 OA
ENDROOT
TORSDOF 0
