REMARK  6 active torsions:
REMARK  status: ('A' for Active; 'I' for Inactive)
REMARK    1  A    between atoms: C3_3  and  O1_8 
REMARK    2  A    between atoms: O1_8  and  C8_9 
REMARK    3  A    between atoms: C8_9  and  C9_10 
REMARK    4  A    between atoms: C10_11  and  S1_12 
REMARK    5  A    between atoms: C12_15  and  O5_24 
REMARK    6  A    between atoms: O5_24  and  C19_25 
ROOT
HETATM    1  C1  UNL     1      -0.698   1.846   0.081  1.00  0.00     0.005 C 
HETATM    2  C2  UNL     1      -0.698   0.323   0.081  1.00  0.00     0.057 C 
HETATM    3  C3  UNL     1       0.378  -0.185   1.032  1.00  0.00     0.127 C 
HETATM    4  C4  UNL     1       1.718   0.440   0.663  1.00  0.00     0.030 C 
HETATM    5  C5  UNL     1       1.498   1.730   1.244  1.00  0.00     0.003 C 
HETATM    6  C6  UNL     1       0.738   2.354   0.081  1.00  0.00     0.000 C 
HETATM    7  C7  UNL     1       0.740   3.869   0.229  1.00  0.00     0.000 C 
HETATM    8  C12 UNL     1      -0.326  -0.045  -1.349  1.00  0.00     0.139 C 
HETATM    9  C13 UNL     1      -1.099   1.013  -2.134  1.00  0.00     0.121 A 
HETATM   10  C14 UNL     1      -1.366   2.215  -1.237  1.00  0.00     0.016 C 
HETATM   11  C15 UNL     1      -2.432   0.420  -2.519  1.00  0.00     0.277 A 
HETATM   12  O3  UNL     1      -2.519   0.480  -3.853  1.00  0.00    -0.297 OA
HETATM   13  C16 UNL     1      -1.037   1.199  -4.594  1.00  0.00     0.175 A 
HETATM   14  C17 UNL     1      -0.292   1.445  -3.319  1.00  0.00    -0.004 A 
HETATM   15  C18 UNL     1       0.932   1.979  -3.248  1.00  0.00    -0.006 C 
HETATM   16  O4  UNL     1      -3.264  -0.027  -1.765  1.00  0.00    -0.264 OA
HETATM   17  C21 UNL     1      -1.403   2.441   1.292  1.00  0.00     0.000 C 
ENDROOT
BRANCH   3  18
HETATM   18  O1  UNL     1       0.470  -1.580   0.931  1.00  0.00    -0.301 OA
BRANCH  18  19
HETATM   19  C8  UNL     1       0.247  -2.345   2.006  1.00  0.00     0.296 C 
HETATM   20  O2  UNL     1      -0.032  -1.833   3.064  1.00  0.00    -0.259 OA
BRANCH  19  21
HETATM   21  C9  UNL     1       0.336  -3.689   1.909  1.00  0.00     0.075 C 
HETATM   22  C10 UNL     1       0.114  -4.453   2.984  1.00  0.00     0.036 C 
BRANCH  22  23
HETATM   23  S1  UNL     1      -0.307  -3.684   4.573  1.00  0.00    -0.112 SA
HETATM   24  C11 UNL     1      -0.609  -4.721   6.032  1.00  0.00     0.074 C 
ENDBRANCH  22  23
ENDBRANCH  19  21
ENDBRANCH  18  19
ENDBRANCH   3  18
BRANCH   8  25
HETATM   25  O5  UNL     1      -0.752  -1.341  -1.674  1.00  0.00    -0.303 OA
BRANCH  25  26
HETATM   26  C19 UNL     1       0.130  -2.245  -2.114  1.00  0.00     0.272 C 
HETATM   27  O6  UNL     1      -0.238  -3.361  -2.394  1.00  0.00    -0.264 OA
HETATM   28  C20 UNL     1       1.585  -1.871  -2.260  1.00  0.00     0.106 C 
ENDBRANCH  25  26
ENDBRANCH   8  25
TORSDOF 6
