REMARK  2 active torsions:
REMARK  status: ('A' for Active; 'I' for Inactive)
REMARK    1  A    between atoms: C12_12  and  C16_16 
REMARK    2  A    between atoms: C16_16  and  C17_18 
ROOT
HETATM    1  C1  UNL     1      -3.685  -0.715  -0.260  1.00  0.00     0.209 C 
HETATM    2  C2  UNL     1      -3.323  -1.516   0.887  1.00  0.00     0.180 C 
HETATM    3  C3  UNL     1      -2.127  -2.397   0.624  1.00  0.00     0.054 C 
HETATM    4  C4  UNL     1      -0.925  -1.493   0.384  1.00  0.00     0.011 C 
HETATM    5  C5  UNL     1      -1.251  -0.499  -0.723  1.00  0.00     0.007 C 
HETATM    6  C6  UNL     1      -2.521   0.262  -0.365  1.00  0.00     0.041 C 
HETATM    7  C7  UNL     1      -0.098   0.483  -0.879  1.00  0.00     0.018 C 
HETATM    8  C8  UNL     1       1.198  -0.265  -0.879  1.00  0.00    -0.049 C 
HETATM    9  C9  UNL     1       1.231  -1.602  -0.879  1.00  0.00    -0.035 C 
HETATM   10  C10 UNL     1       0.272  -2.339  -0.030  1.00  0.00     0.026 C 
HETATM   11  C11 UNL     1       2.457   0.546  -0.892  1.00  0.00     0.024 C 
HETATM   12  C12 UNL     1       2.412   1.570   0.234  1.00  0.00     0.035 C 
HETATM   13  C13 UNL     1       1.101   2.386   0.183  1.00  0.00     0.003 C 
HETATM   14  C14 UNL     1      -0.113   1.472   0.279  1.00  0.00     0.004 C 
HETATM   15  C15 UNL     1       2.496   0.846   1.571  1.00  0.00     0.003 C 
HETATM   16  C18 UNL     1      -1.461  -1.248  -2.033  1.00  0.00     0.000 C 
HETATM   17  C19 UNL     1      -1.869  -3.292   1.829  1.00  0.00     0.007 C 
HETATM   18  C20 UNL     1      -2.376  -3.284  -0.589  1.00  0.00     0.007 C 
HETATM   19  O3  UNL     1      -3.913  -1.483   1.940  1.00  0.00    -0.293 OA
HETATM   20  O4  UNL     1      -4.894  -0.039  -0.043  1.00  0.00    -0.215 OA
ENDROOT
BRANCH  12  21
HETATM   21  C16 UNL     1       3.587   2.525   0.072  1.00  0.00     0.185 C 
HETATM   22  O1  UNL     1       4.401   2.461   1.212  1.00  0.00    -0.221 OA
BRANCH  21  23
HETATM   23  C17 UNL     1       3.067   3.946  -0.101  1.00  0.00     0.215 C 
HETATM   24  O2  UNL     1       3.560   4.754   0.932  1.00  0.00    -0.218 OA
ENDBRANCH  21  23
ENDBRANCH  12  21
TORSDOF 2
