REMARK  1 active torsions:
REMARK  status: ('A' for Active; 'I' for Inactive)
REMARK    1  A    between atoms: C15_15  and  C18_18 
ROOT
HETATM    1  C1  UNL     1      -2.838  -1.255  -2.933  1.00  0.00     0.039 C 
HETATM    2  C2  UNL     1      -3.608  -1.794  -1.782  1.00  0.00     0.302 C 
HETATM    3  C3  UNL     1      -2.716  -2.793  -1.058  1.00  0.00     0.039 C 
HETATM    4  C4  UNL     1      -1.280  -2.286  -1.058  1.00  0.00     0.002 C 
HETATM    5  C5  UNL     1      -1.280  -0.763  -1.058  1.00  0.00     0.000 C 
HETATM    6  C6  UNL     1      -1.828  -0.255  -2.385  1.00  0.00     0.002 C 
HETATM    7  C7  UNL     1       0.143  -0.255  -0.868  1.00  0.00     0.000 C 
HETATM    8  C8  UNL     1       0.682  -0.743   0.470  1.00  0.00     0.000 C 
HETATM    9  C9  UNL     1       0.871  -2.253   0.421  1.00  0.00     0.000 C 
HETATM   10  C10 UNL     1      -0.562  -2.793   0.186  1.00  0.00     0.000 C 
HETATM   11  C11 UNL     1       2.020  -0.072   0.753  1.00  0.00     0.000 C 
HETATM   12  C12 UNL     1       1.816   1.431   0.888  1.00  0.00     0.006 C 
HETATM   13  C13 UNL     1       1.591   2.039  -0.490  1.00  0.00     0.000 C 
HETATM   14  C14 UNL     1       0.146   1.268  -0.893  1.00  0.00     0.000 C 
HETATM   15  C15 UNL     1       3.138   1.933   1.455  1.00  0.00     0.058 C 
HETATM   16  C16 UNL     1       3.345   0.688   2.605  1.00  0.00     0.007 C 
HETATM   17  C17 UNL     1       2.522  -0.501   2.126  1.00  0.00     0.000 C 
HETATM   18  C20 UNL     1       0.620   1.793   1.759  1.00  0.00     0.000 C 
HETATM   19  C21 UNL     1      -2.156  -0.255   0.080  1.00  0.00     0.000 C 
HETATM   20  N1  UNL     1      -4.797  -2.450  -2.253  1.00  0.00     0.616 N 
ENDROOT
BRANCH  15  21
HETATM   21  C18 UNL     1       3.161   3.349   1.974  1.00  0.00     0.151 C 
HETATM   22  C19 UNL     1       2.481   4.449   1.197  1.00  0.00     0.072 C 
HETATM   23  O1  UNL     1       3.724   3.603   3.012  1.00  0.00    -0.296 OA
ENDBRANCH  15  21
TORSDOF 1
