REMARK  3 active torsions:
REMARK  status: ('A' for Active; 'I' for Inactive)
REMARK    1  A    between atoms: C9_9  and  O1_11 
REMARK    2  A    between atoms: O1_11  and  C11_12 
REMARK    3  A    between atoms: C11_12  and  C12_13 
ROOT
HETATM    1  C1  UNL     1       2.507   1.976   1.572  1.00  0.00    -0.005 A 
HETATM    2  C2  UNL     1       1.207   2.384   1.752  1.00  0.00     0.073 A 
HETATM    3  C3  UNL     1      -0.029   1.584   1.618  1.00  0.00     0.051 C 
HETATM    4  C4  UNL     1       0.338   0.073   1.591  1.00  0.00     0.009 C 
HETATM    5  C5  UNL     1       1.628  -0.242   0.767  1.00  0.00     0.005 C 
HETATM    6  C6  UNL     1       2.861   0.571   1.249  1.00  0.00     0.028 C 
HETATM    7  C7  UNL     1       1.376  -0.057  -0.740  1.00  0.00     0.003 C 
HETATM    8  C8  UNL     1       0.207  -0.917  -1.215  1.00  0.00     0.030 C 
HETATM    9  C9  UNL     1      -1.067  -0.653  -0.419  1.00  0.00     0.125 C 
HETATM   10  C10 UNL     1      -0.840  -0.775   1.087  1.00  0.00     0.031 C 
HETATM   11  C16 UNL     1       2.631  -0.457  -1.505  1.00  0.00     0.000 C 
HETATM   12  C17 UNL     1       1.966  -1.706   1.012  1.00  0.00     0.000 C 
HETATM   13  O3  UNL     1       1.136   3.701   2.050  1.00  0.00    -0.310 OA
HETATM   14  C18 UNL     1       2.422   4.149   2.068  1.00  0.00     0.118 A 
HETATM   15  C19 UNL     1       3.301   3.126   1.781  1.00  0.00     0.001 A 
HETATM   16  C20 UNL     1       4.794   3.216   1.706  1.00  0.00     0.033 C 
ENDROOT
BRANCH   9  17
HETATM   17  O1  UNL     1      -2.042  -1.583  -0.806  1.00  0.00    -0.301 OA
BRANCH  17  18
HETATM   18  C11 UNL     1      -3.188  -1.163  -1.354  1.00  0.00     0.291 C 
HETATM   19  O2  UNL     1      -3.382   0.018  -1.516  1.00  0.00    -0.260 OA
BRANCH  18  20
HETATM   20  C12 UNL     1      -4.127  -2.059  -1.727  1.00  0.00     0.037 C 
HETATM   21  C13 UNL     1      -5.272  -1.639  -2.274  1.00  0.00    -0.025 C 
HETATM   22  C14 UNL     1      -5.514  -0.176  -2.475  1.00  0.00     0.030 C 
HETATM   23  C15 UNL     1      -3.886  -3.523  -1.526  1.00  0.00     0.036 C 
ENDBRANCH  18  20
ENDBRANCH  17  18
ENDBRANCH   9  17
TORSDOF 3
