REMARK  0 active torsions:
REMARK  status: ('A' for Active; 'I' for Inactive)
ROOT
HETATM    1  C1  UNL     1      -1.735  -0.079   0.195  1.00  0.00    -0.005 A 
HETATM    2  C2  UNL     1      -1.705   1.282  -0.013  1.00  0.00     0.074 A 
HETATM    3  C3  UNL     1      -0.522   2.174  -0.036  1.00  0.00     0.056 C 
HETATM    4  C4  UNL     1       0.674   1.418   0.606  1.00  0.00     0.029 C 
HETATM    5  C5  UNL     1       0.754  -0.049   0.064  1.00  0.00     0.015 C 
HETATM    6  C6  UNL     1      -0.502  -0.866   0.469  1.00  0.00     0.029 C 
HETATM    7  C7  UNL     1       2.045  -0.723   0.540  1.00  0.00     0.063 C 
HETATM    8  C8  UNL     1       3.277   0.046   0.049  1.00  0.00     0.172 C 
HETATM    9  C9  UNL     1       3.138   1.537   0.160  1.00  0.00     0.033 C 
HETATM   10  C10 UNL     1       1.977   2.157   0.421  1.00  0.00    -0.023 C 
HETATM   11  O1  UNL     1       4.265  -0.496  -0.386  1.00  0.00    -0.291 OA
HETATM   12  C11 UNL     1       2.095  -2.144  -0.005  1.00  0.00     0.008 C 
HETATM   13  C12 UNL     1       0.783  -0.001  -1.458  1.00  0.00     0.001 C 
HETATM   14  O2  UNL     1      -2.943   1.779  -0.234  1.00  0.00    -0.310 OA
HETATM   15  C13 UNL     1      -3.790   0.714  -0.162  1.00  0.00     0.118 A 
HETATM   16  C14 UNL     1      -3.096  -0.450   0.100  1.00  0.00     0.001 A 
HETATM   17  C15 UNL     1      -3.668  -1.825   0.254  1.00  0.00     0.033 C 
ENDROOT
TORSDOF 0
