REMARK  4 active torsions:
REMARK  status: ('A' for Active; 'I' for Inactive)
REMARK    1  A    between atoms: C2_2  and  C3_3 
REMARK    2  A    between atoms: C3_3  and  S1_4 
REMARK    3  A    between atoms: S1_4  and  C4_5 
REMARK    4  A    between atoms: C4_5  and  C5_6 
ROOT
HETATM    1  S1  UNL     1       0.514  -0.796  -0.260  1.00  0.00    -0.130 SA
ENDROOT
BRANCH   1   2
HETATM    2  C3  UNL     1       1.029   0.863   0.268  1.00  0.00     0.084 C 
BRANCH   2   3
HETATM    3  C2  UNL     1       2.532   0.945   0.268  1.00  0.00    -0.015 C 
HETATM    4  C1  UNL     1       3.107   2.159   0.268  1.00  0.00    -0.004 C 
ENDBRANCH   2   3
ENDBRANCH   1   2
BRANCH   1   5
HETATM    5  C4  UNL     1      -1.284  -0.573  -0.156  1.00  0.00     0.084 C 
BRANCH   5   6
HETATM    6  C5  UNL     1      -1.972  -1.850  -0.557  1.00  0.00    -0.015 C 
HETATM    7  C6  UNL     1      -3.262  -2.015  -0.223  1.00  0.00    -0.004 C 
ENDBRANCH   5   6
ENDBRANCH   1   5
TORSDOF 4
