REMARK  6 active torsions:
REMARK  status: ('A' for Active; 'I' for Inactive)
REMARK    1  A    between atoms: C1_2  and  C2_3 
REMARK    2  A    between atoms: C2_3  and  C3_4 
REMARK    3  A    between atoms: C3_4  and  C4_5 
REMARK    4  A    between atoms: C4_5  and  C5_6 
REMARK    5  A    between atoms: C5_6  and  C6_7 
REMARK    6  A    between atoms: C6_7  and  C7_8 
ROOT
HETATM    1  C4  UNL     1       1.036   0.535   0.027  1.00  0.00     0.222 C 
HETATM    2  O5  UNL     1       2.118   1.266   0.536  1.00  0.00    -0.217 OA
ENDROOT
BRANCH   1   3
HETATM    3  C3  UNL     1       1.169  -0.924   0.441  1.00  0.00     0.218 C 
HETATM    4  O6  UNL     1       2.334  -1.088   1.203  1.00  0.00    -0.218 OA
BRANCH   3   5
HETATM    5  C2  UNL     1       1.249  -1.800  -0.802  1.00  0.00     0.218 C 
HETATM    6  O7  UNL     1       2.462  -2.502  -0.802  1.00  0.00    -0.218 OA
BRANCH   5   7
HETATM    7  C1  UNL     1       0.090  -2.789  -0.802  1.00  0.00     0.218 C 
HETATM    8  O1  UNL     1      -1.124  -2.088  -0.802  1.00  0.00    -0.218 OA
ENDBRANCH   5   7
ENDBRANCH   3   5
ENDBRANCH   1   3
BRANCH   1   9
HETATM    9  C5  UNL     1      -0.265   1.104   0.580  1.00  0.00     0.244 C 
HETATM   10  O4  UNL     1       0.021   2.184   1.427  1.00  0.00    -0.212 OA
BRANCH   9  11
HETATM   11  C6  UNL     1      -1.133   1.576  -0.560  1.00  0.00     0.216 C 
HETATM   12  O3  UNL     1      -0.747   1.466  -1.700  1.00  0.00    -0.290 OA
BRANCH  11  13
HETATM   13  C7  UNL     1      -2.485   2.184  -0.278  1.00  0.00     0.249 C 
HETATM   14  O2  UNL     1      -2.709   2.204   1.106  1.00  0.00    -0.212 OA
ENDBRANCH  11  13
ENDBRANCH   9  11
ENDBRANCH   1   9
TORSDOF 6
