REMARK  7 active torsions:
REMARK  status: ('A' for Active; 'I' for Inactive)
REMARK    1  A    between atoms: C1_1  and  C7_10 
REMARK    2  A    between atoms: C7_10  and  O4_11 
REMARK    3  A    between atoms: O4_11  and  C8_12 
REMARK    4  A    between atoms: C8_12  and  C9_13 
REMARK    5  A    between atoms: C13_17  and  O6_19 
REMARK    6  A    between atoms: O6_19  and  C14_20 
REMARK    7  A    between atoms: C18_24  and  C20_26 
ROOT
HETATM    1  C9  UNL     1      -1.848  -0.249  -2.104  1.00  0.00     0.181 C 
HETATM    2  C10 UNL     1      -2.912  -1.333  -2.193  1.00  0.00     0.215 C 
HETATM    3  C11 UNL     1      -2.744  -2.354  -1.091  1.00  0.00     0.220 C 
HETATM    4  C12 UNL     1      -1.330  -2.888  -1.098  1.00  0.00     0.241 C 
HETATM    5  C13 UNL     1      -0.295  -1.784  -1.164  1.00  0.00     0.274 C 
HETATM    6  O5  UNL     1      -0.574  -0.839  -2.179  1.00  0.00    -0.326 OA
HETATM    7  O11 UNL     1      -1.180  -3.719  -2.225  1.00  0.00    -0.215 OA
HETATM    8  O12 UNL     1      -3.631  -3.420  -1.330  1.00  0.00    -0.218 OA
HETATM    9  O13 UNL     1      -4.207  -0.793  -2.103  1.00  0.00    -0.218 OA
ENDROOT
BRANCH   1  10
HETATM   10  C8  UNL     1      -1.985   0.692  -0.903  1.00  0.00     0.184 C 
BRANCH  10  11
HETATM   11  O4  UNL     1      -1.185   1.825  -1.096  1.00  0.00    -0.296 OA
BRANCH  11  12
HETATM   12  C7  UNL     1      -0.663   2.612  -0.096  1.00  0.00     0.296 C 
HETATM   13  O14 UNL     1       0.136   3.444  -0.486  1.00  0.00    -0.259 OA
BRANCH  12  14
HETATM   14  C1  UNL     1      -0.895   2.628   1.257  1.00  0.00     0.067 A 
HETATM   15  C2  UNL     1      -1.844   1.913   1.891  1.00  0.00     0.035 A 
HETATM   16  C3  UNL     1      -2.014   1.939   3.223  1.00  0.00     0.158 A 
HETATM   17  C4  UNL     1      -1.218   2.717   3.973  1.00  0.00     0.181 A 
HETATM   18  O3  UNL     1      -2.982   1.201   3.832  1.00  0.00    -0.188 OA
HETATM   19  C5  UNL     1      -0.275   3.467   3.382  1.00  0.00     0.158 A 
HETATM   20  O2  UNL     1      -1.367   2.757   5.323  1.00  0.00    -0.186 OA
HETATM   21  C6  UNL     1      -0.137   3.417   2.047  1.00  0.00     0.035 A 
HETATM   22  O1  UNL     1       0.527   4.258   4.142  1.00  0.00    -0.188 OA
ENDBRANCH  12  14
ENDBRANCH  11  12
ENDBRANCH  10  11
ENDBRANCH   1  10
BRANCH   5  23
HETATM   23  O6  UNL     1       0.917  -2.407  -1.530  1.00  0.00    -0.301 OA
BRANCH  23  24
HETATM   24  C14 UNL     1       2.119  -1.815  -1.223  1.00  0.00     0.124 A 
HETATM   25  C15 UNL     1       3.206  -2.609  -1.125  1.00  0.00     0.178 A 
HETATM   26  C16 UNL     1       4.413  -2.106  -0.806  1.00  0.00     0.158 A 
HETATM   27  O10 UNL     1       3.102  -3.948  -1.355  1.00  0.00    -0.186 OA
HETATM   28  C17 UNL     1       4.542  -0.791  -0.569  1.00  0.00     0.036 A 
HETATM   29  O9  UNL     1       5.493  -2.928  -0.724  1.00  0.00    -0.188 OA
HETATM   30  C18 UNL     1       3.476   0.023  -0.634  1.00  0.00     0.069 A 
HETATM   31  C19 UNL     1       2.281  -0.506  -0.949  1.00  0.00     0.033 A 
BRANCH  30  32
HETATM   32  C20 UNL     1       3.591   1.357  -0.382  1.00  0.00     0.211 C 
HETATM   33  O7  UNL     1       2.533   2.193  -0.433  1.00  0.00    -0.644 OA
HETATM   34  O8  UNL     1       4.653   1.861  -0.096  1.00  0.00    -0.644 OA
ENDBRANCH  30  32
ENDBRANCH  23  24
ENDBRANCH   5  23
TORSDOF 7
