REMARK  1 active torsions:
REMARK  status: ('A' for Active; 'I' for Inactive)
REMARK    1  A    between atoms: C15_16  and  C18_19 
ROOT
HETATM    1  C1  UNL     1      -3.668  -1.089  -2.390  1.00  0.00     0.033 C 
HETATM    2  C2  UNL     1      -4.448  -1.649  -1.244  1.00  0.00     0.152 C 
HETATM    3  C3  UNL     1      -3.560  -2.639  -0.500  1.00  0.00     0.033 C 
HETATM    4  C4  UNL     1      -2.124  -2.131  -0.500  1.00  0.00     0.003 C 
HETATM    5  C5  UNL     1      -2.124  -0.608  -0.500  1.00  0.00     0.003 C 
HETATM    6  C6  UNL     1      -2.651  -0.100  -1.836  1.00  0.00     0.003 C 
HETATM    7  C7  UNL     1      -0.704  -0.100  -0.289  1.00  0.00     0.033 C 
HETATM    8  C8  UNL     1       0.281  -1.242  -0.505  1.00  0.00     0.031 C 
HETATM    9  C9  UNL     1      -0.027  -1.935  -1.826  1.00  0.00     0.003 C 
HETATM   10  C10 UNL     1      -1.406  -2.639  -1.744  1.00  0.00     0.000 C 
HETATM   11  C11 UNL     1       1.700  -0.689  -0.540  1.00  0.00     0.127 C 
HETATM   12  C12 UNL     1       1.972   0.091   0.740  1.00  0.00     0.032 C 
HETATM   13  C13 UNL     1       0.795   1.011   1.034  1.00  0.00     0.036 C 
HETATM   14  C14 UNL     1      -0.561   0.431   1.132  1.00  0.00     0.152 C 
HETATM   15  O1  UNL     1      -1.527   1.404   1.426  1.00  0.00    -0.224 OA
HETATM   16  C15 UNL     1       3.200   0.928   0.406  1.00  0.00     0.027 C 
HETATM   17  C16 UNL     1       2.873   1.320  -1.129  1.00  0.00     0.007 C 
HETATM   18  C17 UNL     1       1.809   0.359  -1.640  1.00  0.00     0.031 C 
HETATM   19  C23 UNL     1       2.176  -0.808   1.952  1.00  0.00     0.003 C 
HETATM   20  O4  UNL     1       2.577  -1.767  -0.722  1.00  0.00    -0.226 OA
HETATM   21  C24 UNL     1      -3.018  -0.100   0.623  1.00  0.00     0.000 C 
HETATM   22  O5  UNL     1      -4.830  -0.614  -0.380  1.00  0.00    -0.224 OA
ENDROOT
BRANCH  16  23
HETATM   23  C18 UNL     1       3.297   2.140   1.279  1.00  0.00     0.003 A 
HETATM   24  C19 UNL     1       4.482   2.375   2.051  1.00  0.00     0.003 A 
HETATM   25  C20 UNL     1       4.540   3.467   2.822  1.00  0.00     0.068 A 
HETATM   26  C21 UNL     1       3.402   4.446   2.897  1.00  0.00     0.300 A 
HETATM   27  O2  UNL     1       2.245   4.144   2.094  1.00  0.00    -0.271 OA
HETATM   28  O3  UNL     1       3.454   5.432   3.593  1.00  0.00    -0.259 OA
HETATM   29  C22 UNL     1       2.278   3.004   1.338  1.00  0.00     0.122 A 
ENDBRANCH  16  23
TORSDOF 1
