REMARK  10 active torsions:
REMARK  status: ('A' for Active; 'I' for Inactive)
REMARK    1  A    between atoms: C2_2  and  O5_29 
REMARK    2  A    between atoms: C15_16  and  C18_19 
REMARK    3  A    between atoms: O5_29  and  C25_30 
REMARK    4  A    between atoms: C25_30  and  C26_31 
REMARK    5  A    between atoms: C26_31  and  C27_32 
REMARK    6  A    between atoms: C27_32  and  C28_33 
REMARK    7  A    between atoms: C28_33  and  C29_34 
REMARK    8  A    between atoms: C29_34  and  C30_35 
REMARK    9  A    between atoms: C30_35  and  C31_36 
REMARK   10  A    between atoms: C31_36  and  C32_37 
ROOT
HETATM    1  C1  UNL     1      -1.048  -1.698  -2.974  1.00  0.00     0.030 C 
HETATM    2  C2  UNL     1      -1.829  -2.258  -1.827  1.00  0.00     0.124 C 
HETATM    3  C3  UNL     1      -0.940  -3.248  -1.084  1.00  0.00     0.030 C 
HETATM    4  C4  UNL     1       0.496  -2.740  -1.084  1.00  0.00     0.003 C 
HETATM    5  C5  UNL     1       0.496  -1.217  -1.084  1.00  0.00     0.003 C 
HETATM    6  C6  UNL     1      -0.031  -0.709  -2.420  1.00  0.00     0.003 C 
HETATM    7  C7  UNL     1       1.916  -0.709  -0.872  1.00  0.00     0.033 C 
HETATM    8  C8  UNL     1       2.900  -1.851  -1.089  1.00  0.00     0.031 C 
HETATM    9  C9  UNL     1       2.593  -2.543  -2.410  1.00  0.00     0.003 C 
HETATM   10  C10 UNL     1       1.213  -3.248  -2.328  1.00  0.00     0.000 C 
HETATM   11  C11 UNL     1       4.319  -1.298  -1.124  1.00  0.00     0.127 C 
HETATM   12  C12 UNL     1       4.592  -0.518   0.156  1.00  0.00     0.032 C 
HETATM   13  C13 UNL     1       3.415   0.402   0.450  1.00  0.00     0.036 C 
HETATM   14  C14 UNL     1       2.058  -0.178   0.548  1.00  0.00     0.152 C 
HETATM   15  O1  UNL     1       1.093   0.795   0.842  1.00  0.00    -0.224 OA
HETATM   16  C15 UNL     1       5.820   0.319  -0.177  1.00  0.00     0.027 C 
HETATM   17  C16 UNL     1       5.493   0.711  -1.712  1.00  0.00     0.007 C 
HETATM   18  C17 UNL     1       4.428  -0.250  -2.224  1.00  0.00     0.031 C 
HETATM   19  C23 UNL     1       4.796  -1.417   1.368  1.00  0.00     0.003 C 
HETATM   20  O4  UNL     1       5.196  -2.376  -1.305  1.00  0.00    -0.226 OA
HETATM   21  C24 UNL     1      -0.398  -0.709   0.040  1.00  0.00     0.000 C 
ENDROOT
BRANCH   2  22
HETATM   22  O5  UNL     1      -2.211  -1.222  -0.963  1.00  0.00    -0.304 OA
BRANCH  22  23
HETATM   23  C25 UNL     1      -3.507  -1.000  -0.718  1.00  0.00     0.272 C 
HETATM   24  O8  UNL     1      -4.348  -1.691  -1.241  1.00  0.00    -0.264 OA
BRANCH  23  25
HETATM   25  C26 UNL     1      -3.918   0.115   0.212  1.00  0.00     0.096 C 
BRANCH  25  26
HETATM   26  C27 UNL     1      -5.437   0.154   0.318  1.00  0.00     0.010 C 
BRANCH  26  27
HETATM   27  C28 UNL     1      -5.852   1.280   1.257  1.00  0.00     0.001 C 
BRANCH  27  28
HETATM   28  C29 UNL     1      -7.371   1.319   1.363  1.00  0.00     0.001 C 
BRANCH  28  29
HETATM   29  C30 UNL     1      -7.786   2.444   2.302  1.00  0.00     0.011 C 
BRANCH  29  30
HETATM   30  C31 UNL     1      -9.305   2.483   2.408  1.00  0.00     0.098 C 
BRANCH  30  31
HETATM   31  C32 UNL     1      -9.716   3.598   3.338  1.00  0.00     0.185 C 
HETATM   32  O6  UNL     1     -11.012   3.821   3.583  1.00  0.00    -0.647 OA
HETATM   33  O7  UNL     1      -8.875   4.290   3.861  1.00  0.00    -0.647 OA
ENDBRANCH  30  31
ENDBRANCH  29  30
ENDBRANCH  28  29
ENDBRANCH  27  28
ENDBRANCH  26  27
ENDBRANCH  25  26
ENDBRANCH  23  25
ENDBRANCH  22  23
ENDBRANCH   2  22
BRANCH  16  34
HETATM   34  C18 UNL     1       5.916   1.532   0.695  1.00  0.00     0.003 A 
HETATM   35  C19 UNL     1       7.102   1.766   1.468  1.00  0.00     0.003 A 
HETATM   36  C20 UNL     1       7.160   2.858   2.238  1.00  0.00     0.068 A 
HETATM   37  C21 UNL     1       6.021   3.837   2.314  1.00  0.00     0.300 A 
HETATM   38  O2  UNL     1       4.865   3.535   1.510  1.00  0.00    -0.271 OA
HETATM   39  O3  UNL     1       6.074   4.823   3.009  1.00  0.00    -0.259 OA
HETATM   40  C22 UNL     1       4.897   2.395   0.754  1.00  0.00     0.122 A 
ENDBRANCH  16  34
TORSDOF 10
