REMARK  2 active torsions:
REMARK  status: ('A' for Active; 'I' for Inactive)
REMARK    1  A    between atoms: C13_16  and  C21_27 
REMARK    2  A    between atoms: C17_20  and  O2_21 
ROOT
HETATM    1  C1  UNL     1      -6.015   0.217  -0.298  1.00  0.00     0.028 A 
HETATM    2  C2  UNL     1      -6.015  -1.120  -0.298  1.00  0.00     0.004 A 
HETATM    3  C3  UNL     1      -4.857  -1.788  -0.323  1.00  0.00     0.019 A 
HETATM    4  C4  UNL     1      -3.699  -1.120  -0.323  1.00  0.00     0.083 A 
HETATM    5  C5  UNL     1      -3.699   0.217  -0.323  1.00  0.00     0.040 A 
HETATM    6  C6  UNL     1      -4.857   0.886  -0.311  1.00  0.00     0.132 A 
HETATM    7  O1  UNL     1      -4.857   2.241  -0.311  1.00  0.00    -0.190 OA
HETATM    8  C7  UNL     1      -2.451   0.697  -0.323  1.00  0.00    -0.001 A 
HETATM    9  C8  UNL     1      -1.557  -0.297  -0.323  1.00  0.00     0.084 A 
HETATM   10  N1  UNL     1      -2.518  -1.573  -0.334  1.00  0.00    -0.248 NA
HETATM   11  C9  UNL     1      -0.085  -0.022  -0.329  1.00  0.00     0.234 A 
HETATM   12  N2  UNL     1       0.189   1.292   0.188  1.00  0.00     0.006 N 
HETATM   13  C10 UNL     1      -0.534   2.238  -0.618  1.00  0.00     0.223 C 
HETATM   14  C11 UNL     1      -2.023   2.131  -0.309  1.00  0.00     0.060 C 
HETATM   15  C12 UNL     1       1.593   1.548   0.009  1.00  0.00     0.228 C 
HETATM   16  C13 UNL     1       2.269   0.302  -0.549  1.00  0.00     0.038 C 
HETATM   17  C14 UNL     1       2.134  -0.846   0.433  1.00  0.00     0.052 C 
HETATM   18  C15 UNL     1       0.629  -1.062   0.524  1.00  0.00     0.044 C 
HETATM   19  C16 UNL     1       2.703  -0.477   1.768  1.00  0.00     0.104 C 
HETATM   20  C17 UNL     1       3.676  -1.218   2.308  1.00  0.00     0.137 C 
HETATM   21  O3  UNL     1       2.231   0.608   2.429  1.00  0.00    -0.277 OA
HETATM   22  C19 UNL     1       1.257   1.349   1.888  1.00  0.00     0.307 C 
HETATM   23  O4  UNL     1       0.836   2.317   2.477  1.00  0.00    -0.262 OA
HETATM   24  C20 UNL     1       0.684   0.978   0.542  1.00  0.00     0.297 A 
ENDROOT
BRANCH  20  25
HETATM   25  O2  UNL     1       4.147  -2.303   1.647  1.00  0.00    -0.324 OA
HETATM   26  C18 UNL     1       5.168  -3.079   2.214  1.00  0.00     0.182 C 
ENDBRANCH  20  25
BRANCH  16  27
HETATM   27  C21 UNL     1       1.609  -0.082  -1.866  1.00  0.00     0.002 C 
HETATM   28  C22 UNL     1       2.644  -0.048  -2.983  1.00  0.00     0.000 C 
ENDBRANCH  16  27
TORSDOF 2
