REMARK  5 active torsions:
REMARK  status: ('A' for Active; 'I' for Inactive)
REMARK    1  A    between atoms: C1_1  and  O3_14 
REMARK    2  A    between atoms: C2_2  and  O2_12 
REMARK    3  A    between atoms: C4_4  and  C8_9 
REMARK    4  A    between atoms: C5_5  and  O1_7 
REMARK    5  A    between atoms: C8_9  and  C9_10 
ROOT
HETATM    1  C1  UNL     1      -0.830   1.547  -0.315  1.00  0.00     0.118 A 
HETATM    2  C2  UNL     1       0.576   1.598  -0.315  1.00  0.00     0.116 A 
HETATM    3  C3  UNL     1       1.318   0.404  -0.315  1.00  0.00     0.024 A 
HETATM    4  C4  UNL     1       0.662  -0.838  -0.315  1.00  0.00     0.007 A 
HETATM    5  C5  UNL     1      -0.744  -0.893  -0.315  1.00  0.00     0.092 A 
HETATM    6  C6  UNL     1      -1.484   0.303  -0.315  1.00  0.00     0.050 A 
ENDROOT
BRANCH   4   7
HETATM    7  C8  UNL     1       1.461  -2.092  -0.315  1.00  0.00     0.054 C 
BRANCH   7   8
HETATM    8  C9  UNL     1       1.594  -2.682   1.064  1.00  0.00    -0.021 C 
HETATM    9  C10 UNL     1       2.518  -2.170   1.892  1.00  0.00    -0.005 C 
ENDBRANCH   7   8
ENDBRANCH   4   7
BRANCH   5  10
HETATM   10  O1  UNL     1      -1.371  -2.053  -0.315  1.00  0.00    -0.328 OA
HETATM   11  C7  UNL     1      -2.785  -2.045  -0.198  1.00  0.00     0.181 C 
ENDBRANCH   5  10
BRANCH   2  12
HETATM   12  O2  UNL     1       1.199   2.760  -0.315  1.00  0.00    -0.326 OA
HETATM   13  C11 UNL     1       2.619   2.754  -0.315  1.00  0.00     0.181 C 
ENDBRANCH   2  12
BRANCH   1  14
HETATM   14  O3  UNL     1      -1.535   2.660  -0.315  1.00  0.00    -0.326 OA
HETATM   15  C12 UNL     1      -2.951   2.555  -0.315  1.00  0.00     0.181 C 
ENDBRANCH   1  14
TORSDOF 5
