REMARK  5 active torsions:
REMARK  status: ('A' for Active; 'I' for Inactive)
REMARK    1  A    between atoms: C6_6  and  C7_7 
REMARK    2  A    between atoms: C7_7  and  C8_8 
REMARK    3  A    between atoms: C9_9  and  C10_10 
REMARK    4  A    between atoms: C13_15  and  C15_18 
REMARK    5  A    between atoms: C18_21  and  O5_25 
ROOT
HETATM    1  C1  UNL     1      -3.173   1.104  -0.014  1.00  0.00     0.131 A 
HETATM    2  C2  UNL     1      -2.655   2.398   0.018  1.00  0.00     0.055 A 
HETATM    3  C3  UNL     1      -1.273   2.600   0.040  1.00  0.00     0.138 A 
HETATM    4  C4  UNL     1      -0.399   1.505   0.030  1.00  0.00     0.087 A 
HETATM    5  C5  UNL     1      -0.929   0.209  -0.003  1.00  0.00     0.103 A 
HETATM    6  C6  UNL     1      -2.310   0.008  -0.024  1.00  0.00     0.030 A 
HETATM    7  O2  UNL     1      -0.139  -0.919  -0.015  1.00  0.00    -0.305 OA
HETATM    8  C12 UNL     1       1.226  -0.750   0.006  1.00  0.00     0.126 A 
HETATM    9  C13 UNL     1       1.853   0.431   0.037  1.00  0.00     0.064 A 
HETATM   10  C14 UNL     1       1.091   1.716   0.053  1.00  0.00     0.201 A 
HETATM   11  O3  UNL     1       1.613   2.805   0.081  1.00  0.00    -0.286 OA
HETATM   12  O6  UNL     1      -0.776   3.861   0.071  1.00  0.00    -0.190 OA
HETATM   13  O7  UNL     1      -4.514   0.911  -0.035  1.00  0.00    -0.190 OA
ENDROOT
BRANCH   9  14
HETATM   14  C15 UNL     1       3.190   0.462   0.055  1.00  0.00     0.007 A 
HETATM   15  C16 UNL     1       3.916  -0.729   0.041  1.00  0.00     0.002 A 
HETATM   16  C17 UNL     1       5.310  -0.697   0.060  1.00  0.00     0.026 A 
HETATM   17  C18 UNL     1       5.979   0.527   0.092  1.00  0.00     0.119 A 
HETATM   18  C19 UNL     1       5.253   1.718   0.106  1.00  0.00     0.153 A 
HETATM   19  C20 UNL     1       3.859   1.685   0.088  1.00  0.00     0.030 A 
HETATM   20  O4  UNL     1       5.903   2.907   0.138  1.00  0.00    -0.188 OA
BRANCH  17  21
HETATM   21  O5  UNL     1       7.333   0.558   0.110  1.00  0.00    -0.326 OA
HETATM   22  C21 UNL     1       8.006   1.788   0.091  1.00  0.00     0.181 C 
ENDBRANCH  17  21
ENDBRANCH   9  14
BRANCH   6  23
HETATM   23  C7  UNL     1      -2.864  -1.382  -0.059  1.00  0.00     0.056 C 
BRANCH  23  24
HETATM   24  C8  UNL     1      -4.360  -1.323  -0.077  1.00  0.00    -0.027 C 
HETATM   25  C9  UNL     1      -5.073  -2.454  -0.108  1.00  0.00    -0.015 C 
HETATM   26  C11 UNL     1      -4.376  -3.779  -0.125  1.00  0.00     0.029 C 
BRANCH  25  27
HETATM   27  C10 UNL     1      -6.569  -2.395  -0.126  1.00  0.00     0.204 C 
HETATM   28  O1  UNL     1      -7.088  -3.697  -0.158  1.00  0.00    -0.216 OA
ENDBRANCH  25  27
ENDBRANCH  23  24
ENDBRANCH   6  23
TORSDOF 5
