REMARK  6 active torsions:
REMARK  status: ('A' for Active; 'I' for Inactive)
REMARK    1  A    between atoms: C15_17  and  C18_21 
REMARK    2  A    between atoms: C18_21  and  C19_22 
REMARK    3  A    between atoms: C19_22  and  C20_23 
REMARK    4  A    between atoms: C20_23  and  C21_25 
REMARK    5  A    between atoms: C21_25  and  C22_26 
REMARK    6  A    between atoms: C22_26  and  C23_27 
ROOT
HETATM    1  C1  UNL     1      -4.871  -0.314   0.105  1.00  0.00     0.033 C 
HETATM    2  C2  UNL     1      -5.079  -1.869  -0.198  1.00  0.00     0.152 C 
HETATM    3  C3  UNL     1      -4.367  -2.361  -1.451  1.00  0.00     0.028 C 
HETATM    4  C4  UNL     1      -2.931  -1.853  -1.451  1.00  0.00     0.005 C 
HETATM    5  C5  UNL     1      -2.931  -0.330  -1.451  1.00  0.00     0.007 C 
HETATM    6  C6  UNL     1      -3.446   0.178  -0.110  1.00  0.00     0.003 C 
HETATM    7  C7  UNL     1      -1.513   0.178  -1.675  1.00  0.00     0.060 C 
HETATM    8  C8  UNL     1      -0.529  -0.974  -1.510  1.00  0.00     0.040 C 
HETATM    9  C9  UNL     1      -0.669  -1.932  -2.686  1.00  0.00     0.153 C 
HETATM   10  C10 UNL     1      -2.213  -2.361  -2.694  1.00  0.00     0.033 C 
HETATM   11  O1  UNL     1      -0.330  -1.291  -3.886  1.00  0.00    -0.223 OA
HETATM   12  C11 UNL     1       0.891  -0.426  -1.468  1.00  0.00     0.031 C 
HETATM   13  C12 UNL     1       1.067   0.433  -0.223  1.00  0.00     0.009 C 
HETATM   14  C13 UNL     1       0.356   1.765  -0.421  1.00  0.00     0.065 C 
HETATM   15  C14 UNL     1      -1.213   1.197  -0.603  1.00  0.00     0.150 C 
HETATM   16  O2  UNL     1      -2.095   1.601   0.117  1.00  0.00    -0.296 OA
HETATM   17  C15 UNL     1       2.570   0.667  -0.146  1.00  0.00     0.003 C 
HETATM   18  C16 UNL     1       3.038  -0.935  -0.523  1.00  0.00     0.033 C 
HETATM   19  C17 UNL     1       1.872  -1.574  -1.266  1.00  0.00     0.152 C 
HETATM   20  O3  UNL     1       2.291  -2.093  -2.498  1.00  0.00    -0.224 OA
HETATM   21  C26 UNL     1       0.501  -0.217   1.033  1.00  0.00     0.001 C 
HETATM   22  C27 UNL     1       1.134   0.343  -2.760  1.00  0.00     0.003 C 
HETATM   23  C28 UNL     1      -3.834   0.178  -2.567  1.00  0.00     0.000 C 
HETATM   24  C29 UNL     1      -4.366  -3.883  -1.469  1.00  0.00     0.003 C 
HETATM   25  C30 UNL     1      -5.090  -1.838  -2.684  1.00  0.00     0.003 C 
HETATM   26  O7  UNL     1      -6.452  -2.106  -0.351  1.00  0.00    -0.224 OA
ENDROOT
BRANCH  17  27
HETATM   27  C18 UNL     1       3.024   1.097   1.243  1.00  0.00     0.007 C 
HETATM   28  C25 UNL     1       2.446   2.469   1.563  1.00  0.00     0.000 C 
BRANCH  27  29
HETATM   29  C19 UNL     1       4.545   1.165   1.280  1.00  0.00     0.065 C 
BRANCH  29  30
HETATM   30  C20 UNL     1       4.996   1.591   2.656  1.00  0.00     0.151 C 
HETATM   31  O4  UNL     1       6.175   1.707   2.896  1.00  0.00    -0.296 OA
BRANCH  30  32
HETATM   32  C21 UNL     1       3.976   1.874   3.731  1.00  0.00     0.075 C 
BRANCH  32  33
HETATM   33  C22 UNL     1       4.688   2.283   5.013  1.00  0.00     0.095 C 
HETATM   34  C24 UNL     1       3.657   2.568   6.097  1.00  0.00     0.012 C 
BRANCH  33  35
HETATM   35  C23 UNL     1       5.508   3.524   4.760  1.00  0.00     0.185 C 
HETATM   36  O5  UNL     1       6.154   4.014   5.655  1.00  0.00    -0.647 OA
HETATM   37  O6  UNL     1       5.519   4.082   3.544  1.00  0.00    -0.647 OA
ENDBRANCH  33  35
ENDBRANCH  32  33
ENDBRANCH  30  32
ENDBRANCH  29  30
ENDBRANCH  27  29
ENDBRANCH  17  27
TORSDOF 6
