REMARK  5 active torsions:
REMARK  status: ('A' for Active; 'I' for Inactive)
REMARK    1  A    between atoms: C15_16  and  C18_20 
REMARK    2  A    between atoms: C18_20  and  C19_21 
REMARK    3  A    between atoms: C19_21  and  C20_22 
REMARK    4  A    between atoms: C20_22  and  C21_23 
REMARK    5  A    between atoms: C22_24  and  C23_25 
ROOT
HETATM    1  C1  UNL     1      -5.398  -1.169  -0.623  1.00  0.00     0.033 C 
HETATM    2  C2  UNL     1      -5.278  -2.415   0.230  1.00  0.00     0.152 C 
HETATM    3  C3  UNL     1      -4.223  -3.328  -0.380  1.00  0.00     0.029 C 
HETATM    4  C4  UNL     1      -2.878  -2.614  -0.391  1.00  0.00     0.009 C 
HETATM    5  C5  UNL     1      -2.988  -1.337  -1.214  1.00  0.00     0.015 C 
HETATM    6  C6  UNL     1      -4.062  -0.438  -0.615  1.00  0.00     0.006 C 
HETATM    7  C7  UNL     1      -1.673  -0.620  -1.201  1.00  0.00    -0.050 C 
HETATM    8  C8  UNL     1      -0.515  -1.289  -1.201  1.00  0.00    -0.021 C 
HETATM    9  C9  UNL     1      -0.479  -2.785  -1.214  1.00  0.00     0.170 C 
HETATM   10  C10 UNL     1      -1.824  -3.525  -1.006  1.00  0.00     0.038 C 
HETATM   11  O1  UNL     1       0.035  -3.184  -2.455  1.00  0.00    -0.219 OA
HETATM   12  C11 UNL     1       0.799  -0.572  -1.201  1.00  0.00     0.045 C 
HETATM   13  C12 UNL     1       0.696   0.676  -0.335  1.00  0.00     0.006 C 
HETATM   14  C13 UNL     1      -0.160   1.717  -1.044  1.00  0.00     0.005 C 
HETATM   15  C14 UNL     1      -1.710   0.876  -1.175  1.00  0.00     0.021 C 
HETATM   16  C15 UNL     1       2.131   1.179  -0.241  1.00  0.00     0.003 C 
HETATM   17  C16 UNL     1       2.827  -0.411   0.073  1.00  0.00     0.033 C 
HETATM   18  C17 UNL     1       1.843  -1.426  -0.493  1.00  0.00     0.155 C 
HETATM   19  O2  UNL     1       2.480  -2.285  -1.400  1.00  0.00    -0.223 OA
HETATM   20  C26 UNL     1       0.070   0.406   1.027  1.00  0.00     0.000 C 
HETATM   21  C27 UNL     1       1.163  -0.265  -2.647  1.00  0.00     0.007 C 
HETATM   22  C28 UNL     1      -3.361  -1.688  -2.648  1.00  0.00     0.004 C 
HETATM   23  C29 UNL     1      -4.114  -4.601   0.448  1.00  0.00     0.003 C 
HETATM   24  C30 UNL     1      -4.621  -3.682  -1.807  1.00  0.00     0.003 C 
HETATM   25  O5  UNL     1      -6.511  -3.080   0.267  1.00  0.00    -0.224 OA
ENDROOT
BRANCH  16  26
HETATM   26  C18 UNL     1       2.344   2.157   0.906  1.00  0.00     0.000 C 
HETATM   27  C25 UNL     1       1.571   3.440   0.629  1.00  0.00     0.000 C 
BRANCH  26  28
HETATM   28  C19 UNL     1       3.828   2.475   1.033  1.00  0.00     0.005 C 
BRANCH  28  29
HETATM   29  C20 UNL     1       4.042   3.454   2.180  1.00  0.00     0.026 C 
BRANCH  29  30
HETATM   30  C21 UNL     1       5.501   3.766   2.304  1.00  0.00    -0.024 C 
HETATM   31  C22 UNL     1       5.926   4.610   3.251  1.00  0.00     0.038 C 
HETATM   32  C24 UNL     1       7.385   4.922   3.375  1.00  0.00     0.037 C 
BRANCH  31  33
HETATM   33  C23 UNL     1       5.038   5.181   4.095  1.00  0.00     0.206 C 
HETATM   34  O3  UNL     1       5.422   5.943   4.949  1.00  0.00    -0.644 OA
HETATM   35  O4  UNL     1       3.735   4.902   3.983  1.00  0.00    -0.644 OA
ENDBRANCH  31  33
ENDBRANCH  29  30
ENDBRANCH  28  29
ENDBRANCH  26  28
ENDBRANCH  16  26
TORSDOF 5
