REMARK  3 active torsions:
REMARK  status: ('A' for Active; 'I' for Inactive)
REMARK    1  A    between atoms: N5_10  and  C6_11 
REMARK    2  A    between atoms: C6_11  and  C9_14 
REMARK    3  A    between atoms: C9_14  and  C10_15 
ROOT
HETATM    1  N1  UNL     1      -2.614   2.099   0.481  1.00  0.00    -0.202 NA
HETATM    2  C1  UNL     1      -2.488   0.816   0.481  1.00  0.00     0.202 A 
HETATM    3  N2  UNL     1      -1.456   0.094   0.481  1.00  0.00    -0.205 NA
HETATM    4  C2  UNL     1      -0.365   0.724   0.481  1.00  0.00     0.164 A 
HETATM    5  C3  UNL     1      -0.365   2.061   0.481  1.00  0.00     0.149 A 
HETATM    6  C4  UNL     1      -1.523   2.729   0.481  1.00  0.00     0.206 A 
HETATM    7  N3  UNL     1      -1.523   3.995   0.481  1.00  0.00    -0.125 N 
HETATM    8  N4  UNL     1       0.811   2.512   0.470  1.00  0.00    -0.240 NA
HETATM    9  C5  UNL     1       1.664   1.211   0.462  1.00  0.00     0.232 A 
HETATM   10  N5  UNL     1       0.817   0.270   0.470  1.00  0.00    -0.315 N 
ENDROOT
BRANCH  10  11
HETATM   11  C6  UNL     1       1.160  -1.159   0.467  1.00  0.00     0.074 C 
HETATM   12  C7  UNL     1       0.728  -1.788   1.785  1.00  0.00     0.023 C 
HETATM   13  C8  UNL     1       2.665  -1.319   0.297  1.00  0.00     0.023 C 
BRANCH  11  14
HETATM   14  C9  UNL     1       0.443  -1.852  -0.684  1.00  0.00     0.085 C 
BRANCH  14  15
HETATM   15  C10 UNL     1      -0.384  -0.843  -1.443  1.00  0.00     0.153 C 
HETATM   16  C11 UNL     1      -1.196  -1.279  -2.637  1.00  0.00     0.072 C 
HETATM   17  O1  UNL     1      -0.395   0.313  -1.094  1.00  0.00    -0.296 OA
ENDBRANCH  14  15
ENDBRANCH  11  14
ENDBRANCH  10  11
TORSDOF 3
