REMARK  11 active torsions:
REMARK  status: ('A' for Active; 'I' for Inactive)
REMARK    1  A    between atoms: C2_2  and  C29_34 
REMARK    2  A    between atoms: C4_4  and  C14_18 
REMARK    3  A    between atoms: C6_6  and  C7_7 
REMARK    4  A    between atoms: C7_7  and  C8_8 
REMARK    5  A    between atoms: O3_16  and  C25_29 
REMARK    6  A    between atoms: C14_18  and  C15_19 
REMARK    7  A    between atoms: C23_27  and  C24_28 
REMARK    8  A    between atoms: C29_34  and  C30_35 
REMARK    9  A    between atoms: C30_35  and  C31_36 
REMARK   10  A    between atoms: C30_35  and  C36_41 
REMARK   11  A    between atoms: C31_36  and  C32_37 
ROOT
HETATM    1  C1  UNL     1       1.489  -0.044  -0.701  1.00  0.00     0.139 A 
HETATM    2  C2  UNL     1       0.321   0.781  -0.214  1.00  0.00     0.078 C 
HETATM    3  C3  UNL     1      -0.694  -0.112   0.514  1.00  0.00     0.158 C 
HETATM    4  C4  UNL     1      -1.135  -1.231  -0.436  1.00  0.00     0.107 C 
HETATM    5  C5  UNL     1       0.082  -2.111  -0.802  1.00  0.00     0.159 C 
HETATM    6  C6  UNL     1       1.376  -1.357  -0.959  1.00  0.00     0.084 A 
HETATM    7  O4  UNL     1       0.001  -3.307  -0.950  1.00  0.00    -0.296 OA
HETATM    8  C19 UNL     1      -1.825  -0.609  -1.668  1.00  0.00     0.013 C 
HETATM    9  C20 UNL     1      -1.002   0.469  -2.377  1.00  0.00     0.001 C 
HETATM   10  C21 UNL     1      -0.371   1.471  -1.401  1.00  0.00     0.009 C 
HETATM   11  C22 UNL     1       0.133  -0.229  -3.115  1.00  0.00     0.003 C 
HETATM   12  C23 UNL     1       1.262  -0.485  -2.167  1.00  0.00     0.036 A 
HETATM   13  C27 UNL     1      -2.109  -1.724  -2.667  1.00  0.00     0.001 C 
HETATM   14  C28 UNL     1      -3.090   0.071  -1.161  1.00  0.00     0.001 C 
HETATM   15  O5  UNL     1      -1.080   0.041   1.649  1.00  0.00    -0.296 OA
HETATM   16  O6  UNL     1       2.688   0.559  -0.883  1.00  0.00    -0.225 OA
ENDROOT
BRANCH   2  17
HETATM   17  C29 UNL     1       0.846   1.838   0.750  1.00  0.00     0.014 C 
BRANCH  17  18
HETATM   18  C30 UNL     1       0.047   3.123   0.580  1.00  0.00     0.023 C 
BRANCH  18  19
HETATM   19  C31 UNL     1       0.572   4.179   1.543  1.00  0.00     0.029 C 
BRANCH  19  20
HETATM   20  C32 UNL     1      -0.214   5.442   1.377  1.00  0.00    -0.034 C 
HETATM   21  C33 UNL     1       0.074   6.512   2.125  1.00  0.00    -0.048 C 
HETATM   22  C34 UNL     1      -0.711   7.776   1.958  1.00  0.00     0.026 C 
HETATM   23  C35 UNL     1       1.182   6.447   3.130  1.00  0.00     0.026 C 
ENDBRANCH  19  20
ENDBRANCH  18  19
BRANCH  18  24
HETATM   24  C36 UNL     1      -1.396   2.854   0.873  1.00  0.00    -0.044 C 
HETATM   25  C37 UNL     1      -2.291   3.844   0.787  1.00  0.00    -0.009 C 
HETATM   26  C38 UNL     1      -1.838   1.478   1.262  1.00  0.00     0.026 C 
ENDBRANCH  18  24
ENDBRANCH  17  18
ENDBRANCH   2  17
BRANCH   6  27
HETATM   27  C7  UNL     1       2.470  -2.030  -1.378  1.00  0.00     0.028 A 
HETATM   28  O3  UNL     1       3.088  -1.640  -2.340  1.00  0.00     0.000 OA
HETATM   29  C24 UNL     1       2.372  -1.093  -2.599  1.00  0.00     0.007 A 
HETATM   30  C25 UNL     1       3.502  -1.350  -1.651  1.00  0.00     0.005 A 
HETATM   31  C26 UNL     1       2.485  -1.517  -4.030  1.00  0.00     0.000 C 
BRANCH  27  32
HETATM   32  C8  UNL     1       2.873  -3.139  -0.721  1.00  0.00    -0.020 A 
HETATM   33  C9  UNL     1       4.003  -3.834  -1.153  1.00  0.00    -0.002 A 
HETATM   34  C10 UNL     1       4.419  -4.979  -0.475  1.00  0.00     0.029 A 
HETATM   35  C11 UNL     1       3.706  -5.430   0.636  1.00  0.00     0.156 A 
HETATM   36  C12 UNL     1       2.577  -4.735   1.068  1.00  0.00     0.156 A 
HETATM   37  O2  UNL     1       4.111  -6.542   1.295  1.00  0.00    -0.188 OA
HETATM   38  C13 UNL     1       2.160  -3.590   0.390  1.00  0.00     0.025 A 
HETATM   39  O1  UNL     1       1.884  -5.173   2.148  1.00  0.00    -0.188 OA
ENDBRANCH  27  32
ENDBRANCH   6  27
BRANCH   4  40
HETATM   40  C14 UNL     1      -2.153  -2.143   0.236  1.00  0.00     0.039 C 
BRANCH  40  41
HETATM   41  C15 UNL     1      -2.692  -1.472   1.461  1.00  0.00    -0.034 C 
HETATM   42  C16 UNL     1      -3.606  -2.092   2.215  1.00  0.00    -0.048 C 
HETATM   43  C17 UNL     1      -4.146  -1.421   3.440  1.00  0.00     0.026 C 
HETATM   44  C18 UNL     1      -4.090  -3.457   1.834  1.00  0.00     0.026 C 
ENDBRANCH  40  41
ENDBRANCH   4  40
TORSDOF 11
