REMARK  2 active torsions:
REMARK  status: ('A' for Active; 'I' for Inactive)
REMARK    1  A    between atoms: C7_7  and  O2_10 
REMARK    2  A    between atoms: O2_10  and  C9_11 
ROOT
HETATM    1  C1  UNL     1      -2.364  -0.955   0.588  1.00  0.00     0.151 C 
HETATM    2  C2  UNL     1      -2.629   0.467   1.120  1.00  0.00     0.065 C 
HETATM    3  C3  UNL     1      -1.782   1.534   0.399  1.00  0.00     0.009 C 
HETATM    4  C4  UNL     1      -0.313   1.122   0.485  1.00  0.00     0.035 C 
HETATM    5  C5  UNL     1      -0.107  -0.242  -0.172  1.00  0.00     0.061 C 
HETATM    6  C6  UNL     1      -0.868  -1.320   0.599  1.00  0.00     0.069 C 
HETATM    7  C7  UNL     1       1.412  -0.272  -0.190  1.00  0.00     0.188 C 
HETATM    8  O1  UNL     1       1.823   1.046  -0.485  1.00  0.00    -0.335 OA
HETATM    9  C8  UNL     1       0.730   1.919  -0.282  1.00  0.00     0.145 C 
HETATM   10  C11 UNL     1       1.977  -0.749   1.141  1.00  0.00     0.061 C 
HETATM   11  C12 UNL     1      -1.977   2.886   1.072  1.00  0.00     0.001 C 
HETATM   12  C13 UNL     1      -2.211   1.646  -1.059  1.00  0.00     0.001 C 
HETATM   13  O3  UNL     1      -3.234  -1.700   0.205  1.00  0.00    -0.296 OA
ENDROOT
BRANCH   7  14
HETATM   14  O2  UNL     1       1.869  -1.157  -1.177  1.00  0.00    -0.335 OA
BRANCH  14  15
HETATM   15  C9  UNL     1       2.692  -2.235  -0.825  1.00  0.00     0.145 C 
HETATM   16  C10 UNL     1       3.045  -3.035  -2.072  1.00  0.00     0.035 C 
ENDBRANCH  14  15
ENDBRANCH   7  14
TORSDOF 2
