REMARK  5 active torsions:
REMARK  status: ('A' for Active; 'I' for Inactive)
REMARK    1  A    between atoms: C4_5  and  C6_8 
REMARK    2  A    between atoms: C6_8  and  O3_9 
REMARK    3  A    between atoms: O3_9  and  C7_10 
REMARK    4  A    between atoms: C15_23  and  C19_28 
REMARK    5  A    between atoms: C19_28  and  C20_29 
ROOT
HETATM    1  C1  UNL     1      -2.656  -3.214   1.478  1.00  0.00     0.215 C 
HETATM    2  C2  UNL     1      -3.485  -2.289   0.594  1.00  0.00     0.215 C 
HETATM    3  C3  UNL     1      -2.777  -0.956   0.393  1.00  0.00     0.184 A 
HETATM    4  O1  UNL     1      -1.466  -1.154  -0.137  1.00  0.00     0.000 OA
HETATM    5  C4  UNL     1      -0.639  -1.917   0.742  1.00  0.00     0.068 C 
HETATM    6  C5  UNL     1      -1.223  -3.306   0.963  1.00  0.00     0.188 C 
HETATM    7  O2  UNL     1      -0.440  -3.990   1.903  1.00  0.00    -0.221 OA
HETATM    8  O8  UNL     1      -3.520  -0.171  -0.500  1.00  0.00    -0.326 OA
HETATM    9  C12 UNL     1      -3.085   1.068  -0.835  1.00  0.00     0.116 A 
HETATM   10  C13 UNL     1      -3.825   1.849  -1.724  1.00  0.00     0.026 A 
HETATM   11  C14 UNL     1      -3.377   3.124  -2.069  1.00  0.00    -0.002 A 
HETATM   12  C15 UNL     1      -2.191   3.618  -1.526  1.00  0.00    -0.016 A 
HETATM   13  C16 UNL     1      -1.452   2.837  -0.638  1.00  0.00     0.022 A 
HETATM   14  C17 UNL     1      -1.899   1.562  -0.293  1.00  0.00     0.116 A 
HETATM   15  O9  UNL     1      -1.181   0.803   0.570  1.00  0.00    -0.326 OA
HETATM   16  C18 UNL     1      -1.631  -0.479   0.917  1.00  0.00     0.182 A 
HETATM   17  O10 UNL     1      -4.727  -2.063   1.203  1.00  0.00    -0.218 OA
HETATM   18  O11 UNL     1      -3.230  -4.493   1.473  1.00  0.00    -0.218 OA
ENDROOT
BRANCH   5  19
HETATM   19  C6  UNL     1       0.749  -2.050   0.131  1.00  0.00     0.148 C 
BRANCH  19  20
HETATM   20  O3  UNL     1       1.696  -1.471   0.988  1.00  0.00    -0.329 OA
BRANCH  20  21
HETATM   21  C7  UNL     1       3.053  -1.472   0.636  1.00  0.00     0.270 C 
HETATM   22  O4  UNL     1       3.792  -2.189   1.625  1.00  0.00    -0.326 OA
HETATM   23  C8  UNL     1       5.182  -2.263   1.310  1.00  0.00     0.181 C 
HETATM   24  C9  UNL     1       5.796  -0.870   1.247  1.00  0.00     0.215 C 
HETATM   25  C10 UNL     1       5.041   0.008   0.254  1.00  0.00     0.220 C 
HETATM   26  O7  UNL     1       5.735  -0.283   2.518  1.00  0.00    -0.218 OA
HETATM   27  C11 UNL     1       3.543  -0.034   0.533  1.00  0.00     0.241 C 
HETATM   28  O6  UNL     1       5.495   1.329   0.371  1.00  0.00    -0.218 OA
HETATM   29  O5  UNL     1       2.863   0.610  -0.511  1.00  0.00    -0.215 OA
ENDBRANCH  20  21
ENDBRANCH  19  20
ENDBRANCH   5  19
BRANCH  12  30
HETATM   30  C19 UNL     1      -1.711   4.987  -1.897  1.00  0.00     0.052 C 
BRANCH  30  31
HETATM   31  C20 UNL     1      -1.418   5.033  -3.365  1.00  0.00    -0.021 C 
HETATM   32  C21 UNL     1      -0.974   6.164  -3.922  1.00  0.00    -0.005 C 
ENDBRANCH  30  31
ENDBRANCH  12  30
TORSDOF 5
