REMARK  5 active torsions:
REMARK  status: ('A' for Active; 'I' for Inactive)
REMARK    1  A    between atoms: N1_9  and  O1_10 
REMARK    2  A    between atoms: C16_20  and  C17_21 
REMARK    3  A    between atoms: C17_21  and  C18_22 
REMARK    4  A    between atoms: C18_22  and  C19_23 
REMARK    5  A    between atoms: C23_28  and  C27_32 
ROOT
HETATM    1  C1  UNL     1      -5.040  -3.827  -0.221  1.00  0.00    -0.000 A 
HETATM    2  C2  UNL     1      -5.040  -5.164  -0.221  1.00  0.00     0.002 A 
HETATM    3  C3  UNL     1      -3.882  -5.832  -0.246  1.00  0.00     0.019 A 
HETATM    4  C4  UNL     1      -2.724  -5.164  -0.246  1.00  0.00     0.087 A 
HETATM    5  C5  UNL     1      -2.724  -3.827  -0.246  1.00  0.00     0.006 A 
HETATM    6  C6  UNL     1      -3.882  -3.159  -0.233  1.00  0.00    -0.002 A 
HETATM    7  C7  UNL     1      -1.327  -3.291  -0.246  1.00  0.00     0.121 A 
HETATM    8  C8  UNL     1      -0.462  -4.527  -0.226  1.00  0.00     0.266 A 
HETATM    9  N1  UNL     1      -1.543  -5.618  -0.257  1.00  0.00    -0.185 N 
HETATM   10  O2  UNL     1       0.742  -4.629  -0.194  1.00  0.00    -0.269 OA
HETATM   11  C10 UNL     1      -1.077  -2.526   1.048  1.00  0.00     0.129 A 
HETATM   12  C11 UNL     1      -1.180  -0.059   1.542  1.00  0.00     0.033 C 
HETATM   13  C12 UNL     1       0.036   0.160   0.651  1.00  0.00     0.041 C 
HETATM   14  C13 UNL     1       0.354  -1.127  -0.099  1.00  0.00     0.066 C 
HETATM   15  C14 UNL     1      -0.631  -1.129  -1.260  1.00  0.00     0.260 C 
HETATM   16  C15 UNL     1      -1.064  -2.559  -1.555  1.00  0.00     0.051 C 
HETATM   17  N2  UNL     1       0.141  -0.577  -2.383  1.00  0.00     0.335 N 
HETATM   18  C16 UNL     1      -0.308   1.135  -0.431  1.00  0.00     0.257 C 
HETATM   19  C29 UNL     1       0.078  -2.322   0.804  1.00  0.00     0.143 A 
HETATM   20  O6  UNL     1      -1.768  -3.190   2.071  1.00  0.00    -0.356 OA
ENDROOT
BRANCH  18  21
HETATM   21  C17 UNL     1      -0.748   2.566  -0.412  1.00  0.00     0.035 C 
HETATM   22  C28 UNL     1      -1.658   2.832  -1.604  1.00  0.00     0.002 C 
BRANCH  21  23
HETATM   23  C18 UNL     1       0.473   3.473  -0.492  1.00  0.00     0.012 C 
BRANCH  23  24
HETATM   24  C19 UNL     1       0.529   4.359   0.745  1.00  0.00     0.089 C 
HETATM   25  C20 UNL     1       0.536   5.818   0.358  1.00  0.00     0.271 C 
HETATM   26  O3  UNL     1       1.675   6.389   0.887  1.00  0.00    -0.304 OA
HETATM   27  O5  UNL     1      -0.306   6.385  -0.297  1.00  0.00    -0.264 OA
HETATM   28  C21 UNL     1       2.650   5.413   1.136  1.00  0.00     0.125 C 
HETATM   29  C22 UNL     1       1.845   4.169   1.488  1.00  0.00     0.040 C 
HETATM   30  C25 UNL     1       3.300   5.066  -0.197  1.00  0.00     0.030 C 
HETATM   31  C23 UNL     1       2.628   3.030   0.848  1.00  0.00     0.036 C 
HETATM   32  C24 UNL     1       3.135   3.621  -0.461  1.00  0.00     0.005 C 
HETATM   33  C26 UNL     1       2.123   3.394  -1.575  1.00  0.00     0.000 C 
BRANCH  31  34
HETATM   34  C27 UNL     1       3.791   2.608   1.737  1.00  0.00     0.182 C 
HETATM   35  O4  UNL     1       3.674   1.245   2.044  1.00  0.00    -0.221 OA
ENDBRANCH  31  34
ENDBRANCH  23  24
ENDBRANCH  21  23
ENDBRANCH  18  21
BRANCH   9  36
HETATM   36  O1  UNL     1      -1.266  -6.904  -0.291  1.00  0.00    -0.248 OA
HETATM   37  C9  UNL     1       0.068  -7.334  -0.301  1.00  0.00     0.209 C 
ENDBRANCH   9  36
TORSDOF 5
