REMARK  3 active torsions:
REMARK  status: ('A' for Active; 'I' for Inactive)
REMARK    1  A    between atoms: N1_9  and  O1_10 
REMARK    2  A    between atoms: C12_15  and  C17_23 
REMARK    3  A    between atoms: C17_23  and  C18_24 
ROOT
HETATM    1  C1  UNL     1      -3.202  -1.753   0.090  1.00  0.00    -0.000 A 
HETATM    2  C2  UNL     1      -3.202  -3.090   0.090  1.00  0.00     0.002 A 
HETATM    3  C3  UNL     1      -2.044  -3.758   0.065  1.00  0.00     0.019 A 
HETATM    4  C4  UNL     1      -0.886  -3.090   0.065  1.00  0.00     0.087 A 
HETATM    5  C5  UNL     1      -0.886  -1.753   0.065  1.00  0.00     0.006 A 
HETATM    6  C6  UNL     1      -2.044  -1.084   0.077  1.00  0.00    -0.002 A 
HETATM    7  C7  UNL     1       0.511  -1.216   0.065  1.00  0.00     0.123 A 
HETATM    8  C8  UNL     1       1.377  -2.452   0.066  1.00  0.00     0.266 A 
HETATM    9  N1  UNL     1       0.296  -3.543   0.054  1.00  0.00    -0.185 N 
HETATM   10  O2  UNL     1       2.580  -2.555   0.075  1.00  0.00    -0.269 OA
HETATM   11  C10 UNL     1       0.767  -0.467   1.366  1.00  0.00     0.157 C 
HETATM   12  C11 UNL     1      -0.311   0.537   1.671  1.00  0.00     0.175 A 
HETATM   13  C12 UNL     1      -0.379   1.752   0.851  1.00  0.00     0.175 A 
HETATM   14  C13 UNL     1       0.643   1.933  -0.239  1.00  0.00     0.101 C 
HETATM   15  C14 UNL     1       2.049   1.570   0.219  1.00  0.00     0.147 C 
HETATM   16  O3  UNL     1       2.011   0.169   1.248  1.00  0.00    -0.353 OA
HETATM   17  C15 UNL     1       0.298   1.143  -1.495  1.00  0.00     0.308 C 
HETATM   18  N2  UNL     1       1.006   1.685  -2.623  1.00  0.00     0.616 N 
HETATM   19  C16 UNL     1       0.768  -0.469  -1.237  1.00  0.00     0.055 C 
HETATM   20  O4  UNL     1      -1.323   0.666   0.662  1.00  0.00    -0.347 OA
ENDROOT
BRANCH   9  21
HETATM   21  O1  UNL     1       0.572  -4.830   0.034  1.00  0.00    -0.248 OA
HETATM   22  C9  UNL     1       1.906  -5.260   0.022  1.00  0.00     0.209 C 
ENDBRANCH   9  21
BRANCH  13  23
HETATM   23  C17 UNL     1      -0.453   3.168   1.138  1.00  0.00     0.177 C 
HETATM   24  O5  UNL     1      -0.467   3.552   2.284  1.00  0.00    -0.293 OA
BRANCH  23  25
HETATM   25  C18 UNL     1      -0.511   4.165   0.007  1.00  0.00     0.067 C 
HETATM   26  C19 UNL     1      -0.583   5.576   0.577  1.00  0.00     0.008 C 
ENDBRANCH  23  25
ENDBRANCH  13  23
TORSDOF 3
