REMARK  3 active torsions:
REMARK  status: ('A' for Active; 'I' for Inactive)
REMARK    1  A    between atoms: C1_1  and  C16_25 
REMARK    2  A    between atoms: C9_11  and  C10_12 
REMARK    3  A    between atoms: C11_14  and  C15_21 
ROOT
HETATM    1  C1  UNL     1       2.862   1.056   0.116  1.00  0.00     0.064 A 
HETATM    2  C2  UNL     1       2.234  -0.124   0.085  1.00  0.00     0.126 A 
HETATM    3  O1  UNL     1       0.869  -0.293   0.064  1.00  0.00    -0.305 OA
HETATM    4  C3  UNL     1       0.079   0.835   0.076  1.00  0.00     0.105 A 
HETATM    5  C4  UNL     1       0.610   2.131   0.108  1.00  0.00     0.087 A 
HETATM    6  C5  UNL     1       2.099   2.342   0.132  1.00  0.00     0.201 A 
HETATM    7  O2  UNL     1       2.621   3.431   0.160  1.00  0.00    -0.286 OA
HETATM    8  C6  UNL     1      -0.265   3.226   0.118  1.00  0.00     0.138 A 
HETATM    9  C7  UNL     1      -1.647   3.024   0.097  1.00  0.00     0.055 A 
HETATM   10  C8  UNL     1      -2.164   1.729   0.065  1.00  0.00     0.133 A 
HETATM   11  C9  UNL     1      -1.302   0.634   0.054  1.00  0.00     0.056 A 
HETATM   12  O8  UNL     1      -3.506   1.536   0.043  1.00  0.00    -0.190 OA
HETATM   13  O9  UNL     1       0.232   4.486   0.150  1.00  0.00    -0.190 OA
ENDROOT
BRANCH  11  14
HETATM   14  C10 UNL     1      -1.856  -0.757   0.020  1.00  0.00     0.174 C 
HETATM   15  O3  UNL     1      -2.629  -0.923  -1.168  1.00  0.00    -0.347 OA
HETATM   16  C11 UNL     1      -3.159  -2.243  -1.286  1.00  0.00     0.181 C 
HETATM   17  C12 UNL     1      -4.093  -2.556  -0.124  1.00  0.00     0.214 C 
HETATM   18  C13 UNL     1      -3.381  -2.353   1.210  1.00  0.00     0.218 C 
HETATM   19  O6  UNL     1      -4.517  -3.889  -0.220  1.00  0.00    -0.218 OA
HETATM   20  C14 UNL     1      -2.713  -0.983   1.258  1.00  0.00     0.216 C 
HETATM   21  O5  UNL     1      -4.317  -2.446   2.250  1.00  0.00    -0.218 OA
HETATM   22  O4  UNL     1      -1.902  -0.907   2.399  1.00  0.00    -0.218 OA
BRANCH  16  23
HETATM   23  C15 UNL     1      -3.934  -2.355  -2.592  1.00  0.00     0.214 C 
HETATM   24  O7  UNL     1      -3.353  -3.346  -3.397  1.00  0.00    -0.218 OA
ENDBRANCH  16  23
ENDBRANCH  11  14
BRANCH   1  25
HETATM   25  C16 UNL     1       4.198   1.087   0.134  1.00  0.00     0.005 A 
HETATM   26  C17 UNL     1       4.882   2.092  -0.551  1.00  0.00     0.002 A 
HETATM   27  C18 UNL     1       6.276   2.124  -0.533  1.00  0.00     0.027 A 
HETATM   28  C19 UNL     1       6.987   1.152   0.171  1.00  0.00     0.131 A 
HETATM   29  C20 UNL     1       6.303   0.148   0.856  1.00  0.00     0.027 A 
HETATM   30  O10 UNL     1       8.341   1.184   0.189  1.00  0.00    -0.190 OA
HETATM   31  C21 UNL     1       4.909   0.115   0.837  1.00  0.00     0.002 A 
ENDBRANCH   1  25
TORSDOF 3
