REMARK  0 active torsions:
REMARK  status: ('A' for Active; 'I' for Inactive)
ROOT
HETATM    1  N1  UNL     1       0.971  -2.535   0.599  1.00  0.00    -0.146 N 
HETATM    2  C1  UNL     1       1.377  -1.426   0.141  1.00  0.00     0.130 C 
HETATM    3  C2  UNL     1       0.589  -0.356  -0.084  1.00  0.00     0.119 C 
HETATM    4  C3  UNL     1       1.138   0.792  -0.585  1.00  0.00     0.300 C 
HETATM    5  O1  UNL     1       2.313   0.776  -0.898  1.00  0.00    -0.259 OA
HETATM    6  O2  UNL     1       0.470   1.972  -0.753  1.00  0.00    -0.298 OA
HETATM    7  C4  UNL     1      -0.822   2.081  -0.230  1.00  0.00     0.160 C 
HETATM    8  C5  UNL     1      -1.576   0.766  -0.292  1.00  0.00     0.102 C 
HETATM    9  C6  UNL     1      -0.745  -0.410   0.182  1.00  0.00     0.182 C 
HETATM   10  O3  UNL     1      -1.316  -1.361   0.672  1.00  0.00    -0.291 OA
ENDROOT
TORSDOF 0
