REMARK  5 active torsions:
REMARK  status: ('A' for Active; 'I' for Inactive)
REMARK    1  A    between atoms: C4_4  and  C13_19 
REMARK    2  A    between atoms: C5_5  and  O1_7 
REMARK    3  A    between atoms: O1_7  and  C7_8 
REMARK    4  A    between atoms: C8_10  and  C12_17 
REMARK    5  A    between atoms: C15_21  and  O9_26 
ROOT
HETATM    1  C1  UNL     1      -0.019  -2.418   2.885  1.00  0.00     0.133 A 
HETATM    2  C2  UNL     1       0.983  -3.270   2.391  1.00  0.00     0.023 A 
HETATM    3  C3  UNL     1       1.846  -2.828   1.371  1.00  0.00    -0.016 A 
HETATM    4  C4  UNL     1       1.705  -1.529   0.844  1.00  0.00     0.042 A 
HETATM    5  C5  UNL     1       0.701  -0.674   1.340  1.00  0.00     0.100 A 
HETATM    6  C6  UNL     1      -0.158  -1.123   2.358  1.00  0.00     0.052 A 
HETATM    7  C19 UNL     1       2.901  -3.748   0.863  1.00  0.00     0.031 C 
HETATM    8  O10 UNL     1      -0.828  -2.834   3.840  1.00  0.00    -0.190 OA
ENDROOT
BRANCH   5   9
HETATM    9  O1  UNL     1       0.555   0.545   0.858  1.00  0.00    -0.303 OA
BRANCH   9  10
HETATM   10  C7  UNL     1      -0.750   1.107   0.850  1.00  0.00     0.274 C 
HETATM   11  O2  UNL     1      -1.656   0.154   0.293  1.00  0.00    -0.326 OA
HETATM   12  C8  UNL     1      -2.791   0.672  -0.406  1.00  0.00     0.184 C 
HETATM   13  C9  UNL     1      -3.291   2.018   0.172  1.00  0.00     0.215 C 
HETATM   14  C10 UNL     1      -2.172   3.092   0.123  1.00  0.00     0.220 C 
HETATM   15  O5  UNL     1      -3.719   1.836   1.512  1.00  0.00    -0.218 OA
HETATM   16  C11 UNL     1      -0.766   2.439   0.068  1.00  0.00     0.241 C 
HETATM   17  O4  UNL     1      -2.344   3.891  -1.033  1.00  0.00    -0.218 OA
HETATM   18  O3  UNL     1       0.190   3.324   0.623  1.00  0.00    -0.215 OA
BRANCH  12  19
HETATM   19  C12 UNL     1      -3.859  -0.426  -0.435  1.00  0.00     0.214 C 
HETATM   20  O6  UNL     1      -4.832  -0.070  -1.391  1.00  0.00    -0.218 OA
ENDBRANCH  12  19
ENDBRANCH   9  10
ENDBRANCH   5   9
BRANCH   4  21
HETATM   21  C13 UNL     1       2.621  -1.051  -0.240  1.00  0.00     0.107 A 
HETATM   22  C14 UNL     1       2.057  -0.475  -1.328  1.00  0.00     0.049 A 
HETATM   23  C15 UNL     1       2.903   0.012  -2.424  1.00  0.00     0.101 A 
HETATM   24  C16 UNL     1       4.229  -0.139  -2.293  1.00  0.00     0.093 A 
HETATM   25  C17 UNL     1       4.770  -0.777  -1.076  1.00  0.00     0.302 A 
HETATM   26  O7  UNL     1       3.957  -1.217  -0.086  1.00  0.00    -0.273 OA
HETATM   27  O8  UNL     1       5.971  -0.893  -1.002  1.00  0.00    -0.259 OA
BRANCH  23  28
HETATM   28  O9  UNL     1       2.371   0.580  -3.504  1.00  0.00    -0.328 OA
HETATM   29  C18 UNL     1       1.313   1.471  -3.182  1.00  0.00     0.181 C 
ENDBRANCH  23  28
ENDBRANCH   4  21
TORSDOF 5
