REMARK  2 active torsions:
REMARK  status: ('A' for Active; 'I' for Inactive)
REMARK    1  A    between atoms: C7_8  and  C10_12 
REMARK    2  A    between atoms: C12_14  and  O4_19 
ROOT
HETATM    1  C1  UNL     1      -4.048   2.612  -0.035  1.00  0.00     0.133 A 
HETATM    2  C2  UNL     1      -3.530   3.906  -0.003  1.00  0.00     0.028 A 
HETATM    3  C3  UNL     1      -2.148   4.108   0.018  1.00  0.00     0.007 A 
HETATM    4  C4  UNL     1      -1.274   3.013   0.008  1.00  0.00     0.062 A 
HETATM    5  C5  UNL     1      -1.805   1.717  -0.024  1.00  0.00     0.105 A 
HETATM    6  C6  UNL     1      -3.185   1.516  -0.046  1.00  0.00     0.052 A 
HETATM    7  O1  UNL     1      -1.014   0.589  -0.036  1.00  0.00    -0.307 OA
HETATM    8  C7  UNL     1       0.350   0.758  -0.015  1.00  0.00     0.103 A 
HETATM    9  C8  UNL     1       0.978   1.939   0.016  1.00  0.00     0.067 A 
HETATM   10  C9  UNL     1       0.215   3.224   0.032  1.00  0.00     0.200 A 
HETATM   11  O2  UNL     1       0.738   4.313   0.060  1.00  0.00    -0.286 OA
HETATM   12  O5  UNL     1      -5.389   2.419  -0.057  1.00  0.00    -0.190 OA
ENDROOT
BRANCH   8  13
HETATM   13  C10 UNL     1       1.109  -0.343  -0.027  1.00  0.00     0.025 A 
HETATM   14  C11 UNL     1       0.509  -1.602  -0.060  1.00  0.00     0.028 A 
HETATM   15  C12 UNL     1       1.300  -2.751  -0.072  1.00  0.00     0.119 A 
HETATM   16  C13 UNL     1       2.690  -2.641  -0.052  1.00  0.00     0.153 A 
HETATM   17  C14 UNL     1       3.290  -1.382  -0.020  1.00  0.00     0.029 A 
HETATM   18  O3  UNL     1       3.458  -3.757  -0.065  1.00  0.00    -0.188 OA
HETATM   19  C15 UNL     1       2.499  -0.233  -0.007  1.00  0.00     0.004 A 
BRANCH  15  20
HETATM   20  O4  UNL     1       0.718  -3.974  -0.104  1.00  0.00    -0.326 OA
HETATM   21  C16 UNL     1       1.488  -5.123   0.123  1.00  0.00     0.181 C 
ENDBRANCH  15  20
ENDBRANCH   8  13
TORSDOF 2
