REMARK  0 active torsions:
REMARK  status: ('A' for Active; 'I' for Inactive)
ROOT
HETATM    1  C1  UNL     1      -3.154  -0.921   2.022  1.00  0.00     0.033 C 
HETATM    2  C2  UNL     1      -2.933  -2.415   1.993  1.00  0.00     0.152 C 
HETATM    3  C3  UNL     1      -2.108  -2.760   0.759  1.00  0.00     0.026 A 
HETATM    4  C4  UNL     1      -2.878  -2.364  -0.493  1.00  0.00     0.002 C 
HETATM    5  C5  UNL     1      -3.160  -0.868  -0.464  1.00  0.00     0.000 C 
HETATM    6  C6  UNL     1      -3.954  -0.524   0.789  1.00  0.00     0.003 C 
HETATM    7  C7  UNL     1      -1.842  -0.103  -0.455  1.00  0.00     0.000 C 
HETATM    8  C8  UNL     1      -0.683  -1.091  -0.410  1.00  0.00     0.000 A 
HETATM    9  C9  UNL     1      -0.710  -1.962  -1.658  1.00  0.00     0.000 C 
HETATM   10  C10 UNL     1      -2.050  -2.701  -1.726  1.00  0.00     0.000 C 
HETATM   11  C11 UNL     1       0.633  -0.326  -0.352  1.00  0.00     0.003 C 
HETATM   12  C12 UNL     1       0.356   1.169  -0.446  1.00  0.00     0.018 C 
HETATM   13  C13 UNL     1      -0.483   1.606   0.748  1.00  0.00     0.004 C 
HETATM   14  C14 UNL     1      -1.788   0.800   0.770  1.00  0.00     0.000 C 
HETATM   15  C15 UNL     1       1.652   1.917  -0.446  1.00  0.00    -0.049 C 
HETATM   16  C16 UNL     1       2.910   1.106  -0.446  1.00  0.00     0.015 C 
HETATM   17  C17 UNL     1       2.848   0.071  -1.562  1.00  0.00     0.004 C 
HETATM   18  C18 UNL     1       1.519  -0.752  -1.515  1.00  0.00     0.001 C 
HETATM   19  C19 UNL     1       4.106   2.023  -0.671  1.00  0.00     0.004 C 
HETATM   20  C20 UNL     1       3.995   3.235   0.246  1.00  0.00     0.004 C 
HETATM   21  C21 UNL     1       2.981   4.002  -0.434  1.00  0.00     0.018 C 
HETATM   22  C22 UNL     1       1.685   3.254  -0.434  1.00  0.00    -0.035 C 
HETATM   23  C23 UNL     1       2.794   5.334   0.281  1.00  0.00     0.004 C 
HETATM   24  C24 UNL     1       3.418   4.244  -1.873  1.00  0.00     0.004 C 
HETATM   25  C25 UNL     1       3.059   0.399   0.895  1.00  0.00     0.004 C 
HETATM   26  C26 UNL     1       1.339  -0.630   0.962  1.00  0.00     0.000 C 
HETATM   27  C27 UNL     1      -0.814  -1.970   0.827  1.00  0.00     0.002 A 
HETATM   28  C28 UNL     1      -3.964  -0.478  -1.698  1.00  0.00     0.000 C 
HETATM   29  C29 UNL     1      -1.835  -4.258   0.735  1.00  0.00     0.002 C 
HETATM   30  C30 UNL     1      -0.787  -2.003   0.804  1.00  0.00     0.002 A 
HETATM   31  O1  UNL     1      -2.244  -2.813   3.147  1.00  0.00    -0.224 OA
ENDROOT
TORSDOF 0
