REMARK  1 active torsions:
REMARK  status: ('A' for Active; 'I' for Inactive)
REMARK    1  A    between atoms: C9_9  and  C10_10 
ROOT
HETATM    1  C1  UNL     1      -1.919   0.464   2.826  1.00  0.00     0.033 C 
HETATM    2  C2  UNL     1      -2.773  -0.504   1.806  1.00  0.00     0.157 C 
HETATM    3  C3  UNL     1      -1.958  -1.289   0.787  1.00  0.00     0.086 C 
HETATM    4  C4  UNL     1      -0.522  -0.781   0.787  1.00  0.00     0.022 C 
HETATM    5  C5  UNL     1      -0.522   0.742   0.787  1.00  0.00     0.059 C 
HETATM    6  C6  UNL     1      -0.773   1.249   2.201  1.00  0.00     0.008 C 
HETATM    7  C7  UNL     1       0.893   1.110   0.359  1.00  0.00     0.006 C 
HETATM    8  C8  UNL     1       1.273   0.020  -0.634  1.00  0.00     0.014 C 
HETATM    9  C9  UNL     1       0.147  -1.150  -0.530  1.00  0.00     0.088 C 
HETATM   10  C11 UNL     1       1.278   0.597  -2.043  1.00  0.00     0.005 C 
HETATM   11  C12 UNL     1       2.523   1.472  -2.079  1.00  0.00     0.018 C 
HETATM   12  C13 UNL     1       2.230   2.801  -1.395  1.00  0.00     0.004 C 
HETATM   13  C14 UNL     1       0.874   2.458  -0.349  1.00  0.00     0.001 C 
HETATM   14  C15 UNL     1       3.527   0.707  -1.274  1.00  0.00    -0.044 C 
HETATM   15  C16 UNL     1       2.635  -0.552  -0.263  1.00  0.00     0.022 C 
HETATM   16  C17 UNL     1       4.849   0.904  -1.286  1.00  0.00    -0.009 C 
HETATM   17  C18 UNL     1      -1.581   1.331  -0.111  1.00  0.00     0.301 C 
HETATM   18  O3  UNL     1      -1.706   2.659  -0.216  1.00  0.00    -0.187 OA
HETATM   19  O4  UNL     1      -2.317   0.604  -0.734  1.00  0.00    -0.187 OA
HETATM   20  C19 UNL     1      -2.556  -1.104  -0.586  1.00  0.00     0.303 C 
HETATM   21  O5  UNL     1      -2.997  -2.165  -1.272  1.00  0.00    -0.187 OA
HETATM   22  O6  UNL     1      -2.637   0.002  -1.065  1.00  0.00    -0.187 OA
HETATM   23  C20 UNL     1      -1.974  -2.767   1.154  1.00  0.00     0.008 C 
HETATM   24  O7  UNL     1      -3.484  -1.426   2.587  1.00  0.00    -0.223 OA
ENDROOT
BRANCH   9  25
HETATM   25  C10 UNL     1       0.774  -2.521  -0.471  1.00  0.00     0.185 C 
HETATM   26  O1  UNL     1       0.431  -3.453  -1.367  1.00  0.00    -0.647 OA
HETATM   27  O2  UNL     1       1.586  -2.777   0.386  1.00  0.00    -0.647 OA
ENDBRANCH   9  25
TORSDOF 1
