REMARK  26 active torsions:
REMARK  status: ('A' for Active; 'I' for Inactive)
REMARK    1  A    between atoms: C1_1  and  C2_2 
REMARK    2  A    between atoms: C1_1  and  C16_16 
REMARK    3  A    between atoms: C2_2  and  C3_3 
REMARK    4  A    between atoms: C3_3  and  C4_4 
REMARK    5  A    between atoms: C4_4  and  C5_5 
REMARK    6  A    between atoms: C5_5  and  C6_6 
REMARK    7  A    between atoms: C6_6  and  C7_7 
REMARK    8  A    between atoms: C7_7  and  C8_8 
REMARK    9  A    between atoms: C8_8  and  C9_9 
REMARK   10  A    between atoms: C9_9  and  C10_10 
REMARK   11  A    between atoms: C10_10  and  C11_11 
REMARK   12  A    between atoms: C11_11  and  C12_12 
REMARK   13  A    between atoms: C12_12  and  C13_13 
REMARK   14  A    between atoms: C13_13  and  C14_14 
REMARK   15  A    between atoms: C16_16  and  C17_17 
REMARK   16  A    between atoms: C17_17  and  C18_18 
REMARK   17  A    between atoms: C18_18  and  C19_19 
REMARK   18  A    between atoms: C19_19  and  C20_21 
REMARK   19  A    between atoms: C21_23  and  C22_24 
REMARK   20  A    between atoms: C22_24  and  C23_25 
REMARK   21  A    between atoms: C23_25  and  C24_26 
REMARK   22  A    between atoms: C24_26  and  C25_27 
REMARK   23  A    between atoms: C25_27  and  C26_28 
REMARK   24  A    between atoms: C26_28  and  C27_29 
REMARK   25  A    between atoms: C27_29  and  C28_30 
REMARK   26  A    between atoms: C28_30  and  C29_31 
ROOT
HETATM    1  C19 UNL     1      -0.921   0.684   1.155  1.00  0.00     0.179 C 
HETATM    2  O1  UNL     1       0.022   0.197   2.071  1.00  0.00    -0.221 OA
ENDROOT
BRANCH   1   3
HETATM    3  C18 UNL     1      -0.311   0.705  -0.240  1.00  0.00     0.038 C 
BRANCH   3   4
HETATM    4  C17 UNL     1       0.099  -0.707  -0.637  1.00  0.00     0.038 C 
BRANCH   4   5
HETATM    5  C16 UNL     1       0.709  -0.686  -2.033  1.00  0.00     0.182 C 
HETATM    6  O5  UNL     1      -0.045  -1.506  -2.884  1.00  0.00    -0.221 OA
BRANCH   5   7
HETATM    7  C1  UNL     1       2.140  -1.202  -1.969  1.00  0.00     0.182 C 
HETATM    8  O6  UNL     1       2.264  -2.337  -2.783  1.00  0.00    -0.221 OA
BRANCH   7   9
HETATM    9  C2  UNL     1       3.093  -0.119  -2.460  1.00  0.00     0.036 C 
BRANCH   9  10
HETATM   10  C3  UNL     1       4.072   0.238  -1.350  1.00  0.00     0.003 C 
BRANCH  10  11
HETATM   11  C4  UNL     1       5.024   1.321  -1.842  1.00  0.00     0.000 C 
BRANCH  11  12
HETATM   12  C5  UNL     1       6.004   1.678  -0.732  1.00  0.00     0.000 C 
BRANCH  12  13
HETATM   13  C6  UNL     1       6.801   0.441  -0.340  1.00  0.00     0.000 C 
BRANCH  13  14
HETATM   14  C7  UNL     1       7.781   0.798   0.770  1.00  0.00     0.000 C 
BRANCH  14  15
HETATM   15  C8  UNL     1       8.579  -0.439   1.162  1.00  0.00     0.000 C 
BRANCH  15  16
HETATM   16  C9  UNL     1       9.558  -0.082   2.272  1.00  0.00     0.000 C 
BRANCH  16  17
HETATM   17  C10 UNL     1      10.356  -1.319   2.664  1.00  0.00     0.000 C 
BRANCH  17  18
HETATM   18  C11 UNL     1      11.336  -0.961   3.774  1.00  0.00     0.000 C 
BRANCH  18  19
HETATM   19  C12 UNL     1      12.133  -2.198   4.166  1.00  0.00     0.000 C 
BRANCH  19  20
HETATM   20  C13 UNL     1      13.113  -1.841   5.276  1.00  0.00     0.000 C 
BRANCH  20  21
HETATM   21  C14 UNL     1      13.910  -3.078   5.667  1.00  0.00     0.000 C 
HETATM   22  C15 UNL     1      12.959  -4.161   6.160  1.00  0.00     0.000 C 
ENDBRANCH  20  21
ENDBRANCH  19  20
ENDBRANCH  18  19
ENDBRANCH  17  18
ENDBRANCH  16  17
ENDBRANCH  15  16
ENDBRANCH  14  15
ENDBRANCH  13  14
ENDBRANCH  12  13
ENDBRANCH  11  12
ENDBRANCH  10  11
ENDBRANCH   9  10
ENDBRANCH   7   9
ENDBRANCH   5   7
ENDBRANCH   4   5
ENDBRANCH   3   4
ENDBRANCH   1   3
BRANCH   1  23
HETATM   23  C20 UNL     1      -2.146  -0.221   1.159  1.00  0.00     0.145 C 
HETATM   24  O2  UNL     1      -3.134   0.281   0.247  1.00  0.00    -0.357 OA
HETATM   25  C21 UNL     1      -4.401   0.307   0.920  1.00  0.00     0.115 C 
HETATM   26  C34 UNL     1      -4.232  -0.482   2.200  1.00  0.00     0.032 C 
HETATM   27  C35 UNL     1      -2.784  -0.229   2.531  1.00  0.00     0.035 C 
BRANCH  25  28
HETATM   28  C22 UNL     1      -5.471  -0.334   0.046  1.00  0.00     0.030 C 
BRANCH  28  29
HETATM   29  C23 UNL     1      -6.582   0.674  -0.219  1.00  0.00     0.003 C 
BRANCH  29  30
HETATM   30  C24 UNL     1      -7.652   0.033  -1.093  1.00  0.00     0.000 C 
BRANCH  30  31
HETATM   31  C25 UNL     1      -8.762   1.040  -1.359  1.00  0.00     0.000 C 
BRANCH  31  32
HETATM   32  C26 UNL     1      -9.833   0.399  -2.232  1.00  0.00     0.000 C 
BRANCH  32  33
HETATM   33  C27 UNL     1     -10.943   1.407  -2.498  1.00  0.00     0.005 C 
BRANCH  33  34
HETATM   34  C28 UNL     1     -12.013   0.765  -3.371  1.00  0.00     0.032 C 
BRANCH  34  35
HETATM   35  C29 UNL     1     -13.105   1.756  -3.633  1.00  0.00     0.039 A 
HETATM   36  C30 UNL     1     -14.193   1.520  -4.362  1.00  0.00     0.004 A 
HETATM   37  C31 UNL     1     -15.046   2.730  -4.399  1.00  0.00     0.146 A 
HETATM   38  O3  UNL     1     -14.356   3.719  -3.615  1.00  0.00    -0.297 OA
HETATM   39  C33 UNL     1     -15.217   3.214  -5.832  1.00  0.00     0.038 C 
HETATM   40  C32 UNL     1     -13.135   3.144  -3.118  1.00  0.00     0.292 A 
HETATM   41  O4  UNL     1     -12.305   3.683  -2.425  1.00  0.00    -0.260 OA
ENDBRANCH  34  35
ENDBRANCH  33  34
ENDBRANCH  32  33
ENDBRANCH  31  32
ENDBRANCH  30  31
ENDBRANCH  29  30
ENDBRANCH  28  29
ENDBRANCH  25  28
ENDBRANCH   1  23
TORSDOF 26
