REMARK  1 active torsions:
REMARK  status: ('A' for Active; 'I' for Inactive)
REMARK    1  A    between atoms: C12_17  and  C16_23 
ROOT
HETATM    1  C1  UNL     1      -2.098   0.091   0.532  1.00  0.00     0.088 C 
HETATM    2  C2  UNL     1      -2.052  -1.196  -0.255  1.00  0.00     0.152 A 
HETATM    3  O1  UNL     1      -1.953  -2.140   0.600  1.00  0.00     0.000 OA
HETATM    4  C3  UNL     1      -1.483  -1.800   1.876  1.00  0.00     0.034 A 
HETATM    5  C4  UNL     1      -1.483  -0.277   1.876  1.00  0.00     0.162 C 
HETATM    6  C5  UNL     1      -0.005   0.091   1.876  1.00  0.00     0.176 C 
HETATM    7  C6  UNL     1       0.621  -0.894   0.898  1.00  0.00     0.043 C 
HETATM    8  C7  UNL     1       1.352  -1.887   1.792  1.00  0.00     0.006 C 
HETATM    9  C8  UNL     1       1.636  -0.058   0.131  1.00  0.00     0.061 C 
HETATM   10  C9  UNL     1       1.344   1.371   0.571  1.00  0.00     0.145 C 
HETATM   11  O2  UNL     1       0.120   1.331   1.235  1.00  0.00    -0.349 OA
HETATM   12  O3  UNL     1       0.956   2.017  -0.611  1.00  0.00     0.000 OA
HETATM   13  C10 UNL     1       1.776   1.513  -1.540  1.00  0.00     0.148 A 
HETATM   14  C11 UNL     1       3.033  -0.332   0.672  1.00  0.00     0.181 C 
HETATM   15  O4  UNL     1       3.742  -1.500   0.361  1.00  0.00    -0.221 OA
HETATM   16  O5  UNL     1       1.956   1.690  -2.722  1.00  0.00    -0.354 OA
HETATM   17  C12 UNL     1       1.231  -0.232  -1.327  1.00  0.00     0.010 C 
HETATM   18  C13 UNL     1       0.231  -1.856  -1.267  1.00  0.00     0.008 C 
HETATM   19  C14 UNL     1      -0.484  -1.156  -0.118  1.00  0.00     0.060 A 
HETATM   20  O6  UNL     1      -1.303  -2.105   0.509  1.00  0.00     0.000 OA
HETATM   21  C15 UNL     1       0.570  -0.308   3.213  1.00  0.00     0.236 C 
HETATM   22  O7  UNL     1       1.146  -0.167   4.265  1.00  0.00    -0.286 OA
HETATM   23  C16 UNL     1       0.371   0.930  -1.806  1.00  0.00     0.051 A 
HETATM   24  C17 UNL     1       1.018   1.571  -3.027  1.00  0.00     0.145 A 
HETATM   25  C18 UNL     1       0.250   1.963  -0.694  1.00  0.00     0.005 C 
HETATM   26  C19 UNL     1      -1.015   0.419  -2.176  1.00  0.00     0.005 C 
HETATM   27  O8  UNL     1      -2.162   0.342   2.935  1.00  0.00    -0.223 OA
HETATM   28  O9  UNL     1      -2.101  -1.310  -1.456  1.00  0.00    -0.296 OA
HETATM   29  C20 UNL     1      -3.534   0.568   0.708  1.00  0.00     0.010 C 
ENDROOT
TORSDOF 1
