REMARK  7 active torsions:
REMARK  status: ('A' for Active; 'I' for Inactive)
REMARK    1  A    between atoms: C2_2  and  O8_43 
REMARK    2  A    between atoms: C16_16  and  O1_17 
REMARK    3  A    between atoms: O1_17  and  C17_18 
REMARK    4  A    between atoms: C18_20  and  C22_27 
REMARK    5  A    between atoms: C24_30  and  C28_35 
REMARK    6  A    between atoms: O8_43  and  C36_44 
REMARK    7  A    between atoms: C37_46  and  C41_53 
ROOT
HETATM    1  C1  UNL     1      -4.170  -1.271  -3.441  1.00  0.00     0.027 C 
HETATM    2  C2  UNL     1      -4.841  -1.544  -2.134  1.00  0.00     0.095 C 
HETATM    3  C3  UNL     1      -3.902  -2.677  -1.740  1.00  0.00     0.023 C 
HETATM    4  C4  UNL     1      -2.466  -2.169  -1.740  1.00  0.00     0.002 C 
HETATM    5  C5  UNL     1      -2.466  -0.646  -1.740  1.00  0.00     0.000 C 
HETATM    6  C6  UNL     1      -3.303  -0.139  -2.907  1.00  0.00     0.002 C 
HETATM    7  C7  UNL     1      -1.037  -0.139  -1.881  1.00  0.00     0.002 C 
HETATM    8  C8  UNL     1      -0.086  -1.323  -1.985  1.00  0.00     0.000 C 
HETATM    9  C9  UNL     1      -0.336  -2.062  -3.293  1.00  0.00     0.000 C 
HETATM   10  C10 UNL     1      -1.748  -2.677  -2.984  1.00  0.00     0.000 C 
HETATM   11  C11 UNL     1      -0.322  -2.269  -0.815  1.00  0.00     0.000 C 
HETATM   12  C12 UNL     1       1.353  -0.824  -1.951  1.00  0.00     0.002 C 
HETATM   13  C13 UNL     1       2.301  -1.989  -2.201  1.00  0.00     0.000 C 
HETATM   14  C14 UNL     1       3.769  -1.491  -0.989  1.00  0.00     0.003 C 
HETATM   15  C15 UNL     1       3.203  -0.136  -0.585  1.00  0.00     0.030 C 
HETATM   16  C16 UNL     1       3.702   0.228   0.807  1.00  0.00     0.121 C 
HETATM   17  C23 UNL     1       3.482   1.714   1.053  1.00  0.00     0.064 C 
HETATM   18  C24 UNL     1       2.565   2.549  -0.479  1.00  0.00     0.139 C 
HETATM   19  O7  UNL     1       1.505   1.911  -1.138  1.00  0.00    -0.355 OA
HETATM   20  C25 UNL     1       0.993   0.955  -0.250  1.00  0.00     0.116 C 
HETATM   21  C26 UNL     1      -0.673   0.699  -0.662  1.00  0.00     0.030 C 
HETATM   22  C27 UNL     1       1.697  -0.364  -0.541  1.00  0.00     0.030 C 
HETATM   23  C32 UNL     1       1.486   0.285  -2.987  1.00  0.00     0.000 C 
HETATM   24  C33 UNL     1      -3.058  -0.139  -0.432  1.00  0.00     0.000 C 
HETATM   25  C34 UNL     1      -4.264  -3.174  -0.347  1.00  0.00     0.002 C 
HETATM   26  C35 UNL     1      -4.037  -3.819  -2.739  1.00  0.00     0.002 C 
HETATM   27  C42 UNL     1      -6.335  -1.836  -2.152  1.00  0.00     0.030 C 
ENDROOT
BRANCH   2  28
HETATM   28  O8  UNL     1      -4.785  -0.456  -1.253  1.00  0.00    -0.334 OA
BRANCH  28  29
HETATM   29  C36 UNL     1      -5.369  -0.552   0.018  1.00  0.00     0.270 C 
HETATM   30  O9  UNL     1      -6.387   0.441   0.141  1.00  0.00    -0.326 OA
HETATM   31  C37 UNL     1      -7.054   0.376   1.401  1.00  0.00     0.184 C 
HETATM   32  C38 UNL     1      -6.076   0.626   2.543  1.00  0.00     0.215 C 
HETATM   33  C39 UNL     1      -4.907  -0.350   2.475  1.00  0.00     0.220 C 
HETATM   34  O12 UNL     1      -6.744   0.459   3.764  1.00  0.00    -0.218 OA
HETATM   35  C40 UNL     1      -4.293  -0.356   1.078  1.00  0.00     0.241 C 
HETATM   36  O11 UNL     1      -3.931   0.035   3.405  1.00  0.00    -0.218 OA
HETATM   37  O10 UNL     1      -3.365  -1.403   0.989  1.00  0.00    -0.215 OA
BRANCH  31  38
HETATM   38  C41 UNL     1      -8.149   1.434   1.442  1.00  0.00     0.214 C 
HETATM   39  O13 UNL     1      -9.393   0.813   1.621  1.00  0.00    -0.218 OA
ENDBRANCH  31  38
ENDBRANCH  28  29
ENDBRANCH   2  28
BRANCH  18  40
HETATM   40  C28 UNL     1       2.029   3.857   0.013  1.00  0.00    -0.005 C 
HETATM   41  C29 UNL     1       2.505   5.004  -0.483  1.00  0.00    -0.045 C 
HETATM   42  C30 UNL     1       3.575   4.980  -1.529  1.00  0.00     0.026 C 
HETATM   43  C31 UNL     1       1.968   6.312   0.009  1.00  0.00     0.026 C 
ENDBRANCH  18  40
BRANCH  16  44
HETATM   44  O1  UNL     1       5.070  -0.064   0.903  1.00  0.00    -0.331 OA
BRANCH  44  45
HETATM   45  C17 UNL     1       5.758   0.188   2.099  1.00  0.00     0.270 C 
HETATM   46  O2  UNL     1       6.803   1.127   1.848  1.00  0.00    -0.326 OA
HETATM   47  C18 UNL     1       7.524   1.459   3.035  1.00  0.00     0.184 C 
HETATM   48  C19 UNL     1       8.194   0.224   3.623  1.00  0.00     0.215 C 
HETATM   49  C20 UNL     1       7.169  -0.876   3.878  1.00  0.00     0.220 C 
HETATM   50  O5  UNL     1       8.810   0.569   4.835  1.00  0.00    -0.218 OA
HETATM   51  C21 UNL     1       6.325  -1.122   2.632  1.00  0.00     0.241 C 
HETATM   52  O4  UNL     1       7.840  -2.059   4.221  1.00  0.00    -0.218 OA
HETATM   53  O3  UNL     1       5.267  -1.982   2.957  1.00  0.00    -0.215 OA
BRANCH  47  54
HETATM   54  C22 UNL     1       8.590   2.493   2.698  1.00  0.00     0.214 C 
HETATM   55  O6  UNL     1       8.357   3.663   3.435  1.00  0.00    -0.218 OA
ENDBRANCH  47  54
ENDBRANCH  44  45
ENDBRANCH  16  44
TORSDOF 7
