REMARK  3 active torsions:
REMARK  status: ('A' for Active; 'I' for Inactive)
REMARK    1  A    between atoms: C10_11  and  C11_12 
REMARK    2  A    between atoms: C12_14  and  C16_21 
REMARK    3  A    between atoms: C18_24  and  C21_28 
ROOT
HETATM    1  C1  UNL     1       4.320   1.074  -2.670  1.00  0.00     0.028 A 
HETATM    2  C2  UNL     1       4.354  -0.213  -2.096  1.00  0.00     0.002 A 
HETATM    3  C3  UNL     1       3.174  -0.779  -1.568  1.00  0.00    -0.004 A 
HETATM    4  C4  UNL     1       1.945  -0.068  -1.609  1.00  0.00    -0.011 A 
HETATM    5  C5  UNL     1       1.904   1.225  -2.211  1.00  0.00     0.061 A 
HETATM    6  C6  UNL     1       3.106   1.793  -2.727  1.00  0.00     0.134 A 
HETATM    7  O1  UNL     1       3.111   3.014  -3.285  1.00  0.00    -0.190 OA
HETATM    8  C7  UNL     1       0.617   1.990  -2.313  1.00  0.00     0.199 C 
HETATM    9  C8  UNL     1      -0.623   1.266  -1.877  1.00  0.00     0.061 A 
HETATM   10  C9  UNL     1      -0.549  -0.029  -1.281  1.00  0.00    -0.011 A 
HETATM   11  C10 UNL     1       0.744  -0.711  -1.006  1.00  0.00     0.075 C 
HETATM   12  C17 UNL     1      -1.748  -0.699  -0.920  1.00  0.00    -0.005 A 
HETATM   13  C18 UNL     1      -3.008  -0.092  -1.127  1.00  0.00     0.012 A 
HETATM   14  C19 UNL     1      -3.078   1.197  -1.695  1.00  0.00     0.026 A 
HETATM   15  C20 UNL     1      -1.897   1.875  -2.068  1.00  0.00     0.134 A 
HETATM   16  O7  UNL     1      -2.008   3.098  -2.609  1.00  0.00    -0.190 OA
HETATM   17  O9  UNL     1       0.580   3.127  -2.734  1.00  0.00    -0.286 OA
ENDROOT
BRANCH  11  18
HETATM   18  C11 UNL     1       0.941  -0.871   0.510  1.00  0.00     0.156 C 
HETATM   19  O2  UNL     1       0.203  -2.031   0.895  1.00  0.00    -0.350 OA
HETATM   20  C12 UNL     1      -0.227  -2.123   2.258  1.00  0.00     0.181 C 
HETATM   21  C13 UNL     1       0.676  -1.332   3.236  1.00  0.00     0.214 C 
HETATM   22  C14 UNL     1       0.803   0.160   2.834  1.00  0.00     0.217 C 
HETATM   23  O5  UNL     1       1.961  -1.930   3.266  1.00  0.00    -0.218 OA
HETATM   24  C15 UNL     1       0.514   0.367   1.326  1.00  0.00     0.212 C 
HETATM   25  O4  UNL     1      -0.123   0.928   3.584  1.00  0.00    -0.218 OA
HETATM   26  O3  UNL     1       1.219   1.506   0.865  1.00  0.00    -0.218 OA
BRANCH  20  27
HETATM   27  C16 UNL     1      -1.682  -1.644   2.307  1.00  0.00     0.214 C 
HETATM   28  O6  UNL     1      -2.191  -1.916   3.594  1.00  0.00    -0.218 OA
ENDBRANCH  20  27
ENDBRANCH  11  18
BRANCH  13  29
HETATM   29  C21 UNL     1      -4.238  -0.801  -0.746  1.00  0.00     0.209 C 
HETATM   30  O8  UNL     1      -4.611  -0.430   0.561  1.00  0.00    -0.215 OA
ENDBRANCH  13  29
TORSDOF 3
