REMARK  7 active torsions:
REMARK  status: ('A' for Active; 'I' for Inactive)
REMARK    1  A    between atoms: C10_10  and  O1_11 
REMARK    2  A    between atoms: O1_11  and  C11_12 
REMARK    3  A    between atoms: C15_16  and  C16_18 
REMARK    4  A    between atoms: C21_28  and  C24_31 
REMARK    5  A    between atoms: C24_31  and  C25_32 
REMARK    6  A    between atoms: C25_32  and  C26_33 
REMARK    7  A    between atoms: C26_33  and  C27_34 
ROOT
HETATM    1  C1  UNL     1       4.947   0.400   2.145  1.00  0.00     0.033 C 
HETATM    2  C2  UNL     1       5.637   0.105   0.799  1.00  0.00     0.152 C 
HETATM    3  C3  UNL     1       4.871  -0.924  -0.076  1.00  0.00     0.030 C 
HETATM    4  C4  UNL     1       3.400  -0.434  -0.201  1.00  0.00     0.030 C 
HETATM    5  C5  UNL     1       2.666  -0.240   1.168  1.00  0.00     0.003 C 
HETATM    6  C6  UNL     1       3.475   0.814   1.961  1.00  0.00     0.003 C 
HETATM    7  C7  UNL     1       1.158   0.143   0.949  1.00  0.00     0.003 C 
HETATM    8  C8  UNL     1       0.834   0.691  -0.471  1.00  0.00     0.003 C 
HETATM    9  C9  UNL     1       1.260  -0.311  -1.588  1.00  0.00     0.030 C 
HETATM   10  C10 UNL     1       2.520  -1.146  -1.252  1.00  0.00     0.118 C 
HETATM   11  C17 UNL     1      -0.703   0.928  -0.557  1.00  0.00     0.003 C 
HETATM   12  C18 UNL     1      -1.170   1.930   0.514  1.00  0.00     0.033 C 
HETATM   13  C19 UNL     1      -0.930   1.328   1.906  1.00  0.00     0.152 C 
HETATM   14  C20 UNL     1       0.578   1.043   2.068  1.00  0.00     0.033 C 
HETATM   15  O7  UNL     1      -1.336   2.246   2.902  1.00  0.00    -0.224 OA
HETATM   16  C21 UNL     1      -2.621   2.213   0.109  1.00  0.00     0.031 C 
HETATM   17  C22 UNL     1      -2.563   2.246  -1.424  1.00  0.00     0.003 C 
HETATM   18  C23 UNL     1      -1.217   1.629  -1.822  1.00  0.00     0.000 C 
HETATM   19  C32 UNL     1      -1.504  -0.381  -0.441  1.00  0.00     0.000 C 
HETATM   20  C33 UNL     1       1.537   2.047  -0.682  1.00  0.00     0.000 C 
HETATM   21  C34 UNL     1       2.676  -1.531   2.006  1.00  0.00     0.000 C 
HETATM   22  C35 UNL     1       4.949  -2.340   0.516  1.00  0.00     0.003 C 
HETATM   23  C36 UNL     1       5.523  -0.967  -1.467  1.00  0.00     0.003 C 
HETATM   24  O9  UNL     1       6.961  -0.328   1.047  1.00  0.00    -0.224 OA
ENDROOT
BRANCH  10  25
HETATM   25  O1  UNL     1       2.137  -2.428  -0.785  1.00  0.00    -0.332 OA
BRANCH  25  26
HETATM   26  C11 UNL     1       2.158  -3.416  -1.795  1.00  0.00     0.270 C 
HETATM   27  C12 UNL     1       1.812  -4.805  -1.201  1.00  0.00     0.241 C 
HETATM   28  C13 UNL     1       1.680  -5.867  -2.316  1.00  0.00     0.220 C 
HETATM   29  O6  UNL     1       2.834  -5.197  -0.297  1.00  0.00    -0.215 OA
HETATM   30  C14 UNL     1       0.736  -5.354  -3.424  1.00  0.00     0.215 C 
HETATM   31  O5  UNL     1       1.170  -7.074  -1.772  1.00  0.00    -0.218 OA
HETATM   32  C15 UNL     1       1.146  -3.943  -3.904  1.00  0.00     0.184 C 
HETATM   33  O4  UNL     1       0.770  -6.236  -4.531  1.00  0.00    -0.218 OA
HETATM   34  O2  UNL     1       1.205  -3.064  -2.789  1.00  0.00    -0.326 OA
BRANCH  32  35
HETATM   35  C16 UNL     1       0.148  -3.332  -4.893  1.00  0.00     0.214 C 
HETATM   36  O3  UNL     1       0.699  -2.137  -5.395  1.00  0.00    -0.218 OA
ENDBRANCH  32  35
ENDBRANCH  25  26
ENDBRANCH  10  25
BRANCH  16  37
HETATM   37  C24 UNL     1      -3.156   3.520   0.687  1.00  0.00     0.127 C 
HETATM   38  O8  UNL     1      -2.065   4.385   0.906  1.00  0.00    -0.226 OA
HETATM   39  C31 UNL     1      -4.102   4.174  -0.320  1.00  0.00     0.033 C 
BRANCH  37  40
HETATM   40  C25 UNL     1      -3.826   3.246   2.035  1.00  0.00     0.035 C 
BRANCH  40  41
HETATM   41  C26 UNL     1      -5.344   3.426   1.984  1.00  0.00     0.028 C 
BRANCH  41  42
HETATM   42  C27 UNL     1      -6.033   2.824   3.180  1.00  0.00    -0.035 C 
HETATM   43  C28 UNL     1      -7.283   3.223   3.467  1.00  0.00    -0.048 C 
HETATM   44  C29 UNL     1      -7.951   2.664   4.695  1.00  0.00     0.026 C 
HETATM   45  C30 UNL     1      -7.951   4.207   2.547  1.00  0.00     0.026 C 
ENDBRANCH  41  42
ENDBRANCH  40  41
ENDBRANCH  37  40
ENDBRANCH  16  37
TORSDOF 7
