REMARK  2 active torsions:
REMARK  status: ('A' for Active; 'I' for Inactive)
REMARK    1  A    between atoms: C6_6  and  O1_7 
REMARK    2  A    between atoms: C10_11  and  C11_13 
ROOT
HETATM    1  C1  UNL     1      -3.447   1.150   0.777  1.00  0.00     0.052 A 
HETATM    2  C2  UNL     1      -3.558  -0.141   0.211  1.00  0.00     0.135 A 
HETATM    3  C3  UNL     1      -2.394  -0.846  -0.178  1.00  0.00     0.052 A 
HETATM    4  C4  UNL     1      -1.117  -0.264  -0.002  1.00  0.00     0.101 A 
HETATM    5  C5  UNL     1      -1.010   1.049   0.533  1.00  0.00     0.079 A 
HETATM    6  C6  UNL     1      -2.176   1.748   0.941  1.00  0.00     0.101 A 
HETATM    7  C8  UNL     1       0.336   1.684   0.650  1.00  0.00     0.180 C 
HETATM    8  C9  UNL     1       1.490   0.902   0.057  1.00  0.00     0.104 C 
HETATM    9  C10 UNL     1       1.266  -0.617   0.170  1.00  0.00     0.151 C 
HETATM   10  O2  UNL     1      -0.021  -0.975  -0.348  1.00  0.00    -0.328 OA
HETATM   11  O3  UNL     1       0.594   2.750   1.160  1.00  0.00    -0.291 OA
HETATM   12  O4  UNL     1      -4.766  -0.697   0.047  1.00  0.00    -0.190 OA
ENDROOT
BRANCH   9  13
HETATM   13  C11 UNL     1       2.313  -1.398  -0.543  1.00  0.00     0.005 A 
HETATM   14  C12 UNL     1       3.276  -2.115   0.187  1.00  0.00    -0.002 A 
HETATM   15  C13 UNL     1       4.264  -2.854  -0.486  1.00  0.00    -0.000 A 
HETATM   16  C14 UNL     1       4.289  -2.875  -1.891  1.00  0.00    -0.000 A 
HETATM   17  C15 UNL     1       3.326  -2.158  -2.623  1.00  0.00    -0.000 A 
HETATM   18  C16 UNL     1       2.338  -1.420  -1.949  1.00  0.00    -0.002 A 
ENDBRANCH   9  13
BRANCH   6  19
HETATM   19  O1  UNL     1      -2.094   2.977   1.473  1.00  0.00    -0.328 OA
HETATM   20  C7  UNL     1      -3.303   3.643   1.803  1.00  0.00     0.181 C 
ENDBRANCH   6  19
TORSDOF 2
