REMARK  1 active torsions:
REMARK  status: ('A' for Active; 'I' for Inactive)
REMARK    1  A    between atoms: C15_15  and  C18_19 
ROOT
HETATM    1  C1  UNL     1       4.543   0.287   1.576  1.00  0.00     0.033 C 
HETATM    2  C2  UNL     1       5.262  -0.158   0.287  1.00  0.00     0.152 C 
HETATM    3  C3  UNL     1       4.529  -1.324  -0.391  1.00  0.00     0.033 C 
HETATM    4  C4  UNL     1       3.104  -0.924  -0.832  1.00  0.00     0.003 C 
HETATM    5  C5  UNL     1       2.404   0.094   0.133  1.00  0.00     0.000 C 
HETATM    6  C6  UNL     1       3.031  -0.012   1.545  1.00  0.00     0.003 C 
HETATM    7  C7  UNL     1       0.861  -0.164   0.227  1.00  0.00     0.002 C 
HETATM    8  C8  UNL     1       0.258  -0.541  -1.148  1.00  0.00     0.028 C 
HETATM    9  C9  UNL     1       0.904  -1.826  -1.727  1.00  0.00     0.002 C 
HETATM   10  C10 UNL     1       2.252  -2.174  -1.082  1.00  0.00     0.000 C 
HETATM   11  C11 UNL     1      -1.291  -0.656  -1.141  1.00  0.00     0.129 C 
HETATM   12  C12 UNL     1      -2.006   0.527  -0.441  1.00  0.00     0.032 C 
HETATM   13  C13 UNL     1      -1.404   0.766   0.961  1.00  0.00     0.003 C 
HETATM   14  C14 UNL     1       0.102   1.018   0.867  1.00  0.00     0.000 C 
HETATM   15  C15 UNL     1      -3.459   0.023  -0.344  1.00  0.00     0.054 C 
HETATM   16  C16 UNL     1      -3.283  -1.447   0.072  1.00  0.00     0.158 C 
HETATM   17  C17 UNL     1      -1.875  -1.863  -0.383  1.00  0.00     0.064 C 
HETATM   18  O1  UNL     1      -4.270  -2.254  -0.545  1.00  0.00    -0.223 OA
HETATM   19  C22 UNL     1      -1.961   1.814  -1.270  1.00  0.00     0.003 C 
HETATM   20  O4  UNL     1      -1.717  -0.750  -2.496  1.00  0.00    -0.226 OA
HETATM   21  C23 UNL     1       2.660   1.514  -0.404  1.00  0.00     0.000 C 
HETATM   22  O5  UNL     1       6.590  -0.539   0.586  1.00  0.00    -0.224 OA
ENDROOT
BRANCH  15  23
HETATM   23  C18 UNL     1      -4.352   0.812   0.586  1.00  0.00    -0.007 A 
HETATM   24  C19 UNL     1      -4.951   0.352   1.682  1.00  0.00     0.062 A 
HETATM   25  C20 UNL     1      -5.703   1.457   2.256  1.00  0.00     0.296 A 
HETATM   26  O2  UNL     1      -5.553   2.564   1.516  1.00  0.00    -0.294 OA
HETATM   27  O3  UNL     1      -6.361   1.361   3.264  1.00  0.00    -0.259 OA
HETATM   28  C21 UNL     1      -4.695   2.266   0.400  1.00  0.00     0.175 A 
ENDBRANCH  15  23
TORSDOF 1
