REMARK  7 active torsions:
REMARK  status: ('A' for Active; 'I' for Inactive)
REMARK    1  A    between atoms: C2_2  and  O5_28 
REMARK    2  A    between atoms: C15_15  and  C18_19 
REMARK    3  A    between atoms: O5_28  and  C24_29 
REMARK    4  A    between atoms: C26_32  and  O8_36 
REMARK    5  A    between atoms: O8_36  and  C29_37 
REMARK    6  A    between atoms: C32_40  and  O10_44 
REMARK    7  A    between atoms: O10_44  and  C35_45 
ROOT
HETATM    1  O5  UNL     1      -0.197  -1.699   0.584  1.00  0.00    -0.333 OA
ENDROOT
BRANCH   1   2
HETATM    2  C2  UNL     1      -1.555  -1.596   0.197  1.00  0.00     0.118 C 
HETATM    3  C1  UNL     1      -2.031  -2.941  -0.369  1.00  0.00     0.030 C 
HETATM    4  C6  UNL     1      -2.133  -4.025   0.717  1.00  0.00     0.003 C 
HETATM    5  C5  UNL     1      -3.012  -3.615   1.926  1.00  0.00     0.000 C 
HETATM    6  C4  UNL     1      -2.512  -2.260   2.492  1.00  0.00     0.002 C 
HETATM    7  C7  UNL     1      -4.522  -3.525   1.535  1.00  0.00     0.002 C 
HETATM    8  C23 UNL     1      -2.826  -4.688   3.016  1.00  0.00     0.000 C 
HETATM    9  C3  UNL     1      -2.400  -1.164   1.406  1.00  0.00     0.030 C 
HETATM   10  C10 UNL     1      -3.379  -1.797   3.678  1.00  0.00     0.000 C 
HETATM   11  C9  UNL     1      -4.861  -1.693   3.301  1.00  0.00     0.002 C 
HETATM   12  C8  UNL     1      -5.406  -3.004   2.693  1.00  0.00     0.028 C 
HETATM   13  C11 UNL     1      -6.936  -2.891   2.363  1.00  0.00     0.129 C 
HETATM   14  C12 UNL     1      -7.412  -3.787   1.180  1.00  0.00     0.032 C 
HETATM   15  C17 UNL     1      -7.506  -1.533   1.902  1.00  0.00     0.064 C 
HETATM   16  O4  UNL     1      -7.615  -3.227   3.566  1.00  0.00    -0.226 OA
HETATM   17  C13 UNL     1      -6.568  -5.072   1.133  1.00  0.00     0.003 C 
HETATM   18  C15 UNL     1      -7.402  -2.889  -0.098  1.00  0.00     0.054 C 
HETATM   19  C22 UNL     1      -8.889  -4.193   1.352  1.00  0.00     0.003 C 
HETATM   20  C14 UNL     1      -5.053  -4.865   0.977  1.00  0.00     0.000 C 
HETATM   21  C16 UNL     1      -7.270  -1.436   0.400  1.00  0.00     0.158 C 
HETATM   22  O1  UNL     1      -6.004  -0.859   0.141  1.00  0.00    -0.223 OA
BRANCH  18  23
HETATM   23  C18 UNL     1      -6.453  -3.287  -1.197  1.00  0.00    -0.007 A 
HETATM   24  C19 UNL     1      -5.250  -2.766  -1.426  1.00  0.00     0.062 A 
HETATM   25  C20 UNL     1      -4.697  -3.453  -2.582  1.00  0.00     0.296 A 
HETATM   26  O2  UNL     1      -5.559  -4.371  -3.041  1.00  0.00    -0.294 OA
HETATM   27  O3  UNL     1      -3.609  -3.207  -3.045  1.00  0.00    -0.259 OA
HETATM   28  C21 UNL     1      -6.738  -4.354  -2.221  1.00  0.00     0.175 A 
ENDBRANCH  18  23
ENDBRANCH   1   2
BRANCH   1  29
HETATM   29  C24 UNL     1       0.701  -1.561  -0.494  1.00  0.00     0.238 C 
HETATM   30  O6  UNL     1       0.721  -0.203  -0.928  1.00  0.00    -0.331 OA
HETATM   31  C25 UNL     1       1.594   0.086  -2.021  1.00  0.00     0.148 C 
HETATM   32  C26 UNL     1       3.053  -0.299  -1.670  1.00  0.00     0.175 C 
HETATM   33  C41 UNL     1       1.078  -0.635  -3.275  1.00  0.00     0.035 C 
HETATM   34  C27 UNL     1       3.131  -1.758  -1.164  1.00  0.00     0.187 C 
HETATM   35  C28 UNL     1       2.109  -2.000  -0.043  1.00  0.00     0.097 C 
HETATM   36  O7  UNL     1       4.434  -2.088  -0.719  1.00  0.00    -0.221 OA
BRANCH  32  37
HETATM   37  O8  UNL     1       3.539   0.607  -0.689  1.00  0.00    -0.328 OA
BRANCH  37  38
HETATM   38  C29 UNL     1       3.951   1.844  -1.230  1.00  0.00     0.238 C 
HETATM   39  C30 UNL     1       4.104   2.875  -0.090  1.00  0.00     0.097 C 
HETATM   40  C31 UNL     1       4.664   4.211  -0.607  1.00  0.00     0.187 C 
HETATM   41  C32 UNL     1       5.934   3.940  -1.445  1.00  0.00     0.175 C 
HETATM   42  O14 UNL     1       3.662   4.846  -1.385  1.00  0.00    -0.221 OA
HETATM   43  C33 UNL     1       5.699   2.857  -2.529  1.00  0.00     0.148 C 
HETATM   44  O9  UNL     1       5.190   1.682  -1.912  1.00  0.00    -0.331 OA
HETATM   45  C34 UNL     1       6.985   2.457  -3.260  1.00  0.00     0.035 C 
BRANCH  41  46
HETATM   46  O10 UNL     1       6.408   5.133  -2.045  1.00  0.00    -0.328 OA
BRANCH  46  47
HETATM   47  C35 UNL     1       7.418   5.770  -1.293  1.00  0.00     0.238 C 
HETATM   48  C36 UNL     1       8.016   6.932  -2.119  1.00  0.00     0.097 C 
HETATM   49  C37 UNL     1       9.041   7.736  -1.303  1.00  0.00     0.190 C 
HETATM   50  C38 UNL     1       8.414   8.127   0.055  1.00  0.00     0.209 C 
HETATM   51  O13 UNL     1      10.197   6.936  -1.125  1.00  0.00    -0.221 OA
HETATM   52  C39 UNL     1       7.799   6.910   0.787  1.00  0.00     0.151 C 
HETATM   53  O12 UNL     1       9.371   8.762   0.889  1.00  0.00    -0.218 OA
HETATM   54  O11 UNL     1       6.867   6.268  -0.078  1.00  0.00    -0.331 OA
HETATM   55  C40 UNL     1       7.029   7.303   2.053  1.00  0.00     0.035 C 
ENDBRANCH  46  47
ENDBRANCH  41  46
ENDBRANCH  37  38
ENDBRANCH  32  37
ENDBRANCH   1  29
TORSDOF 7
