REMARK  3 active torsions:
REMARK  status: ('A' for Active; 'I' for Inactive)
REMARK    1  A    between atoms: C6_6  and  C7_7 
REMARK    2  A    between atoms: C7_7  and  C8_8 
REMARK    3  A    between atoms: C12_13  and  C15_17 
ROOT
HETATM    1  C1  UNL     1      -2.971   1.176   1.176  1.00  0.00     0.131 A 
HETATM    2  C2  UNL     1      -2.852   2.465   1.742  1.00  0.00     0.055 A 
HETATM    3  C3  UNL     1      -1.578   3.057   1.904  1.00  0.00     0.138 A 
HETATM    4  C4  UNL     1      -0.416   2.354   1.494  1.00  0.00     0.082 A 
HETATM    5  C5  UNL     1      -0.529   1.039   0.959  1.00  0.00     0.097 A 
HETATM    6  C6  UNL     1      -1.813   0.461   0.785  1.00  0.00     0.030 A 
HETATM    7  O1  UNL     1       0.566   0.330   0.611  1.00  0.00    -0.329 OA
HETATM    8  C12 UNL     1       1.853   0.682   1.129  1.00  0.00     0.151 C 
HETATM    9  C13 UNL     1       2.084   2.201   1.016  1.00  0.00     0.104 C 
HETATM   10  C14 UNL     1       0.932   2.984   1.609  1.00  0.00     0.180 C 
HETATM   11  O2  UNL     1       1.193   4.049   2.119  1.00  0.00    -0.291 OA
HETATM   12  O3  UNL     1      -1.490   4.285   2.436  1.00  0.00    -0.190 OA
HETATM   13  O4  UNL     1      -4.188   0.633   1.020  1.00  0.00    -0.190 OA
ENDROOT
BRANCH   8  14
HETATM   14  C15 UNL     1       2.895  -0.102   0.412  1.00  0.00     0.005 A 
HETATM   15  C16 UNL     1       2.916  -0.125  -0.994  1.00  0.00    -0.002 A 
HETATM   16  C17 UNL     1       3.900  -0.867  -1.670  1.00  0.00    -0.000 A 
HETATM   17  C18 UNL     1       4.863  -1.586  -0.941  1.00  0.00    -0.000 A 
HETATM   18  C19 UNL     1       4.842  -1.564   0.465  1.00  0.00    -0.000 A 
HETATM   19  C20 UNL     1       3.857  -0.822   1.141  1.00  0.00    -0.002 A 
ENDBRANCH   8  14
BRANCH   6  20
HETATM   20  C7  UNL     1      -1.940  -0.885   0.199  1.00  0.00     0.056 C 
BRANCH  20  21
HETATM   21  C8  UNL     1      -2.428  -0.840  -1.225  1.00  0.00    -0.030 C 
HETATM   22  C9  UNL     1      -2.381  -1.967  -1.953  1.00  0.00    -0.048 C 
HETATM   23  C10 UNL     1      -2.840  -1.916  -3.385  1.00  0.00     0.026 C 
HETATM   24  C11 UNL     1      -1.871  -3.225  -1.299  1.00  0.00     0.026 C 
ENDBRANCH  20  21
ENDBRANCH   6  20
TORSDOF 3
