REMARK  8 active torsions:
REMARK  status: ('A' for Active; 'I' for Inactive)
REMARK    1  A    between atoms: C1_1  and  O2_21 
REMARK    2  A    between atoms: C2_2  and  O1_19 
REMARK    3  A    between atoms: C5_5  and  C7_7 
REMARK    4  A    between atoms: C8_8  and  C9_9 
REMARK    5  A    between atoms: C9_9  and  C10_10 
REMARK    6  A    between atoms: C9_9  and  N3_16 
REMARK    7  A    between atoms: C11_11  and  C12_12 
REMARK    8  A    between atoms: C12_12  and  N1_13 
ROOT
HETATM    1  C7  UNL     1       0.123  -0.332   0.537  1.00  0.00    -0.002 C 
HETATM    2  C8  UNL     1       0.789  -1.414   0.107  1.00  0.00     0.002 C 
ENDROOT
BRANCH   1   3
HETATM    3  C5  UNL     1       0.822   0.988   0.537  1.00  0.00     0.002 A 
HETATM    4  C4  UNL     1       2.227   1.041   0.537  1.00  0.00     0.002 A 
HETATM    5  C3  UNL     1       2.883   2.283   0.537  1.00  0.00     0.026 A 
HETATM    6  C2  UNL     1       2.141   3.477   0.537  1.00  0.00     0.116 A 
HETATM    7  C1  UNL     1       0.733   3.426   0.537  1.00  0.00     0.116 A 
HETATM    8  C6  UNL     1       0.078   2.182   0.537  1.00  0.00     0.026 A 
BRANCH   6   9
HETATM    9  O1  UNL     1       2.762   4.639   0.537  1.00  0.00    -0.326 OA
HETATM   10  C15 UNL     1       4.182   4.633   0.535  1.00  0.00     0.181 C 
ENDBRANCH   6   9
BRANCH   7  11
HETATM   11  O2  UNL     1       0.027   4.539   0.537  1.00  0.00    -0.326 OA
HETATM   12  C16 UNL     1       0.512   5.633   1.303  1.00  0.00     0.181 C 
ENDBRANCH   7  11
ENDBRANCH   1   3
BRANCH   2  13
HETATM   13  C9  UNL     1       0.078  -2.742   0.109  1.00  0.00     0.149 C 
BRANCH  13  14
HETATM   14  C10 UNL     1      -0.990  -2.770  -0.951  1.00  0.00    -0.000 C 
HETATM   15  C11 UNL     1      -2.244  -2.438  -0.606  1.00  0.00    -0.002 C 
BRANCH  15  16
HETATM   16  C12 UNL     1      -3.312  -2.465  -1.664  1.00  0.00     0.153 C 
BRANCH  16  17
HETATM   17  N1  UNL     1      -4.656  -2.574  -1.076  1.00  0.00    -0.244 NA
HETATM   18  C13 UNL     1      -5.750  -2.539  -1.893  1.00  0.00     0.217 C 
HETATM   19  N2  UNL     1      -5.568  -2.408  -3.154  1.00  0.00    -0.124 N 
ENDBRANCH  16  17
ENDBRANCH  15  16
ENDBRANCH  13  14
BRANCH  13  20
HETATM   20  N3  UNL     1       1.022  -3.859  -0.045  1.00  0.00    -0.242 NA
HETATM   21  C14 UNL     1       1.721  -4.299   1.043  1.00  0.00     0.218 C 
HETATM   22  N4  UNL     1       2.535  -5.277   0.891  1.00  0.00    -0.124 N 
ENDBRANCH  13  20
ENDBRANCH   2  13
TORSDOF 8
