REMARK  1 active torsions:
REMARK  status: ('A' for Active; 'I' for Inactive)
REMARK    1  A    between atoms: C1_1  and  O3_21 
ROOT
HETATM    1  C1  UNL     1      -0.258  -2.385  -1.080  1.00  0.00     0.119 A 
HETATM    2  C2  UNL     1       0.836  -1.484  -0.957  1.00  0.00     0.149 A 
HETATM    3  C3  UNL     1       0.650  -0.262  -0.244  1.00  0.00     0.010 A 
HETATM    4  C4  UNL     1      -0.588   0.008   0.344  1.00  0.00    -0.007 A 
HETATM    5  C5  UNL     1      -1.668  -0.869   0.188  1.00  0.00    -0.021 A 
HETATM    6  C6  UNL     1      -1.518  -2.080  -0.516  1.00  0.00     0.022 A 
HETATM    7  C7  UNL     1      -2.932  -0.414   0.809  1.00  0.00     0.050 C 
HETATM    8  C8  UNL     1      -3.143   1.131   0.693  1.00  0.00     0.102 C 
HETATM    9  N1  UNL     1      -1.916   1.979   0.826  1.00  0.00    -0.365 N 
HETATM   10  C9  UNL     1      -0.639   1.293   1.090  1.00  0.00     0.100 C 
HETATM   11  C10 UNL     1       0.633   2.010   0.551  1.00  0.00     0.039 C 
HETATM   12  C11 UNL     1       1.600   0.891   0.020  1.00  0.00     0.060 A 
HETATM   13  C12 UNL     1       2.576   0.453   1.108  1.00  0.00    -0.015 A 
HETATM   14  C13 UNL     1       3.906   0.393   0.908  1.00  0.00     0.038 A 
HETATM   15  C14 UNL     1       4.500   0.764  -0.383  1.00  0.00     0.195 A 
HETATM   16  C15 UNL     1       3.615   1.232  -1.457  1.00  0.00     0.038 A 
HETATM   17  C16 UNL     1       2.281   1.301  -1.283  1.00  0.00    -0.015 A 
HETATM   18  O1  UNL     1       5.693   0.688  -0.559  1.00  0.00    -0.287 OA
HETATM   19  C17 UNL     1      -2.104   3.172   1.645  1.00  0.00     0.121 C 
HETATM   20  O2  UNL     1       1.965  -1.895  -1.551  1.00  0.00    -0.188 OA
ENDROOT
BRANCH   1  21
HETATM   21  O3  UNL     1      -0.104  -3.539  -1.744  1.00  0.00    -0.326 OA
HETATM   22  C18 UNL     1      -1.205  -4.434  -1.791  1.00  0.00     0.181 C 
ENDBRANCH   1  21
TORSDOF 1
