REMARK  3 active torsions:
REMARK  status: ('A' for Active; 'I' for Inactive)
REMARK    1  A    between atoms: C6_6  and  C7_7 
REMARK    2  A    between atoms: C7_7  and  C8_8 
REMARK    3  A    between atoms: C12_13  and  C15_18 
ROOT
HETATM    1  C1  UNL     1      -3.149   1.277  -0.551  1.00  0.00     0.131 A 
HETATM    2  C2  UNL     1      -3.068   2.590  -1.072  1.00  0.00     0.055 A 
HETATM    3  C3  UNL     1      -1.822   3.252  -1.147  1.00  0.00     0.138 A 
HETATM    4  C4  UNL     1      -0.647   2.598  -0.690  1.00  0.00     0.085 A 
HETATM    5  C5  UNL     1      -0.719   1.264  -0.203  1.00  0.00     0.098 A 
HETATM    6  C6  UNL     1      -1.977   0.613  -0.119  1.00  0.00     0.030 A 
HETATM    7  O1  UNL     1       0.391   0.600   0.186  1.00  0.00    -0.326 OA
HETATM    8  C12 UNL     1       1.684   1.018  -0.262  1.00  0.00     0.181 C 
HETATM    9  C13 UNL     1       1.842   2.551  -0.102  1.00  0.00     0.245 C 
HETATM   10  C14 UNL     1       0.668   3.307  -0.705  1.00  0.00     0.210 C 
HETATM   11  O2  UNL     1       0.871   4.418  -1.143  1.00  0.00    -0.288 OA
HETATM   12  O3  UNL     1       3.061   2.955  -0.703  1.00  0.00    -0.212 OA
HETATM   13  O4  UNL     1      -1.774   4.498  -1.641  1.00  0.00    -0.190 OA
HETATM   14  O5  UNL     1      -4.342   0.670  -0.475  1.00  0.00    -0.190 OA
ENDROOT
BRANCH   8  15
HETATM   15  C15 UNL     1       2.709   0.238   0.490  1.00  0.00     0.008 A 
HETATM   16  C16 UNL     1       3.719  -0.451  -0.203  1.00  0.00    -0.002 A 
HETATM   17  C17 UNL     1       4.686  -1.185   0.506  1.00  0.00    -0.000 A 
HETATM   18  C18 UNL     1       4.643  -1.232   1.910  1.00  0.00    -0.000 A 
HETATM   19  C19 UNL     1       3.633  -0.543   2.605  1.00  0.00    -0.000 A 
HETATM   20  C20 UNL     1       2.668   0.191   1.896  1.00  0.00    -0.002 A 
ENDBRANCH   8  15
BRANCH   6  21
HETATM   21  C7  UNL     1      -2.063  -0.758   0.416  1.00  0.00     0.056 C 
BRANCH  21  22
HETATM   22  C8  UNL     1      -2.270  -1.777  -0.672  1.00  0.00    -0.030 C 
HETATM   23  C9  UNL     1      -2.113  -3.076  -0.371  1.00  0.00    -0.048 C 
HETATM   24  C10 UNL     1      -1.740  -3.447   1.039  1.00  0.00     0.026 C 
HETATM   25  C11 UNL     1      -2.320  -4.096  -1.459  1.00  0.00     0.026 C 
ENDBRANCH  21  22
ENDBRANCH   6  21
TORSDOF 3
