REMARK  5 active torsions:
REMARK  status: ('A' for Active; 'I' for Inactive)
REMARK    1  A    between atoms: C2_2  and  C21_26 
REMARK    2  A    between atoms: C8_9  and  C10_12 
REMARK    3  A    between atoms: C12_15  and  C16_20 
REMARK    4  A    between atoms: C16_20  and  C17_21 
REMARK    5  A    between atoms: C21_26  and  C22_27 
ROOT
HETATM    1  C1  UNL     1      -3.045  -1.440   2.154  1.00  0.00     0.131 A 
HETATM    2  C2  UNL     1      -2.644  -0.083   2.099  1.00  0.00     0.033 A 
HETATM    3  C3  UNL     1      -2.088   0.445   0.907  1.00  0.00     0.134 A 
HETATM    4  C4  UNL     1      -1.932  -0.392  -0.231  1.00  0.00     0.083 A 
HETATM    5  C5  UNL     1      -2.373  -1.743  -0.185  1.00  0.00     0.101 A 
HETATM    6  C6  UNL     1      -2.908  -2.266   1.015  1.00  0.00     0.051 A 
HETATM    7  O1  UNL     1      -2.290  -2.543  -1.269  1.00  0.00    -0.330 OA
HETATM    8  C7  UNL     1      -2.137  -1.974  -2.574  1.00  0.00     0.161 C 
HETATM    9  C8  UNL     1      -1.049  -0.881  -2.580  1.00  0.00     0.116 C 
HETATM   10  C9  UNL     1      -1.299   0.131  -1.478  1.00  0.00     0.183 C 
HETATM   11  O2  UNL     1      -0.964   1.274  -1.693  1.00  0.00    -0.291 OA
HETATM   12  O5  UNL     1      -1.703   1.729   0.867  1.00  0.00    -0.190 OA
HETATM   13  O6  UNL     1      -3.558  -1.950   3.283  1.00  0.00    -0.190 OA
ENDROOT
BRANCH   9  14
HETATM   14  C10 UNL     1       0.316  -1.470  -2.470  1.00  0.00     0.013 A 
HETATM   15  C11 UNL     1       1.453  -0.684  -2.741  1.00  0.00     0.126 A 
HETATM   16  O3  UNL     1       1.315   0.579  -3.096  1.00  0.00    -0.191 OA
HETATM   17  C12 UNL     1       2.737  -1.254  -2.633  1.00  0.00     0.033 A 
HETATM   18  C13 UNL     1       2.885  -2.603  -2.255  1.00  0.00     0.129 A 
HETATM   19  C14 UNL     1       1.745  -3.379  -1.985  1.00  0.00     0.027 A 
HETATM   20  O4  UNL     1       4.083  -3.142  -2.151  1.00  0.00    -0.190 OA
HETATM   21  C15 UNL     1       0.463  -2.815  -2.092  1.00  0.00     0.000 A 
BRANCH  17  22
HETATM   22  C16 UNL     1       3.942  -0.428  -2.920  1.00  0.00     0.056 C 
BRANCH  22  23
HETATM   23  C17 UNL     1       4.454   0.274  -1.690  1.00  0.00    -0.030 C 
HETATM   24  C18 UNL     1       5.649   0.882  -1.750  1.00  0.00    -0.048 C 
HETATM   25  C19 UNL     1       6.161   1.584  -0.520  1.00  0.00     0.026 C 
HETATM   26  C20 UNL     1       6.417   0.831  -3.044  1.00  0.00     0.026 C 
ENDBRANCH  22  23
ENDBRANCH  17  22
ENDBRANCH   9  14
BRANCH   2  27
HETATM   27  C21 UNL     1      -2.803   0.780   3.283  1.00  0.00     0.056 C 
BRANCH  27  28
HETATM   28  C22 UNL     1      -3.942   1.753   3.126  1.00  0.00    -0.030 C 
HETATM   29  C23 UNL     1      -4.360   2.429   4.208  1.00  0.00    -0.048 C 
HETATM   30  C24 UNL     1      -3.781   2.299   5.592  1.00  0.00     0.026 C 
HETATM   31  C25 UNL     1      -5.499   3.401   4.052  1.00  0.00     0.026 C 
ENDBRANCH  27  28
ENDBRANCH   2  27
TORSDOF 5
