REMARK  5 active torsions:
REMARK  status: ('A' for Active; 'I' for Inactive)
REMARK    1  A    between atoms: C2_2  and  O10_42 
REMARK    2  A    between atoms: C4_4  and  O4_31 
REMARK    3  A    between atoms: O4_31  and  C28_32 
REMARK    4  A    between atoms: O10_42  and  C33_43 
REMARK    5  A    between atoms: C34_45  and  C38_52 
ROOT
HETATM    1  C1  UNL     1      -3.274  -2.206   1.046  1.00  0.00     0.065 C 
HETATM    2  C2  UNL     1      -3.800  -0.879   1.650  1.00  0.00     0.153 C 
HETATM    3  C3  UNL     1      -2.778  -0.194   2.613  1.00  0.00     0.204 C 
HETATM    4  C4  UNL     1      -1.340  -0.098   2.012  1.00  0.00     0.128 C 
HETATM    5  C5  UNL     1      -0.852  -1.548   1.625  1.00  0.00     0.054 C 
HETATM    6  C6  UNL     1      -1.798  -2.188   0.564  1.00  0.00     0.157 C 
HETATM    7  O1  UNL     1      -1.706  -1.552  -0.697  1.00  0.00    -0.223 OA
HETATM    8  C7  UNL     1       0.685  -1.586   1.303  1.00  0.00     0.005 C 
HETATM    9  C8  UNL     1       1.288  -0.203   0.984  1.00  0.00     0.000 C 
HETATM   10  C9  UNL     1       1.111   0.724   2.212  1.00  0.00     0.003 C 
HETATM   11  C10 UNL     1      -0.272   0.571   2.912  1.00  0.00     0.030 C 
HETATM   12  C11 UNL     1       2.710  -0.336   0.397  1.00  0.00     0.003 C 
HETATM   13  C12 UNL     1       3.468  -1.603   0.820  1.00  0.00     0.003 C 
HETATM   14  C13 UNL     1       2.698  -2.867   0.372  1.00  0.00     0.000 C 
HETATM   15  C14 UNL     1       1.165  -2.669   0.318  1.00  0.00     0.000 C 
HETATM   16  C15 UNL     1       4.852  -1.354   0.184  1.00  0.00     0.032 C 
HETATM   17  C16 UNL     1       5.016   0.178   0.183  1.00  0.00     0.118 C 
HETATM   18  C17 UNL     1       3.702   0.792   0.672  1.00  0.00     0.030 C 
HETATM   19  O2  UNL     1       5.242   0.527  -1.165  1.00  0.00    -0.337 OA
HETATM   20  C18 UNL     1       5.824  -0.550  -1.867  1.00  0.00     0.187 C 
HETATM   21  C19 UNL     1       5.018  -1.727  -1.304  1.00  0.00     0.054 C 
HETATM   22  C20 UNL     1       5.647  -3.107  -1.498  1.00  0.00     0.005 C 
HETATM   23  O3  UNL     1       7.216  -0.702  -1.570  1.00  0.00    -0.335 OA
HETATM   24  C21 UNL     1       8.054   0.367  -1.992  1.00  0.00     0.145 C 
HETATM   25  C22 UNL     1       7.950   0.561  -3.519  1.00  0.00     0.030 C 
HETATM   26  C23 UNL     1       6.485   0.761  -3.930  1.00  0.00     0.007 C 
HETATM   27  C24 UNL     1       5.614  -0.381  -3.385  1.00  0.00     0.056 C 
HETATM   28  C25 UNL     1       8.587  -0.610  -4.279  1.00  0.00     0.003 C 
HETATM   29  C26 UNL     1       3.683  -1.595   2.339  1.00  0.00     0.000 C 
HETATM   30  C27 UNL     1      -1.001  -2.454   2.869  1.00  0.00     0.005 C 
HETATM   31  O9  UNL     1      -3.260   1.068   3.049  1.00  0.00    -0.218 OA
ENDROOT
BRANCH   2  32
HETATM   32  O10 UNL     1      -4.184  -0.029   0.585  1.00  0.00    -0.329 OA
BRANCH  32  33
HETATM   33  C33 UNL     1      -5.586   0.051   0.411  1.00  0.00     0.270 C 
HETATM   34  O11 UNL     1      -6.053  -1.217  -0.029  1.00  0.00    -0.326 OA
HETATM   35  C34 UNL     1      -7.461  -1.313  -0.199  1.00  0.00     0.184 C 
HETATM   36  C35 UNL     1      -7.915  -0.311  -1.285  1.00  0.00     0.215 C 
HETATM   37  C36 UNL     1      -7.458   1.125  -0.950  1.00  0.00     0.220 C 
HETATM   38  O14 UNL     1      -9.328  -0.355  -1.377  1.00  0.00    -0.218 OA
HETATM   39  C37 UNL     1      -5.945   1.136  -0.635  1.00  0.00     0.241 C 
HETATM   40  O13 UNL     1      -7.726   1.982  -2.047  1.00  0.00    -0.218 OA
HETATM   41  O12 UNL     1      -5.577   2.411  -0.132  1.00  0.00    -0.215 OA
BRANCH  35  42
HETATM   42  C38 UNL     1      -7.762  -2.771  -0.567  1.00  0.00     0.214 C 
HETATM   43  O15 UNL     1      -7.469  -3.577   0.553  1.00  0.00    -0.218 OA
ENDBRANCH  35  42
ENDBRANCH  32  33
ENDBRANCH   2  32
BRANCH   4  44
HETATM   44  O4  UNL     1      -1.452   0.759   0.880  1.00  0.00    -0.331 OA
BRANCH  44  45
HETATM   45  C28 UNL     1      -1.173   2.112   1.178  1.00  0.00     0.270 C 
HETATM   46  O5  UNL     1      -2.287   2.662   1.869  1.00  0.00    -0.326 OA
HETATM   47  C29 UNL     1      -2.139   4.020   2.266  1.00  0.00     0.181 C 
HETATM   48  C30 UNL     1      -1.931   4.929   1.034  1.00  0.00     0.215 C 
HETATM   49  C31 UNL     1      -0.751   4.419   0.178  1.00  0.00     0.220 C 
HETATM   50  O8  UNL     1      -3.137   4.965   0.284  1.00  0.00    -0.218 OA
HETATM   51  C32 UNL     1      -0.905   2.911  -0.126  1.00  0.00     0.241 C 
HETATM   52  O7  UNL     1      -0.626   5.174  -1.017  1.00  0.00    -0.218 OA
HETATM   53  O6  UNL     1       0.282   2.427  -0.736  1.00  0.00    -0.215 OA
ENDBRANCH  44  45
ENDBRANCH   4  44
TORSDOF 5
