REMARK WARNING: 32 MAX_TORS EXCEEDED!!!
REMARK  38 active torsions:
REMARK  status: ('A' for Active; 'I' for Inactive)
REMARK    1  A    between atoms: O1_1  and  C1_2 
REMARK    2  A    between atoms: O1_1  and  C7_13 
REMARK    3  A    between atoms: C2_4  and  C6_11 
REMARK    4  A    between atoms: C7_13  and  C8_14 
REMARK    5  A    between atoms: C8_14  and  C9_15 
REMARK    6  A    between atoms: C8_14  and  O8_17 
REMARK    7  A    between atoms: O8_17  and  C10_18 
REMARK    8  A    between atoms: C10_18  and  C11_19 
REMARK    9  A    between atoms: C11_19  and  C12_20 
REMARK   10  A    between atoms: C12_20  and  C13_21 
REMARK   11  A    between atoms: C13_21  and  C14_22 
REMARK   12  A    between atoms: C14_22  and  C15_23 
REMARK   13  A    between atoms: C15_23  and  C16_24 
REMARK   14  A    between atoms: C16_24  and  C17_25 
REMARK   15  A    between atoms: C17_25  and  C18_26 
REMARK   16  A    between atoms: C18_26  and  C19_27 
REMARK   17  A    between atoms: C19_27  and  C20_28 
REMARK   18  A    between atoms: C20_28  and  C21_29 
REMARK   19  A    between atoms: C21_29  and  C22_30 
REMARK   20  A    between atoms: C22_30  and  C23_31 
REMARK   21  A    between atoms: C23_31  and  C24_32 
REMARK   22  A    between atoms: C25_33  and  C26_34 
REMARK   23  A    between atoms: C26_34  and  C27_35 
REMARK   24  A    between atoms: C27_35  and  C28_36 
REMARK   25  A    between atoms: C28_36  and  C29_37 
REMARK   26  A    between atoms: C29_37  and  C30_38 
REMARK   27  A    between atoms: C30_38  and  C31_39 
REMARK   28  A    between atoms: C31_39  and  C32_40 
REMARK   29  A    between atoms: C32_40  and  C33_41 
REMARK   30  A    between atoms: C33_41  and  C34_42 
REMARK   31  A    between atoms: C34_42  and  C35_43 
REMARK   32  A    between atoms: C35_43  and  C36_44 
REMARK   33  A    between atoms: C36_44  and  C37_45 
REMARK   34  A    between atoms: C37_45  and  C38_46 
REMARK   35  A    between atoms: C38_46  and  C39_47 
REMARK   36  A    between atoms: C39_47  and  C40_48 
REMARK   37  A    between atoms: C40_48  and  C41_49 
REMARK   38  A    between atoms: C41_49  and  C42_50 
ROOT
HETATM    1  C17 UNL     1       3.025   0.908   4.727  1.00  0.00     0.000 C 
ENDROOT
BRANCH   1   2
HETATM    2  C16 UNL     1       3.342   1.082   6.213  1.00  0.00     0.000 C 
BRANCH   2   3
HETATM    3  C15 UNL     1       2.186   1.711   6.992  1.00  0.00     0.000 C 
BRANCH   3   4
HETATM    4  C14 UNL     1       2.500   1.885   8.477  1.00  0.00     0.000 C 
BRANCH   4   5
HETATM    5  C13 UNL     1       1.344   2.514   9.256  1.00  0.00     0.001 C 
BRANCH   5   6
HETATM    6  C12 UNL     1       1.660   2.688  10.742  1.00  0.00     0.010 C 
BRANCH   6   7
HETATM    7  C11 UNL     1       0.506   3.320  11.520  1.00  0.00     0.096 C 
BRANCH   7   8
HETATM    8  C10 UNL     1       0.807   3.449  12.989  1.00  0.00     0.272 C 
HETATM    9  O9  UNL     1       1.943   3.553  13.385  1.00  0.00    -0.264 OA
BRANCH   8  10
HETATM   10  O8  UNL     1      -0.258   3.440  13.787  1.00  0.00    -0.299 OA
BRANCH  10  11
HETATM   11  C8  UNL     1       0.096   3.375  15.160  1.00  0.00     0.187 C 
BRANCH  11  12
HETATM   12  C7  UNL     1      -1.117   3.736  16.018  1.00  0.00     0.178 C 
BRANCH  12  13
HETATM   13  O1  UNL     1      -1.578   5.006  15.618  1.00  0.00    -0.326 OA
BRANCH  13  14
HETATM   14  C1  UNL     1      -2.676   5.467  16.381  1.00  0.00     0.270 C 
HETATM   15  O2  UNL     1      -3.801   4.652  16.084  1.00  0.00    -0.326 OA
HETATM   16  C2  UNL     1      -4.979   4.959  16.821  1.00  0.00     0.184 C 
HETATM   17  C3  UNL     1      -5.422   6.404  16.500  1.00  0.00     0.215 C 
HETATM   18  C4  UNL     1      -4.281   7.414  16.752  1.00  0.00     0.220 C 
HETATM   19  O5  UNL     1      -6.537   6.727  17.311  1.00  0.00    -0.218 OA
HETATM   20  C5  UNL     1      -2.992   6.945  16.039  1.00  0.00     0.241 C 
HETATM   21  O4  UNL     1      -4.658   8.695  16.274  1.00  0.00    -0.218 OA
HETATM   22  O3  UNL     1      -1.906   7.764  16.442  1.00  0.00    -0.215 OA
BRANCH  16  23
HETATM   23  C6  UNL     1      -6.029   3.914  16.434  1.00  0.00     0.214 C 
HETATM   24  O6  UNL     1      -5.607   2.662  16.928  1.00  0.00    -0.218 OA
ENDBRANCH  16  23
ENDBRANCH  13  14
ENDBRANCH  12  13
ENDBRANCH  11  12
BRANCH  11  25
HETATM   25  C9  UNL     1       0.652   1.986  15.479  1.00  0.00     0.215 C 
HETATM   26  O7  UNL     1       1.174   2.010  16.787  1.00  0.00    -0.218 OA
ENDBRANCH  11  25
ENDBRANCH  10  11
ENDBRANCH   8  10
ENDBRANCH   7   8
ENDBRANCH   6   7
ENDBRANCH   5   6
ENDBRANCH   4   5
ENDBRANCH   3   4
ENDBRANCH   2   3
ENDBRANCH   1   2
BRANCH   1  27
HETATM   27  C18 UNL     1       4.182   0.279   3.947  1.00  0.00     0.000 C 
BRANCH  27  28
HETATM   28  C19 UNL     1       3.867   0.105   2.463  1.00  0.00     0.000 C 
BRANCH  28  29
HETATM   29  C20 UNL     1       5.022  -0.523   1.684  1.00  0.00     0.000 C 
BRANCH  29  30
HETATM   30  C21 UNL     1       4.707  -0.697   0.197  1.00  0.00     0.000 C 
BRANCH  30  31
HETATM   31  C22 UNL     1       5.863  -1.326  -0.582  1.00  0.00     0.005 C 
BRANCH  31  32
HETATM   32  C23 UNL     1       5.547  -1.504  -2.066  1.00  0.00     0.026 C 
BRANCH  32  33
HETATM   33  C24 UNL     1       6.688  -2.127  -2.826  1.00  0.00    -0.031 C 
HETATM   34  C25 UNL     1       6.440  -2.650  -4.039  1.00  0.00    -0.031 C 
BRANCH  34  35
HETATM   35  C26 UNL     1       5.035  -2.588  -4.574  1.00  0.00     0.026 C 
BRANCH  35  36
HETATM   36  C27 UNL     1       4.975  -2.840  -6.082  1.00  0.00     0.005 C 
BRANCH  36  37
HETATM   37  C28 UNL     1       3.549  -2.785  -6.631  1.00  0.00     0.000 C 
BRANCH  37  38
HETATM   38  C29 UNL     1       3.488  -3.035  -8.139  1.00  0.00     0.000 C 
BRANCH  38  39
HETATM   39  C30 UNL     1       2.063  -2.980  -8.689  1.00  0.00     0.000 C 
BRANCH  39  40
HETATM   40  C31 UNL     1       2.002  -3.231 -10.197  1.00  0.00     0.000 C 
BRANCH  40  41
HETATM   41  C32 UNL     1       0.576  -3.176 -10.746  1.00  0.00     0.000 C 
BRANCH  41  42
HETATM   42  C33 UNL     1       0.516  -3.426 -12.254  1.00  0.00     0.000 C 
BRANCH  42  43
HETATM   43  C34 UNL     1      -0.910  -3.371 -12.805  1.00  0.00     0.000 C 
BRANCH  43  44
HETATM   44  C35 UNL     1      -0.971  -3.621 -14.311  1.00  0.00     0.000 C 
BRANCH  44  45
HETATM   45  C36 UNL     1      -2.397  -3.566 -14.861  1.00  0.00     0.000 C 
BRANCH  45  46
HETATM   46  C37 UNL     1      -2.457  -3.816 -16.369  1.00  0.00     0.000 C 
BRANCH  46  47
HETATM   47  C38 UNL     1      -3.883  -3.762 -16.920  1.00  0.00     0.000 C 
BRANCH  47  48
HETATM   48  C39 UNL     1      -3.943  -4.012 -18.426  1.00  0.00     0.000 C 
BRANCH  48  49
HETATM   49  C40 UNL     1      -5.367  -3.957 -18.977  1.00  0.00     0.000 C 
BRANCH  49  50
HETATM   50  C41 UNL     1      -5.428  -4.207 -20.485  1.00  0.00     0.000 C 
BRANCH  50  51
HETATM   51  C42 UNL     1      -6.854  -4.152 -21.033  1.00  0.00     0.000 C 
HETATM   52  C43 UNL     1      -6.914  -4.400 -22.541  1.00  0.00     0.000 C 
ENDBRANCH  50  51
ENDBRANCH  49  50
ENDBRANCH  48  49
ENDBRANCH  47  48
ENDBRANCH  46  47
ENDBRANCH  45  46
ENDBRANCH  44  45
ENDBRANCH  43  44
ENDBRANCH  42  43
ENDBRANCH  41  42
ENDBRANCH  40  41
ENDBRANCH  39  40
ENDBRANCH  38  39
ENDBRANCH  37  38
ENDBRANCH  36  37
ENDBRANCH  35  36
ENDBRANCH  34  35
ENDBRANCH  32  33
ENDBRANCH  31  32
ENDBRANCH  30  31
ENDBRANCH  29  30
ENDBRANCH  28  29
ENDBRANCH  27  28
ENDBRANCH   1  27
TORSDOF 38
