REMARK  6 active torsions:
REMARK  status: ('A' for Active; 'I' for Inactive)
REMARK    1  A    between atoms: C3_3  and  O4_11 
REMARK    2  A    between atoms: C5_6  and  C6_7 
REMARK    3  A    between atoms: C6_7  and  O2_8 
REMARK    4  A    between atoms: O4_11  and  C8_12 
REMARK    5  A    between atoms: C9_14  and  C13_21 
REMARK    6  A    between atoms: C14_23  and  C17_26 
ROOT
HETATM    1  C1  UNL     1       0.215  -2.719   1.555  1.00  0.00     0.025 C 
HETATM    2  C2  UNL     1       0.797  -1.289   1.610  1.00  0.00     0.078 C 
HETATM    3  C3  UNL     1      -0.049  -0.289   0.789  1.00  0.00     0.241 C 
HETATM    4  O1  UNL     1      -1.426  -0.416   1.096  1.00  0.00    -0.330 OA
HETATM    5  C4  UNL     1      -1.975  -1.688   0.789  1.00  0.00     0.155 C 
HETATM    6  C5  UNL     1      -1.316  -2.760   1.674  1.00  0.00     0.117 C 
HETATM    7  C14 UNL     1       2.152  -1.486   0.981  1.00  0.00    -0.011 C 
HETATM    8  C15 UNL     1       2.189  -2.588   0.225  1.00  0.00    -0.032 C 
HETATM    9  C16 UNL     1       0.857  -3.283   0.274  1.00  0.00     0.026 C 
ENDROOT
BRANCH   3  10
HETATM   10  O4  UNL     1       0.371   1.031   1.069  1.00  0.00    -0.304 OA
BRANCH  10  11
HETATM   11  C8  UNL     1      -0.178   1.988   0.186  1.00  0.00     0.272 C 
HETATM   12  O5  UNL     1       0.439   1.832  -1.084  1.00  0.00    -0.326 OA
HETATM   13  C9  UNL     1      -0.049   2.697  -2.099  1.00  0.00     0.184 C 
HETATM   14  C10 UNL     1       0.215   4.166  -1.695  1.00  0.00     0.215 C 
HETATM   15  C11 UNL     1      -0.387   4.484  -0.308  1.00  0.00     0.220 C 
HETATM   16  O8  UNL     1      -0.355   5.018  -2.672  1.00  0.00    -0.218 OA
HETATM   17  C12 UNL     1       0.068   3.424   0.719  1.00  0.00     0.241 C 
HETATM   18  O7  UNL     1       0.033   5.771   0.113  1.00  0.00    -0.218 OA
HETATM   19  O6  UNL     1      -0.646   3.603   1.930  1.00  0.00    -0.215 OA
BRANCH  13  20
HETATM   20  C13 UNL     1       0.660   2.299  -3.398  1.00  0.00     0.214 C 
HETATM   21  O9  UNL     1       0.201   1.021  -3.777  1.00  0.00    -0.218 OA
ENDBRANCH  13  20
ENDBRANCH  10  11
ENDBRANCH   3  10
BRANCH   7  22
HETATM   22  C17 UNL     1       3.309  -0.547   1.197  1.00  0.00     0.204 C 
HETATM   23  O10 UNL     1       3.732  -0.031  -0.045  1.00  0.00    -0.216 OA
ENDBRANCH   7  22
BRANCH   6  24
HETATM   24  C6  UNL     1      -1.869  -4.133   1.379  1.00  0.00     0.274 C 
HETATM   25  O3  UNL     1      -1.232  -5.127   1.637  1.00  0.00    -0.264 OA
BRANCH  24  26
HETATM   26  O2  UNL     1      -3.080  -4.149   0.828  1.00  0.00    -0.299 OA
HETATM   27  C7  UNL     1      -3.537  -5.469   0.571  1.00  0.00     0.184 C 
ENDBRANCH  24  26
ENDBRANCH   6  24
TORSDOF 6
