REMARK  5 active torsions:
REMARK  status: ('A' for Active; 'I' for Inactive)
REMARK    1  A    between atoms: C1_1  and  C2_2 
REMARK    2  A    between atoms: C2_2  and  C3_3 
REMARK    3  A    between atoms: C3_3  and  C4_4 
REMARK    4  A    between atoms: C4_4  and  C5_5 
REMARK    5  A    between atoms: C5_5  and  C6_6 
ROOT
HETATM    1  C4  UNL     1       1.254  -0.045   0.148  1.00  0.00     0.226 C 
HETATM    2  O4  UNL     1       1.707   0.867  -0.824  1.00  0.00    -0.217 OA
ENDROOT
BRANCH   1   3
HETATM    3  C3  UNL     1      -0.276  -0.041   0.133  1.00  0.00     0.218 C 
HETATM    4  O5  UNL     1      -0.731  -1.006   1.055  1.00  0.00    -0.218 OA
BRANCH   3   5
HETATM    5  C2  UNL     1      -0.865   1.314   0.527  1.00  0.00     0.218 C 
HETATM    6  O6  UNL     1      -0.426   1.625   1.830  1.00  0.00    -0.218 OA
BRANCH   5   7
HETATM    7  C1  UNL     1      -2.395   1.314   0.527  1.00  0.00     0.218 C 
HETATM    8  O7  UNL     1      -2.836   2.652   0.527  1.00  0.00    -0.218 OA
ENDBRANCH   5   7
ENDBRANCH   3   5
ENDBRANCH   1   3
BRANCH   1   9
HETATM    9  C5  UNL     1       1.842  -1.420  -0.172  1.00  0.00     0.271 C 
HETATM   10  O3  UNL     1       3.244  -1.336  -0.059  1.00  0.00    -0.209 OA
BRANCH   9  11
HETATM   11  C6  UNL     1       1.478  -1.891  -1.555  1.00  0.00     0.220 C 
HETATM   12  O1  UNL     1       2.187  -1.647  -2.502  1.00  0.00    -0.645 OA
HETATM   13  O2  UNL     1       0.342  -2.578  -1.637  1.00  0.00    -0.645 OA
ENDBRANCH   9  11
ENDBRANCH   1   9
TORSDOF 5
