REMARK  14 active torsions:
REMARK  status: ('A' for Active; 'I' for Inactive)
REMARK    1  A    between atoms: C2_2  and  O17_65 
REMARK    2  A    between atoms: C16_16  and  C19_19 
REMARK    3  A    between atoms: C19_19  and  O2_21 
REMARK    4  A    between atoms: O2_21  and  C20_22 
REMARK    5  A    between atoms: C21_24  and  C25_31 
REMARK    6  A    between atoms: C25_31  and  O7_32 
REMARK    7  A    between atoms: O7_32  and  C26_33 
REMARK    8  A    between atoms: C27_35  and  C37_52 
REMARK    9  A    between atoms: C28_36  and  O11_41 
REMARK   10  A    between atoms: O11_41  and  C31_42 
REMARK   11  A    between atoms: O17_65  and  C49_66 
REMARK   12  A    between atoms: C52_70  and  O20_73 
REMARK   13  A    between atoms: O20_73  and  C54_74 
REMARK   14  A    between atoms: C55_76  and  C59_83 
ROOT
HETATM    1  C1  UNL     1      -1.323  -0.870  -2.764  1.00  0.00     0.030 C 
HETATM    2  C2  UNL     1      -1.769  -1.202  -1.329  1.00  0.00     0.118 C 
HETATM    3  C3  UNL     1      -0.942  -0.452  -0.251  1.00  0.00     0.025 C 
HETATM    4  C4  UNL     1      -0.856   1.069  -0.584  1.00  0.00     0.002 C 
HETATM    5  C5  UNL     1      -0.333   1.376  -2.025  1.00  0.00     0.001 C 
HETATM    6  C6  UNL     1      -1.268   0.646  -3.023  1.00  0.00     0.003 C 
HETATM    7  C7  UNL     1      -0.342   2.923  -2.253  1.00  0.00     0.005 C 
HETATM    8  C8  UNL     1       0.434   3.766  -1.196  1.00  0.00     0.004 C 
HETATM    9  C9  UNL     1      -0.050   3.377   0.223  1.00  0.00     0.000 C 
HETATM   10  C10 UNL     1      -0.126   1.867   0.514  1.00  0.00     0.000 C 
HETATM   11  C11 UNL     1       2.003   3.651  -1.362  1.00  0.00     0.015 C 
HETATM   12  C12 UNL     1       2.461   3.593  -2.819  1.00  0.00    -0.049 C 
HETATM   13  C13 UNL     1       1.586   3.450  -3.845  1.00  0.00    -0.035 C 
HETATM   14  C14 UNL     1       0.093   3.371  -3.661  1.00  0.00     0.025 C 
HETATM   15  C15 UNL     1       3.950   3.754  -3.126  1.00  0.00     0.027 C 
HETATM   16  C16 UNL     1       4.880   3.835  -1.881  1.00  0.00     0.082 C 
HETATM   17  C17 UNL     1       4.295   4.797  -0.812  1.00  0.00     0.010 C 
HETATM   18  C18 UNL     1       2.749   4.856  -0.733  1.00  0.00     0.004 C 
HETATM   19  C38 UNL     1       6.272   4.304  -2.344  1.00  0.00     0.010 C 
HETATM   20  C39 UNL     1       6.879   3.367  -3.406  1.00  0.00     0.001 C 
HETATM   21  C40 UNL     1       5.946   3.143  -4.614  1.00  0.00     0.000 C 
HETATM   22  C41 UNL     1       4.529   2.746  -4.149  1.00  0.00     0.004 C 
HETATM   23  C42 UNL     1       6.514   2.032  -5.504  1.00  0.00     0.000 C 
HETATM   24  C43 UNL     1       5.871   4.431  -5.444  1.00  0.00     0.000 C 
HETATM   25  C44 UNL     1       2.510   2.414  -0.629  1.00  0.00     0.004 C 
HETATM   26  C45 UNL     1       0.011   5.237  -1.405  1.00  0.00     0.000 C 
HETATM   27  C46 UNL     1       1.065   0.800  -2.278  1.00  0.00     0.000 C 
HETATM   28  C47 UNL     1      -1.571  -0.663   1.137  1.00  0.00     0.002 C 
HETATM   29  C48 UNL     1       0.464  -1.072  -0.183  1.00  0.00     0.002 C 
ENDROOT
BRANCH  16  30
HETATM   30  C19 UNL     1       5.127   2.478  -1.254  1.00  0.00     0.273 C 
HETATM   31  O1  UNL     1       5.023   2.315  -0.060  1.00  0.00    -0.264 OA
BRANCH  30  32
HETATM   32  O2  UNL     1       5.457   1.513  -2.107  1.00  0.00    -0.273 OA
BRANCH  32  33
HETATM   33  C20 UNL     1       5.907   0.338  -1.447  1.00  0.00     0.276 C 
HETATM   34  O3  UNL     1       4.840  -0.186  -0.667  1.00  0.00    -0.326 OA
HETATM   35  C21 UNL     1       5.164  -1.343   0.090  1.00  0.00     0.180 C 
HETATM   36  C22 UNL     1       5.574  -2.487  -0.866  1.00  0.00     0.215 C 
HETATM   37  C23 UNL     1       6.723  -2.049  -1.804  1.00  0.00     0.220 C 
HETATM   38  O6  UNL     1       5.986  -3.602  -0.094  1.00  0.00    -0.218 OA
HETATM   39  C24 UNL     1       6.360  -0.711  -2.484  1.00  0.00     0.241 C 
HETATM   40  O5  UNL     1       6.947  -3.044  -2.789  1.00  0.00    -0.218 OA
HETATM   41  O4  UNL     1       7.484  -0.202  -3.178  1.00  0.00    -0.215 OA
BRANCH  35  42
HETATM   42  C25 UNL     1       3.929  -1.684   0.930  1.00  0.00     0.177 C 
BRANCH  42  43
HETATM   43  O7  UNL     1       3.821  -0.731   1.963  1.00  0.00    -0.326 OA
BRANCH  43  44
HETATM   44  C26 UNL     1       2.720  -0.959   2.821  1.00  0.00     0.270 C 
HETATM   45  O8  UNL     1       2.940  -2.177   3.517  1.00  0.00    -0.326 OA
HETATM   46  C27 UNL     1       1.888  -2.572   4.389  1.00  0.00     0.181 C 
HETATM   47  C28 UNL     1       1.707  -1.500   5.487  1.00  0.00     0.181 C 
HETATM   48  C29 UNL     1       1.472  -0.101   4.875  1.00  0.00     0.217 C 
HETATM   49  C30 UNL     1       2.569   0.207   3.831  1.00  0.00     0.241 C 
HETATM   50  O10 UNL     1       1.490   0.881   5.898  1.00  0.00    -0.218 OA
HETATM   51  O9  UNL     1       2.230   1.394   3.130  1.00  0.00    -0.215 OA
BRANCH  46  52
HETATM   52  C37 UNL     1       2.271  -3.944   4.950  1.00  0.00     0.214 C 
HETATM   53  O16 UNL     1       2.324  -4.859   3.880  1.00  0.00    -0.218 OA
ENDBRANCH  46  52
BRANCH  47  54
HETATM   54  O11 UNL     1       0.600  -1.861   6.295  1.00  0.00    -0.326 OA
BRANCH  54  55
HETATM   55  C31 UNL     1       0.657  -1.314   7.597  1.00  0.00     0.270 C 
HETATM   56  O12 UNL     1      -0.469  -0.466   7.776  1.00  0.00    -0.329 OA
HETATM   57  C32 UNL     1      -0.525   0.204   9.029  1.00  0.00     0.151 C 
HETATM   58  C33 UNL     1      -0.616  -0.843  10.163  1.00  0.00     0.212 C 
HETATM   59  C36 UNL     1      -1.741   1.135   8.977  1.00  0.00     0.035 C 
HETATM   60  C34 UNL     1       0.546  -1.855  10.087  1.00  0.00     0.220 C 
HETATM   61  O15 UNL     1      -0.585  -0.166  11.407  1.00  0.00    -0.218 OA
HETATM   62  C35 UNL     1       0.645  -2.441   8.662  1.00  0.00     0.241 C 
HETATM   63  O14 UNL     1       0.337  -2.901  11.023  1.00  0.00    -0.218 OA
HETATM   64  O13 UNL     1       1.836  -3.205   8.548  1.00  0.00    -0.215 OA
ENDBRANCH  54  55
ENDBRANCH  47  54
ENDBRANCH  43  44
ENDBRANCH  42  43
ENDBRANCH  35  42
ENDBRANCH  32  33
ENDBRANCH  30  32
ENDBRANCH  16  30
BRANCH   2  65
HETATM   65  O17 UNL     1      -3.142  -0.879  -1.212  1.00  0.00    -0.332 OA
BRANCH  65  66
HETATM   66  C49 UNL     1      -3.996  -1.870  -1.747  1.00  0.00     0.270 C 
HETATM   67  O18 UNL     1      -4.147  -2.905  -0.785  1.00  0.00    -0.326 OA
HETATM   68  C50 UNL     1      -4.949  -3.999  -1.204  1.00  0.00     0.180 C 
HETATM   69  C51 UNL     1      -6.379  -3.510  -1.503  1.00  0.00     0.211 C 
HETATM   70  C52 UNL     1      -6.375  -2.363  -2.537  1.00  0.00     0.186 C 
HETATM   71  O26 UNL     1      -7.133  -4.606  -1.989  1.00  0.00    -0.218 OA
HETATM   72  C53 UNL     1      -5.382  -1.265  -2.095  1.00  0.00     0.238 C 
HETATM   73  O19 UNL     1      -5.232  -0.315  -3.138  1.00  0.00    -0.215 OA
BRANCH  70  74
HETATM   74  O20 UNL     1      -7.678  -1.817  -2.656  1.00  0.00    -0.326 OA
BRANCH  74  75
HETATM   75  C54 UNL     1      -8.532  -2.586  -3.479  1.00  0.00     0.270 C 
HETATM   76  O21 UNL     1      -9.509  -3.207  -2.654  1.00  0.00    -0.326 OA
HETATM   77  C55 UNL     1     -10.418  -4.061  -3.334  1.00  0.00     0.184 C 
HETATM   78  C56 UNL     1     -11.221  -3.234  -4.366  1.00  0.00     0.215 C 
HETATM   79  C57 UNL     1     -10.281  -2.478  -5.334  1.00  0.00     0.220 C 
HETATM   80  O24 UNL     1     -12.059  -4.111  -5.096  1.00  0.00    -0.218 OA
HETATM   81  C58 UNL     1      -9.227  -1.685  -4.531  1.00  0.00     0.241 C 
HETATM   82  O23 UNL     1     -11.038  -1.593  -6.144  1.00  0.00    -0.218 OA
HETATM   83  O22 UNL     1      -8.251  -1.165  -5.423  1.00  0.00    -0.215 OA
BRANCH  77  84
HETATM   84  C59 UNL     1     -11.305  -4.706  -2.266  1.00  0.00     0.214 C 
HETATM   85  O25 UNL     1     -10.501  -5.557  -1.481  1.00  0.00    -0.218 OA
ENDBRANCH  77  84
ENDBRANCH  74  75
ENDBRANCH  70  74
ENDBRANCH  65  66
ENDBRANCH   2  65
TORSDOF 14
