REMARK  11 active torsions:
REMARK  status: ('A' for Active; 'I' for Inactive)
REMARK    1  A    between atoms: C2_2  and  O13_47 
REMARK    2  A    between atoms: C3_3  and  O11_38 
REMARK    3  A    between atoms: C5_5  and  C25_34 
REMARK    4  A    between atoms: C6_6  and  O7_25 
REMARK    5  A    between atoms: C9_9  and  O1_12 
REMARK    6  A    between atoms: O1_12  and  C12_13 
REMARK    7  A    between atoms: C13_15  and  C17_22 
REMARK    8  A    between atoms: O7_25  and  C19_26 
REMARK    9  A    between atoms: O11_38  and  C28_39 
REMARK   10  A    between atoms: C28_39  and  C29_40 
REMARK   11  A    between atoms: O13_47  and  C35_48 
ROOT
HETATM    1  C1  UNL     1       0.409  -1.601  -0.642  1.00  0.00     0.034 C 
HETATM    2  C2  UNL     1       1.228  -1.042  -1.838  1.00  0.00     0.156 C 
HETATM    3  C3  UNL     1       0.885   0.392  -2.276  1.00  0.00     0.170 C 
HETATM    4  C4  UNL     1       1.152   1.490  -1.265  1.00  0.00    -0.011 A 
HETATM    5  C5  UNL     1       1.980   1.322   0.005  1.00  0.00     0.076 A 
HETATM    6  C6  UNL     1       1.550   0.155   0.949  1.00  0.00     0.134 C 
HETATM    7  C7  UNL     1       0.251  -0.590   0.535  1.00  0.00     0.051 C 
HETATM    8  C8  UNL     1      -0.522  -1.279   1.655  1.00  0.00    -0.015 C 
HETATM    9  C9  UNL     1      -1.913  -1.757   1.285  1.00  0.00     0.136 C 
HETATM   10  C10 UNL     1      -1.876  -2.608  -0.001  1.00  0.00     0.034 C 
HETATM   11  C11 UNL     1      -1.013  -1.989  -1.120  1.00  0.00     0.006 C 
HETATM   12  C18 UNL     1      -0.030  -1.487   2.894  1.00  0.00    -0.007 C 
HETATM   13  C21 UNL     1       1.805   2.698   0.724  1.00  0.00     0.077 A 
HETATM   14  C22 UNL     1       1.059   3.554  -0.260  1.00  0.00     0.169 A 
HETATM   15  C23 UNL     1       0.672   2.735  -1.391  1.00  0.00     0.007 A 
HETATM   16  C24 UNL     1      -0.164   3.228  -2.544  1.00  0.00     0.033 C 
HETATM   17  O9  UNL     1       0.821   4.732  -0.126  1.00  0.00    -0.292 OA
HETATM   18  C37 UNL     1       1.110  -2.883  -0.153  1.00  0.00     0.003 C 
ENDROOT
BRANCH   9  19
HETATM   19  O1  UNL     1      -2.764  -0.645   1.087  1.00  0.00    -0.327 OA
BRANCH  19  20
HETATM   20  C12 UNL     1      -3.133  -0.004   2.292  1.00  0.00     0.270 C 
HETATM   21  O2  UNL     1      -4.077  -0.831   2.967  1.00  0.00    -0.326 OA
HETATM   22  C13 UNL     1      -4.547  -0.336   4.217  1.00  0.00     0.184 C 
HETATM   23  C14 UNL     1      -5.251   1.023   3.994  1.00  0.00     0.215 C 
HETATM   24  C15 UNL     1      -4.329   2.031   3.275  1.00  0.00     0.220 C 
HETATM   25  O5  UNL     1      -5.670   1.539   5.246  1.00  0.00    -0.218 OA
HETATM   26  C16 UNL     1      -3.755   1.385   1.994  1.00  0.00     0.241 C 
HETATM   27  O4  UNL     1      -5.064   3.197   2.937  1.00  0.00    -0.218 OA
HETATM   28  O3  UNL     1      -2.763   2.235   1.441  1.00  0.00    -0.215 OA
BRANCH  22  29
HETATM   29  C17 UNL     1      -3.375  -0.286   5.209  1.00  0.00     0.214 C 
HETATM   30  O6  UNL     1      -2.833  -1.583   5.317  1.00  0.00    -0.218 OA
ENDBRANCH  22  29
ENDBRANCH  19  20
ENDBRANCH   9  19
BRANCH   6  31
HETATM   31  O7  UNL     1       2.606  -0.785   1.103  1.00  0.00    -0.304 OA
BRANCH  31  32
HETATM   32  C19 UNL     1       3.183  -0.707   2.299  1.00  0.00     0.272 C 
HETATM   33  C20 UNL     1       3.953  -1.930   2.720  1.00  0.00     0.106 C 
HETATM   34  O8  UNL     1       3.113   0.262   3.018  1.00  0.00    -0.264 OA
ENDBRANCH  31  32
ENDBRANCH   6  31
BRANCH   2  35
HETATM   35  O13 UNL     1       2.623  -1.127  -1.573  1.00  0.00    -0.301 OA
BRANCH  35  36
HETATM   36  C35 UNL     1       3.293  -1.702  -2.568  1.00  0.00     0.272 C 
HETATM   37  C36 UNL     1       4.437  -2.583  -2.144  1.00  0.00     0.106 C 
HETATM   38  O14 UNL     1       3.027  -1.546  -3.737  1.00  0.00    -0.264 OA
ENDBRANCH  35  36
ENDBRANCH   2  35
BRANCH   5  39
HETATM   39  C25 UNL     1       3.463   1.268  -0.377  1.00  0.00     0.133 C 
HETATM   40  C26 UNL     1       3.647   1.825  -1.789  1.00  0.00     0.033 C 
HETATM   41  O10 UNL     1       3.879  -0.079  -0.377  1.00  0.00    -0.226 OA
HETATM   42  C27 UNL     1       4.286   2.023   0.667  1.00  0.00     0.033 C 
ENDBRANCH   5  39
BRANCH   3  43
HETATM   43  O11 UNL     1       1.626   0.692  -3.450  1.00  0.00    -0.294 OA
BRANCH  43  44
HETATM   44  C28 UNL     1       0.856   1.160  -4.429  1.00  0.00     0.296 C 
HETATM   45  O12 UNL     1       1.021   2.233  -4.960  1.00  0.00    -0.259 OA
BRANCH  44  46
HETATM   46  C29 UNL     1      -0.258   0.259  -4.848  1.00  0.00     0.063 A 
HETATM   47  C30 UNL     1      -1.525   0.795  -5.142  1.00  0.00     0.005 A 
HETATM   48  C31 UNL     1      -2.574  -0.054  -5.537  1.00  0.00     0.000 A 
HETATM   49  C32 UNL     1      -2.358  -1.439  -5.638  1.00  0.00     0.000 A 
HETATM   50  C33 UNL     1      -1.093  -1.975  -5.344  1.00  0.00     0.000 A 
HETATM   51  C34 UNL     1      -0.043  -1.128  -4.949  1.00  0.00     0.005 A 
ENDBRANCH  44  46
ENDBRANCH  43  44
ENDBRANCH   3  43
TORSDOF 11
