REMARK  18 active torsions:
REMARK  status: ('A' for Active; 'I' for Inactive)
REMARK    1  A    between atoms: C2_2  and  O14_56 
REMARK    2  A    between atoms: C3_3  and  C41_53 
REMARK    3  A    between atoms: C16_16  and  C19_19 
REMARK    4  A    between atoms: C19_19  and  O2_21 
REMARK    5  A    between atoms: O2_21  and  C20_22 
REMARK    6  A    between atoms: C21_24  and  C25_31 
REMARK    7  A    between atoms: C25_31  and  O7_32 
REMARK    8  A    between atoms: O7_32  and  C26_33 
REMARK    9  A    between atoms: C27_35  and  C31_42 
REMARK   10  A    between atoms: O14_56  and  C43_57 
REMARK   11  A    between atoms: C45_60  and  O18_65 
REMARK   12  A    between atoms: C45_60  and  C65_96 
REMARK   13  A    between atoms: O18_65  and  C48_66 
REMARK   14  A    between atoms: C49_68  and  C64_94 
REMARK   15  A    between atoms: C51_70  and  O21_73 
REMARK   16  A    between atoms: O21_73  and  C53_74 
REMARK   17  A    between atoms: C57_79  and  O23_80 
REMARK   18  A    between atoms: O23_80  and  C58_81 
ROOT
HETATM    1  C1  UNL     1       0.617  -3.983  -1.570  1.00  0.00     0.030 C 
HETATM    2  C2  UNL     1       1.107  -3.133  -0.389  1.00  0.00     0.120 C 
HETATM    3  C3  UNL     1       0.385  -3.485   0.936  1.00  0.00     0.056 C 
HETATM    4  C4  UNL     1      -1.150  -3.363   0.717  1.00  0.00     0.005 C 
HETATM    5  C5  UNL     1      -1.699  -4.195  -0.479  1.00  0.00     0.001 C 
HETATM    6  C6  UNL     1      -0.898  -3.840  -1.756  1.00  0.00     0.003 C 
HETATM    7  C7  UNL     1      -3.207  -3.856  -0.688  1.00  0.00     0.005 C 
HETATM    8  C8  UNL     1      -4.096  -4.027   0.584  1.00  0.00     0.004 C 
HETATM    9  C9  UNL     1      -3.445  -3.309   1.793  1.00  0.00     0.000 C 
HETATM   10  C10 UNL     1      -1.967  -3.652   1.990  1.00  0.00     0.000 C 
HETATM   11  C11 UNL     1      -5.512  -3.434   0.279  1.00  0.00     0.015 C 
HETATM   12  C12 UNL     1      -6.111  -4.072  -0.971  1.00  0.00    -0.049 C 
HETATM   13  C13 UNL     1      -5.336  -4.569  -1.957  1.00  0.00    -0.035 C 
HETATM   14  C14 UNL     1      -3.828  -4.602  -1.891  1.00  0.00     0.025 C 
HETATM   15  C15 UNL     1      -7.627  -4.166  -1.107  1.00  0.00     0.027 C 
HETATM   16  C16 UNL     1      -8.387  -3.108  -0.268  1.00  0.00     0.082 C 
HETATM   17  C17 UNL     1      -7.924  -3.129   1.217  1.00  0.00     0.010 C 
HETATM   18  C18 UNL     1      -6.492  -3.656   1.457  1.00  0.00     0.004 C 
HETATM   19  C32 UNL     1      -9.914  -3.324  -0.383  1.00  0.00     0.010 C 
HETATM   20  C33 UNL     1     -10.356  -4.768  -0.088  1.00  0.00     0.001 C 
HETATM   21  C34 UNL     1      -9.617  -5.793  -0.965  1.00  0.00     0.000 C 
HETATM   22  C35 UNL     1      -8.100  -5.606  -0.793  1.00  0.00     0.004 C 
HETATM   23  C36 UNL     1     -10.014  -7.211  -0.537  1.00  0.00     0.000 C 
HETATM   24  C37 UNL     1     -10.010  -5.612  -2.436  1.00  0.00     0.000 C 
HETATM   25  C38 UNL     1      -5.391  -1.922   0.021  1.00  0.00     0.004 C 
HETATM   26  C39 UNL     1      -4.221  -5.524   0.930  1.00  0.00     0.000 C 
HETATM   27  C40 UNL     1      -1.529  -5.699  -0.209  1.00  0.00     0.000 C 
HETATM   28  C42 UNL     1       0.756  -4.901   1.410  1.00  0.00     0.005 C 
ENDROOT
BRANCH   2  29
HETATM   29  O14 UNL     1       2.508  -3.293  -0.258  1.00  0.00    -0.332 OA
BRANCH  29  30
HETATM   30  C43 UNL     1       3.246  -2.526  -1.189  1.00  0.00     0.270 C 
HETATM   31  O15 UNL     1       3.195  -1.162  -0.791  1.00  0.00    -0.326 OA
HETATM   32  C44 UNL     1       3.869  -0.258  -1.660  1.00  0.00     0.177 C 
HETATM   33  C45 UNL     1       5.379  -0.592  -1.752  1.00  0.00     0.184 C 
HETATM   34  C46 UNL     1       5.568  -2.080  -2.147  1.00  0.00     0.217 C 
HETATM   35  C47 UNL     1       4.719  -3.008  -1.244  1.00  0.00     0.241 C 
HETATM   36  O17 UNL     1       6.938  -2.453  -2.100  1.00  0.00    -0.218 OA
HETATM   37  O16 UNL     1       4.760  -4.330  -1.758  1.00  0.00    -0.215 OA
BRANCH  33  38
HETATM   38  O18 UNL     1       5.963  -0.338  -0.482  1.00  0.00    -0.326 OA
BRANCH  38  39
HETATM   39  C48 UNL     1       5.742   0.980  -0.023  1.00  0.00     0.270 C 
HETATM   40  O19 UNL     1       4.631   0.967   0.863  1.00  0.00    -0.326 OA
HETATM   41  C49 UNL     1       4.252   2.238   1.375  1.00  0.00     0.184 C 
HETATM   42  C50 UNL     1       5.422   2.826   2.195  1.00  0.00     0.211 C 
HETATM   43  C51 UNL     1       6.719   2.891   1.359  1.00  0.00     0.186 C 
HETATM   44  O30 UNL     1       5.063   4.129   2.625  1.00  0.00    -0.218 OA
HETATM   45  C52 UNL     1       6.998   1.514   0.713  1.00  0.00     0.238 C 
HETATM   46  O20 UNL     1       8.067   1.637  -0.211  1.00  0.00    -0.215 OA
BRANCH  41  47
HETATM   47  C64 UNL     1       2.986   2.019   2.209  1.00  0.00     0.214 C 
HETATM   48  O31 UNL     1       1.938   1.666   1.336  1.00  0.00    -0.218 OA
ENDBRANCH  41  47
BRANCH  43  49
HETATM   49  O21 UNL     1       7.809   3.262   2.189  1.00  0.00    -0.326 OA
BRANCH  49  50
HETATM   50  C53 UNL     1       7.797   4.631   2.541  1.00  0.00     0.267 C 
HETATM   51  O22 UNL     1       7.371   4.744   3.893  1.00  0.00    -0.329 OA
HETATM   52  C54 UNL     1       7.262   6.076   4.379  1.00  0.00     0.151 C 
HETATM   53  C55 UNL     1       8.651   6.754   4.332  1.00  0.00     0.212 C 
HETATM   54  C63 UNL     1       6.693   5.980   5.799  1.00  0.00     0.035 C 
HETATM   55  C56 UNL     1       9.256   6.693   2.912  1.00  0.00     0.217 C 
HETATM   56  O29 UNL     1       8.510   8.104   4.736  1.00  0.00    -0.218 OA
HETATM   57  C57 UNL     1       9.213   5.242   2.381  1.00  0.00     0.207 C 
HETATM   58  O28 UNL     1      10.596   7.158   2.939  1.00  0.00    -0.218 OA
BRANCH  57  59
HETATM   59  O23 UNL     1       9.576   5.232   1.010  1.00  0.00    -0.324 OA
BRANCH  59  60
HETATM   60  C58 UNL     1      10.447   4.172   0.670  1.00  0.00     0.270 C 
HETATM   61  O24 UNL     1      10.205   3.805  -0.682  1.00  0.00    -0.326 OA
HETATM   62  C59 UNL     1      10.983   2.711  -1.150  1.00  0.00     0.181 C 
HETATM   63  C60 UNL     1      12.479   3.074  -1.090  1.00  0.00     0.215 C 
HETATM   64  C61 UNL     1      12.891   3.508   0.334  1.00  0.00     0.220 C 
HETATM   65  O27 UNL     1      13.229   1.943  -1.494  1.00  0.00    -0.218 OA
HETATM   66  C62 UNL     1      11.926   4.603   0.846  1.00  0.00     0.241 C 
HETATM   67  O26 UNL     1      14.219   4.006   0.320  1.00  0.00    -0.218 OA
HETATM   68  O25 UNL     1      12.186   4.855   2.217  1.00  0.00    -0.215 OA
ENDBRANCH  59  60
ENDBRANCH  57  59
ENDBRANCH  49  50
ENDBRANCH  43  49
ENDBRANCH  38  39
ENDBRANCH  33  38
BRANCH  33  69
HETATM   69  C65 UNL     1       6.078   0.350  -2.738  1.00  0.00     0.214 C 
HETATM   70  O32 UNL     1       5.137   1.303  -3.180  1.00  0.00    -0.218 OA
ENDBRANCH  33  69
ENDBRANCH  29  30
ENDBRANCH   2  29
BRANCH   3  71
HETATM   71  C41 UNL     1       0.824  -2.494   2.023  1.00  0.00     0.184 C 
HETATM   72  O13 UNL     1       0.398  -1.205   1.645  1.00  0.00    -0.221 OA
ENDBRANCH   3  71
BRANCH  16  73
HETATM   73  C19 UNL     1      -8.125  -1.734  -0.854  1.00  0.00     0.273 C 
HETATM   74  O1  UNL     1      -8.135  -0.748  -0.154  1.00  0.00    -0.264 OA
BRANCH  73  75
HETATM   75  O2  UNL     1      -7.893  -1.711  -2.162  1.00  0.00    -0.273 OA
BRANCH  75  76
HETATM   76  C20 UNL     1      -7.988  -0.402  -2.707  1.00  0.00     0.276 C 
HETATM   77  O3  UNL     1      -6.832   0.334  -2.332  1.00  0.00    -0.326 OA
HETATM   78  C21 UNL     1      -6.817   1.685  -2.772  1.00  0.00     0.180 C 
HETATM   79  C22 UNL     1      -6.848   1.727  -4.316  1.00  0.00     0.215 C 
HETATM   80  C23 UNL     1      -8.053   0.935  -4.873  1.00  0.00     0.220 C 
HETATM   81  O6  UNL     1      -6.926   3.076  -4.736  1.00  0.00    -0.218 OA
HETATM   82  C24 UNL     1      -8.088  -0.475  -4.244  1.00  0.00     0.241 C 
HETATM   83  O5  UNL     1      -7.949   0.830  -6.285  1.00  0.00    -0.218 OA
HETATM   84  O4  UNL     1      -9.297  -1.127  -4.590  1.00  0.00    -0.215 OA
BRANCH  78  85
HETATM   85  C25 UNL     1      -5.553   2.326  -2.184  1.00  0.00     0.177 C 
BRANCH  85  86
HETATM   86  O7  UNL     1      -5.707   2.400  -0.785  1.00  0.00    -0.326 OA
BRANCH  86  87
HETATM   87  C26 UNL     1      -4.576   2.939  -0.127  1.00  0.00     0.270 C 
HETATM   88  O8  UNL     1      -4.465   4.312  -0.479  1.00  0.00    -0.326 OA
HETATM   89  C27 UNL     1      -3.338   4.984   0.068  1.00  0.00     0.184 C 
HETATM   90  C28 UNL     1      -3.432   4.963   1.611  1.00  0.00     0.215 C 
HETATM   91  C29 UNL     1      -3.574   3.521   2.146  1.00  0.00     0.220 C 
HETATM   92  O11 UNL     1      -2.262   5.559   2.145  1.00  0.00    -0.218 OA
HETATM   93  C30 UNL     1      -4.725   2.797   1.408  1.00  0.00     0.241 C 
HETATM   94  O10 UNL     1      -3.838   3.549   3.539  1.00  0.00    -0.218 OA
HETATM   95  O9  UNL     1      -4.713   1.422   1.756  1.00  0.00    -0.215 OA
BRANCH  89  96
HETATM   96  C31 UNL     1      -3.346   6.402  -0.512  1.00  0.00     0.214 C 
HETATM   97  O12 UNL     1      -3.088   6.314  -1.895  1.00  0.00    -0.218 OA
ENDBRANCH  89  96
ENDBRANCH  86  87
ENDBRANCH  85  86
ENDBRANCH  78  85
ENDBRANCH  75  76
ENDBRANCH  73  75
ENDBRANCH  16  73
TORSDOF 18
