REMARK  5 active torsions:
REMARK  status: ('A' for Active; 'I' for Inactive)
REMARK    1  A    between atoms: C6_6  and  O1_7 
REMARK    2  A    between atoms: C8_10  and  C17_26 
REMARK    3  A    between atoms: C9_11  and  O4_14 
REMARK    4  A    between atoms: O4_14  and  C11_15 
REMARK    5  A    between atoms: C12_17  and  C16_24 
ROOT
HETATM    1  C1  UNL     1      -5.271  -0.156  -1.113  1.00  0.00     0.028 A 
HETATM    2  C2  UNL     1      -5.115  -1.459  -0.584  1.00  0.00     0.030 A 
HETATM    3  C3  UNL     1      -3.820  -1.998  -0.391  1.00  0.00     0.136 A 
HETATM    4  C4  UNL     1      -2.682  -1.223  -0.730  1.00  0.00     0.091 A 
HETATM    5  C5  UNL     1      -2.836   0.084  -1.260  1.00  0.00     0.127 A 
HETATM    6  C6  UNL     1      -4.135   0.615  -1.451  1.00  0.00     0.117 A 
HETATM    7  O2  UNL     1      -1.752   0.820  -1.580  1.00  0.00    -0.303 OA
HETATM    8  C8  UNL     1      -0.482   0.391  -1.428  1.00  0.00     0.125 A 
HETATM    9  C9  UNL     1      -0.201  -0.840  -0.934  1.00  0.00     0.158 A 
HETATM   10  C10 UNL     1      -1.303  -1.752  -0.543  1.00  0.00     0.224 A 
HETATM   11  O3  UNL     1      -0.990  -2.838  -0.109  1.00  0.00    -0.284 OA
HETATM   12  O11 UNL     1      -3.689  -3.234   0.113  1.00  0.00    -0.190 OA
ENDROOT
BRANCH   9  13
HETATM   13  O4  UNL     1       1.059  -1.254  -0.789  1.00  0.00    -0.298 OA
BRANCH  13  14
HETATM   14  C11 UNL     1       1.656  -0.760   0.402  1.00  0.00     0.274 C 
HETATM   15  O5  UNL     1       0.979  -1.316   1.520  1.00  0.00    -0.326 OA
HETATM   16  C12 UNL     1       1.443  -0.869   2.787  1.00  0.00     0.184 C 
HETATM   17  C13 UNL     1       2.928  -1.270   2.961  1.00  0.00     0.215 C 
HETATM   18  C14 UNL     1       3.793  -0.748   1.793  1.00  0.00     0.220 C 
HETATM   19  O8  UNL     1       3.401  -0.736   4.186  1.00  0.00    -0.218 OA
HETATM   20  C15 UNL     1       3.149  -1.154   0.449  1.00  0.00     0.241 C 
HETATM   21  O7  UNL     1       5.100  -1.291   1.881  1.00  0.00    -0.218 OA
HETATM   22  O6  UNL     1       3.819  -0.514  -0.621  1.00  0.00    -0.215 OA
BRANCH  16  23
HETATM   23  C16 UNL     1       0.527  -1.498   3.842  1.00  0.00     0.214 C 
HETATM   24  O9  UNL     1      -0.764  -0.951   3.686  1.00  0.00    -0.218 OA
ENDBRANCH  16  23
ENDBRANCH  13  14
ENDBRANCH   9  13
BRANCH   8  25
HETATM   25  C17 UNL     1       0.637   1.299  -1.816  1.00  0.00     0.025 A 
HETATM   26  C18 UNL     1       1.746   0.793  -2.518  1.00  0.00     0.004 A 
HETATM   27  C19 UNL     1       2.797   1.648  -2.883  1.00  0.00     0.028 A 
HETATM   28  C20 UNL     1       2.748   3.014  -2.551  1.00  0.00     0.131 A 
HETATM   29  C21 UNL     1       1.637   3.520  -1.850  1.00  0.00     0.028 A 
HETATM   30  O10 UNL     1       3.735   3.816  -2.895  1.00  0.00    -0.190 OA
HETATM   31  C22 UNL     1       0.584   2.664  -1.484  1.00  0.00     0.004 A 
ENDBRANCH   8  25
BRANCH   6  32
HETATM   32  O1  UNL     1      -4.287   1.848  -1.953  1.00  0.00    -0.326 OA
HETATM   33  C7  UNL     1      -5.609   2.311  -2.193  1.00  0.00     0.181 C 
ENDBRANCH   6  32
TORSDOF 5
