REMARK  7 active torsions:
REMARK  status: ('A' for Active; 'I' for Inactive)
REMARK    1  A    between atoms: C6_7  and  C21_34 
REMARK    2  A    between atoms: C7_8  and  O3_11 
REMARK    3  A    between atoms: O3_11  and  C9_12 
REMARK    4  A    between atoms: C10_14  and  C14_21 
REMARK    5  A    between atoms: C14_21  and  O8_22 
REMARK    6  A    between atoms: O8_22  and  C15_23 
REMARK    7  A    between atoms: C19_27  and  C20_29 
ROOT
HETATM    1  C9  UNL     1       5.903   3.387   0.080  1.00  0.00     0.272 C 
HETATM    2  O4  UNL     1       6.652   2.173  -0.396  1.00  0.00    -0.326 OA
HETATM    3  C10 UNL     1       6.147   0.938   0.145  1.00  0.00     0.180 C 
HETATM    4  C11 UNL     1       4.614   0.809  -0.220  1.00  0.00     0.215 C 
HETATM    5  C12 UNL     1       3.836   2.002   0.249  1.00  0.00     0.220 C 
HETATM    6  C13 UNL     1       4.424   3.249  -0.408  1.00  0.00     0.241 C 
HETATM    7  O5  UNL     1       3.629   4.301  -0.002  1.00  0.00    -0.215 OA
HETATM    8  O6  UNL     1       2.470   1.853  -0.150  1.00  0.00    -0.218 OA
HETATM    9  O7  UNL     1       4.002  -0.373   0.365  1.00  0.00    -0.218 OA
ENDROOT
BRANCH   1  10
HETATM   10  O3  UNL     1       6.747   4.510  -0.398  1.00  0.00    -0.303 OA
BRANCH  10  11
HETATM   11  C7  UNL     1       6.543   6.013  -0.485  1.00  0.00     0.250 C 
HETATM   12  C6  UNL     1       5.766   6.903   0.590  1.00  0.00     0.101 C 
HETATM   13  C4  UNL     1       6.036   8.360   0.217  1.00  0.00    -0.008 C 
HETATM   14  C3  UNL     1       7.355   8.708  -0.234  1.00  0.00     0.084 C 
HETATM   15  C5  UNL     1       5.121   9.306   0.374  1.00  0.00     0.003 C 
HETATM   16  C2  UNL     1       7.697  10.102  -0.361  1.00  0.00     0.298 C 
HETATM   17  C8  UNL     1       8.232   7.771  -0.523  1.00  0.00     0.124 C 
HETATM   18  O1  UNL     1       6.763  11.067  -0.187  1.00  0.00    -0.293 OA
HETATM   19  O14 UNL     1       8.864  10.414  -0.656  1.00  0.00    -0.259 OA
HETATM   20  C1  UNL     1       5.398  10.774   0.074  1.00  0.00     0.178 C 
HETATM   21  O2  UNL     1       7.892   6.453  -0.481  1.00  0.00    -0.303 OA
BRANCH  12  22
HETATM   22  C21 UNL     1       4.272   6.746   0.648  1.00  0.00    -0.017 C 
HETATM   23  C22 UNL     1       3.605   6.768   1.802  1.00  0.00    -0.004 C 
ENDBRANCH  12  22
ENDBRANCH  10  11
ENDBRANCH   1  10
BRANCH   3  24
HETATM   24  C14 UNL     1       6.765  -0.346  -0.538  1.00  0.00     0.177 C 
BRANCH  24  25
HETATM   25  O8  UNL     1       8.169  -0.756  -0.722  1.00  0.00    -0.326 OA
BRANCH  25  26
HETATM   26  C15 UNL     1       9.324  -0.411   0.076  1.00  0.00     0.270 C 
HETATM   27  C16 UNL     1      10.347  -1.474  -0.409  1.00  0.00     0.241 C 
HETATM   28  C17 UNL     1      11.693  -1.292   0.271  1.00  0.00     0.220 C 
HETATM   29  O13 UNL     1       9.820  -2.772  -0.120  1.00  0.00    -0.215 OA
HETATM   30  C18 UNL     1      12.192   0.087  -0.097  1.00  0.00     0.215 C 
HETATM   31  O12 UNL     1      12.627  -2.274  -0.199  1.00  0.00    -0.218 OA
HETATM   32  C19 UNL     1      11.166   1.144   0.401  1.00  0.00     0.184 C 
HETATM   33  O11 UNL     1      13.472   0.293   0.506  1.00  0.00    -0.218 OA
HETATM   34  O9  UNL     1       9.847   0.918  -0.226  1.00  0.00    -0.326 OA
BRANCH  32  35
HETATM   35  C20 UNL     1      11.694   2.542   0.004  1.00  0.00     0.214 C 
HETATM   36  O10 UNL     1      12.989   2.760   0.584  1.00  0.00    -0.218 OA
ENDBRANCH  32  35
ENDBRANCH  25  26
ENDBRANCH  24  25
ENDBRANCH   3  24
TORSDOF 7
