REMARK  4 active torsions:
REMARK  status: ('A' for Active; 'I' for Inactive)
REMARK    1  A    between atoms: C1_1  and  C7_12 
REMARK    2  A    between atoms: C2_3  and  C6_10 
REMARK    3  A    between atoms: C7_12  and  C8_13 
REMARK    4  A    between atoms: C11_16  and  C14_19 
ROOT
HETATM    1  C1  UNL     1      -1.019   0.482  -0.439  1.00  0.00     0.153 C 
HETATM    2  O1  UNL     1      -1.941   1.497  -0.139  1.00  0.00    -0.351 OA
HETATM    3  C2  UNL     1      -2.760   1.223   0.962  1.00  0.00     0.181 C 
HETATM    4  C3  UNL     1      -3.646   0.029   0.637  1.00  0.00     0.214 C 
HETATM    5  C4  UNL     1      -2.810  -1.190   0.299  1.00  0.00     0.217 C 
HETATM    6  C5  UNL     1      -1.744  -0.831  -0.725  1.00  0.00     0.212 C 
HETATM    7  O2  UNL     1      -2.377  -0.708  -1.979  1.00  0.00    -0.218 OA
HETATM    8  O3  UNL     1      -2.208  -1.690   1.468  1.00  0.00    -0.218 OA
HETATM    9  O4  UNL     1      -4.458   0.339  -0.473  1.00  0.00    -0.218 OA
ENDROOT
BRANCH   1  10
HETATM   10  C7  UNL     1       0.115   0.411   0.594  1.00  0.00     0.059 C 
BRANCH  10  11
HETATM   11  C8  UNL     1       1.481  -0.054   0.116  1.00  0.00    -0.020 A 
HETATM   12  C9  UNL     1       2.554   0.175   0.896  1.00  0.00    -0.004 A 
HETATM   13  C10 UNL     1       3.789  -0.191   0.521  1.00  0.00    -0.002 A 
HETATM   14  C11 UNL     1       4.000  -0.802  -0.656  1.00  0.00     0.008 A 
HETATM   15  C12 UNL     1       2.932  -1.047  -1.433  1.00  0.00    -0.002 A 
HETATM   16  C13 UNL     1       1.698  -0.678  -1.056  1.00  0.00    -0.004 A 
BRANCH  14  17
HETATM   17  C14 UNL     1       5.395  -1.209  -1.087  1.00  0.00     0.174 C 
HETATM   18  C15 UNL     1       5.856  -2.472  -0.366  1.00  0.00     0.041 C 
HETATM   19  O6  UNL     1       6.323  -0.168  -0.835  1.00  0.00    -0.219 OA
ENDBRANCH  14  17
ENDBRANCH  10  11
ENDBRANCH   1  10
BRANCH   3  20
HETATM   20  C6  UNL     1      -3.576   2.469   1.281  1.00  0.00     0.214 C 
HETATM   21  O5  UNL     1      -2.725   3.483   1.777  1.00  0.00    -0.218 OA
ENDBRANCH   3  20
TORSDOF 4
