REMARK  5 active torsions:
REMARK  status: ('A' for Active; 'I' for Inactive)
REMARK    1  A    between atoms: C1_2  and  C2_3 
REMARK    2  A    between atoms: C2_3  and  C3_4 
REMARK    3  A    between atoms: C3_4  and  C4_5 
REMARK    4  A    between atoms: C4_5  and  C5_6 
REMARK    5  A    between atoms: C4_5  and  C6_9 
ROOT
HETATM    1  C4  UNL     1      -0.951   0.488  -0.301  1.00  0.00     0.172 C 
ENDROOT
BRANCH   1   2
HETATM    2  C3  UNL     1       0.553   0.689  -0.112  1.00  0.00     0.071 C 
BRANCH   2   3
HETATM    3  C2  UNL     1       1.223  -0.495   0.587  1.00  0.00     0.388 C 
HETATM    4  N2  UNL     1       0.731  -0.629   1.947  1.00  0.00     0.628 N 
BRANCH   3   5
HETATM    5  C1  UNL     1       2.725  -0.386   0.587  1.00  0.00     0.224 C 
HETATM    6  O1  UNL     1       3.376  -1.546   0.587  1.00  0.00    -0.646 OA
HETATM    7  O5  UNL     1       3.271   0.692   0.587  1.00  0.00    -0.646 OA
ENDBRANCH   3   5
ENDBRANCH   2   3
ENDBRANCH   1   2
BRANCH   1   8
HETATM    8  C5  UNL     1      -1.642   1.738  -0.775  1.00  0.00     0.194 C 
HETATM    9  O2  UNL     1      -2.866   1.927  -0.289  1.00  0.00    -0.647 OA
HETATM   10  O3  UNL     1      -1.098   2.497  -1.542  1.00  0.00    -0.647 OA
ENDBRANCH   1   8
BRANCH   1  11
HETATM   11  C6  UNL     1      -1.265  -0.667  -1.214  1.00  0.00     0.284 C 
HETATM   12  N1  UNL     1      -2.429  -1.355  -1.023  1.00  0.00    -0.107 N 
HETATM   13  O4  UNL     1      -0.507  -0.983  -2.101  1.00  0.00    -0.268 OA
ENDBRANCH   1  11
TORSDOF 5
