REMARK  8 active torsions:
REMARK  status: ('A' for Active; 'I' for Inactive)
REMARK    1  A    between atoms: C1_2  and  C2_3 
REMARK    2  A    between atoms: C2_3  and  N1_4 
REMARK    3  A    between atoms: C2_3  and  C8_14 
REMARK       I    between atoms: N1_4  and  C3_5 
REMARK    4  A    between atoms: C3_5  and  C4_6 
REMARK    5  A    between atoms: C4_6  and  C5_7 
REMARK    6  A    between atoms: C5_7  and  C6_8 
REMARK    7  A    between atoms: C6_8  and  C7_9 
REMARK    8  A    between atoms: C8_14  and  C9_15 
ROOT
HETATM    1  C2  UNL     1       0.150   0.673   2.194  1.00  0.00     0.197 C 
ENDROOT
BRANCH   1   2
HETATM    2  C1  UNL     1       0.903   1.896   2.697  1.00  0.00     0.209 C 
HETATM    3  O1  UNL     1       0.435   2.359   3.868  1.00  0.00    -0.646 OA
HETATM    4  O6  UNL     1       1.822   2.412   2.105  1.00  0.00    -0.646 OA
ENDBRANCH   1   2
BRANCH   1   5
HETATM    5  N1  UNL     1       0.446   0.579   0.762  1.00  0.00    -0.229 NA
HETATM    6  C3  UNL     1      -0.484   0.238  -0.181  1.00  0.00     0.252 C 
HETATM    7  O4  UNL     1      -1.605  -0.111   0.103  1.00  0.00    -0.271 OA
BRANCH   6   8
HETATM    8  C4  UNL     1       0.016   0.342  -1.614  1.00  0.00     0.092 C 
BRANCH   8   9
HETATM    9  C5  UNL     1       0.546   1.750  -1.936  1.00  0.00     0.060 C 
BRANCH   9  10
HETATM   10  C6  UNL     1       0.995   1.933  -3.396  1.00  0.00     0.388 C 
HETATM   11  N2  UNL     1       1.727   3.204  -3.523  1.00  0.00     0.628 N 
BRANCH  10  12
HETATM   12  C7  UNL     1      -0.139   1.929  -4.403  1.00  0.00     0.224 C 
HETATM   13  O2  UNL     1       0.326   2.107  -5.654  1.00  0.00    -0.646 OA
HETATM   14  O3  UNL     1      -1.320   1.802  -4.185  1.00  0.00    -0.646 OA
ENDBRANCH  10  12
ENDBRANCH   9  10
ENDBRANCH   8   9
ENDBRANCH   6   8
ENDBRANCH   1   5
BRANCH   1  15
HETATM   15  C8  UNL     1       0.615  -0.582   2.951  1.00  0.00     0.062 C 
BRANCH  15  16
HETATM   16  C9  UNL     1      -0.147  -1.821   2.534  1.00  0.00    -0.019 A 
HETATM   17  C10 UNL     1       0.446  -2.812   1.847  1.00  0.00    -0.002 A 
HETATM   18  C11 UNL     1      -0.240  -3.912   1.497  1.00  0.00     0.027 A 
HETATM   19  C12 UNL     1      -1.536  -4.060   1.817  1.00  0.00     0.131 A 
HETATM   20  C13 UNL     1      -2.127  -3.063   2.496  1.00  0.00     0.027 A 
HETATM   21  O5  UNL     1      -2.235  -5.173   1.464  1.00  0.00    -0.190 OA
HETATM   22  C14 UNL     1      -1.445  -1.964   2.853  1.00  0.00    -0.002 A 
ENDBRANCH  15  16
ENDBRANCH   1  15
TORSDOF 8
