REMARK  1 active torsions:
REMARK  status: ('A' for Active; 'I' for Inactive)
REMARK    1  A    between atoms: C9_9  and  C11_11 
ROOT
HETATM    1  C1  UNL     1      -3.192   0.803  -1.119  1.00  0.00     0.203 C 
HETATM    2  C2  UNL     1      -2.801  -0.564  -1.645  1.00  0.00     0.213 C 
HETATM    3  C3  UNL     1      -1.613  -1.176  -0.865  1.00  0.00     0.042 C 
HETATM    4  C4  UNL     1      -0.443  -0.172  -0.760  1.00  0.00     0.022 C 
HETATM    5  C5  UNL     1      -0.906   1.184  -0.246  1.00  0.00    -0.042 C 
HETATM    6  C6  UNL     1      -2.174   1.609  -0.424  1.00  0.00     0.032 C 
HETATM    7  C7  UNL     1       0.107   2.049   0.475  1.00  0.00     0.022 C 
HETATM    8  C8  UNL     1       1.535   1.727   0.014  1.00  0.00     0.008 C 
HETATM    9  C9  UNL     1       1.914   0.242   0.217  1.00  0.00     0.019 C 
HETATM   10  C10 UNL     1       0.695  -0.705   0.135  1.00  0.00     0.008 C 
HETATM   11  C14 UNL     1      -1.154  -2.500  -1.492  1.00  0.00     0.003 C 
HETATM   12  O1  UNL     1      -3.904  -1.451  -1.576  1.00  0.00    -0.215 OA
HETATM   13  O2  UNL     1      -4.311   1.242  -1.258  1.00  0.00    -0.289 OA
ENDROOT
BRANCH   9  14
HETATM   14  C11 UNL     1       2.664   0.033   1.510  1.00  0.00    -0.044 C 
HETATM   15  C12 UNL     1       3.918  -0.443   1.455  1.00  0.00    -0.009 C 
HETATM   16  C13 UNL     1       2.068   0.332   2.859  1.00  0.00     0.026 C 
ENDBRANCH   9  14
TORSDOF 1
