REMARK  3 active torsions:
REMARK  status: ('A' for Active; 'I' for Inactive)
REMARK    1  A    between atoms: C1_1  and  O5_25 
REMARK    2  A    between atoms: C2_2  and  C16_20 
REMARK    3  A    between atoms: C16_20  and  C17_21 
ROOT
HETATM    1  C1  UNL     1       2.318  -1.016  -0.490  1.00  0.00     0.092 A 
HETATM    2  C2  UNL     1       1.742  -0.299   0.586  1.00  0.00     0.004 A 
HETATM    3  C3  UNL     1       0.420   0.191   0.480  1.00  0.00    -0.002 A 
HETATM    4  C4  UNL     1      -0.334  -0.033  -0.699  1.00  0.00     0.030 A 
HETATM    5  C5  UNL     1       0.232  -0.791  -1.762  1.00  0.00     0.094 A 
HETATM    6  C6  UNL     1       1.563  -1.260  -1.660  1.00  0.00     0.048 A 
HETATM    7  O1  UNL     1      -0.477  -1.074  -2.873  1.00  0.00    -0.328 OA
HETATM    8  C7  UNL     1      -1.904  -1.096  -2.821  1.00  0.00     0.186 C 
HETATM    9  C8  UNL     1      -2.459   0.178  -2.156  1.00  0.00     0.204 C 
HETATM   10  C9  UNL     1      -1.695   0.541  -0.832  1.00  0.00     0.180 C 
HETATM   11  O2  UNL     1      -2.564   0.135   0.238  1.00  0.00    -0.326 OA
HETATM   12  C10 UNL     1      -3.797  -0.090  -0.221  1.00  0.00     0.095 A 
HETATM   13  C11 UNL     1      -3.855  -0.053  -1.623  1.00  0.00     0.033 A 
HETATM   14  C12 UNL     1      -5.094  -0.238  -2.293  1.00  0.00     0.002 A 
HETATM   15  C13 UNL     1      -6.279  -0.480  -1.569  1.00  0.00     0.027 A 
HETATM   16  C14 UNL     1      -6.227  -0.543  -0.162  1.00  0.00     0.133 A 
HETATM   17  C15 UNL     1      -4.994  -0.350   0.496  1.00  0.00     0.051 A 
HETATM   18  O3  UNL     1      -7.342  -0.781   0.545  1.00  0.00    -0.190 OA
HETATM   19  O4  UNL     1      -2.420   1.260  -3.071  1.00  0.00    -0.216 OA
ENDROOT
BRANCH   2  20
HETATM   20  C16 UNL     1       2.512  -0.059   1.816  1.00  0.00     0.054 C 
BRANCH  20  21
HETATM   21  C17 UNL     1       3.453   1.107   1.680  1.00  0.00    -0.030 C 
HETATM   22  C18 UNL     1       4.031   1.600   2.787  1.00  0.00    -0.048 C 
HETATM   23  C19 UNL     1       3.834   1.063   4.182  1.00  0.00     0.026 C 
HETATM   24  C20 UNL     1       4.955   2.779   2.652  1.00  0.00     0.026 C 
ENDBRANCH  20  21
ENDBRANCH   2  20
BRANCH   1  25
HETATM   25  O5  UNL     1       3.576  -1.471  -0.408  1.00  0.00    -0.328 OA
HETATM   26  C21 UNL     1       4.086  -2.229  -1.496  1.00  0.00     0.181 C 
ENDBRANCH   1  25
TORSDOF 3
