REMARK  0 active torsions:
REMARK  status: ('A' for Active; 'I' for Inactive)
ROOT
HETATM    1  C1  UNL     1       3.289   0.910   1.129  1.00  0.00     0.209 C 
HETATM    2  C2  UNL     1       3.986  -0.385   0.654  1.00  0.00     0.041 C 
HETATM    3  C3  UNL     1       3.086  -1.336  -0.170  1.00  0.00     0.004 C 
HETATM    4  C4  UNL     1       1.588  -1.031   0.051  1.00  0.00     0.009 C 
HETATM    5  C5  UNL     1       1.213   0.420  -0.381  1.00  0.00     0.057 C 
HETATM    6  C6  UNL     1       2.262   1.402   0.139  1.00  0.00     0.180 C 
HETATM    7  O1  UNL     1       2.307   2.549  -0.250  1.00  0.00    -0.293 OA
HETATM    8  C7  UNL     1      -0.266   0.699   0.088  1.00  0.00     0.047 C 
HETATM    9  C8  UNL     1      -1.252  -0.356  -0.514  1.00  0.00     0.030 C 
HETATM   10  C9  UNL     1      -0.812  -1.791  -0.148  1.00  0.00     0.124 C 
HETATM   11  C10 UNL     1       0.635  -2.065  -0.580  1.00  0.00     0.031 C 
HETATM   12  O2  UNL     1      -0.893  -2.055   1.260  1.00  0.00    -0.304 OA
HETATM   13  C11 UNL     1      -1.937  -1.607   1.973  1.00  0.00     0.272 C 
HETATM   14  C12 UNL     1      -2.766  -0.426   1.522  1.00  0.00     0.096 C 
HETATM   15  C13 UNL     1      -2.684  -0.150   0.014  1.00  0.00     0.019 C 
HETATM   16  C14 UNL     1      -3.223   1.242  -0.367  1.00  0.00     0.061 C 
HETATM   17  C15 UNL     1      -2.295   2.344   0.090  1.00  0.00     0.180 C 
HETATM   18  C16 UNL     1      -0.795   2.154  -0.117  1.00  0.00     0.209 C 
HETATM   19  O3  UNL     1      -0.129   3.020   0.785  1.00  0.00    -0.215 OA
HETATM   20  O4  UNL     1      -2.746   3.346   0.606  1.00  0.00    -0.293 OA
HETATM   21  C17 UNL     1      -4.658   1.447   0.137  1.00  0.00     0.008 C 
HETATM   22  O5  UNL     1      -2.238  -2.133   3.020  1.00  0.00    -0.264 OA
HETATM   23  C18 UNL     1      -1.314  -0.250  -2.049  1.00  0.00     0.003 C 
HETATM   24  C19 UNL     1       1.342   0.551  -1.908  1.00  0.00     0.007 C 
HETATM   25  C20 UNL     1       3.443  -2.799   0.123  1.00  0.00     0.000 C 
HETATM   26  O6  UNL     1       2.676   0.709   2.387  1.00  0.00    -0.215 OA
ENDROOT
TORSDOF 0
