REMARK  1 active torsions:
REMARK  status: ('A' for Active; 'I' for Inactive)
REMARK    1  A    between atoms: C1_2  and  C2_3 
ROOT
HETATM    1  C2  UNL     1       0.828  -0.191   0.160  1.00  0.00     0.221 C 
HETATM    2  O2  UNL     1       1.395  -0.127  -1.043  1.00  0.00    -0.645 OA
HETATM    3  O3  UNL     1       1.451  -0.246   1.195  1.00  0.00    -0.645 OA
ENDROOT
BRANCH   1   4
HETATM    4  C1  UNL     1      -0.676  -0.191   0.160  1.00  0.00     0.279 C 
HETATM    5  O1  UNL     1      -1.147   1.139   0.160  1.00  0.00    -0.208 OA
ENDBRANCH   1   4
TORSDOF 1
