REMARK  18 active torsions:
REMARK  status: ('A' for Active; 'I' for Inactive)
REMARK    1  A    between atoms: C2_2  and  O16_56 
REMARK    2  A    between atoms: C15_15  and  C18_18 
REMARK    3  A    between atoms: C18_18  and  O1_19 
REMARK    4  A    between atoms: O1_19  and  C19_20 
REMARK    5  A    between atoms: C22_24  and  O14_49 
REMARK    6  A    between atoms: C23_25  and  O3_26 
REMARK    7  A    between atoms: O3_26  and  C24_27 
REMARK    8  A    between atoms: C25_29  and  C29_36 
REMARK    9  A    between atoms: C29_36  and  O8_37 
REMARK   10  A    between atoms: O8_37  and  C30_38 
REMARK   11  A    between atoms: C31_40  and  C35_47 
REMARK   12  A    between atoms: O16_56  and  C41_57 
REMARK   13  A    between atoms: C43_60  and  O19_65 
REMARK   14  A    between atoms: C44_61  and  O18_63 
REMARK   15  A    between atoms: O19_65  and  C47_66 
REMARK   16  A    between atoms: C50_70  and  O23_76 
REMARK   17  A    between atoms: C51_71  and  O21_72 
REMARK   18  A    between atoms: O21_72  and  C52_73 
ROOT
HETATM    1  C1  UNL     1       4.438  -0.578   1.000  1.00  0.00     0.030 C 
HETATM    2  C2  UNL     1       5.209  -0.885  -0.293  1.00  0.00     0.122 C 
HETATM    3  C3  UNL     1       4.354  -0.617  -1.541  1.00  0.00     0.051 C 
HETATM    4  C4  UNL     1       3.010  -1.316  -1.455  1.00  0.00    -0.047 C 
HETATM    5  C5  UNL     1       2.207  -1.115  -0.172  1.00  0.00     0.015 C 
HETATM    6  C6  UNL     1       3.123  -1.373   1.049  1.00  0.00     0.006 C 
HETATM    7  C7  UNL     1       0.955  -2.043  -0.070  1.00  0.00     0.004 C 
HETATM    8  C8  UNL     1       0.262  -2.289  -1.426  1.00  0.00     0.005 C 
HETATM    9  C9  UNL     1       1.266  -2.813  -2.465  1.00  0.00     0.025 C 
HETATM   10  C10 UNL     1       2.576  -2.066  -2.490  1.00  0.00    -0.035 C 
HETATM   11  C11 UNL     1      -0.496  -1.021  -1.867  1.00  0.00     0.000 C 
HETATM   12  C12 UNL     1      -1.463  -0.482  -0.781  1.00  0.00     0.002 C 
HETATM   13  C13 UNL     1      -1.481  -1.355   0.486  1.00  0.00     0.000 C 
HETATM   14  C14 UNL     1      -0.057  -1.602   1.022  1.00  0.00     0.000 C 
HETATM   15  C15 UNL     1      -2.850  -0.504  -1.451  1.00  0.00     0.027 C 
HETATM   16  C16 UNL     1      -2.520  -0.295  -2.924  1.00  0.00     0.002 C 
HETATM   17  C17 UNL     1      -1.377  -1.285  -3.092  1.00  0.00     0.000 C 
HETATM   18  C39 UNL     1      -1.082   0.967  -0.457  1.00  0.00     0.000 C 
HETATM   19  C40 UNL     1       1.805   0.365  -0.180  1.00  0.00     0.004 C 
ENDROOT
BRANCH  15  20
HETATM   20  C18 UNL     1      -3.842   0.541  -0.943  1.00  0.00     0.118 C 
HETATM   21  C38 UNL     1      -4.068   0.342   0.557  1.00  0.00     0.032 C 
BRANCH  20  22
HETATM   22  O1  UNL     1      -5.070   0.340  -1.605  1.00  0.00    -0.332 OA
BRANCH  22  23
HETATM   23  C19 UNL     1      -5.912   1.477  -1.576  1.00  0.00     0.266 C 
HETATM   24  O2  UNL     1      -5.387   2.492  -2.432  1.00  0.00    -0.329 OA
HETATM   25  C20 UNL     1      -6.110   3.721  -2.437  1.00  0.00     0.151 C 
HETATM   26  C21 UNL     1      -7.569   3.465  -2.885  1.00  0.00     0.209 C 
HETATM   27  C37 UNL     1      -5.983   4.377  -1.053  1.00  0.00     0.035 C 
HETATM   28  C22 UNL     1      -8.242   2.381  -2.012  1.00  0.00     0.180 C 
HETATM   29  O15 UNL     1      -8.295   4.680  -2.818  1.00  0.00    -0.218 OA
HETATM   30  C23 UNL     1      -7.367   1.107  -1.977  1.00  0.00     0.204 C 
BRANCH  28  31
HETATM   31  O14 UNL     1      -9.551   2.088  -2.475  1.00  0.00    -0.349 OA
HETATM   32  C36 UNL     1     -10.488   3.096  -2.166  1.00  0.00     0.174 C 
ENDBRANCH  28  31
BRANCH  30  33
HETATM   33  O3  UNL     1      -7.379   0.463  -3.248  1.00  0.00    -0.324 OA
BRANCH  33  34
HETATM   34  C24 UNL     1      -7.408  -0.947  -3.156  1.00  0.00     0.270 C 
HETATM   35  O4  UNL     1      -8.725  -1.336  -2.771  1.00  0.00    -0.326 OA
HETATM   36  C25 UNL     1      -8.942  -2.740  -2.629  1.00  0.00     0.180 C 
HETATM   37  C26 UNL     1      -8.617  -3.482  -3.953  1.00  0.00     0.215 C 
HETATM   38  C27 UNL     1      -7.229  -3.115  -4.521  1.00  0.00     0.220 C 
HETATM   39  O7  UNL     1      -9.602  -3.160  -4.920  1.00  0.00    -0.218 OA
HETATM   40  C28 UNL     1      -7.049  -1.578  -4.527  1.00  0.00     0.241 C 
HETATM   41  O6  UNL     1      -6.238  -3.738  -3.721  1.00  0.00    -0.218 OA
HETATM   42  O5  UNL     1      -5.725  -1.234  -4.908  1.00  0.00    -0.215 OA
BRANCH  36  43
HETATM   43  C29 UNL     1      -8.133  -3.254  -1.432  1.00  0.00     0.177 C 
BRANCH  43  44
HETATM   44  O8  UNL     1      -8.633  -2.641  -0.266  1.00  0.00    -0.326 OA
BRANCH  44  45
HETATM   45  C30 UNL     1      -7.977  -3.064   0.912  1.00  0.00     0.270 C 
HETATM   46  O9  UNL     1      -8.410  -4.359   1.330  1.00  0.00    -0.326 OA
HETATM   47  C31 UNL     1      -9.801  -4.504   1.633  1.00  0.00     0.184 C 
HETATM   48  C32 UNL     1     -10.399  -3.229   2.289  1.00  0.00     0.215 C 
HETATM   49  C33 UNL     1      -9.326  -2.408   3.035  1.00  0.00     0.220 C 
HETATM   50  O12 UNL     1     -11.440  -3.613   3.170  1.00  0.00    -0.218 OA
HETATM   51  C34 UNL     1      -8.186  -2.025   2.055  1.00  0.00     0.241 C 
HETATM   52  O11 UNL     1      -9.887  -1.232   3.594  1.00  0.00    -0.218 OA
HETATM   53  O10 UNL     1      -6.983  -1.895   2.789  1.00  0.00    -0.215 OA
BRANCH  47  54
HETATM   54  C35 UNL     1     -10.541  -4.910   0.352  1.00  0.00     0.214 C 
HETATM   55  O13 UNL     1      -9.975  -6.109  -0.123  1.00  0.00    -0.218 OA
ENDBRANCH  47  54
ENDBRANCH  44  45
ENDBRANCH  43  44
ENDBRANCH  36  43
ENDBRANCH  33  34
ENDBRANCH  30  33
ENDBRANCH  22  23
ENDBRANCH  20  22
ENDBRANCH  15  20
BRANCH   2  56
HETATM   56  O16 UNL     1       6.373  -0.084  -0.344  1.00  0.00    -0.333 OA
BRANCH  56  57
HETATM   57  C41 UNL     1       7.303  -0.393   0.672  1.00  0.00     0.238 C 
HETATM   58  O17 UNL     1       7.106   0.471   1.781  1.00  0.00    -0.331 OA
HETATM   59  C42 UNL     1       7.975   0.238   2.887  1.00  0.00     0.147 C 
HETATM   60  C43 UNL     1       9.455   0.422   2.461  1.00  0.00     0.172 C 
HETATM   61  C56 UNL     1       7.543   1.170   4.024  1.00  0.00     0.035 C 
HETATM   62  C44 UNL     1       9.803  -0.414   1.213  1.00  0.00     0.150 C 
HETATM   63  C45 UNL     1       8.736  -0.227   0.117  1.00  0.00     0.094 C 
BRANCH  60  64
HETATM   64  O19 UNL     1       9.713   1.785   2.176  1.00  0.00    -0.327 OA
BRANCH  64  65
HETATM   65  C47 UNL     1      11.078   2.131   2.295  1.00  0.00     0.267 C 
HETATM   66  O20 UNL     1      11.504   2.168   3.656  1.00  0.00    -0.329 OA
HETATM   67  C48 UNL     1      10.936   3.197   4.463  1.00  0.00     0.151 C 
HETATM   68  C49 UNL     1      11.281   4.578   3.856  1.00  0.00     0.209 C 
HETATM   69  C55 UNL     1      11.514   3.012   5.869  1.00  0.00     0.035 C 
HETATM   70  C50 UNL     1      10.846   4.695   2.377  1.00  0.00     0.181 C 
HETATM   71  O24 UNL     1      10.701   5.609   4.637  1.00  0.00    -0.218 OA
HETATM   72  C51 UNL     1      11.371   3.479   1.592  1.00  0.00     0.210 C 
BRANCH  70  73
HETATM   73  O23 UNL     1       9.434   4.750   2.262  1.00  0.00    -0.349 OA
HETATM   74  C54 UNL     1       8.899   6.016   2.576  1.00  0.00     0.174 C 
ENDBRANCH  70  73
BRANCH  72  75
HETATM   75  O21 UNL     1      12.779   3.613   1.455  1.00  0.00    -0.296 OA
BRANCH  75  76
HETATM   76  C52 UNL     1      13.276   2.822   0.508  1.00  0.00     0.273 C 
HETATM   77  C53 UNL     1      14.778   2.797   0.418  1.00  0.00     0.106 C 
HETATM   78  O22 UNL     1      12.594   2.160  -0.240  1.00  0.00    -0.264 OA
ENDBRANCH  75  76
ENDBRANCH  72  75
ENDBRANCH  64  65
ENDBRANCH  60  64
BRANCH  62  79
HETATM   79  O18 UNL     1       9.854  -1.781   1.574  1.00  0.00    -0.351 OA
HETATM   80  C46 UNL     1      10.330  -2.613   0.541  1.00  0.00     0.174 C 
ENDBRANCH  62  79
ENDBRANCH  56  57
ENDBRANCH   2  56
TORSDOF 18
