REMARK  3 active torsions:
REMARK  status: ('A' for Active; 'I' for Inactive)
REMARK    1  A    between atoms: C2_2  and  O3_18 
REMARK    2  A    between atoms: C10_11  and  O2_16 
REMARK    3  A    between atoms: C11_12  and  C13_14 
ROOT
HETATM    1  C1  UNL     1      -3.094  -0.984  -1.473  1.00  0.00     0.024 A 
HETATM    2  C2  UNL     1      -3.668  -0.115  -0.506  1.00  0.00     0.096 A 
HETATM    3  C3  UNL     1      -2.838   0.588   0.410  1.00  0.00     0.043 A 
HETATM    4  C4  UNL     1      -1.438   0.402   0.336  1.00  0.00     0.083 A 
HETATM    5  C5  UNL     1      -0.887  -0.449  -0.615  1.00  0.00     0.019 A 
HETATM    6  C6  UNL     1      -1.688  -1.162  -1.539  1.00  0.00     0.004 A 
HETATM    7  C7  UNL     1       0.455  -0.443  -0.477  1.00  0.00     0.019 A 
HETATM    8  C8  UNL     1       0.793   0.410   0.568  1.00  0.00     0.083 A 
HETATM    9  N1  UNL     1      -0.393   0.959   1.102  1.00  0.00    -0.245 NA
HETATM   10  C9  UNL     1       2.146   0.606   0.930  1.00  0.00     0.043 A 
HETATM   11  C10 UNL     1       3.152  -0.088   0.207  1.00  0.00     0.099 A 
HETATM   12  C11 UNL     1       2.797  -0.961  -0.861  1.00  0.00     0.065 A 
HETATM   13  C12 UNL     1       1.433  -1.148  -1.215  1.00  0.00     0.007 A 
ENDROOT
BRANCH   2  14
HETATM   14  O3  UNL     1      -4.996   0.043  -0.457  1.00  0.00    -0.328 OA
HETATM   15  C15 UNL     1      -5.531   0.895   0.547  1.00  0.00     0.181 C 
ENDBRANCH   2  14
BRANCH  12  16
HETATM   16  C13 UNL     1       3.850  -1.678  -1.611  1.00  0.00     0.236 C 
HETATM   17  O1  UNL     1       5.047  -1.644  -1.455  1.00  0.00    -0.283 OA
ENDBRANCH  12  16
BRANCH  11  18
HETATM   18  O2  UNL     1       4.439   0.088   0.541  1.00  0.00    -0.328 OA
HETATM   19  C14 UNL     1       4.736   0.971   1.613  1.00  0.00     0.181 C 
ENDBRANCH  11  18
TORSDOF 3
