REMARK  6 active torsions:
REMARK  status: ('A' for Active; 'I' for Inactive)
REMARK    1  A    between atoms: C3_3  and  O4_19 
REMARK    2  A    between atoms: C4_4  and  C7_8 
REMARK    3  A    between atoms: C7_8  and  C8_9 
REMARK    4  A    between atoms: C8_9  and  C9_10 
REMARK    5  A    between atoms: C9_10  and  C10_11 
REMARK    6  A    between atoms: O4_19  and  C16_20 
ROOT
HETATM    1  C1  UNL     1       4.007  -1.491   1.621  1.00  0.00     0.135 A 
HETATM    2  C2  UNL     1       3.400  -0.420   1.021  1.00  0.00     0.052 A 
HETATM    3  C3  UNL     1       2.807  -0.479  -0.216  1.00  0.00     0.104 A 
HETATM    4  C4  UNL     1       3.061  -1.671  -0.774  1.00  0.00     0.087 A 
HETATM    5  C5  UNL     1       3.716  -2.744  -0.333  1.00  0.00     0.138 A 
HETATM    6  C6  UNL     1       4.155  -2.629   0.923  1.00  0.00     0.055 A 
HETATM    7  O1  UNL     1       3.812  -3.931  -0.999  1.00  0.00    -0.190 OA
HETATM    8  O9  UNL     1       4.569  -1.549   2.877  1.00  0.00    -0.190 OA
ENDROOT
BRANCH   3   9
HETATM    9  O4  UNL     1       2.146   0.518  -1.089  1.00  0.00    -0.300 OA
BRANCH   9  10
HETATM   10  C16 UNL     1       0.527   0.729  -1.433  1.00  0.00     0.297 C 
HETATM   11  O5  UNL     1       0.530   1.835  -0.308  1.00  0.00    -0.303 OA
HETATM   12  C17 UNL     1      -0.009   1.660   1.139  1.00  0.00     0.102 C 
HETATM   13  C18 UNL     1      -1.200   0.278   1.600  1.00  0.00     0.176 C 
HETATM   14  C21 UNL     1      -0.072   3.196   1.529  1.00  0.00     0.060 C 
HETATM   15  C19 UNL     1      -1.729  -0.889   0.252  1.00  0.00     0.184 C 
HETATM   16  O8  UNL     1      -1.117   0.104   3.037  1.00  0.00    -0.186 OA
HETATM   17  C20 UNL     1      -0.956  -0.588  -1.411  1.00  0.00     0.193 C 
HETATM   18  O7  UNL     1      -3.108  -1.213   0.150  1.00  0.00    -0.186 OA
HETATM   19  O6  UNL     1      -1.640  -0.754  -2.686  1.00  0.00    -0.187 OA
ENDBRANCH   9  10
ENDBRANCH   3   9
BRANCH   4  20
HETATM   20  C7  UNL     1       2.354  -1.748  -1.908  1.00  0.00     0.200 C 
HETATM   21  O3  UNL     1       2.531  -2.439  -2.883  1.00  0.00    -0.286 OA
BRANCH  20  22
HETATM   22  C8  UNL     1       0.956  -1.376  -1.341  1.00  0.00     0.042 C 
BRANCH  22  23
HETATM   23  C9  UNL     1       0.166  -0.245  -0.025  1.00  0.00     0.003 C 
BRANCH  23  24
HETATM   24  C10 UNL     1      -1.391   1.048  -0.376  1.00  0.00     0.000 C 
HETATM   25  C11 UNL     1      -2.154   1.894   0.460  1.00  0.00     0.002 C 
HETATM   26  C12 UNL     1      -3.341   2.511   0.346  1.00  0.00     0.027 C 
HETATM   27  C13 UNL     1      -4.040   2.485  -0.780  1.00  0.00     0.131 C 
HETATM   28  C14 UNL     1      -3.268   2.001  -1.763  1.00  0.00     0.027 C 
HETATM   29  O2  UNL     1      -5.314   3.002  -0.789  1.00  0.00    -0.190 OA
HETATM   30  C15 UNL     1      -2.035   1.459  -1.551  1.00  0.00     0.002 C 
ENDBRANCH  23  24
ENDBRANCH  22  23
ENDBRANCH  20  22
ENDBRANCH   4  20
TORSDOF 6
