REMARK  5 active torsions:
REMARK  status: ('A' for Active; 'I' for Inactive)
REMARK    1  A    between atoms: C1_1  and  O6_27 
REMARK    2  A    between atoms: C2_2  and  C17_22 
REMARK    3  A    between atoms: C3_3  and  O5_20 
REMARK    4  A    between atoms: C8_9  and  C10_11 
REMARK    5  A    between atoms: C17_22  and  C18_23 
ROOT
HETATM    1  C1  UNL     1       2.594  -1.231  -0.260  1.00  0.00     0.094 A 
HETATM    2  C2  UNL     1       2.273   0.148  -0.172  1.00  0.00     0.027 A 
HETATM    3  C3  UNL     1       0.928   0.572  -0.291  1.00  0.00     0.094 A 
HETATM    4  C4  UNL     1      -0.094  -0.389  -0.498  1.00  0.00     0.045 A 
HETATM    5  C5  UNL     1       0.225  -1.772  -0.584  1.00  0.00     0.107 A 
HETATM    6  C6  UNL     1       1.570  -2.188  -0.467  1.00  0.00     0.049 A 
HETATM    7  O1  UNL     1      -0.752  -2.686  -0.779  1.00  0.00    -0.273 OA
HETATM    8  C7  UNL     1      -2.055  -2.360  -0.902  1.00  0.00     0.300 A 
HETATM    9  C8  UNL     1      -2.459  -0.930  -0.822  1.00  0.00     0.066 A 
HETATM   10  C9  UNL     1      -1.518   0.017  -0.627  1.00  0.00     0.009 A 
HETATM   11  O4  UNL     1      -2.904  -3.205  -1.074  1.00  0.00    -0.259 OA
ENDROOT
BRANCH   9  12
HETATM   12  C10 UNL     1      -3.897  -0.533  -0.955  1.00  0.00     0.031 A 
HETATM   13  C11 UNL     1      -4.291   0.402  -1.932  1.00  0.00     0.133 A 
HETATM   14  O2  UNL     1      -3.402   0.943  -2.742  1.00  0.00    -0.190 OA
HETATM   15  C12 UNL     1      -5.645   0.764  -2.043  1.00  0.00     0.055 A 
HETATM   16  C13 UNL     1      -6.606   0.197  -1.188  1.00  0.00     0.133 A 
HETATM   17  C14 UNL     1      -6.209  -0.735  -0.215  1.00  0.00     0.028 A 
HETATM   18  O3  UNL     1      -7.873   0.541  -1.297  1.00  0.00    -0.190 OA
HETATM   19  C15 UNL     1      -4.857  -1.100  -0.098  1.00  0.00     0.004 A 
ENDBRANCH   9  12
BRANCH   3  20
HETATM   20  O5  UNL     1       0.623   1.877  -0.209  1.00  0.00    -0.328 OA
HETATM   21  C16 UNL     1       0.619   2.637  -1.408  1.00  0.00     0.181 C 
ENDBRANCH   3  20
BRANCH   2  22
HETATM   22  C17 UNL     1       3.342   1.139   0.043  1.00  0.00     0.056 C 
BRANCH  22  23
HETATM   23  C18 UNL     1       3.125   1.941   1.297  1.00  0.00    -0.030 C 
HETATM   24  C19 UNL     1       3.453   1.391   2.477  1.00  0.00    -0.048 C 
HETATM   25  C20 UNL     1       4.022   0.010   2.662  1.00  0.00     0.026 C 
HETATM   26  C21 UNL     1       3.246   2.197   3.731  1.00  0.00     0.026 C 
ENDBRANCH  22  23
ENDBRANCH   2  22
BRANCH   1  27
HETATM   27  O6  UNL     1       3.865  -1.641  -0.148  1.00  0.00    -0.328 OA
HETATM   28  C22 UNL     1       4.127  -3.033  -0.219  1.00  0.00     0.181 C 
ENDBRANCH   1  27
TORSDOF 5
