REMARK  4 active torsions:
REMARK  status: ('A' for Active; 'I' for Inactive)
REMARK    1  A    between atoms: C8_8  and  O2_13 
REMARK    2  A    between atoms: C9_9  and  C11_11 
REMARK    3  A    between atoms: O2_13  and  C12_14 
REMARK    4  A    between atoms: C12_14  and  C13_16 
ROOT
HETATM    1  C1  UNL     1      -2.304   0.484  -0.131  1.00  0.00     0.030 C 
HETATM    2  C2  UNL     1      -2.817   0.298   1.315  1.00  0.00     0.026 C 
HETATM    3  C3  UNL     1      -1.663  -0.083   2.207  1.00  0.00    -0.045 C 
HETATM    4  C4  UNL     1      -0.724   0.841   2.497  1.00  0.00    -0.004 C 
HETATM    5  C5  UNL     1       0.651   0.512   3.019  1.00  0.00     0.153 C 
HETATM    6  C6  UNL     1       1.678   0.090   1.926  1.00  0.00     0.093 C 
HETATM    7  C7  UNL     1       1.085  -0.582   0.640  1.00  0.00     0.191 C 
HETATM    8  C8  UNL     1       0.809   0.351  -0.578  1.00  0.00     0.180 C 
HETATM    9  C9  UNL     1      -0.012   1.622  -0.393  1.00  0.00     0.046 C 
HETATM   10  C10 UNL     1      -1.360   1.666  -0.250  1.00  0.00    -0.024 C 
HETATM   11  O4  UNL     1       1.972  -1.582   0.164  1.00  0.00    -0.220 OA
HETATM   12  C16 UNL     1       2.524  -0.803   2.800  1.00  0.00     0.046 C 
HETATM   13  C17 UNL     1       1.762  -1.179   3.982  1.00  0.00     0.292 C 
HETATM   14  O5  UNL     1       0.618  -0.505   4.030  1.00  0.00    -0.296 OA
HETATM   15  O6  UNL     1       2.132  -1.997   4.791  1.00  0.00    -0.259 OA
HETATM   16  C18 UNL     1       3.790  -1.172   2.527  1.00  0.00     0.001 C 
HETATM   17  C19 UNL     1      -1.584  -1.512   2.689  1.00  0.00     0.026 C 
ENDROOT
BRANCH   8  18
HETATM   18  O2  UNL     1       0.231  -0.405  -1.636  1.00  0.00    -0.297 OA
BRANCH  18  19
HETATM   19  C12 UNL     1       0.357   0.195  -2.816  1.00  0.00     0.272 C 
HETATM   20  O3  UNL     1       0.943   1.239  -2.981  1.00  0.00    -0.264 OA
BRANCH  19  21
HETATM   21  C13 UNL     1      -0.292  -0.520  -3.971  1.00  0.00     0.086 C 
HETATM   22  C14 UNL     1       0.236  -0.041  -5.324  1.00  0.00     0.010 C 
HETATM   23  C15 UNL     1      -1.818  -0.494  -3.890  1.00  0.00     0.010 C 
ENDBRANCH  19  21
ENDBRANCH  18  19
ENDBRANCH   8  18
BRANCH   9  24
HETATM   24  C11 UNL     1       0.734   2.893  -0.393  1.00  0.00     0.232 C 
HETATM   25  O1  UNL     1       1.943   2.893  -0.393  1.00  0.00    -0.283 OA
ENDBRANCH   9  24
TORSDOF 4
