REMARK  2 active torsions:
REMARK  status: ('A' for Active; 'I' for Inactive)
REMARK    1  A    between atoms: C3_3  and  O5_25 
REMARK    2  A    between atoms: C8_9  and  C10_12 
ROOT
HETATM    1  C1  UNL     1      -5.356   2.674   0.791  1.00  0.00     0.135 A 
HETATM    2  C2  UNL     1      -5.446   1.264   0.738  1.00  0.00     0.052 A 
HETATM    3  C3  UNL     1      -4.276   0.473   0.820  1.00  0.00     0.101 A 
HETATM    4  C4  UNL     1      -3.008   1.098   0.957  1.00  0.00     0.080 A 
HETATM    5  C5  UNL     1      -2.916   2.516   0.973  1.00  0.00     0.101 A 
HETATM    6  C6  UNL     1      -4.094   3.299   0.910  1.00  0.00     0.052 A 
HETATM    7  O1  UNL     1      -1.723   3.141   1.047  1.00  0.00    -0.330 OA
HETATM    8  C7  UNL     1      -0.528   2.445   0.682  1.00  0.00     0.161 C 
HETATM    9  C8  UNL     1      -0.477   1.051   1.338  1.00  0.00     0.115 C 
HETATM   10  C9  UNL     1      -1.768   0.275   1.098  1.00  0.00     0.183 C 
HETATM   11  O2  UNL     1      -1.709  -0.934   1.045  1.00  0.00    -0.291 OA
HETATM   12  O6  UNL     1      -6.467   3.420   0.725  1.00  0.00    -0.190 OA
ENDROOT
BRANCH   9  13
HETATM   13  C10 UNL     1       0.734   0.324   0.902  1.00  0.00    -0.011 A 
HETATM   14  C11 UNL     1       1.760   0.033   1.832  1.00  0.00     0.026 A 
HETATM   15  C12 UNL     1       2.922  -0.662   1.418  1.00  0.00     0.153 A 
HETATM   16  C13 UNL     1       3.062  -1.066   0.068  1.00  0.00     0.119 A 
HETATM   17  O4  UNL     1       3.887  -0.938   2.307  1.00  0.00    -0.188 OA
HETATM   18  C14 UNL     1       2.029  -0.775  -0.859  1.00  0.00     0.024 A 
HETATM   19  O3  UNL     1       4.168  -1.734  -0.324  1.00  0.00    -0.330 OA
HETATM   20  C15 UNL     1       0.865  -0.082  -0.447  1.00  0.00    -0.002 A 
HETATM   21  C16 UNL     1       2.185  -1.225  -2.262  1.00  0.00    -0.000 C 
HETATM   22  C17 UNL     1       3.351  -1.766  -2.660  1.00  0.00     0.001 C 
HETATM   23  C18 UNL     1       4.539  -1.834  -1.713  1.00  0.00     0.117 C 
HETATM   24  C19 UNL     1       5.476  -0.666  -2.025  1.00  0.00     0.035 C 
HETATM   25  C20 UNL     1       5.279  -3.160  -1.894  1.00  0.00     0.035 C 
ENDBRANCH   9  13
BRANCH   3  26
HETATM   26  O5  UNL     1      -4.387  -0.863   0.775  1.00  0.00    -0.328 OA
HETATM   27  C21 UNL     1      -5.686  -1.420   0.645  1.00  0.00     0.181 C 
ENDBRANCH   3  26
TORSDOF 2
