REMARK  3 active torsions:
REMARK  status: ('A' for Active; 'I' for Inactive)
REMARK    1  A    between atoms: C8_9  and  C10_12 
REMARK    2  A    between atoms: C12_14  and  C16_20 
REMARK    3  A    between atoms: C16_20  and  C17_21 
ROOT
HETATM    1  C1  UNL     1       5.727   2.283   0.979  1.00  0.00     0.135 A 
HETATM    2  C2  UNL     1       5.871   0.875   0.979  1.00  0.00     0.055 A 
HETATM    3  C3  UNL     1       4.727   0.043   1.004  1.00  0.00     0.138 A 
HETATM    4  C4  UNL     1       3.434   0.625   1.031  1.00  0.00     0.087 A 
HETATM    5  C5  UNL     1       3.287   2.039   1.033  1.00  0.00     0.107 A 
HETATM    6  C6  UNL     1       4.436   2.863   1.006  1.00  0.00     0.052 A 
HETATM    7  O1  UNL     1       2.059   2.600   1.065  1.00  0.00    -0.305 OA
HETATM    8  C7  UNL     1       0.920   1.877   1.092  1.00  0.00     0.126 A 
HETATM    9  C8  UNL     1       0.920   0.524   1.090  1.00  0.00     0.064 A 
HETATM   10  C9  UNL     1       2.205  -0.221   1.057  1.00  0.00     0.201 A 
HETATM   11  O2  UNL     1       2.160  -1.432   1.053  1.00  0.00    -0.286 OA
HETATM   12  O5  UNL     1       4.885  -1.289   1.002  1.00  0.00    -0.190 OA
HETATM   13  O6  UNL     1       6.813   3.067   0.951  1.00  0.00    -0.190 OA
ENDROOT
BRANCH   9  14
HETATM   14  C10 UNL     1      -0.383  -0.213   1.121  1.00  0.00     0.007 A 
HETATM   15  C11 UNL     1      -1.459   0.225   0.330  1.00  0.00    -0.002 A 
HETATM   16  C12 UNL     1      -2.684  -0.469   0.359  1.00  0.00     0.010 A 
HETATM   17  C13 UNL     1      -2.834  -1.601   1.180  1.00  0.00     0.152 A 
HETATM   18  C14 UNL     1      -1.756  -2.041   1.973  1.00  0.00     0.156 A 
HETATM   19  O4  UNL     1      -3.979  -2.254   1.211  1.00  0.00    -0.188 OA
HETATM   20  C15 UNL     1      -0.533  -1.346   1.941  1.00  0.00     0.030 A 
HETATM   21  O3  UNL     1      -1.889  -3.102   2.744  1.00  0.00    -0.188 OA
BRANCH  16  22
HETATM   22  C16 UNL     1      -3.815   0.004  -0.482  1.00  0.00     0.054 C 
BRANCH  22  23
HETATM   23  C17 UNL     1      -4.072  -0.908  -1.650  1.00  0.00    -0.030 C 
HETATM   24  C18 UNL     1      -3.432  -0.668  -2.807  1.00  0.00    -0.048 C 
HETATM   25  C19 UNL     1      -3.660  -1.603  -3.963  1.00  0.00     0.026 C 
HETATM   26  C20 UNL     1      -2.518   0.525  -2.885  1.00  0.00     0.026 C 
ENDBRANCH  22  23
ENDBRANCH  16  22
ENDBRANCH   9  14
TORSDOF 3
