REMARK  1 active torsions:
REMARK  status: ('A' for Active; 'I' for Inactive)
REMARK    1  A    between atoms: C7_8  and  C10_13 
ROOT
HETATM    1  C1  UNL     1       3.785  -4.525  -2.057  1.00  0.00     0.135 A 
HETATM    2  C2  UNL     1       4.867  -4.481  -1.147  1.00  0.00     0.055 A 
HETATM    3  C3  UNL     1       4.922  -3.471  -0.156  1.00  0.00     0.138 A 
HETATM    4  C4  UNL     1       3.885  -2.504  -0.084  1.00  0.00     0.089 A 
HETATM    5  C5  UNL     1       2.803  -2.549  -0.994  1.00  0.00     0.107 A 
HETATM    6  C6  UNL     1       2.754  -3.561  -1.980  1.00  0.00     0.052 A 
HETATM    7  O1  UNL     1       1.816  -1.631  -0.922  1.00  0.00    -0.305 OA
HETATM    8  C7  UNL     1       1.762  -0.625  -0.021  1.00  0.00     0.128 A 
HETATM    9  C8  UNL     1       2.752  -0.484   0.902  1.00  0.00     0.192 A 
HETATM   10  C9  UNL     1       3.898  -1.424   0.938  1.00  0.00     0.227 A 
HETATM   11  O2  UNL     1       4.742  -1.236   1.785  1.00  0.00    -0.284 OA
HETATM   12  O3  UNL     1       2.726   0.500   1.805  1.00  0.00    -0.185 OA
HETATM   13  O6  UNL     1       5.953  -3.441   0.701  1.00  0.00    -0.190 OA
HETATM   14  O7  UNL     1       3.736  -5.484  -2.994  1.00  0.00    -0.190 OA
ENDROOT
BRANCH   8  15
HETATM   15  C10 UNL     1       0.666   0.367   0.035  1.00  0.00     0.025 A 
HETATM   16  C11 UNL     1      -0.678  -0.068  -0.014  1.00  0.00    -0.000 A 
HETATM   17  C12 UNL     1      -1.731   0.879   0.039  1.00  0.00     0.003 A 
HETATM   18  C13 UNL     1      -1.430   2.268   0.150  1.00  0.00     0.090 A 
HETATM   19  C18 UNL     1      -3.143   0.426  -0.020  1.00  0.00     0.064 C 
HETATM   20  C14 UNL     1      -0.080   2.691   0.193  1.00  0.00     0.024 A 
HETATM   21  O4  UNL     1      -2.405   3.203   0.209  1.00  0.00    -0.333 OA
HETATM   22  C15 UNL     1       0.969   1.744   0.139  1.00  0.00     0.004 A 
HETATM   23  C16 UNL     1      -3.778   2.846   0.422  1.00  0.00     0.127 C 
HETATM   24  C17 UNL     1      -4.094   1.576  -0.404  1.00  0.00     0.182 C 
HETATM   25  C19 UNL     1      -4.627   4.037  -0.031  1.00  0.00     0.033 C 
HETATM   26  C20 UNL     1      -3.977   2.617   1.928  1.00  0.00     0.033 C 
HETATM   27  O5  UNL     1      -5.432   1.166  -0.201  1.00  0.00    -0.221 OA
ENDBRANCH   8  15
TORSDOF 1
