REMARK  2 active torsions:
REMARK  status: ('A' for Active; 'I' for Inactive)
REMARK    1  A    between atoms: C7_9  and  O3_10 
REMARK    2  A    between atoms: C14_18  and  O4_20 
ROOT
HETATM    1  O1  UNL     1      -4.059   1.076  -2.096  1.00  0.00    -0.299 OA
HETATM    2  C1  UNL     1      -5.221   0.234  -1.949  1.00  0.00     0.304 A 
HETATM    3  O2  UNL     1      -4.760  -0.818  -1.072  1.00  0.00    -0.298 OA
HETATM    4  C2  UNL     1      -3.484  -0.600  -0.748  1.00  0.00     0.141 A 
HETATM    5  C3  UNL     1      -3.055   0.568  -1.381  1.00  0.00     0.121 A 
HETATM    6  C4  UNL     1      -1.729   1.014  -1.189  1.00  0.00     0.022 A 
HETATM    7  C5  UNL     1      -0.815   0.299  -0.379  1.00  0.00    -0.013 A 
HETATM    8  C6  UNL     1      -1.274  -0.879   0.275  1.00  0.00     0.032 A 
HETATM    9  C7  UNL     1      -2.606  -1.340   0.086  1.00  0.00     0.116 A 
HETATM   10  C9  UNL     1      -0.342  -1.633   1.172  1.00  0.00     0.279 C 
HETATM   11  N1  UNL     1       0.939  -0.942   1.447  1.00  0.00     0.143 N 
HETATM   12  C10 UNL     1       1.502  -0.467   0.180  1.00  0.00     0.232 C 
HETATM   13  C11 UNL     1       0.613   0.752  -0.162  1.00  0.00     0.097 C 
HETATM   14  C12 UNL     1       1.232   1.500  -1.338  1.00  0.00    -0.020 C 
HETATM   15  C13 UNL     1       2.564   1.598  -1.500  1.00  0.00    -0.001 C 
HETATM   16  C14 UNL     1       3.539   1.008  -0.504  1.00  0.00     0.139 C 
HETATM   17  C15 UNL     1       3.021  -0.207   0.305  1.00  0.00     0.068 C 
HETATM   18  C17 UNL     1       0.789   1.457   1.211  1.00  0.00     0.195 C 
HETATM   19  C18 UNL     1       0.740   0.297   2.223  1.00  0.00     0.284 C 
HETATM   20  O5  UNL     1      -0.203   2.434   1.481  1.00  0.00    -0.221 OA
ENDROOT
BRANCH   9  21
HETATM   21  O3  UNL     1      -2.912  -2.469   0.742  1.00  0.00    -0.326 OA
HETATM   22  C8  UNL     1      -4.225  -2.988   0.596  1.00  0.00     0.181 C 
ENDBRANCH   9  21
BRANCH  16  23
HETATM   23  O4  UNL     1       4.738   0.660  -1.166  1.00  0.00    -0.350 OA
HETATM   24  C16 UNL     1       5.826   0.488  -0.287  1.00  0.00     0.175 C 
ENDBRANCH  16  23
TORSDOF 2
