REMARK  2 active torsions:
REMARK  status: ('A' for Active; 'I' for Inactive)
REMARK    1  A    between atoms: C11_11  and  C26_29 
REMARK    2  A    between atoms: C26_29  and  O4_30 
ROOT
HETATM    1  C1  UNL     1       4.588  -0.689   1.867  1.00  0.00     0.033 C 
HETATM    2  C2  UNL     1       5.180   0.648   1.383  1.00  0.00     0.152 C 
HETATM    3  C3  UNL     1       4.858   0.979  -0.100  1.00  0.00     0.028 C 
HETATM    4  C4  UNL     1       3.326   0.811  -0.291  1.00  0.00     0.003 C 
HETATM    5  C5  UNL     1       2.781  -0.609   0.060  1.00  0.00     0.007 C 
HETATM    6  C6  UNL     1       3.082  -0.811   1.568  1.00  0.00     0.003 C 
HETATM    7  C7  UNL     1       1.268  -0.748  -0.361  1.00  0.00     0.063 C 
HETATM    8  C8  UNL     1       0.500   0.602  -0.469  1.00  0.00     0.018 C 
HETATM    9  C9  UNL     1       1.231   1.541  -1.485  1.00  0.00     0.001 C 
HETATM   10  C10 UNL     1       2.746   1.289  -1.627  1.00  0.00     0.000 C 
HETATM   11  C11 UNL     1      -0.996   0.385  -0.901  1.00  0.00     0.094 C 
HETATM   12  C12 UNL     1      -1.682  -0.641   0.006  1.00  0.00    -0.033 C 
HETATM   13  C13 UNL     1      -0.963  -1.607   0.619  1.00  0.00     0.029 C 
HETATM   14  C14 UNL     1       0.481  -1.797   0.404  1.00  0.00     0.172 C 
HETATM   15  O1  UNL     1       1.006  -2.799   0.830  1.00  0.00    -0.291 OA
HETATM   16  C15 UNL     1      -3.195  -0.564   0.150  1.00  0.00     0.022 C 
HETATM   17  C16 UNL     1      -3.678   0.883   0.385  1.00  0.00     0.029 C 
HETATM   18  C17 UNL     1      -3.260   1.717  -0.832  1.00  0.00     0.004 C 
HETATM   19  C18 UNL     1      -1.729   1.768  -0.949  1.00  0.00     0.013 C 
HETATM   20  C19 UNL     1      -5.221   0.902   0.566  1.00  0.00     0.125 C 
HETATM   21  C20 UNL     1      -5.617   0.061   1.793  1.00  0.00     0.040 C 
HETATM   22  C21 UNL     1      -5.410  -1.314   1.156  1.00  0.00     0.081 C 
HETATM   23  C22 UNL     1      -3.889  -1.574   1.103  1.00  0.00     0.014 C 
HETATM   24  C23 UNL     1      -5.975  -1.027  -0.211  1.00  0.00     0.271 C 
HETATM   25  O2  UNL     1      -6.463  -1.881  -0.914  1.00  0.00    -0.264 OA
HETATM   26  O3  UNL     1      -5.869   0.260  -0.535  1.00  0.00    -0.304 OA
HETATM   27  C24 UNL     1      -6.170  -2.383   1.935  1.00  0.00     0.010 C 
HETATM   28  C25 UNL     1      -3.080   1.484   1.672  1.00  0.00     0.003 C 
HETATM   29  C28 UNL     1       0.512   1.250   0.932  1.00  0.00     0.001 C 
HETATM   30  C29 UNL     1       3.533  -1.707  -0.715  1.00  0.00     0.000 C 
HETATM   31  C30 UNL     1       5.256   2.438  -0.377  1.00  0.00     0.003 C 
HETATM   32  C31 UNL     1       5.649   0.098  -1.078  1.00  0.00     0.003 C 
HETATM   33  O6  UNL     1       6.578   0.645   1.605  1.00  0.00    -0.224 OA
ENDROOT
BRANCH  11  34
HETATM   34  C26 UNL     1      -1.082  -0.219  -2.287  1.00  0.00     0.275 C 
HETATM   35  O5  UNL     1      -1.336   0.469  -3.248  1.00  0.00    -0.264 OA
BRANCH  34  36
HETATM   36  O4  UNL     1      -0.859  -1.527  -2.352  1.00  0.00    -0.299 OA
HETATM   37  C27 UNL     1      -0.967  -2.029  -3.676  1.00  0.00     0.184 C 
ENDBRANCH  34  36
ENDBRANCH  11  34
TORSDOF 2
