REMARK  1 active torsions:
REMARK  status: ('A' for Active; 'I' for Inactive)
REMARK    1  A    between atoms: C8_9  and  C10_12 
ROOT
HETATM    1  C1  UNL     1       4.621   2.228  -0.330  1.00  0.00     0.133 A 
HETATM    2  C2  UNL     1       4.760   0.820  -0.330  1.00  0.00     0.028 A 
HETATM    3  C3  UNL     1       3.613  -0.006  -0.303  1.00  0.00     0.007 A 
HETATM    4  C4  UNL     1       2.324   0.582  -0.277  1.00  0.00     0.062 A 
HETATM    5  C5  UNL     1       2.182   1.994  -0.273  1.00  0.00     0.105 A 
HETATM    6  C6  UNL     1       3.334   2.814  -0.303  1.00  0.00     0.052 A 
HETATM    7  O1  UNL     1       0.953   2.557  -0.244  1.00  0.00    -0.305 OA
HETATM    8  C7  UNL     1      -0.186   1.834  -0.215  1.00  0.00     0.126 A 
HETATM    9  C8  UNL     1      -0.186   0.480  -0.219  1.00  0.00     0.066 A 
HETATM   10  C9  UNL     1       1.100  -0.266  -0.252  1.00  0.00     0.200 A 
HETATM   11  O2  UNL     1       1.062  -1.475  -0.256  1.00  0.00    -0.286 OA
HETATM   12  O6  UNL     1       5.711   3.008  -0.357  1.00  0.00    -0.190 OA
ENDROOT
BRANCH   9  13
HETATM   13  C10 UNL     1      -1.475  -0.248  -0.187  1.00  0.00     0.033 A 
HETATM   14  C11 UNL     1      -2.406  -0.037  -1.223  1.00  0.00     0.004 A 
HETATM   15  C12 UNL     1      -3.633  -0.729  -1.195  1.00  0.00     0.026 A 
HETATM   16  C13 UNL     1      -3.940  -1.631  -0.150  1.00  0.00     0.121 A 
HETATM   17  C14 UNL     1      -3.010  -1.836   0.875  1.00  0.00     0.144 A 
HETATM   18  O5  UNL     1      -5.016  -2.385   0.078  1.00  0.00    -0.299 OA
HETATM   19  C15 UNL     1      -1.764  -1.149   0.875  1.00  0.00     0.155 A 
HETATM   20  O4  UNL     1      -3.512  -2.717   1.740  1.00  0.00    -0.297 OA
HETATM   21  O3  UNL     1      -0.801  -1.266   1.803  1.00  0.00    -0.188 OA
HETATM   22  C16 UNL     1      -4.820  -3.135   1.295  1.00  0.00     0.304 A 
ENDBRANCH   9  13
TORSDOF 1
