REMARK  3 active torsions:
REMARK  status: ('A' for Active; 'I' for Inactive)
REMARK    1  A    between atoms: C9_9  and  O3_17 
REMARK    2  A    between atoms: C10_10  and  O2_15 
REMARK    3  A    between atoms: C11_11  and  O1_13 
ROOT
HETATM    1  C1  UNL     1      -1.154   0.945   0.398  1.00  0.00     0.012 A 
HETATM    2  C2  UNL     1      -1.658   0.623  -0.981  1.00  0.00     0.174 C 
HETATM    3  C3  UNL     1      -1.236   1.631  -2.121  1.00  0.00     0.156 C 
HETATM    4  C4  UNL     1      -0.402   2.897  -1.713  1.00  0.00     0.035 C 
HETATM    5  C5  UNL     1       1.068   2.699  -1.233  1.00  0.00     0.029 C 
HETATM    6  C6  UNL     1       1.584   1.303  -1.250  1.00  0.00    -0.018 A 
HETATM    7  C7  UNL     1       1.172   0.350  -0.283  1.00  0.00     0.022 A 
HETATM    8  C8  UNL     1       0.217   0.770   0.756  1.00  0.00     0.024 A 
HETATM    9  C9  UNL     1       0.635   1.000   2.080  1.00  0.00     0.118 A 
HETATM   10  C10 UNL     1      -0.295   1.443   3.039  1.00  0.00     0.138 A 
HETATM   11  C11 UNL     1      -1.637   1.654   2.682  1.00  0.00     0.118 A 
HETATM   12  C12 UNL     1      -2.061   1.406   1.367  1.00  0.00     0.025 A 
HETATM   13  C16 UNL     1       1.646  -0.996  -0.320  1.00  0.00     0.118 A 
HETATM   14  C17 UNL     1       2.586  -1.354  -1.340  1.00  0.00     0.141 A 
HETATM   15  C18 UNL     1       3.006  -0.420  -2.291  1.00  0.00     0.121 A 
HETATM   16  C19 UNL     1       2.502   0.898  -2.242  1.00  0.00     0.022 A 
HETATM   17  O4  UNL     1       3.869  -0.992  -3.131  1.00  0.00    -0.299 OA
HETATM   18  C20 UNL     1       4.051  -2.373  -2.752  1.00  0.00     0.304 A 
HETATM   19  O5  UNL     1       3.199  -2.512  -1.594  1.00  0.00    -0.298 OA
HETATM   20  O6  UNL     1       1.104  -1.775   0.641  1.00  0.00    -0.329 OA
HETATM   21  C21 UNL     1       1.070  -3.205   0.555  1.00  0.00     0.152 C 
HETATM   22  C22 UNL     1      -0.377  -3.713   0.383  1.00  0.00     0.068 C 
HETATM   23  C23 UNL     1      -1.133  -3.135  -0.854  1.00  0.00     0.206 C 
HETATM   24  C24 UNL     1      -1.719  -1.750  -0.623  1.00  0.00     0.300 C 
HETATM   25  O7  UNL     1      -1.250  -0.711  -1.344  1.00  0.00    -0.295 OA
HETATM   26  O8  UNL     1      -2.594  -1.625   0.207  1.00  0.00    -0.262 OA
HETATM   27  O9  UNL     1      -2.211  -4.004  -1.141  1.00  0.00    -0.216 OA
HETATM   28  C25 UNL     1      -0.262  -3.168  -2.117  1.00  0.00     0.043 C 
HETATM   29  C26 UNL     1      -1.162  -3.547   1.693  1.00  0.00     0.006 C 
HETATM   30  C27 UNL     1      -1.166   3.813  -0.742  1.00  0.00     0.003 C 
HETATM   31  C28 UNL     1      -0.572   0.918  -3.311  1.00  0.00     0.036 C 
HETATM   32  O10 UNL     1      -2.432   2.125  -2.705  1.00  0.00    -0.223 OA
ENDROOT
BRANCH   9  33
HETATM   33  O3  UNL     1       1.893   0.811   2.424  1.00  0.00    -0.326 OA
HETATM   34  C15 UNL     1       2.885   1.604   1.789  1.00  0.00     0.181 C 
ENDBRANCH   9  33
BRANCH  11  35
HETATM   35  O1  UNL     1      -2.502   2.084   3.580  1.00  0.00    -0.326 OA
HETATM   36  C13 UNL     1      -3.822   2.373   3.148  1.00  0.00     0.181 C 
ENDBRANCH  11  35
BRANCH  10  37
HETATM   37  O2  UNL     1       0.098   1.662   4.279  1.00  0.00    -0.324 OA
HETATM   38  C14 UNL     1       0.852   0.648   4.930  1.00  0.00     0.182 C 
ENDBRANCH  10  37
TORSDOF 3
