REMARK  3 active torsions:
REMARK  status: ('A' for Active; 'I' for Inactive)
REMARK    1  A    between atoms: C9_9  and  O3_17 
REMARK    2  A    between atoms: C10_10  and  O2_15 
REMARK    3  A    between atoms: C11_11  and  O1_13 
ROOT
HETATM    1  C1  UNL     1      -1.088   0.912   0.354  1.00  0.00     0.009 A 
HETATM    2  C2  UNL     1      -1.596   0.594  -1.023  1.00  0.00     0.147 C 
HETATM    3  C3  UNL     1      -1.137   1.557  -2.170  1.00  0.00     0.033 C 
HETATM    4  C4  UNL     1      -0.338   2.842  -1.801  1.00  0.00     0.007 C 
HETATM    5  C5  UNL     1       1.115   2.666  -1.266  1.00  0.00     0.027 C 
HETATM    6  C6  UNL     1       1.642   1.273  -1.295  1.00  0.00    -0.018 A 
HETATM    7  C7  UNL     1       1.232   0.316  -0.332  1.00  0.00     0.022 A 
HETATM    8  C8  UNL     1       0.281   0.734   0.711  1.00  0.00     0.024 A 
HETATM    9  C9  UNL     1       0.703   0.965   2.031  1.00  0.00     0.118 A 
HETATM   10  C10 UNL     1      -0.223   1.402   2.994  1.00  0.00     0.138 A 
HETATM   11  C11 UNL     1      -1.567   1.615   2.639  1.00  0.00     0.118 A 
HETATM   12  C12 UNL     1      -1.994   1.371   1.324  1.00  0.00     0.024 A 
HETATM   13  C16 UNL     1       1.703  -1.029  -0.377  1.00  0.00     0.118 A 
HETATM   14  C17 UNL     1       2.639  -1.383  -1.400  1.00  0.00     0.141 A 
HETATM   15  C18 UNL     1       3.059  -0.444  -2.348  1.00  0.00     0.121 A 
HETATM   16  C19 UNL     1       2.555   0.875  -2.291  1.00  0.00     0.022 A 
HETATM   17  O4  UNL     1       3.918  -1.016  -3.191  1.00  0.00    -0.299 OA
HETATM   18  C20 UNL     1       4.098  -2.397  -2.820  1.00  0.00     0.304 A 
HETATM   19  O5  UNL     1       3.250  -2.541  -1.660  1.00  0.00    -0.298 OA
HETATM   20  O6  UNL     1       1.156  -1.813   0.582  1.00  0.00    -0.329 OA
HETATM   21  C21 UNL     1       1.121  -3.242   0.492  1.00  0.00     0.152 C 
HETATM   22  C22 UNL     1      -0.328  -3.750   0.326  1.00  0.00     0.068 C 
HETATM   23  C23 UNL     1      -1.090  -3.166  -0.904  1.00  0.00     0.206 C 
HETATM   24  C24 UNL     1      -1.672  -1.779  -0.668  1.00  0.00     0.300 C 
HETATM   25  O7  UNL     1      -1.213  -0.744  -1.396  1.00  0.00    -0.298 OA
HETATM   26  O8  UNL     1      -2.537  -1.651   0.172  1.00  0.00    -0.262 OA
HETATM   27  O9  UNL     1      -2.170  -4.033  -1.191  1.00  0.00    -0.216 OA
HETATM   28  C25 UNL     1      -0.221  -3.195  -2.168  1.00  0.00     0.043 C 
HETATM   29  C26 UNL     1      -1.108  -3.584   1.639  1.00  0.00     0.006 C 
HETATM   30  C27 UNL     1      -1.156   3.789  -0.910  1.00  0.00     0.000 C 
HETATM   31  C28 UNL     1      -2.334   1.926  -3.059  1.00  0.00     0.003 C 
ENDROOT
BRANCH   9  32
HETATM   32  O3  UNL     1       1.965   0.777   2.371  1.00  0.00    -0.326 OA
HETATM   33  C15 UNL     1       2.955   1.551   1.711  1.00  0.00     0.181 C 
ENDBRANCH   9  32
BRANCH  10  34
HETATM   34  O2  UNL     1       0.170   1.619   4.234  1.00  0.00    -0.324 OA
HETATM   35  C14 UNL     1       0.924   0.603   4.881  1.00  0.00     0.182 C 
ENDBRANCH  10  34
BRANCH  11  36
HETATM   36  O1  UNL     1      -2.432   2.039   3.539  1.00  0.00    -0.326 OA
HETATM   37  C13 UNL     1      -3.754   2.326   3.109  1.00  0.00     0.181 C 
ENDBRANCH  11  36
TORSDOF 3
