REMARK  2 active torsions:
REMARK  status: ('A' for Active; 'I' for Inactive)
REMARK    1  A    between atoms: C9_9  and  O3_16 
REMARK    2  A    between atoms: C15_18  and  O6_25 
ROOT
HETATM    1  C1  UNL     1       1.347   0.449  -0.830  1.00  0.00     0.012 A 
HETATM    2  C2  UNL     1       1.883  -0.943  -1.027  1.00  0.00     0.174 C 
HETATM    3  C3  UNL     1       2.746  -1.469   0.156  1.00  0.00     0.035 C 
HETATM    4  C4  UNL     1       1.916  -2.104   1.297  1.00  0.00     0.007 C 
HETATM    5  C5  UNL     1       0.785  -1.205   1.850  1.00  0.00     0.027 C 
HETATM    6  C6  UNL     1      -0.488  -1.322   1.080  1.00  0.00    -0.018 A 
HETATM    7  C7  UNL     1      -0.858  -0.422   0.039  1.00  0.00     0.022 A 
HETATM    8  C8  UNL     1       0.035   0.701  -0.328  1.00  0.00     0.024 A 
HETATM    9  C9  UNL     1      -0.436   2.041  -0.174  1.00  0.00     0.118 A 
HETATM   10  C10 UNL     1       0.404   3.125  -0.541  1.00  0.00     0.141 A 
HETATM   11  C11 UNL     1       1.693   2.898  -1.018  1.00  0.00     0.121 A 
HETATM   12  C12 UNL     1       2.158   1.570  -1.147  1.00  0.00     0.025 A 
HETATM   13  O1  UNL     1       2.277   4.066  -1.281  1.00  0.00    -0.299 OA
HETATM   14  C13 UNL     1       1.353   5.137  -0.985  1.00  0.00     0.304 A 
HETATM   15  O2  UNL     1       0.181   4.439  -0.512  1.00  0.00    -0.298 OA
HETATM   16  C15 UNL     1      -2.096  -0.596  -0.652  1.00  0.00     0.118 A 
HETATM   17  C16 UNL     1      -2.963  -1.658  -0.277  1.00  0.00     0.141 A 
HETATM   18  C17 UNL     1      -2.608  -2.547   0.736  1.00  0.00     0.121 A 
HETATM   19  C18 UNL     1      -1.371  -2.379   1.400  1.00  0.00     0.022 A 
HETATM   20  O4  UNL     1      -3.576  -3.447   0.891  1.00  0.00    -0.299 OA
HETATM   21  C19 UNL     1      -4.639  -3.168  -0.045  1.00  0.00     0.304 A 
HETATM   22  O5  UNL     1      -4.160  -2.004  -0.752  1.00  0.00    -0.298 OA
HETATM   23  C21 UNL     1       2.834  -2.574   2.435  1.00  0.00     0.000 C 
HETATM   24  C22 UNL     1       3.748  -0.428   0.683  1.00  0.00     0.003 C 
HETATM   25  O7  UNL     1       2.639  -1.037  -2.227  1.00  0.00    -0.219 OA
ENDROOT
BRANCH   9  26
HETATM   26  O3  UNL     1      -1.674   2.178   0.328  1.00  0.00    -0.326 OA
HETATM   27  C14 UNL     1      -2.182   3.492   0.502  1.00  0.00     0.181 C 
ENDBRANCH   9  26
BRANCH  16  28
HETATM   28  O6  UNL     1      -2.350   0.281  -1.637  1.00  0.00    -0.326 OA
HETATM   29  C20 UNL     1      -3.561   0.137  -2.363  1.00  0.00     0.181 C 
ENDBRANCH  16  28
TORSDOF 2
