REMARK  6 active torsions:
REMARK  status: ('A' for Active; 'I' for Inactive)
REMARK    1  A    between atoms: C9_9  and  O3_17 
REMARK    2  A    between atoms: C10_10  and  O2_15 
REMARK    3  A    between atoms: C11_11  and  O1_13 
REMARK    4  A    between atoms: C16_19  and  O6_27 
REMARK    5  A    between atoms: C17_20  and  O5_25 
REMARK    6  A    between atoms: C18_21  and  O4_23 
ROOT
HETATM    1  C1  UNL     1      -0.758  -1.420   0.760  1.00  0.00     0.012 A 
HETATM    2  C2  UNL     1      -1.580  -0.668   1.760  1.00  0.00     0.175 C 
HETATM    3  C3  UNL     1      -2.809   0.000   1.088  1.00  0.00     0.039 C 
HETATM    4  C4  UNL     1      -2.600   0.486  -0.371  1.00  0.00     0.025 C 
HETATM    5  C5  UNL     1      -1.680   1.715  -0.551  1.00  0.00    -0.026 C 
HETATM    6  C6  UNL     1      -0.252   1.734  -0.074  1.00  0.00    -0.000 A 
HETATM    7  C7  UNL     1       0.633   0.611   0.119  1.00  0.00     0.026 A 
HETATM    8  C8  UNL     1       0.236  -0.803  -0.072  1.00  0.00     0.025 A 
HETATM    9  C9  UNL     1       0.873  -1.576  -1.068  1.00  0.00     0.118 A 
HETATM   10  C10 UNL     1       0.606  -2.951  -1.180  1.00  0.00     0.138 A 
HETATM   11  C11 UNL     1      -0.330  -3.561  -0.332  1.00  0.00     0.118 A 
HETATM   12  C12 UNL     1      -1.016  -2.793   0.619  1.00  0.00     0.025 A 
HETATM   13  C16 UNL     1       1.971   0.850   0.523  1.00  0.00     0.118 A 
HETATM   14  C17 UNL     1       2.438   2.154   0.734  1.00  0.00     0.138 A 
HETATM   15  C18 UNL     1       1.574   3.244   0.572  1.00  0.00     0.118 A 
HETATM   16  C19 UNL     1       0.248   3.027   0.176  1.00  0.00     0.026 A 
HETATM   17  C23 UNL     1      -3.967   0.799  -0.994  1.00  0.00     0.005 C 
HETATM   18  C24 UNL     1      -3.488   1.061   1.971  1.00  0.00     0.003 C 
HETATM   19  O7  UNL     1      -0.830   0.238   2.551  1.00  0.00    -0.219 OA
ENDROOT
BRANCH   9  20
HETATM   20  O3  UNL     1       1.734  -1.018  -1.900  1.00  0.00    -0.326 OA
HETATM   21  C15 UNL     1       1.463  -1.094  -3.293  1.00  0.00     0.181 C 
ENDBRANCH   9  20
BRANCH  10  22
HETATM   22  O2  UNL     1       1.244  -3.676  -2.076  1.00  0.00    -0.324 OA
HETATM   23  C14 UNL     1       0.486  -4.592  -2.854  1.00  0.00     0.182 C 
ENDBRANCH  10  22
BRANCH  11  24
HETATM   24  O1  UNL     1      -0.570  -4.852  -0.424  1.00  0.00    -0.326 OA
HETATM   25  C13 UNL     1      -1.480  -5.428   0.502  1.00  0.00     0.181 C 
ENDBRANCH  11  24
BRANCH  13  26
HETATM   26  O6  UNL     1       2.803  -0.156   0.719  1.00  0.00    -0.326 OA
HETATM   27  C22 UNL     1       3.639  -0.117   1.865  1.00  0.00     0.181 C 
ENDBRANCH  13  26
BRANCH  14  28
HETATM   28  O5  UNL     1       3.690   2.359   1.094  1.00  0.00    -0.324 OA
HETATM   29  C21 UNL     1       4.373   3.469   0.531  1.00  0.00     0.182 C 
ENDBRANCH  14  28
BRANCH  15  30
HETATM   30  O4  UNL     1       2.004   4.469   0.789  1.00  0.00    -0.326 OA
HETATM   31  C20 UNL     1       1.254   5.545   0.246  1.00  0.00     0.181 C 
ENDBRANCH  15  30
TORSDOF 6
