REMARK  4 active torsions:
REMARK  status: ('A' for Active; 'I' for Inactive)
REMARK    1  A    between atoms: C7_7  and  C12_13 
REMARK    2  A    between atoms: C12_13  and  C13_14 
REMARK    3  A    between atoms: C13_14  and  C14_15 
REMARK    4  A    between atoms: C15_16  and  C16_17 
ROOT
HETATM    1  C1  UNL     1       4.098   3.293  -2.041  1.00  0.00     0.000 C 
HETATM    2  C2  UNL     1       2.879   4.154  -1.615  1.00  0.00     0.000 C 
HETATM    3  C3  UNL     1       1.576   3.320  -1.725  1.00  0.00     0.000 C 
HETATM    4  C4  UNL     1       1.574   2.055  -0.818  1.00  0.00     0.002 C 
HETATM    5  C5  UNL     1       2.969   1.373  -0.818  1.00  0.00     0.000 C 
HETATM    6  C6  UNL     1       3.834   1.775  -2.018  1.00  0.00     0.000 C 
HETATM    7  C7  UNL     1       0.473   1.080  -1.338  1.00  0.00     0.028 C 
HETATM    8  C8  UNL     1      -0.828   1.807  -1.836  1.00  0.00     0.127 C 
HETATM    9  C9  UNL     1      -0.957   3.242  -1.275  1.00  0.00     0.030 C 
HETATM   10  C10 UNL     1       0.275   4.135  -1.549  1.00  0.00     0.003 C 
HETATM   11  C11 UNL     1      -2.108   1.006  -1.557  1.00  0.00     0.033 C 
HETATM   12  O1  UNL     1      -0.783   1.918  -3.248  1.00  0.00    -0.226 OA
HETATM   13  C26 UNL     1       1.254   2.457   0.637  1.00  0.00     0.000 C 
HETATM   14  C27 UNL     1       3.070   4.654  -0.178  1.00  0.00     0.000 C 
HETATM   15  C28 UNL     1       2.795   5.389  -2.525  1.00  0.00     0.000 C 
ENDROOT
BRANCH   7  16
HETATM   16  C12 UNL     1       0.174  -0.008  -0.293  1.00  0.00     0.007 C 
BRANCH  16  17
HETATM   17  C13 UNL     1      -0.033  -1.387  -0.922  1.00  0.00     0.025 C 
BRANCH  17  18
HETATM   18  C14 UNL     1      -0.949  -2.258  -0.105  1.00  0.00    -0.034 C 
HETATM   19  C15 UNL     1      -0.406  -3.090   0.799  1.00  0.00    -0.045 C 
HETATM   20  C25 UNL     1       1.092  -3.109   0.947  1.00  0.00     0.026 C 
BRANCH  19  21
HETATM   21  C16 UNL     1      -1.324  -3.965   1.619  1.00  0.00     0.036 C 
HETATM   22  C17 UNL     1      -2.816  -3.734   1.266  1.00  0.00     0.007 C 
HETATM   23  C18 UNL     1      -3.709  -4.623   2.158  1.00  0.00     0.001 C 
HETATM   24  C23 UNL     1      -3.070  -4.098  -0.203  1.00  0.00     0.001 C 
HETATM   25  C24 UNL     1      -3.199  -2.262   1.469  1.00  0.00     0.001 C 
HETATM   26  C19 UNL     1      -3.469  -4.379   3.656  1.00  0.00     0.004 C 
HETATM   27  C20 UNL     1      -1.994  -4.582   4.033  1.00  0.00     0.022 C 
HETATM   28  C21 UNL     1      -1.076  -3.813   3.111  1.00  0.00    -0.041 C 
HETATM   29  C22 UNL     1      -0.098  -3.035   3.615  1.00  0.00    -0.009 C 
ENDBRANCH  19  21
ENDBRANCH  17  18
ENDBRANCH  16  17
ENDBRANCH   7  16
TORSDOF 4
