REMARK  2 active torsions:
REMARK  status: ('A' for Active; 'I' for Inactive)
REMARK    1  A    between atoms: C1_1  and  C6_8 
REMARK    2  A    between atoms: C7_9  and  C8_10 
ROOT
HETATM    1  C6  UNL     1       0.373   0.041   0.170  1.00  0.00     0.004 C 
HETATM    2  C7  UNL     1      -0.588  -0.305  -0.703  1.00  0.00    -0.002 C 
ENDROOT
BRANCH   1   3
HETATM    3  C1  UNL     1       1.733   0.406  -0.367  1.00  0.00     0.151 C 
HETATM    4  O1  UNL     1       2.676  -0.590   0.053  1.00  0.00    -0.296 OA
HETATM    5  C2  UNL     1       3.981  -0.342  -0.168  1.00  0.00     0.296 C 
HETATM    6  C3  UNL     1       4.442   1.029  -0.467  1.00  0.00     0.064 C 
HETATM    7  O2  UNL     1       4.813  -1.217  -0.121  1.00  0.00    -0.259 OA
HETATM    8  C4  UNL     1       3.600   2.072  -0.356  1.00  0.00    -0.018 C 
HETATM    9  C5  UNL     1       2.180   1.813   0.082  1.00  0.00     0.061 C 
ENDBRANCH   1   3
BRANCH   2  10
HETATM   10  C8  UNL     1      -1.937  -0.668  -0.176  1.00  0.00    -0.000 A 
HETATM   11  C9  UNL     1      -2.742  -1.586  -0.875  1.00  0.00    -0.000 A 
HETATM   12  C10 UNL     1      -4.012  -1.928  -0.377  1.00  0.00    -0.000 A 
HETATM   13  C11 UNL     1      -4.479  -1.354   0.818  1.00  0.00    -0.000 A 
HETATM   14  C12 UNL     1      -3.674  -0.436   1.518  1.00  0.00    -0.000 A 
HETATM   15  C13 UNL     1      -2.404  -0.094   1.021  1.00  0.00    -0.000 A 
ENDBRANCH   2  10
TORSDOF 2
