REMARK  1 active torsions:
REMARK  status: ('A' for Active; 'I' for Inactive)
REMARK    1  A    between atoms: C7_9  and  C8_11 
ROOT
HETATM    1  C1  UNL     1      -1.039   1.633  -1.197  1.00  0.00     0.168 C 
HETATM    2  C2  UNL     1      -0.816   2.207   0.211  1.00  0.00     0.189 C 
HETATM    3  O1  UNL     1      -2.019   2.561   0.906  1.00  0.00    -0.295 OA
HETATM    4  C3  UNL     1      -3.109   1.787   0.762  1.00  0.00     0.296 C 
HETATM    5  C4  UNL     1      -3.211   0.824  -0.348  1.00  0.00     0.066 C 
HETATM    6  C5  UNL     1      -2.254   0.742  -1.287  1.00  0.00     0.011 C 
HETATM    7  O2  UNL     1      -4.043   1.859   1.525  1.00  0.00    -0.259 OA
HETATM    8  C6  UNL     1      -0.080   1.043   0.883  1.00  0.00     0.214 C 
HETATM    9  C7  UNL     1       0.877   0.674  -0.254  1.00  0.00     0.171 C 
HETATM   10  O3  UNL     1       0.113   0.844  -1.432  1.00  0.00    -0.345 OA
HETATM   11  O4  UNL     1       0.615   1.481   2.033  1.00  0.00    -0.218 OA
ENDROOT
BRANCH   9  12
HETATM   12  C8  UNL     1       1.402  -0.717  -0.178  1.00  0.00     0.007 A 
HETATM   13  C9  UNL     1       0.514  -1.807  -0.193  1.00  0.00    -0.002 A 
HETATM   14  C10 UNL     1       1.012  -3.121  -0.121  1.00  0.00    -0.000 A 
HETATM   15  C11 UNL     1       2.397  -3.344  -0.035  1.00  0.00    -0.000 A 
HETATM   16  C12 UNL     1       3.285  -2.256  -0.021  1.00  0.00    -0.000 A 
HETATM   17  C13 UNL     1       2.789  -0.941  -0.092  1.00  0.00    -0.002 A 
ENDBRANCH   9  12
TORSDOF 1
