REMARK  2 active torsions:
REMARK  status: ('A' for Active; 'I' for Inactive)
REMARK       I    between atoms: N2_11  and  C12_14 
REMARK    1  A    between atoms: C12_14  and  C13_15 
REMARK    2  A    between atoms: C18_20  and  N3_21 
ROOT
HETATM    1  C1  UNL     1       4.371  -3.781   1.359  1.00  0.00     0.000 A 
HETATM    2  C2  UNL     1       5.266  -2.678   1.418  1.00  0.00     0.002 A 
HETATM    3  C3  UNL     1       4.770  -1.350   1.352  1.00  0.00     0.019 A 
HETATM    4  C4  UNL     1       3.373  -1.160   1.225  1.00  0.00     0.081 A 
HETATM    5  C5  UNL     1       2.508  -2.227   1.164  1.00  0.00     0.015 A 
HETATM    6  C6  UNL     1       2.975  -3.561   1.230  1.00  0.00     0.001 A 
HETATM    7  C7  UNL     1       1.225  -1.822   1.041  1.00  0.00    -0.003 A 
HETATM    8  C8  UNL     1       1.260  -0.424   1.021  1.00  0.00     0.078 A 
HETATM    9  N1  UNL     1       2.607  -0.006   1.135  1.00  0.00    -0.248 NA
HETATM   10  C9  UNL     1       0.037   0.472   0.902  1.00  0.00     0.150 C 
HETATM   11  N2  UNL     1      -1.225  -0.321   0.783  1.00  0.00    -0.311 N 
HETATM   12  C10 UNL     1      -1.289  -1.711   1.340  1.00  0.00     0.110 C 
HETATM   13  C11 UNL     1      -0.080  -2.596   0.928  1.00  0.00     0.052 C 
HETATM   14  C12 UNL     1      -2.320   0.228   0.170  1.00  0.00     0.259 C 
HETATM   15  O1  UNL     1      -3.328  -0.424   0.025  1.00  0.00    -0.267 OA
ENDROOT
BRANCH  14  16
HETATM   16  C13 UNL     1      -2.242   1.644  -0.313  1.00  0.00     0.073 A 
HETATM   17  C14 UNL     1      -1.971   2.664   0.619  1.00  0.00     0.006 A 
HETATM   18  C15 UNL     1      -1.891   4.002   0.201  1.00  0.00     0.000 A 
HETATM   19  C16 UNL     1      -2.080   4.328  -1.150  1.00  0.00     0.002 A 
HETATM   20  C17 UNL     1      -2.352   3.318  -2.088  1.00  0.00     0.019 A 
HETATM   21  C18 UNL     1      -2.434   1.973  -1.676  1.00  0.00     0.081 A 
BRANCH  21  22
HETATM   22  N3  UNL     1      -2.701   1.006  -2.615  1.00  0.00    -0.268 NA
HETATM   23  C19 UNL     1      -2.930   1.387  -4.016  1.00  0.00     0.152 C 
ENDBRANCH  21  22
ENDBRANCH  14  16
TORSDOF 2
