REMARK  4 active torsions:
REMARK  status: ('A' for Active; 'I' for Inactive)
REMARK    1  A    between atoms: C3_3  and  O7_22 
REMARK    2  A    between atoms: C9_10  and  C10_12 
REMARK    3  A    between atoms: O7_22  and  C16_23 
REMARK    4  A    between atoms: C17_25  and  C21_32 
ROOT
HETATM    1  C1  UNL     1      -2.650  -3.635   1.002  1.00  0.00     0.057 A 
HETATM    2  C2  UNL     1      -2.811  -2.332   0.473  1.00  0.00     0.157 A 
HETATM    3  C3  UNL     1      -1.674  -1.559   0.135  1.00  0.00     0.145 A 
HETATM    4  C4  UNL     1      -0.375  -2.090   0.326  1.00  0.00     0.130 A 
HETATM    5  C5  UNL     1      -0.217  -3.397   0.856  1.00  0.00     0.091 A 
HETATM    6  C6  UNL     1      -1.357  -4.172   1.195  1.00  0.00     0.138 A 
HETATM    7  O1  UNL     1      -1.225  -5.408   1.699  1.00  0.00    -0.190 OA
HETATM    8  C7  UNL     1       1.162  -3.924   1.043  1.00  0.00     0.227 A 
HETATM    9  C8  UNL     1       2.262  -3.012   0.652  1.00  0.00     0.192 A 
HETATM   10  C9  UNL     1       1.981  -1.781   0.156  1.00  0.00     0.129 A 
HETATM   11  O2  UNL     1       0.709  -1.352   0.006  1.00  0.00    -0.303 OA
HETATM   12  O5  UNL     1       3.524  -3.424   0.797  1.00  0.00    -0.185 OA
HETATM   13  O6  UNL     1       1.475  -5.010   1.477  1.00  0.00    -0.284 OA
HETATM   14  O13 UNL     1      -4.041  -1.832   0.293  1.00  0.00    -0.188 OA
ENDROOT
BRANCH   3  15
HETATM   15  O7  UNL     1      -1.824  -0.326  -0.367  1.00  0.00    -0.299 OA
BRANCH  15  16
HETATM   16  C16 UNL     1      -1.264   0.764   0.358  1.00  0.00     0.274 C 
HETATM   17  O8  UNL     1      -0.861   1.789  -0.545  1.00  0.00    -0.326 OA
HETATM   18  C17 UNL     1      -1.914   2.381  -1.305  1.00  0.00     0.184 C 
HETATM   19  C18 UNL     1      -2.967   3.023  -0.369  1.00  0.00     0.215 C 
HETATM   20  C19 UNL     1      -3.475   1.990   0.664  1.00  0.00     0.220 C 
HETATM   21  O11 UNL     1      -2.396   4.150   0.285  1.00  0.00    -0.218 OA
HETATM   22  C20 UNL     1      -2.279   1.324   1.381  1.00  0.00     0.241 C 
HETATM   23  O10 UNL     1      -4.361   2.592   1.594  1.00  0.00    -0.218 OA
HETATM   24  O9  UNL     1      -2.725   0.268   2.213  1.00  0.00    -0.215 OA
BRANCH  18  25
HETATM   25  C21 UNL     1      -1.277   3.373  -2.285  1.00  0.00     0.214 C 
HETATM   26  O12 UNL     1      -2.303   3.947  -3.062  1.00  0.00    -0.218 OA
ENDBRANCH  18  25
ENDBRANCH  15  16
ENDBRANCH   3  15
BRANCH  10  27
HETATM   27  C10 UNL     1       3.100  -0.869  -0.234  1.00  0.00     0.027 A 
HETATM   28  C11 UNL     1       3.100  -0.250  -1.496  1.00  0.00     0.004 A 
HETATM   29  C12 UNL     1       4.152   0.605  -1.859  1.00  0.00     0.030 A 
HETATM   30  C13 UNL     1       5.211   0.846  -0.965  1.00  0.00     0.156 A 
HETATM   31  C14 UNL     1       5.213   0.227   0.301  1.00  0.00     0.156 A 
HETATM   32  O4  UNL     1       6.195   1.648  -1.312  1.00  0.00    -0.188 OA
HETATM   33  C15 UNL     1       4.158  -0.629   0.662  1.00  0.00     0.032 A 
HETATM   34  O3  UNL     1       6.199   0.445   1.145  1.00  0.00    -0.188 OA
ENDBRANCH  10  27
TORSDOF 4
