REMARK  0 active torsions:
REMARK  status: ('A' for Active; 'I' for Inactive)
ROOT
HETATM    1  C1  UNL     1       1.332  -2.608   0.269  1.00  0.00    -0.031 C 
HETATM    2  C2  UNL     1       2.520  -1.932   0.914  1.00  0.00     0.026 C 
HETATM    3  C3  UNL     1       3.387  -1.180  -0.108  1.00  0.00     0.005 C 
HETATM    4  C4  UNL     1       2.723   0.082  -0.688  1.00  0.00     0.000 C 
HETATM    5  C5  UNL     1       2.693   1.258   0.303  1.00  0.00     0.000 C 
HETATM    6  C6  UNL     1       2.266   2.584  -0.348  1.00  0.00     0.000 C 
HETATM    7  C7  UNL     1       0.754   2.723  -0.596  1.00  0.00     0.003 C 
HETATM    8  C8  UNL     1      -0.053   2.906   0.703  1.00  0.00     0.033 C 
HETATM    9  C9  UNL     1      -1.461   3.475   0.463  1.00  0.00     0.152 C 
HETATM   10  O1  UNL     1      -2.271   2.580  -0.303  1.00  0.00    -0.302 OA
HETATM   11  C10 UNL     1      -2.766   1.504   0.328  1.00  0.00     0.272 C 
HETATM   12  C11 UNL     1      -3.670   0.578  -0.449  1.00  0.00     0.096 C 
HETATM   13  C12 UNL     1      -2.928  -0.606  -1.084  1.00  0.00     0.010 C 
HETATM   14  C13 UNL     1      -2.250  -1.516  -0.051  1.00  0.00     0.001 C 
HETATM   15  C14 UNL     1      -1.639  -2.774  -0.688  1.00  0.00     0.005 C 
HETATM   16  C15 UNL     1      -0.916  -3.672   0.328  1.00  0.00     0.026 C 
HETATM   17  C16 UNL     1       0.266  -3.004   0.990  1.00  0.00    -0.031 C 
HETATM   18  O2  UNL     1      -2.535   1.238   1.486  1.00  0.00    -0.264 OA
ENDROOT
TORSDOF 0
