REMARK  4 active torsions:
REMARK  status: ('A' for Active; 'I' for Inactive)
REMARK    1  A    between atoms: C2_2  and  O8_23 
REMARK    2  A    between atoms: C9_10  and  C10_12 
REMARK    3  A    between atoms: O8_23  and  C16_24 
REMARK    4  A    between atoms: C17_26  and  C21_33 
ROOT
HETATM    1  C1  UNL     1      -1.311  -2.262  -0.047  1.00  0.00     0.054 A 
HETATM    2  C2  UNL     1      -1.469  -0.959  -0.576  1.00  0.00     0.126 A 
HETATM    3  C3  UNL     1      -0.332  -0.186  -0.914  1.00  0.00     0.176 A 
HETATM    4  C4  UNL     1       0.965  -0.717  -0.725  1.00  0.00     0.132 A 
HETATM    5  C5  UNL     1       1.123  -2.023  -0.193  1.00  0.00     0.091 A 
HETATM    6  C6  UNL     1      -0.016  -2.799   0.146  1.00  0.00     0.138 A 
HETATM    7  O1  UNL     1       0.115  -4.035   0.648  1.00  0.00    -0.190 OA
HETATM    8  C7  UNL     1       2.502  -2.551  -0.008  1.00  0.00     0.227 A 
HETATM    9  C8  UNL     1       3.604  -1.639  -0.398  1.00  0.00     0.192 A 
HETATM   10  C9  UNL     1       3.320  -0.406  -0.895  1.00  0.00     0.129 A 
HETATM   11  O2  UNL     1       2.051   0.022  -1.045  1.00  0.00    -0.303 OA
HETATM   12  O5  UNL     1       4.863  -2.051  -0.254  1.00  0.00    -0.185 OA
HETATM   13  O6  UNL     1       2.814  -3.637   0.426  1.00  0.00    -0.284 OA
HETATM   14  O7  UNL     1      -0.484   1.049  -1.416  1.00  0.00    -0.186 OA
ENDROOT
BRANCH   2  15
HETATM   15  O8  UNL     1      -2.699  -0.457  -0.756  1.00  0.00    -0.301 OA
BRANCH  15  16
HETATM   16  C16 UNL     1      -3.772  -1.039  -0.022  1.00  0.00     0.274 C 
HETATM   17  O9  UNL     1      -3.477  -1.010   1.371  1.00  0.00    -0.326 OA
HETATM   18  C17 UNL     1      -3.330   0.291   1.936  1.00  0.00     0.184 C 
HETATM   19  C18 UNL     1      -4.633   1.111   1.758  1.00  0.00     0.215 C 
HETATM   20  C19 UNL     1      -5.051   1.145   0.269  1.00  0.00     0.220 C 
HETATM   21  O12 UNL     1      -5.662   0.547   2.559  1.00  0.00    -0.218 OA
HETATM   22  C20 UNL     1      -5.096  -0.291  -0.301  1.00  0.00     0.241 C 
HETATM   23  O11 UNL     1      -6.297   1.803   0.103  1.00  0.00    -0.218 OA
HETATM   24  O10 UNL     1      -5.324  -0.264  -1.699  1.00  0.00    -0.215 OA
BRANCH  18  25
HETATM   25  C21 UNL     1      -2.912   0.115   3.400  1.00  0.00     0.214 C 
HETATM   26  O13 UNL     1      -2.670   1.395   3.941  1.00  0.00    -0.218 OA
ENDBRANCH  18  25
ENDBRANCH  15  16
ENDBRANCH   2  15
BRANCH  10  27
HETATM   27  C10 UNL     1       4.441   0.504  -1.283  1.00  0.00     0.027 A 
HETATM   28  C11 UNL     1       4.438   1.125  -2.545  1.00  0.00     0.004 A 
HETATM   29  C12 UNL     1       5.492   1.981  -2.908  1.00  0.00     0.030 A 
HETATM   30  C13 UNL     1       6.551   2.219  -2.014  1.00  0.00     0.156 A 
HETATM   31  C14 UNL     1       6.555   1.598  -0.752  1.00  0.00     0.156 A 
HETATM   32  O4  UNL     1       7.535   3.022  -2.363  1.00  0.00    -0.188 OA
HETATM   33  C15 UNL     1       5.500   0.742  -0.389  1.00  0.00     0.032 A 
HETATM   34  O3  UNL     1       7.543   1.816   0.094  1.00  0.00    -0.188 OA
ENDBRANCH  10  27
TORSDOF 4
