REMARK  2 active torsions:
REMARK  status: ('A' for Active; 'I' for Inactive)
REMARK    1  A    between atoms: C8_9  and  C9_10 
REMARK    2  A    between atoms: C9_10  and  N2_11 
ROOT
HETATM    1  C1  UNL     1      -3.057   2.125  -0.701  1.00  0.00     0.002 A 
HETATM    2  C2  UNL     1      -3.033   0.707  -0.615  1.00  0.00     0.000 A 
HETATM    3  C3  UNL     1      -1.797   0.014  -0.566  1.00  0.00     0.001 A 
HETATM    4  C4  UNL     1      -0.598   0.769  -0.607  1.00  0.00     0.017 A 
HETATM    5  C5  UNL     1      -0.623   2.139  -0.691  1.00  0.00     0.081 A 
HETATM    6  C6  UNL     1      -1.842   2.855  -0.742  1.00  0.00     0.019 A 
HETATM    7  N1  UNL     1       0.697   2.562  -0.711  1.00  0.00    -0.244 NA
HETATM    8  C7  UNL     1       1.508   1.402  -0.637  1.00  0.00     0.097 A 
HETATM    9  C8  UNL     1       0.662   0.279  -0.570  1.00  0.00     0.032 A 
ENDROOT
BRANCH   9  10
HETATM   10  C9  UNL     1       1.092  -1.172  -0.480  1.00  0.00     0.278 C 
BRANCH  10  11
HETATM   11  N2  UNL     1       0.807  -1.733   0.830  1.00  0.00     0.146 N 
HETATM   12  C10 UNL     1       1.061  -3.164   0.836  1.00  0.00     0.286 C 
HETATM   13  C11 UNL     1       1.600  -1.070   1.852  1.00  0.00     0.286 C 
ENDBRANCH  10  11
ENDBRANCH   9  10
TORSDOF 2
