REMARK  2 active torsions:
REMARK  status: ('A' for Active; 'I' for Inactive)
REMARK    1  A    between atoms: C8_9  and  C9_10 
REMARK    2  A    between atoms: C9_10  and  N2_11 
ROOT
HETATM    1  C1  UNL     1      -3.106   2.004   0.590  1.00  0.00     0.002 A 
HETATM    2  C2  UNL     1      -3.082   0.586   0.676  1.00  0.00     0.000 A 
HETATM    3  C3  UNL     1      -1.846  -0.107   0.725  1.00  0.00     0.001 A 
HETATM    4  C4  UNL     1      -0.646   0.649   0.684  1.00  0.00     0.018 A 
HETATM    5  C5  UNL     1      -0.672   2.018   0.600  1.00  0.00     0.081 A 
HETATM    6  C6  UNL     1      -1.891   2.734   0.549  1.00  0.00     0.019 A 
HETATM    7  N1  UNL     1       0.646   2.442   0.580  1.00  0.00    -0.244 NA
HETATM    8  C7  UNL     1       1.459   1.281   0.654  1.00  0.00     0.097 A 
HETATM    9  C8  UNL     1       0.613   0.156   0.721  1.00  0.00     0.039 A 
ENDROOT
BRANCH   9  10
HETATM   10  C9  UNL     1       1.043  -1.293   0.811  1.00  0.00     0.315 C 
BRANCH  10  11
HETATM   11  N2  UNL     1       1.324  -1.877  -0.574  1.00  0.00     0.074 N 
HETATM   12  C10 UNL     1       0.082  -1.898  -1.467  1.00  0.00     0.330 C 
HETATM   13  C11 UNL     1       2.529  -1.227  -1.254  1.00  0.00     0.330 C 
HETATM   14  O1  UNL     1       1.832  -3.195  -0.439  1.00  0.00    -0.061 OA
ENDBRANCH  10  11
ENDBRANCH   9  10
TORSDOF 2
