REMARK  8 active torsions:
REMARK  status: ('A' for Active; 'I' for Inactive)
REMARK    1  A    between atoms: C1_1  and  C16_20 
REMARK    2  A    between atoms: C4_4  and  C5_6 
REMARK    3  A    between atoms: C7_8  and  O4_16 
REMARK    4  A    between atoms: C8_9  and  O3_14 
REMARK    5  A    between atoms: C9_10  and  O2_12 
REMARK    6  A    between atoms: C18_22  and  O7_30 
REMARK    7  A    between atoms: C19_23  and  O6_28 
REMARK    8  A    between atoms: C20_24  and  O5_26 
ROOT
HETATM    1  C1  UNL     1       1.806   0.200   0.926  1.00  0.00     0.138 C 
HETATM    2  C2  UNL     1       1.740   1.686   1.300  1.00  0.00     0.034 C 
HETATM    3  C3  UNL     1       0.278   1.867   1.765  1.00  0.00     0.034 C 
HETATM    4  C4  UNL     1      -0.235   0.430   1.855  1.00  0.00     0.138 C 
HETATM    5  O1  UNL     1       0.471  -0.239   0.837  1.00  0.00    -0.350 OA
HETATM    6  C14 UNL     1       0.152   2.648   3.078  1.00  0.00     0.003 C 
HETATM    7  C15 UNL     1       2.107   2.666   0.176  1.00  0.00     0.003 C 
ENDROOT
BRANCH   1   8
HETATM    8  C16 UNL     1       2.618  -0.144  -0.309  1.00  0.00     0.009 A 
HETATM    9  C17 UNL     1       3.901  -0.513  -0.204  1.00  0.00     0.024 A 
HETATM   10  C18 UNL     1       4.648  -0.834  -1.275  1.00  0.00     0.118 A 
HETATM   11  C19 UNL     1       4.079  -0.810  -2.508  1.00  0.00     0.138 A 
HETATM   12  C20 UNL     1       2.787  -0.413  -2.655  1.00  0.00     0.118 A 
HETATM   13  C21 UNL     1       2.094  -0.103  -1.541  1.00  0.00     0.024 A 
BRANCH  10  14
HETATM   14  O7  UNL     1       5.961  -1.245  -1.181  1.00  0.00    -0.326 OA
HETATM   15  C24 UNL     1       6.481  -1.606   0.078  1.00  0.00     0.181 C 
ENDBRANCH  10  14
BRANCH  11  16
HETATM   16  O6  UNL     1       4.929  -1.159  -3.541  1.00  0.00    -0.324 OA
HETATM   17  C23 UNL     1       4.658  -0.815  -4.878  1.00  0.00     0.182 C 
ENDBRANCH  11  16
BRANCH  12  18
HETATM   18  O5  UNL     1       2.209  -0.382  -3.902  1.00  0.00    -0.326 OA
HETATM   19  C22 UNL     1       0.830  -0.130  -4.043  1.00  0.00     0.181 C 
ENDBRANCH  12  18
ENDBRANCH   1   8
BRANCH   4  20
HETATM   20  C5  UNL     1      -1.723   0.152   1.735  1.00  0.00     0.009 A 
HETATM   21  C6  UNL     1      -2.161  -1.108   1.829  1.00  0.00     0.024 A 
HETATM   22  C7  UNL     1      -3.454  -1.467   1.732  1.00  0.00     0.118 A 
HETATM   23  C8  UNL     1      -4.386  -0.494   1.535  1.00  0.00     0.138 A 
HETATM   24  C9  UNL     1      -3.980   0.804   1.434  1.00  0.00     0.118 A 
HETATM   25  C10 UNL     1      -2.665   1.082   1.539  1.00  0.00     0.024 A 
BRANCH  22  26
HETATM   26  O4  UNL     1      -3.668  -2.826   1.862  1.00  0.00    -0.326 OA
HETATM   27  C13 UNL     1      -4.951  -3.402   1.865  1.00  0.00     0.181 C 
ENDBRANCH  22  26
BRANCH  23  28
HETATM   28  O3  UNL     1      -5.698  -0.904   1.436  1.00  0.00    -0.324 OA
HETATM   29  C12 UNL     1      -6.770  -0.046   1.133  1.00  0.00     0.182 C 
ENDBRANCH  23  28
BRANCH  24  30
HETATM   30  O2  UNL     1      -4.902   1.803   1.224  1.00  0.00    -0.326 OA
HETATM   31  C11 UNL     1      -4.492   3.137   1.030  1.00  0.00     0.181 C 
ENDBRANCH  24  30
ENDBRANCH   4  20
TORSDOF 8
