REMARK  0 active torsions:
REMARK  status: ('A' for Active; 'I' for Inactive)
ROOT
HETATM    1  C1  UNL     1      -2.809   0.748  -0.994  1.00  0.00     0.070 C 
HETATM    2  C2  UNL     1      -2.965  -0.648  -0.346  1.00  0.00     0.173 C 
HETATM    3  C3  UNL     1      -1.641  -1.385  -0.236  1.00  0.00    -0.015 C 
HETATM    4  C4  UNL     1      -0.385  -0.559  -0.451  1.00  0.00     0.024 C 
HETATM    5  C5  UNL     1      -0.523   0.801   0.281  1.00  0.00     0.034 C 
HETATM    6  C6  UNL     1      -1.643   1.613  -0.439  1.00  0.00     0.155 C 
HETATM    7  O1  UNL     1      -2.160   2.623   0.410  1.00  0.00    -0.223 OA
HETATM    8  C7  UNL     1       0.832   1.564   0.287  1.00  0.00     0.033 C 
HETATM    9  C8  UNL     1       1.793   1.139  -0.830  1.00  0.00     0.129 C 
HETATM   10  C9  UNL     1       2.055  -0.389  -0.809  1.00  0.00     0.056 C 
HETATM   11  C10 UNL     1       0.965  -1.225  -0.113  1.00  0.00     0.011 C 
HETATM   12  C11 UNL     1       3.410  -0.424  -0.174  1.00  0.00     0.043 C 
HETATM   13  C12 UNL     1       3.939   0.930  -0.144  1.00  0.00     0.292 C 
HETATM   14  O2  UNL     1       3.053   1.799  -0.627  1.00  0.00    -0.301 OA
HETATM   15  O3  UNL     1       5.045   1.207   0.262  1.00  0.00    -0.260 OA
HETATM   16  C13 UNL     1       4.018  -1.533   0.285  1.00  0.00     0.001 C 
HETATM   17  C14 UNL     1      -0.889   0.539   1.760  1.00  0.00     0.003 C 
HETATM   18  C15 UNL     1      -1.600  -2.703   0.033  1.00  0.00    -0.007 C 
HETATM   19  O4  UNL     1      -3.559  -0.504   0.930  1.00  0.00    -0.219 OA
ENDROOT
TORSDOF 0
