REMARK  1 active torsions:
REMARK  status: ('A' for Active; 'I' for Inactive)
REMARK    1  A    between atoms: C7_8  and  C10_14 
ROOT
HETATM    1  C1  UNL     1      -0.533   1.672  -0.121  1.00  0.00     0.034 C 
HETATM    2  C2  UNL     1      -0.715   0.285   0.527  1.00  0.00     0.013 C 
HETATM    3  C3  UNL     1       0.522  -0.037   1.432  1.00  0.00     0.061 C 
HETATM    4  C4  UNL     1       1.807   0.521   0.723  1.00  0.00     0.135 A 
HETATM    5  C5  UNL     1       1.842   0.762  -0.801  1.00  0.00     0.084 C 
HETATM    6  C6  UNL     1       0.617   1.668  -1.160  1.00  0.00     0.157 C 
HETATM    7  O1  UNL     1       0.098   1.309  -2.428  1.00  0.00    -0.223 OA
HETATM    8  C7  UNL     1       3.176   1.428  -1.268  1.00  0.00     0.153 C 
HETATM    9  O2  UNL     1       4.346   0.803  -0.721  1.00  0.00    -0.298 OA
HETATM   10  C8  UNL     1       4.434   0.660   0.611  1.00  0.00     0.302 C 
HETATM   11  C9  UNL     1       3.186   0.518   1.461  1.00  0.00     0.226 A 
HETATM   12  O3  UNL     1       2.365   1.635   1.377  1.00  0.00    -0.346 OA
HETATM   13  O4  UNL     1       5.506   0.627   1.166  1.00  0.00    -0.261 OA
HETATM   14  C14 UNL     1       1.744  -0.674  -1.346  1.00  0.00     0.008 C 
HETATM   15  C15 UNL     1       0.611  -1.578   1.580  1.00  0.00     0.211 C 
HETATM   16  C16 UNL     1      -0.672  -2.150   2.156  1.00  0.00     0.183 C 
HETATM   17  C17 UNL     1      -1.988  -1.609   1.623  1.00  0.00     0.090 C 
HETATM   18  C18 UNL     1      -2.055  -0.098   1.248  1.00  0.00     0.063 C 
HETATM   19  C19 UNL     1      -3.355  -0.240   0.436  1.00  0.00     0.128 C 
HETATM   20  C20 UNL     1      -3.783   1.023  -0.293  1.00  0.00     0.125 C 
HETATM   21  C21 UNL     1      -3.598   2.240   0.588  1.00  0.00     0.274 C 
HETATM   22  O6  UNL     1      -2.865   2.188   1.719  1.00  0.00    -0.302 OA
HETATM   23  C22 UNL     1      -2.570   0.914   2.303  1.00  0.00     0.155 C 
HETATM   24  O7  UNL     1      -4.115   3.272   0.231  1.00  0.00    -0.264 OA
HETATM   25  O8  UNL     1      -3.133  -1.348  -0.396  1.00  0.00    -0.360 OA
HETATM   26  C23 UNL     1      -2.478  -2.352   0.346  1.00  0.00     0.100 C 
HETATM   27  C24 UNL     1      -3.508  -3.422   0.691  1.00  0.00     0.030 C 
HETATM   28  C25 UNL     1      -1.387  -2.914  -0.560  1.00  0.00     0.030 C 
HETATM   29  O9  UNL     1      -0.668  -3.010   3.010  1.00  0.00    -0.293 OA
HETATM   30  O10 UNL     1       1.721  -1.949   2.379  1.00  0.00    -0.215 OA
HETATM   31  C26 UNL     1       0.395   0.590   2.840  1.00  0.00     0.005 C 
ENDROOT
BRANCH   8  32
HETATM   32  C10 UNL     1       3.303   1.439  -2.777  1.00  0.00     0.032 A 
HETATM   33  C11 UNL     1       4.002   0.527  -3.574  1.00  0.00     0.121 A 
HETATM   34  O5  UNL     1       3.912   0.828  -4.902  1.00  0.00    -0.303 OA
HETATM   35  C12 UNL     1       3.141   1.953  -4.939  1.00  0.00     0.122 A 
HETATM   36  C13 UNL     1       2.744   2.361  -3.662  1.00  0.00     0.027 A 
ENDBRANCH   8  32
TORSDOF 1
