REMARK  0 active torsions:
REMARK  status: ('A' for Active; 'I' for Inactive)
ROOT
HETATM    1  C1  UNL     1      -1.275   0.500   0.639  1.00  0.00     0.031 C 
HETATM    2  C2  UNL     1      -2.363   1.543   0.799  1.00  0.00    -0.023 C 
HETATM    3  C3  UNL     1      -1.918   2.758   0.455  1.00  0.00     0.033 C 
HETATM    4  C4  UNL     1      -0.545   2.668  -0.022  1.00  0.00     0.175 C 
HETATM    5  C5  UNL     1      -0.168   1.217  -0.184  1.00  0.00     0.085 C 
HETATM    6  C6  UNL     1      -0.180   0.932  -1.684  1.00  0.00     0.011 C 
HETATM    7  C7  UNL     1       1.176   0.828   0.447  1.00  0.00     0.136 C 
HETATM    8  C8  UNL     1       1.395  -0.668   0.768  1.00  0.00     0.056 C 
HETATM    9  C9  UNL     1       0.815  -1.725  -0.191  1.00  0.00     0.007 C 
HETATM   10  C10 UNL     1      -0.678  -1.740  -0.606  1.00  0.00     0.001 C 
HETATM   11  C11 UNL     1      -1.705  -0.922   0.211  1.00  0.00     0.004 C 
HETATM   12  C12 UNL     1      -3.033  -0.865  -0.559  1.00  0.00     0.000 C 
HETATM   13  C13 UNL     1       2.895  -0.676   0.701  1.00  0.00     0.043 C 
HETATM   14  C14 UNL     1       3.332   0.492  -0.051  1.00  0.00     0.292 C 
HETATM   15  O1  UNL     1       2.293   1.279  -0.332  1.00  0.00    -0.300 OA
HETATM   16  O2  UNL     1       4.481   0.697  -0.373  1.00  0.00    -0.260 OA
HETATM   17  C15 UNL     1       3.686  -1.615   1.252  1.00  0.00     0.001 C 
HETATM   18  O3  UNL     1       0.176   3.611  -0.250  1.00  0.00    -0.291 OA
ENDROOT
TORSDOF 0
