REMARK  3 active torsions:
REMARK  status: ('A' for Active; 'I' for Inactive)
REMARK    1  A    between atoms: C15_17  and  C16_19 
REMARK    2  A    between atoms: C16_19  and  C17_20 
REMARK    3  A    between atoms: C17_20  and  O3_21 
ROOT
HETATM    1  C1  UNL     1      -5.820  -1.670  -0.604  1.00  0.00     0.002 A 
HETATM    2  C2  UNL     1      -6.371  -0.553  -1.256  1.00  0.00     0.000 A 
HETATM    3  C3  UNL     1      -5.541   0.523  -1.621  1.00  0.00     0.005 A 
HETATM    4  C4  UNL     1      -4.150   0.494  -1.338  1.00  0.00     0.055 A 
HETATM    5  C5  UNL     1      -3.562  -0.635  -0.674  1.00  0.00     0.063 A 
HETATM    6  C6  UNL     1      -4.437  -1.711  -0.316  1.00  0.00     0.017 A 
HETATM    7  N1  UNL     1      -2.215  -0.727  -0.367  1.00  0.00    -0.326 N 
HETATM    8  C7  UNL     1      -1.398   0.334  -0.744  1.00  0.00     0.063 A 
HETATM    9  C8  UNL     1      -1.869   1.508  -1.404  1.00  0.00     0.080 A 
HETATM   10  C9  UNL     1      -3.314   1.658  -1.744  1.00  0.00     0.200 A 
HETATM   11  O1  UNL     1      -3.770   2.633  -2.299  1.00  0.00    -0.286 OA
HETATM   12  C10 UNL     1      -0.955   2.535  -1.734  1.00  0.00     0.137 A 
HETATM   13  C11 UNL     1       0.404   2.383  -1.418  1.00  0.00     0.051 A 
HETATM   14  C12 UNL     1       0.902   1.229  -0.770  1.00  0.00     0.094 A 
HETATM   15  C13 UNL     1       0.004   0.199  -0.432  1.00  0.00     0.019 A 
HETATM   16  C14 UNL     1       0.828  -0.889   0.240  1.00  0.00     0.063 A 
HETATM   17  C15 UNL     1       2.274  -0.314   0.195  1.00  0.00     0.156 A 
HETATM   18  O2  UNL     1       2.162   0.973  -0.422  1.00  0.00    -0.331 OA
HETATM   19  O5  UNL     1      -1.357   3.658  -2.350  1.00  0.00    -0.190 OA
HETATM   20  C20 UNL     1      -1.709  -1.932   0.340  1.00  0.00     0.131 C 
ENDROOT
BRANCH  17  21
HETATM   21  C16 UNL     1       2.887  -0.166   1.584  1.00  0.00     0.179 C 
HETATM   22  O4  UNL     1       2.041   0.660   2.352  1.00  0.00    -0.221 OA
HETATM   23  C19 UNL     1       2.969  -1.537   2.254  1.00  0.00     0.038 C 
BRANCH  21  24
HETATM   24  C17 UNL     1       4.250   0.518   1.469  1.00  0.00     0.175 C 
BRANCH  24  25
HETATM   25  O3  UNL     1       5.102  -0.320   0.723  1.00  0.00    -0.349 OA
HETATM   26  C18 UNL     1       6.399   0.207   0.562  1.00  0.00     0.174 C 
ENDBRANCH  24  25
ENDBRANCH  21  24
ENDBRANCH  17  21
TORSDOF 3
