REMARK  3 active torsions:
REMARK  status: ('A' for Active; 'I' for Inactive)
REMARK    1  A    between atoms: C15_17  and  C16_19 
REMARK    2  A    between atoms: C16_19  and  C17_20 
REMARK    3  A    between atoms: C16_19  and  C18_23 
ROOT
HETATM    1  C1  UNL     1      -5.344  -1.578  -0.604  1.00  0.00     0.002 A 
HETATM    2  C2  UNL     1      -5.896  -0.461  -1.256  1.00  0.00     0.000 A 
HETATM    3  C3  UNL     1      -5.064   0.615  -1.621  1.00  0.00     0.005 A 
HETATM    4  C4  UNL     1      -3.674   0.586  -1.338  1.00  0.00     0.055 A 
HETATM    5  C5  UNL     1      -3.086  -0.543  -0.672  1.00  0.00     0.063 A 
HETATM    6  C6  UNL     1      -3.961  -1.617  -0.316  1.00  0.00     0.017 A 
HETATM    7  N1  UNL     1      -1.738  -0.635  -0.367  1.00  0.00    -0.326 N 
HETATM    8  C7  UNL     1      -0.922   0.428  -0.744  1.00  0.00     0.063 A 
HETATM    9  C8  UNL     1      -1.392   1.600  -1.402  1.00  0.00     0.080 A 
HETATM   10  C9  UNL     1      -2.838   1.750  -1.744  1.00  0.00     0.200 A 
HETATM   11  O1  UNL     1      -3.295   2.727  -2.299  1.00  0.00    -0.286 OA
HETATM   12  C10 UNL     1      -0.480   2.627  -1.734  1.00  0.00     0.137 A 
HETATM   13  C11 UNL     1       0.881   2.475  -1.418  1.00  0.00     0.051 A 
HETATM   14  C12 UNL     1       1.379   1.320  -0.770  1.00  0.00     0.093 A 
HETATM   15  C13 UNL     1       0.481   0.291  -0.432  1.00  0.00     0.019 A 
HETATM   16  C14 UNL     1       1.303  -0.795   0.242  1.00  0.00     0.061 A 
HETATM   17  C15 UNL     1       2.750  -0.223   0.195  1.00  0.00     0.145 A 
HETATM   18  O2  UNL     1       2.639   1.064  -0.422  1.00  0.00    -0.332 OA
HETATM   19  O5  UNL     1      -0.881   3.750  -2.348  1.00  0.00    -0.190 OA
HETATM   20  C19 UNL     1      -1.232  -1.840   0.340  1.00  0.00     0.131 C 
ENDROOT
BRANCH  17  21
HETATM   21  C16 UNL     1       3.364  -0.074   1.584  1.00  0.00     0.154 C 
HETATM   22 CL1  UNL     1       2.260   0.988   2.498  1.00  0.00    -0.108 Cl
BRANCH  21  23
HETATM   23  C17 UNL     1       4.733   0.594   1.469  1.00  0.00     0.202 C 
HETATM   24  O3  UNL     1       5.588  -0.273   0.760  1.00  0.00    -0.219 OA
ENDBRANCH  21  23
BRANCH  21  25
HETATM   25  C18 UNL     1       3.428  -1.443   2.262  1.00  0.00     0.202 C 
HETATM   26  O4  UNL     1       4.086  -1.291   3.498  1.00  0.00    -0.219 OA
ENDBRANCH  21  25
ENDBRANCH  17  21
TORSDOF 3
