REMARK  2 active torsions:
REMARK  status: ('A' for Active; 'I' for Inactive)
REMARK    1  A    between atoms: C7_7  and  O3_21 
REMARK    2  A    between atoms: C9_9  and  C11_12 
ROOT
HETATM    1  C1  UNL     1      -4.932  -0.359  -0.588  1.00  0.00    -0.000 A 
HETATM    2  C2  UNL     1      -4.588   1.008  -0.555  1.00  0.00     0.002 A 
HETATM    3  C3  UNL     1      -3.234   1.395  -0.414  1.00  0.00     0.017 A 
HETATM    4  C4  UNL     1      -2.201   0.418  -0.308  1.00  0.00     0.059 A 
HETATM    5  C5  UNL     1      -2.561  -0.967  -0.363  1.00  0.00     0.025 A 
HETATM    6  C6  UNL     1      -3.924  -1.342  -0.490  1.00  0.00    -0.000 A 
HETATM    7  C7  UNL     1      -1.514  -2.023  -0.283  1.00  0.00     0.163 A 
HETATM    8  C8  UNL     1      -0.119  -1.480  -0.053  1.00  0.00     0.025 A 
HETATM    9  C9  UNL     1       0.127  -0.150  -0.019  1.00  0.00     0.058 A 
HETATM   10  N1  UNL     1      -0.889   0.787  -0.154  1.00  0.00    -0.326 N 
HETATM   11  C10 UNL     1      -0.522   2.227  -0.119  1.00  0.00     0.131 C 
ENDROOT
BRANCH   9  12
HETATM   12  C11 UNL     1       1.537   0.275   0.172  1.00  0.00     0.018 A 
HETATM   13  C12 UNL     1       2.535  -0.158  -0.723  1.00  0.00     0.004 A 
HETATM   14  C13 UNL     1       3.867   0.262  -0.519  1.00  0.00     0.026 A 
HETATM   15  C14 UNL     1       4.217   1.109   0.565  1.00  0.00     0.119 A 
HETATM   16  C15 UNL     1       3.223   1.537   1.451  1.00  0.00     0.119 A 
HETATM   17  O2  UNL     1       5.389   1.621   0.944  1.00  0.00    -0.300 OA
HETATM   18  C16 UNL     1       1.883   1.117   1.252  1.00  0.00     0.028 A 
HETATM   19  O1  UNL     1       3.775   2.316   2.381  1.00  0.00    -0.300 OA
HETATM   20  C17 UNL     1       5.193   2.432   2.123  1.00  0.00     0.304 A 
ENDBRANCH   9  12
BRANCH   7  21
HETATM   21  O3  UNL     1      -1.492  -2.779  -1.478  1.00  0.00    -0.345 OA
HETATM   22  C18 UNL     1      -1.070  -4.111  -1.287  1.00  0.00     0.175 C 
ENDBRANCH   7  21
TORSDOF 2
