REMARK  1 active torsions:
REMARK  status: ('A' for Active; 'I' for Inactive)
REMARK    1  A    between atoms: C5_5  and  C8_8 
ROOT
HETATM    1  C1  UNL     1      -0.229  -2.262  -0.547  1.00  0.00    -0.022 A 
HETATM    2  C2  UNL     1      -1.367  -1.400  -0.172  1.00  0.00    -0.004 A 
HETATM    3  C3  UNL     1      -1.354   0.023   0.193  1.00  0.00    -0.004 A 
HETATM    4  C4  UNL     1      -0.314   0.875   0.269  1.00  0.00    -0.004 A 
HETATM    5  C5  UNL     1       1.111   0.607   0.006  1.00  0.00    -0.022 A 
HETATM    6  C6  UNL     1       1.674  -0.559  -0.373  1.00  0.00    -0.004 A 
HETATM    7  C7  UNL     1       1.063  -1.879  -0.625  1.00  0.00    -0.004 A 
HETATM    8  C11 UNL     1      -2.748   0.383   0.476  1.00  0.00    -0.022 A 
HETATM    9  C12 UNL     1      -3.516  -0.703   0.299  1.00  0.00    -0.004 A 
HETATM   10  C13 UNL     1      -2.648  -1.816  -0.108  1.00  0.00    -0.001 A 
HETATM   11  C14 UNL     1      -3.250   1.740   0.898  1.00  0.00     0.031 C 
HETATM   12  C15 UNL     1      -0.523  -3.707  -0.873  1.00  0.00     0.031 C 
ENDROOT
BRANCH   5  13
HETATM   13  C8  UNL     1       2.045   1.781   0.179  1.00  0.00     0.022 C 
HETATM   14  C9  UNL     1       2.699   2.205  -1.135  1.00  0.00     0.005 C 
HETATM   15  C10 UNL     1       3.061   1.557   1.301  1.00  0.00     0.005 C 
ENDBRANCH   5  13
TORSDOF 1
