REMARK  4 active torsions:
REMARK  status: ('A' for Active; 'I' for Inactive)
REMARK       I    between atoms: N1_1  and  C1_2 
REMARK    1  A    between atoms: N2_3  and  C2_4 
REMARK    2  A    between atoms: C2_4  and  C3_5 
REMARK    3  A    between atoms: C3_5  and  C4_6 
REMARK    4  A    between atoms: C4_6  and  C5_7 
ROOT
HETATM    1  C2  UNL     1      -0.500  -0.029   0.078  1.00  0.00     0.146 C 
ENDROOT
BRANCH   1   2
HETATM    2  N2  UNL     1      -1.020  -0.791  -1.066  1.00  0.00    -0.085 NA
HETATM    3  C1  UNL     1      -2.369  -0.912  -1.232  1.00  0.00     0.756 C 
HETATM    4  N1  UNL     1      -2.805  -1.580  -2.236  1.00  0.00    -0.113 NA
HETATM    5  N3  UNL     1      -3.277  -0.355  -0.377  1.00  0.00     0.061 N 
HETATM    6  H1  UNL     1      -3.787  -1.685  -2.383  1.00  0.00     0.206 HD
ENDBRANCH   1   2
BRANCH   1   7
HETATM    7  C3  UNL     1       1.029  -0.016   0.078  1.00  0.00     0.038 C 
BRANCH   7   8
HETATM    8  C4  UNL     1       1.613   0.770   1.254  1.00  0.00     0.100 C 
BRANCH   8   9
HETATM    9  C5  UNL     1       3.119   0.770   1.254  1.00  0.00     0.185 C 
HETATM   10  O1  UNL     1       3.684   1.690   0.477  1.00  0.00    -0.647 OA
HETATM   11  O2  UNL     1       3.740  -0.021   1.922  1.00  0.00    -0.647 OA
ENDBRANCH   8   9
ENDBRANCH   7   8
ENDBRANCH   1   7
TORSDOF 4
