REMARK  2 active torsions:
REMARK  status: ('A' for Active; 'I' for Inactive)
REMARK    1  A    between atoms: C1_1  and  C6_7 
REMARK    2  A    between atoms: C6_7  and  O1_8 
ROOT
HETATM    1  C1  UNL     1      -0.283  -0.162   0.070  1.00  0.00     0.073 C 
HETATM    2  C2  UNL     1      -1.438   0.523  -0.070  1.00  0.00    -0.021 C 
HETATM    3  C3  UNL     1      -1.463   2.035  -0.078  1.00  0.00     0.064 C 
HETATM    4  C4  UNL     1      -0.074   2.656  -0.293  1.00  0.00     0.295 C 
HETATM    5  N1  UNL     1       0.904   1.977   0.555  1.00  0.00     0.344 N 
HETATM    6  C5  UNL     1       1.049   0.563   0.193  1.00  0.00     0.322 C 
ENDROOT
BRANCH   1   7
HETATM    7  C6  UNL     1      -0.283  -1.633   0.105  1.00  0.00     0.293 C 
HETATM    8  O2  UNL     1      -1.320  -2.242   0.213  1.00  0.00    -0.259 OA
BRANCH   7   9
HETATM    9  O1  UNL     1       0.910  -2.213   0.014  1.00  0.00    -0.296 OA
HETATM   10  C7  UNL     1       0.828  -3.629   0.062  1.00  0.00     0.185 C 
ENDBRANCH   7   9
ENDBRANCH   1   7
TORSDOF 2
