REMARK  12 active torsions:
REMARK  status: ('A' for Active; 'I' for Inactive)
REMARK    1  A    between atoms: C2_2  and  O4_34 
REMARK    2  A    between atoms: C5_5  and  C28_30 
REMARK    3  A    between atoms: C15_15  and  C18_18 
REMARK    4  A    between atoms: C18_18  and  C19_19 
REMARK    5  A    between atoms: C18_18  and  C25_26 
REMARK    6  A    between atoms: C19_19  and  C20_20 
REMARK    7  A    between atoms: C20_20  and  C21_21 
REMARK    8  A    between atoms: O4_34  and  C31_35 
REMARK    9  A    between atoms: C34_39  and  O11_51 
REMARK   10  A    between atoms: C35_40  and  O6_41 
REMARK   11  A    between atoms: O6_41  and  C36_42 
REMARK   12  A    between atoms: O11_51  and  C41_52 
ROOT
HETATM    1  C1  UNL     1       0.559   0.246  -1.074  1.00  0.00     0.030 C 
HETATM    2  C2  UNL     1       1.340   0.430   0.236  1.00  0.00     0.118 C 
HETATM    3  C3  UNL     1       1.180   1.855   0.824  1.00  0.00     0.026 C 
HETATM    4  C4  UNL     1      -0.338   2.184   1.008  1.00  0.00     0.009 C 
HETATM    5  C5  UNL     1      -1.189   1.967  -0.289  1.00  0.00     0.059 C 
HETATM    6  C6  UNL     1      -0.930   0.553  -0.869  1.00  0.00     0.010 C 
HETATM    7  C7  UNL     1      -2.711   2.242  -0.021  1.00  0.00     0.007 C 
HETATM    8  C8  UNL     1      -3.297   1.531   1.231  1.00  0.00     0.000 C 
HETATM    9  C9  UNL     1      -2.408   1.826   2.455  1.00  0.00     0.000 C 
HETATM   10  C10 UNL     1      -0.951   1.428   2.209  1.00  0.00     0.001 C 
HETATM   11  C11 UNL     1      -4.744   2.084   1.473  1.00  0.00     0.000 C 
HETATM   12  C12 UNL     1      -5.682   2.041   0.250  1.00  0.00     0.002 C 
HETATM   13  C13 UNL     1      -5.025   2.570  -1.031  1.00  0.00     0.000 C 
HETATM   14  C14 UNL     1      -3.617   2.002  -1.250  1.00  0.00     0.000 C 
HETATM   15  C15 UNL     1      -6.176   0.596   0.162  1.00  0.00     0.031 C 
HETATM   16  C16 UNL     1      -6.279   0.162   1.629  1.00  0.00     0.003 C 
HETATM   17  C17 UNL     1      -5.590   1.254   2.453  1.00  0.00     0.000 C 
HETATM   18  C26 UNL     1      -4.740   3.539   1.957  1.00  0.00     0.000 C 
HETATM   19  C27 UNL     1      -3.367   0.010   1.041  1.00  0.00     0.000 C 
HETATM   20  C29 UNL     1       1.914   1.949   2.172  1.00  0.00     0.002 C 
HETATM   21  C30 UNL     1       1.842   2.898  -0.092  1.00  0.00     0.002 C 
ENDROOT
BRANCH   2  22
HETATM   22  O4  UNL     1       2.705   0.135  -0.004  1.00  0.00    -0.332 OA
BRANCH  22  23
HETATM   23  C31 UNL     1       2.932  -1.225  -0.324  1.00  0.00     0.266 C 
HETATM   24  O5  UNL     1       2.975  -1.436  -1.734  1.00  0.00    -0.326 OA
HETATM   25  C32 UNL     1       4.068  -0.828  -2.418  1.00  0.00     0.180 C 
HETATM   26  C33 UNL     1       5.422  -1.346  -1.881  1.00  0.00     0.211 C 
HETATM   27  C34 UNL     1       5.524  -1.238  -0.342  1.00  0.00     0.183 C 
HETATM   28  O16 UNL     1       5.600  -2.695  -2.273  1.00  0.00    -0.218 OA
HETATM   29  C35 UNL     1       4.232  -1.727   0.361  1.00  0.00     0.204 C 
BRANCH  27  30
HETATM   30  O11 UNL     1       5.740   0.119  -0.006  1.00  0.00    -0.326 OA
BRANCH  30  31
HETATM   31  C41 UNL     1       7.108   0.443   0.148  1.00  0.00     0.270 C 
HETATM   32  O12 UNL     1       7.799   0.406  -1.102  1.00  0.00    -0.329 OA
HETATM   33  C42 UNL     1       7.871   1.629  -1.824  1.00  0.00     0.151 C 
HETATM   34  C43 UNL     1       8.723   2.658  -1.020  1.00  0.00     0.212 C 
HETATM   35  C46 UNL     1       6.449   2.072  -2.209  1.00  0.00     0.035 C 
HETATM   36  C44 UNL     1       8.641   2.488   0.523  1.00  0.00     0.220 C 
HETATM   37  O15 UNL     1       8.330   3.975  -1.363  1.00  0.00    -0.218 OA
HETATM   38  C45 UNL     1       7.340   1.775   0.943  1.00  0.00     0.241 C 
HETATM   39  O14 UNL     1       9.731   1.693   0.953  1.00  0.00    -0.218 OA
HETATM   40  O13 UNL     1       6.277   2.701   0.777  1.00  0.00    -0.215 OA
ENDBRANCH  30  31
ENDBRANCH  27  30
BRANCH  29  41
HETATM   41  O6  UNL     1       4.223  -3.143   0.371  1.00  0.00    -0.324 OA
BRANCH  41  42
HETATM   42  C36 UNL     1       5.217  -3.701   1.207  1.00  0.00     0.270 C 
HETATM   43  O7  UNL     1       6.252  -4.229   0.389  1.00  0.00    -0.326 OA
HETATM   44  C37 UNL     1       7.344  -4.793   1.100  1.00  0.00     0.181 C 
HETATM   45  C38 UNL     1       6.850  -5.981   1.949  1.00  0.00     0.215 C 
HETATM   46  C39 UNL     1       5.711  -5.551   2.897  1.00  0.00     0.220 C 
HETATM   47  O10 UNL     1       7.945  -6.481   2.697  1.00  0.00    -0.218 OA
HETATM   48  C40 UNL     1       4.611  -4.826   2.086  1.00  0.00     0.241 C 
HETATM   49  O9  UNL     1       5.164  -6.690   3.541  1.00  0.00    -0.218 OA
HETATM   50  O8  UNL     1       3.662  -4.266   2.977  1.00  0.00    -0.215 OA
ENDBRANCH  41  42
ENDBRANCH  29  41
ENDBRANCH  22  23
ENDBRANCH   2  22
BRANCH   5  51
HETATM   51  C28 UNL     1      -0.752   2.973  -1.334  1.00  0.00     0.206 C 
HETATM   52  O3  UNL     1      -0.510   4.117  -1.035  1.00  0.00    -0.288 OA
ENDBRANCH   5  51
BRANCH  15  53
HETATM   53  C18 UNL     1      -7.512   0.492  -0.568  1.00  0.00     0.157 C 
HETATM   54  O1  UNL     1      -8.168  -0.672  -0.123  1.00  0.00    -0.223 OA
BRANCH  53  55
HETATM   55  C19 UNL     1      -7.272   0.363  -2.072  1.00  0.00     0.038 C 
BRANCH  55  56
HETATM   56  C20 UNL     1      -8.373  -0.426  -2.779  1.00  0.00     0.028 C 
BRANCH  56  57
HETATM   57  C21 UNL     1      -8.164  -1.914  -2.686  1.00  0.00    -0.035 C 
HETATM   58  C22 UNL     1      -9.217  -2.723  -2.889  1.00  0.00    -0.048 C 
HETATM   59  C23 UNL     1      -9.207  -4.219  -2.721  1.00  0.00     0.026 C 
HETATM   60  C24 UNL     1     -10.522  -2.109  -3.320  1.00  0.00     0.026 C 
ENDBRANCH  56  57
ENDBRANCH  55  56
ENDBRANCH  53  55
BRANCH  53  61
HETATM   61  C25 UNL     1      -8.381   1.699  -0.209  1.00  0.00     0.212 C 
HETATM   62  O2  UNL     1      -8.428   1.807   1.195  1.00  0.00    -0.218 OA
ENDBRANCH  53  61
ENDBRANCH  15  53
TORSDOF 12
