REMARK  5 active torsions:
REMARK  status: ('A' for Active; 'I' for Inactive)
REMARK    1  A    between atoms: C1_2  and  C2_3 
REMARK    2  A    between atoms: C2_3  and  C3_4 
REMARK    3  A    between atoms: C3_4  and  C4_5 
REMARK    4  A    between atoms: C4_5  and  C5_6 
REMARK    5  A    between atoms: C5_6  and  C6_7 
ROOT
HETATM    1  C4  UNL     1      -0.908  -0.387   0.191  1.00  0.00     0.051 C 
ENDROOT
BRANCH   1   2
HETATM    2  C3  UNL     1       0.621  -0.387   0.191  1.00  0.00     0.014 C 
BRANCH   2   3
HETATM    3  C2  UNL     1       1.211  -1.797   0.236  1.00  0.00     0.098 C 
BRANCH   3   4
HETATM    4  C1  UNL     1       2.715  -1.789   0.225  1.00  0.00     0.185 C 
HETATM    5  O1  UNL     1       3.289  -1.604   1.410  1.00  0.00    -0.647 OA
HETATM    6  O4  UNL     1       3.330  -1.943  -0.805  1.00  0.00    -0.647 OA
ENDBRANCH   3   4
ENDBRANCH   2   3
ENDBRANCH   1   2
BRANCH   1   7
HETATM    7  C5  UNL     1      -1.498   1.025   0.191  1.00  0.00     0.387 C 
HETATM    8  N1  UNL     1      -2.943   0.973   0.340  1.00  0.00     0.628 N 
BRANCH   7   9
HETATM    9  C6  UNL     1      -1.133   1.801  -1.045  1.00  0.00     0.224 C 
HETATM   10  O2  UNL     1      -0.674   3.029  -0.828  1.00  0.00    -0.646 OA
HETATM   11  O3  UNL     1      -1.258   1.314  -2.145  1.00  0.00    -0.646 OA
ENDBRANCH   7   9
ENDBRANCH   1   7
TORSDOF 5
