REMARK  3 active torsions:
REMARK  status: ('A' for Active; 'I' for Inactive)
REMARK    1  A    between atoms: C1_1  and  O6_12 
REMARK    2  A    between atoms: C2_3  and  C6_10 
REMARK    3  A    between atoms: O6_12  and  C7_13 
ROOT
HETATM    1  C7  UNL     1       1.574  -1.432   0.545  1.00  0.00     0.222 C 
HETATM    2  C8  UNL     1       2.273  -2.658  -0.115  1.00  0.00     0.229 C 
HETATM    3  C9  UNL     1       1.076  -3.485  -0.635  1.00  0.00     0.208 C 
HETATM    4  C10 UNL     1      -0.043  -3.119   0.305  1.00  0.00     0.008 C 
HETATM    5  C11 UNL     1       0.232  -1.981   0.955  1.00  0.00     0.015 C 
HETATM    6  O7  UNL     1       1.359  -4.869  -0.576  1.00  0.00    -0.216 OA
HETATM    7  O8  UNL     1       3.164  -2.317  -1.168  1.00  0.00    -0.216 OA
HETATM    8  C12 UNL     1       2.305  -0.947   1.725  1.00  0.00     0.107 C 
HETATM    9  N1  UNL     1       2.881  -0.569   2.656  1.00  0.00    -0.194 NA
ENDROOT
BRANCH   1  10
HETATM   10  O6  UNL     1       1.365  -0.365  -0.365  1.00  0.00    -0.313 OA
BRANCH  10  11
HETATM   11  C1  UNL     1       0.490   0.629   0.131  1.00  0.00     0.271 C 
HETATM   12  O1  UNL     1      -0.830   0.308  -0.285  1.00  0.00    -0.326 OA
HETATM   13  C2  UNL     1      -1.840   1.193   0.184  1.00  0.00     0.184 C 
HETATM   14  C3  UNL     1      -1.570   2.613  -0.367  1.00  0.00     0.215 C 
HETATM   15  C4  UNL     1      -0.147   3.096  -0.008  1.00  0.00     0.220 C 
HETATM   16  O4  UNL     1      -2.529   3.502   0.180  1.00  0.00    -0.218 OA
HETATM   17  C5  UNL     1       0.890   2.023  -0.414  1.00  0.00     0.241 C 
HETATM   18  O3  UNL     1       0.131   4.312  -0.680  1.00  0.00    -0.218 OA
HETATM   19  O2  UNL     1       2.162   2.383   0.102  1.00  0.00    -0.215 OA
BRANCH  13  20
HETATM   20  C6  UNL     1      -3.182   0.619  -0.279  1.00  0.00     0.214 C 
HETATM   21  O5  UNL     1      -3.403  -0.592   0.408  1.00  0.00    -0.218 OA
ENDBRANCH  13  20
ENDBRANCH  10  11
ENDBRANCH   1  10
TORSDOF 3
