REMARK  0 active torsions:
REMARK  status: ('A' for Active; 'I' for Inactive)
ROOT
HETATM    1  C1  UNL     1      -2.914  -1.310  -0.899  1.00  0.00     0.131 A 
HETATM    2  C2  UNL     1      -3.281  -0.029  -0.420  1.00  0.00     0.029 A 
HETATM    3  C3  UNL     1      -2.299   0.830   0.139  1.00  0.00     0.026 A 
HETATM    4  C4  UNL     1      -0.949   0.389   0.240  1.00  0.00     0.092 A 
HETATM    5  C5  UNL     1      -0.609  -0.926  -0.174  1.00  0.00     0.032 A 
HETATM    6  C6  UNL     1      -1.584  -1.758  -0.768  1.00  0.00     0.028 A 
HETATM    7  C7  UNL     1       0.764  -1.416   0.053  1.00  0.00     0.179 C 
HETATM    8  C8  UNL     1       1.809  -0.303  -0.141  1.00  0.00     0.065 C 
HETATM    9  C9  UNL     1       1.397   1.106   0.394  1.00  0.00     0.101 C 
HETATM   10  O1  UNL     1      -0.004   1.213   0.746  1.00  0.00    -0.336 OA
HETATM   11  C10 UNL     1       2.211   1.494   1.648  1.00  0.00     0.030 C 
HETATM   12  C11 UNL     1       1.672   2.164  -0.695  1.00  0.00     0.030 C 
HETATM   13  O2  UNL     1       0.857  -1.930   1.373  1.00  0.00    -0.218 OA
HETATM   14  O3  UNL     1      -3.830  -2.115  -1.461  1.00  0.00    -0.190 OA
ENDROOT
TORSDOF 0
