REMARK  1 active torsions:
REMARK  status: ('A' for Active; 'I' for Inactive)
REMARK    1  A    between atoms: C1_1  and  C12_15 
ROOT
HETATM    1  C1  UNL     1       2.186   0.533   1.002  1.00  0.00     0.060 A 
HETATM    2  C2  UNL     1       2.637   0.584  -0.334  1.00  0.00     0.136 A 
HETATM    3  C3  UNL     1       1.801   0.092  -1.359  1.00  0.00     0.051 A 
HETATM    4  C4  UNL     1       0.518  -0.453  -1.086  1.00  0.00     0.094 A 
HETATM    5  C5  UNL     1       0.082  -0.490   0.248  1.00  0.00     0.029 A 
HETATM    6  C6  UNL     1       0.912  -0.002   1.291  1.00  0.00     0.005 A 
HETATM    7  C7  UNL     1      -1.297  -1.098   0.283  1.00  0.00     0.167 A 
HETATM    8  C8  UNL     1      -1.559  -1.395  -1.223  1.00  0.00     0.155 A 
HETATM    9  O1  UNL     1      -0.383  -0.957  -1.932  1.00  0.00    -0.331 OA
HETATM   10  C9  UNL     1      -2.805  -0.564  -1.586  1.00  0.00     0.060 C 
HETATM   11  C10 UNL     1      -3.408  -0.316  -0.203  1.00  0.00     0.145 C 
HETATM   12  O2  UNL     1      -2.281  -0.150   0.625  1.00  0.00    -0.350 OA
HETATM   13  C11 UNL     1      -2.471   0.771  -2.252  1.00  0.00     0.005 C 
HETATM   14  O3  UNL     1       3.840   1.088  -0.637  1.00  0.00    -0.190 OA
ENDROOT
BRANCH   1  15
HETATM   15  C12 UNL     1       3.041   1.035   2.100  1.00  0.00     0.175 C 
HETATM   16  O4  UNL     1       3.957   1.822   2.047  1.00  0.00    -0.291 OA
HETATM   17  C13 UNL     1       2.623   0.418   3.408  1.00  0.00     0.077 C 
ENDBRANCH   1  15
TORSDOF 1
