REMARK  10 active torsions:
REMARK  status: ('A' for Active; 'I' for Inactive)
REMARK    1  A    between atoms: C2_2  and  O4_34 
REMARK    2  A    between atoms: C5_5  and  C28_30 
REMARK    3  A    between atoms: C15_16  and  C18_19 
REMARK    4  A    between atoms: C18_19  and  C19_20 
REMARK    5  A    between atoms: C19_20  and  C20_21 
REMARK    6  A    between atoms: C20_21  and  C21_22 
REMARK    7  A    between atoms: O4_34  and  C31_35 
REMARK    8  A    between atoms: C35_40  and  O6_41 
REMARK    9  A    between atoms: O6_41  and  C36_42 
REMARK   10  A    between atoms: C37_44  and  C41_51 
ROOT
HETATM    1  C1  UNL     1       2.545  -0.336  -1.668  1.00  0.00     0.030 C 
HETATM    2  C2  UNL     1       3.031  -0.863  -0.311  1.00  0.00     0.118 C 
HETATM    3  C3  UNL     1       2.328  -2.184   0.090  1.00  0.00     0.025 C 
HETATM    4  C4  UNL     1       0.785  -1.971   0.062  1.00  0.00     0.005 C 
HETATM    5  C5  UNL     1       0.225  -1.395  -1.275  1.00  0.00     0.031 C 
HETATM    6  C6  UNL     1       1.023  -0.125  -1.660  1.00  0.00     0.005 C 
HETATM    7  C7  UNL     1      -1.326  -1.117  -1.184  1.00  0.00     0.005 C 
HETATM    8  C8  UNL     1      -2.020  -1.736   0.064  1.00  0.00     0.000 C 
HETATM    9  C9  UNL     1      -1.506  -3.174   0.252  1.00  0.00     0.000 C 
HETATM   10  C10 UNL     1       0.008  -3.227   0.531  1.00  0.00     0.000 C 
HETATM   11  C11 UNL     1      -3.568  -1.689  -0.068  1.00  0.00     0.003 C 
HETATM   12  C12 UNL     1      -4.098  -0.272  -0.389  1.00  0.00     0.033 C 
HETATM   13  C13 UNL     1      -3.316   0.416  -1.531  1.00  0.00     0.152 C 
HETATM   14  C14 UNL     1      -1.789   0.342  -1.357  1.00  0.00     0.033 C 
HETATM   15  O1  UNL     1      -3.695   1.775  -1.611  1.00  0.00    -0.224 OA
HETATM   16  C15 UNL     1      -5.561  -0.500  -0.824  1.00  0.00     0.031 C 
HETATM   17  C16 UNL     1      -5.619  -1.949  -1.334  1.00  0.00     0.003 C 
HETATM   18  C17 UNL     1      -4.195  -2.494  -1.217  1.00  0.00     0.000 C 
HETATM   19  C26 UNL     1      -4.250  -2.203   1.211  1.00  0.00     0.000 C 
HETATM   20  C27 UNL     1      -1.744  -0.906   1.336  1.00  0.00     0.000 C 
HETATM   21  C29 UNL     1       2.762  -2.572   1.512  1.00  0.00     0.002 C 
HETATM   22  C30 UNL     1       2.744  -3.326  -0.852  1.00  0.00     0.002 C 
ENDROOT
BRANCH   2  23
HETATM   23  O4  UNL     1       4.438  -1.029  -0.363  1.00  0.00    -0.332 OA
BRANCH  23  24
HETATM   24  C31 UNL     1       5.078  -0.742   0.863  1.00  0.00     0.267 C 
HETATM   25  O5  UNL     1       5.647  -1.943   1.369  1.00  0.00    -0.326 OA
HETATM   26  C32 UNL     1       6.289  -1.814   2.629  1.00  0.00     0.181 C 
HETATM   27  C33 UNL     1       7.467  -0.826   2.514  1.00  0.00     0.214 C 
HETATM   28  C34 UNL     1       6.998   0.537   1.959  1.00  0.00     0.217 C 
HETATM   29  O13 UNL     1       8.041  -0.666   3.797  1.00  0.00    -0.218 OA
HETATM   30  C35 UNL     1       6.188   0.322   0.662  1.00  0.00     0.207 C 
HETATM   31  O12 UNL     1       8.123   1.359   1.695  1.00  0.00    -0.218 OA
BRANCH  30  32
HETATM   32  O6  UNL     1       5.596   1.551   0.268  1.00  0.00    -0.324 OA
BRANCH  32  33
HETATM   33  C36 UNL     1       5.578   1.738  -1.133  1.00  0.00     0.270 C 
HETATM   34  O7  UNL     1       4.463   2.557  -1.463  1.00  0.00    -0.326 OA
HETATM   35  C37 UNL     1       4.281   2.793  -2.852  1.00  0.00     0.184 C 
HETATM   36  C38 UNL     1       5.514   3.541  -3.408  1.00  0.00     0.215 C 
HETATM   37  C39 UNL     1       6.820   2.772  -3.109  1.00  0.00     0.220 C 
HETATM   38  O10 UNL     1       5.358   3.693  -4.809  1.00  0.00    -0.218 OA
HETATM   39  C40 UNL     1       6.889   2.416  -1.606  1.00  0.00     0.241 C 
HETATM   40  O9  UNL     1       7.940   3.564  -3.469  1.00  0.00    -0.218 OA
HETATM   41  O8  UNL     1       7.981   1.537  -1.381  1.00  0.00    -0.215 OA
BRANCH  35  42
HETATM   42  C41 UNL     1       2.982   3.594  -2.996  1.00  0.00     0.214 C 
HETATM   43  O11 UNL     1       1.920   2.801  -2.520  1.00  0.00    -0.218 OA
ENDBRANCH  35  42
ENDBRANCH  32  33
ENDBRANCH  30  32
ENDBRANCH  23  24
ENDBRANCH   2  23
BRANCH   5  44
HETATM   44  C28 UNL     1       0.459  -2.438  -2.387  1.00  0.00     0.182 C 
HETATM   45  O3  UNL     1      -0.182  -3.635  -2.010  1.00  0.00    -0.221 OA
ENDBRANCH   5  44
BRANCH  16  46
HETATM   46  C18 UNL     1      -6.516  -0.305   0.352  1.00  0.00     0.127 C 
HETATM   47  C25 UNL     1      -7.906   0.049  -0.176  1.00  0.00     0.033 C 
HETATM   48  O2  UNL     1      -6.598  -1.520   1.061  1.00  0.00    -0.226 OA
BRANCH  46  49
HETATM   49  C19 UNL     1      -5.953   0.762   1.291  1.00  0.00     0.035 C 
BRANCH  49  50
HETATM   50  C20 UNL     1      -7.031   1.410   2.160  1.00  0.00     0.028 C 
BRANCH  50  51
HETATM   51  C21 UNL     1      -6.457   2.369   3.168  1.00  0.00    -0.035 C 
HETATM   52  C22 UNL     1      -7.301   3.049   3.961  1.00  0.00    -0.048 C 
HETATM   53  C23 UNL     1      -6.731   4.043   4.936  1.00  0.00     0.026 C 
HETATM   54  C24 UNL     1      -8.777   2.777   3.836  1.00  0.00     0.026 C 
ENDBRANCH  50  51
ENDBRANCH  49  50
ENDBRANCH  46  49
ENDBRANCH  16  46
TORSDOF 10
