REMARK  3 active torsions:
REMARK  status: ('A' for Active; 'I' for Inactive)
REMARK    1  A    between atoms: C1_1  and  C2_3 
REMARK    2  A    between atoms: C2_3  and  C3_4 
REMARK    3  A    between atoms: C3_4  and  C4_5 
ROOT
HETATM    1  C3  UNL     1       0.543   0.459   0.932  1.00  0.00     0.100 C 
ENDROOT
BRANCH   1   2
HETATM    2  C2  UNL     1      -0.041  -0.326  -0.244  1.00  0.00     0.052 C 
BRANCH   2   3
HETATM    3  C1  UNL     1      -1.570  -0.338  -0.244  1.00  0.00     0.339 C 
HETATM    4  N1  UNL     1      -2.072  -1.100  -1.375  1.00  0.00     0.618 N 
ENDBRANCH   2   3
ENDBRANCH   1   2
BRANCH   1   5
HETATM    5  C4  UNL     1       2.047   0.459   0.932  1.00  0.00     0.185 C 
HETATM    6  O1  UNL     1       2.613   1.383   0.158  1.00  0.00    -0.647 OA
HETATM    7  O2  UNL     1       2.670  -0.334   1.596  1.00  0.00    -0.647 OA
ENDBRANCH   1   5
TORSDOF 3
