REMARK  16 active torsions:
REMARK  status: ('A' for Active; 'I' for Inactive)
REMARK    1  A    between atoms: C2_2  and  O10_46 
REMARK    2  A    between atoms: C5_5  and  C34_42 
REMARK    3  A    between atoms: C15_16  and  C18_19 
REMARK    4  A    between atoms: C18_19  and  C19_20 
REMARK    5  A    between atoms: C18_19  and  C25_27 
REMARK    6  A    between atoms: C19_20  and  C20_21 
REMARK    7  A    between atoms: C20_21  and  C21_22 
REMARK    8  A    between atoms: C25_27  and  O3_28 
REMARK    9  A    between atoms: O3_28  and  C26_29 
REMARK   10  A    between atoms: C27_31  and  C31_38 
REMARK   11  A    between atoms: O10_46  and  C37_47 
REMARK   12  A    between atoms: C40_51  and  O17_64 
REMARK   13  A    between atoms: C41_52  and  O12_53 
REMARK   14  A    between atoms: O12_53  and  C42_54 
REMARK   15  A    between atoms: O17_64  and  C48_65 
REMARK   16  A    between atoms: C49_67  and  C53_74 
ROOT
HETATM    1  C1  UNL     1       2.252  -0.471  -0.445  1.00  0.00     0.030 C 
HETATM    2  C2  UNL     1       2.738  -0.975   0.920  1.00  0.00     0.118 C 
HETATM    3  C3  UNL     1       2.023  -2.277   1.355  1.00  0.00     0.026 C 
HETATM    4  C4  UNL     1       0.480  -2.053   1.322  1.00  0.00     0.009 C 
HETATM    5  C5  UNL     1      -0.080  -1.494  -0.023  1.00  0.00     0.059 C 
HETATM    6  C6  UNL     1       0.734  -0.242  -0.438  1.00  0.00     0.010 C 
HETATM    7  C7  UNL     1      -1.635  -1.209   0.062  1.00  0.00     0.009 C 
HETATM    8  C8  UNL     1      -2.334  -1.822   1.312  1.00  0.00     0.001 C 
HETATM    9  C9  UNL     1      -1.818  -3.256   1.518  1.00  0.00     0.000 C 
HETATM   10  C10 UNL     1      -0.309  -3.295   1.818  1.00  0.00     0.001 C 
HETATM   11  C11 UNL     1      -3.885  -1.783   1.174  1.00  0.00     0.003 C 
HETATM   12  C12 UNL     1      -4.412  -0.363   0.852  1.00  0.00     0.033 C 
HETATM   13  C13 UNL     1      -3.625   0.326  -0.289  1.00  0.00     0.152 C 
HETATM   14  C14 UNL     1      -2.096   0.252  -0.109  1.00  0.00     0.033 C 
HETATM   15  O1  UNL     1      -3.983   1.693  -0.357  1.00  0.00    -0.224 OA
HETATM   16  C15 UNL     1      -5.889  -0.645   0.504  1.00  0.00     0.033 C 
HETATM   17  C16 UNL     1      -5.895  -2.008  -0.195  1.00  0.00     0.003 C 
HETATM   18  C17 UNL     1      -4.508  -2.611   0.037  1.00  0.00     0.000 C 
HETATM   19  C32 UNL     1      -4.570  -2.293   2.453  1.00  0.00     0.000 C 
HETATM   20  C33 UNL     1      -2.068  -0.984   2.582  1.00  0.00     0.000 C 
HETATM   21  C35 UNL     1       2.451  -2.627   2.789  1.00  0.00     0.002 C 
HETATM   22  C36 UNL     1       2.430  -3.455   0.451  1.00  0.00     0.002 C 
ENDROOT
BRANCH   2  23
HETATM   23  O10 UNL     1       4.141  -1.164   0.865  1.00  0.00    -0.332 OA
BRANCH  23  24
HETATM   24  C37 UNL     1       4.869   0.043   0.963  1.00  0.00     0.266 C 
HETATM   25  O11 UNL     1       4.803   0.594   2.279  1.00  0.00    -0.326 OA
HETATM   26  C38 UNL     1       5.408  -0.184   3.307  1.00  0.00     0.180 C 
HETATM   27  C39 UNL     1       6.906  -0.398   3.010  1.00  0.00     0.211 C 
HETATM   28  C40 UNL     1       7.119  -1.006   1.605  1.00  0.00     0.183 C 
HETATM   29  O23 UNL     1       7.436  -1.270   3.994  1.00  0.00    -0.218 OA
HETATM   30  C41 UNL     1       6.340  -0.195   0.537  1.00  0.00     0.204 C 
BRANCH  28  31
HETATM   31  O17 UNL     1       8.502  -1.070   1.287  1.00  0.00    -0.326 OA
BRANCH  31  32
HETATM   32  C48 UNL     1       8.791  -1.982   0.248  1.00  0.00     0.270 C 
HETATM   33  O18 UNL     1       8.606  -3.332   0.672  1.00  0.00    -0.326 OA
HETATM   34  C49 UNL     1       9.514  -3.807   1.668  1.00  0.00     0.184 C 
HETATM   35  C50 UNL     1      10.963  -3.715   1.135  1.00  0.00     0.215 C 
HETATM   36  C51 UNL     1      11.328  -2.289   0.664  1.00  0.00     0.220 C 
HETATM   37  O21 UNL     1      11.873  -4.172   2.121  1.00  0.00    -0.218 OA
HETATM   38  C52 UNL     1      10.231  -1.805  -0.313  1.00  0.00     0.241 C 
HETATM   39  O20 UNL     1      11.438  -1.408   1.773  1.00  0.00    -0.218 OA
HETATM   40  O19 UNL     1      10.459  -0.473  -0.740  1.00  0.00    -0.215 OA
BRANCH  34  41
HETATM   41  C53 UNL     1       9.090  -5.242   1.992  1.00  0.00     0.214 C 
HETATM   42  O22 UNL     1       7.832  -5.197   2.627  1.00  0.00    -0.218 OA
ENDBRANCH  34  41
ENDBRANCH  31  32
ENDBRANCH  28  31
BRANCH  30  43
HETATM   43  O12 UNL     1       6.947   1.070   0.320  1.00  0.00    -0.324 OA
BRANCH  43  44
HETATM   44  C42 UNL     1       7.061   1.404  -1.049  1.00  0.00     0.270 C 
HETATM   45  O13 UNL     1       5.748   1.543  -1.584  1.00  0.00    -0.329 OA
HETATM   46  C43 UNL     1       5.686   1.861  -2.969  1.00  0.00     0.151 C 
HETATM   47  C44 UNL     1       6.393   3.217  -3.211  1.00  0.00     0.212 C 
HETATM   48  C47 UNL     1       4.201   1.887  -3.348  1.00  0.00     0.035 C 
HETATM   49  C45 UNL     1       7.850   3.207  -2.693  1.00  0.00     0.220 C 
HETATM   50  O16 UNL     1       6.346   3.551  -4.588  1.00  0.00    -0.218 OA
HETATM   51  C46 UNL     1       7.838   2.738  -1.219  1.00  0.00     0.241 C 
HETATM   52  O15 UNL     1       8.645   2.332  -3.482  1.00  0.00    -0.218 OA
HETATM   53  O14 UNL     1       9.162   2.613  -0.725  1.00  0.00    -0.215 OA
ENDBRANCH  43  44
ENDBRANCH  30  43
ENDBRANCH  23  24
ENDBRANCH   2  23
BRANCH   5  54
HETATM   54  C34 UNL     1       0.139  -2.539  -1.102  1.00  0.00     0.206 C 
HETATM   55  O9  UNL     1      -0.498  -3.566  -1.109  1.00  0.00    -0.288 OA
ENDBRANCH   5  54
BRANCH  16  56
HETATM   56  C18 UNL     1      -6.617   0.410  -0.324  1.00  0.00     0.154 C 
HETATM   57  O2  UNL     1      -5.938   0.551  -1.553  1.00  0.00    -0.223 OA
BRANCH  56  58
HETATM   58  C19 UNL     1      -8.039  -0.066  -0.617  1.00  0.00     0.038 C 
BRANCH  58  59
HETATM   59  C20 UNL     1      -8.805   0.893  -1.531  1.00  0.00     0.028 C 
BRANCH  59  60
HETATM   60  C21 UNL     1     -10.276   0.574  -1.594  1.00  0.00    -0.035 C 
HETATM   61  C22 UNL     1     -10.717  -0.221  -2.584  1.00  0.00    -0.048 C 
HETATM   62  C23 UNL     1      -9.850  -0.869  -3.629  1.00  0.00     0.026 C 
HETATM   63  C24 UNL     1     -12.194  -0.502  -2.674  1.00  0.00     0.026 C 
ENDBRANCH  59  60
ENDBRANCH  58  59
ENDBRANCH  56  58
BRANCH  56  64
HETATM   64  C25 UNL     1      -6.580   1.756   0.400  1.00  0.00     0.175 C 
BRANCH  64  65
HETATM   65  O3  UNL     1      -6.510   2.775  -0.568  1.00  0.00    -0.326 OA
BRANCH  65  66
HETATM   66  C26 UNL     1      -6.254   4.053  -0.016  1.00  0.00     0.270 C 
HETATM   67  O4  UNL     1      -7.350   4.490   0.785  1.00  0.00    -0.326 OA
HETATM   68  C27 UNL     1      -8.574   4.736   0.088  1.00  0.00     0.184 C 
HETATM   69  C28 UNL     1      -8.377   5.820  -1.002  1.00  0.00     0.215 C 
HETATM   70  C29 UNL     1      -7.207   5.445  -1.941  1.00  0.00     0.220 C 
HETATM   71  O7  UNL     1      -8.143   7.078  -0.381  1.00  0.00    -0.218 OA
HETATM   72  C30 UNL     1      -5.947   5.107  -1.113  1.00  0.00     0.241 C 
HETATM   73  O6  UNL     1      -6.947   6.486  -2.871  1.00  0.00    -0.218 OA
HETATM   74  O5  UNL     1      -4.897   4.656  -1.953  1.00  0.00    -0.215 OA
BRANCH  68  75
HETATM   75  C31 UNL     1      -9.635   5.102   1.133  1.00  0.00     0.214 C 
HETATM   76  O8  UNL     1      -9.914   3.951   1.898  1.00  0.00    -0.218 OA
ENDBRANCH  68  75
ENDBRANCH  65  66
ENDBRANCH  64  65
ENDBRANCH  56  64
ENDBRANCH  16  56
TORSDOF 16
