REMARK  0 active torsions:
REMARK  status: ('A' for Active; 'I' for Inactive)
ROOT
HETATM    1  N1  UNL     1       0.687   2.281   0.001  1.00  0.00    -0.055 NA
HETATM    2  C1  UNL     1      -0.696   2.261   0.006  1.00  0.00     0.770 A 
HETATM    3  N2  UNL     1      -1.412   1.077   0.005  1.00  0.00    -0.037 NA
HETATM    4  C2  UNL     1      -0.742  -0.135  -0.001  1.00  0.00     0.201 A 
HETATM    5  C3  UNL     1       0.700  -0.156  -0.004  1.00  0.00     0.140 A 
HETATM    6  C4  UNL     1       1.387   1.088  -0.004  1.00  0.00     0.140 A 
HETATM    7  N3  UNL     1       1.382  -1.360  -0.006  1.00  0.00    -0.214 NA
HETATM    8  C5  UNL     1       0.670  -2.546  -0.006  1.00  0.00     0.232 A 
HETATM    9  C6  UNL     1      -0.748  -2.532  -0.006  1.00  0.00     0.148 A 
HETATM   10  N4  UNL     1      -1.437  -1.333  -0.003  1.00  0.00    -0.220 NA
HETATM   11  O1  UNL     1       1.326  -3.714  -0.006  1.00  0.00    -0.168 OA
HETATM   12  N5  UNL     1      -1.361   3.421   0.013  1.00  0.00     0.062 N 
ENDROOT
TORSDOF 0
