REMARK  13 active torsions:
REMARK  status: ('A' for Active; 'I' for Inactive)
REMARK    1  A    between atoms: C2_2  and  O4_34 
REMARK    2  A    between atoms: C15_16  and  C18_19 
REMARK    3  A    between atoms: C18_19  and  C19_20 
REMARK    4  A    between atoms: C19_20  and  C20_21 
REMARK    5  A    between atoms: C20_21  and  C21_22 
REMARK    6  A    between atoms: O4_34  and  C31_35 
REMARK    7  A    between atoms: C32_37  and  C48_64 
REMARK    8  A    between atoms: C34_39  and  O11_52 
REMARK    9  A    between atoms: C35_40  and  O6_41 
REMARK   10  A    between atoms: O6_41  and  C36_42 
REMARK   11  A    between atoms: O11_52  and  C42_53 
REMARK   12  A    between atoms: C48_64  and  O17_65 
REMARK   13  A    between atoms: O17_65  and  C49_66 
ROOT
HETATM    1  C31 UNL     1       1.308  -0.963   0.423  1.00  0.00     0.266 C 
HETATM    2  O5  UNL     1       0.520  -1.007  -0.753  1.00  0.00    -0.326 OA
HETATM    3  C32 UNL     1      -0.029  -2.259  -1.020  1.00  0.00     0.180 C 
HETATM    4  C33 UNL     1      -0.962  -2.633   0.124  1.00  0.00     0.211 C 
HETATM    5  C34 UNL     1      -0.159  -2.722   1.419  1.00  0.00     0.183 C 
HETATM    6  C35 UNL     1       0.502  -1.347   1.660  1.00  0.00     0.204 C 
HETATM    7  O16 UNL     1      -1.584  -3.863  -0.149  1.00  0.00    -0.218 OA
ENDROOT
BRANCH   1   8
HETATM    8  O4  UNL     1       1.663   0.407   0.394  1.00  0.00    -0.332 OA
BRANCH   8   9
HETATM    9  C2  UNL     1       3.026   0.711   0.247  1.00  0.00     0.118 C 
HETATM   10  C1  UNL     1       3.136   2.188   0.663  1.00  0.00     0.030 C 
HETATM   11  C6  UNL     1       4.571   2.731   0.702  1.00  0.00     0.003 C 
HETATM   12  C5  UNL     1       5.331   2.538  -0.623  1.00  0.00     0.001 C 
HETATM   13  C4  UNL     1       5.119   1.060  -1.060  1.00  0.00     0.002 C 
HETATM   14  C7  UNL     1       6.867   2.855  -0.489  1.00  0.00     0.007 C 
HETATM   15  C28 UNL     1       4.763   3.551  -1.653  1.00  0.00     0.000 C 
HETATM   16  C3  UNL     1       3.666   0.481  -1.163  1.00  0.00     0.025 C 
HETATM   17  C10 UNL     1       6.207   0.687  -2.084  1.00  0.00     0.000 C 
HETATM   18  C29 UNL     1       3.788  -1.029  -1.510  1.00  0.00     0.002 C 
HETATM   19  C30 UNL     1       2.833   1.082  -2.313  1.00  0.00     0.002 C 
HETATM   20  C9  UNL     1       7.570   0.562  -1.368  1.00  0.00     0.000 C 
HETATM   21  C8  UNL     1       7.839   1.648  -0.287  1.00  0.00     0.001 C 
HETATM   22  C11 UNL     1       9.315   2.182  -0.421  1.00  0.00     0.007 C 
HETATM   23  C27 UNL     1       7.615   1.014   1.123  1.00  0.00     0.000 C 
HETATM   24  C12 UNL     1       9.583   3.172   0.737  1.00  0.00     0.060 C 
HETATM   25  C17 UNL     1      10.437   1.131  -0.242  1.00  0.00     0.001 C 
HETATM   26  C26 UNL     1       9.610   2.898  -1.776  1.00  0.00     0.000 C 
HETATM   27  C13 UNL     1       8.707   4.383   0.514  1.00  0.00     0.150 C 
HETATM   28  C15 UNL     1      11.111   3.256   0.882  1.00  0.00     0.035 C 
HETATM   29  C14 UNL     1       7.217   4.064   0.419  1.00  0.00     0.065 C 
HETATM   30  O1  UNL     1       9.142   5.508   0.433  1.00  0.00    -0.296 OA
HETATM   31  C16 UNL     1      11.467   1.759   0.717  1.00  0.00     0.003 C 
BRANCH  28  32
HETATM   32  C18 UNL     1      11.710   3.899   2.154  1.00  0.00     0.134 C 
HETATM   33  C25 UNL     1      10.908   3.610   3.428  1.00  0.00     0.034 C 
HETATM   34  O3  UNL     1      12.995   3.357   2.354  1.00  0.00    -0.226 OA
BRANCH  32  35
HETATM   35  C19 UNL     1      11.918   5.420   2.032  1.00  0.00     0.100 C 
BRANCH  35  36
HETATM   36  C20 UNL     1      12.825   5.819   0.876  1.00  0.00     0.175 C 
HETATM   37  O2  UNL     1      13.687   5.040   0.489  1.00  0.00    -0.291 OA
BRANCH  36  38
HETATM   38  C21 UNL     1      12.648   7.186   0.323  1.00  0.00     0.029 C 
HETATM   39  C22 UNL     1      12.923   7.547  -0.948  1.00  0.00    -0.041 C 
HETATM   40  C23 UNL     1      12.771   8.982  -1.398  1.00  0.00     0.026 C 
HETATM   41  C24 UNL     1      13.388   6.605  -2.033  1.00  0.00     0.026 C 
ENDBRANCH  36  38
ENDBRANCH  35  36
ENDBRANCH  32  35
ENDBRANCH  28  32
ENDBRANCH   8   9
ENDBRANCH   1   8
BRANCH   6  42
HETATM   42  O6  UNL     1       1.307  -1.529   2.799  1.00  0.00    -0.324 OA
BRANCH  42  43
HETATM   43  C36 UNL     1       1.639  -0.390   3.570  1.00  0.00     0.270 C 
HETATM   44  O7  UNL     1       2.953  -0.717   3.982  1.00  0.00    -0.329 OA
HETATM   45  C37 UNL     1       3.538   0.178   4.889  1.00  0.00     0.151 C 
HETATM   46  C38 UNL     1       2.662   0.484   6.098  1.00  0.00     0.212 C 
HETATM   47  C41 UNL     1       4.077   1.421   4.183  1.00  0.00     0.035 C 
HETATM   48  C39 UNL     1       1.209   0.741   5.750  1.00  0.00     0.220 C 
HETATM   49  O10 UNL     1       2.711  -0.608   6.990  1.00  0.00    -0.218 OA
HETATM   50  C40 UNL     1       0.719  -0.299   4.768  1.00  0.00     0.241 C 
HETATM   51  O9  UNL     1       1.051   2.006   5.159  1.00  0.00    -0.218 OA
HETATM   52  O8  UNL     1      -0.572   0.074   4.355  1.00  0.00    -0.215 OA
ENDBRANCH  42  43
ENDBRANCH   6  42
BRANCH   3  53
HETATM   53  C48 UNL     1      -0.711  -2.207  -2.384  1.00  0.00     0.177 C 
BRANCH  53  54
HETATM   54  O17 UNL     1       0.290  -2.286  -3.371  1.00  0.00    -0.326 OA
BRANCH  54  55
HETATM   55  C49 UNL     1      -0.200  -2.598  -4.656  1.00  0.00     0.270 C 
HETATM   56  O18 UNL     1      -0.544  -3.964  -4.615  1.00  0.00    -0.329 OA
HETATM   57  C50 UNL     1      -1.027  -4.460  -5.834  1.00  0.00     0.151 C 
HETATM   58  C51 UNL     1      -0.043  -4.231  -6.979  1.00  0.00     0.212 C 
HETATM   59  C54 UNL     1      -2.453  -3.978  -6.116  1.00  0.00     0.035 C 
HETATM   60  C52 UNL     1       0.542  -2.830  -7.019  1.00  0.00     0.220 C 
HETATM   61  O21 UNL     1       1.025  -5.144  -6.845  1.00  0.00    -0.218 OA
HETATM   62  C53 UNL     1       0.936  -2.387  -5.628  1.00  0.00     0.241 C 
HETATM   63  O20 UNL     1      -0.400  -1.913  -7.515  1.00  0.00    -0.218 OA
HETATM   64  O19 UNL     1       1.255  -1.018  -5.657  1.00  0.00    -0.215 OA
ENDBRANCH  54  55
ENDBRANCH  53  54
ENDBRANCH   3  53
BRANCH   5  65
HETATM   65  O11 UNL     1       0.864  -3.678   1.288  1.00  0.00    -0.326 OA
BRANCH  65  66
HETATM   66  C42 UNL     1       0.527  -5.024   1.563  1.00  0.00     0.270 C 
HETATM   67  O12 UNL     1       1.098  -5.257   2.832  1.00  0.00    -0.329 OA
HETATM   68  C43 UNL     1       0.956  -6.579   3.277  1.00  0.00     0.151 C 
HETATM   69  C44 UNL     1       1.605  -7.553   2.299  1.00  0.00     0.212 C 
HETATM   70  C47 UNL     1      -0.488  -6.889   3.682  1.00  0.00     0.035 C 
HETATM   71  C45 UNL     1       1.185  -7.353   0.860  1.00  0.00     0.220 C 
HETATM   72  O15 UNL     1       1.310  -8.885   2.650  1.00  0.00    -0.218 OA
HETATM   73  C46 UNL     1       1.177  -5.885   0.500  1.00  0.00     0.241 C 
HETATM   74  O14 UNL     1      -0.112  -7.865   0.681  1.00  0.00    -0.218 OA
HETATM   75  O13 UNL     1       0.468  -5.757  -0.711  1.00  0.00    -0.215 OA
ENDBRANCH  65  66
ENDBRANCH   5  65
TORSDOF 13
