REMARK  1 active torsions:
REMARK  status: ('A' for Active; 'I' for Inactive)
REMARK    1  A    between atoms: C2_2  and  O1_15 
ROOT
HETATM    1  C1  UNL     1      -1.414  -0.417  -0.090  1.00  0.00     0.024 A 
HETATM    2  C2  UNL     1      -1.301   1.004   0.051  1.00  0.00     0.096 A 
HETATM    3  C3  UNL     1      -0.024   1.537   0.126  1.00  0.00     0.043 A 
HETATM    4  C4  UNL     1       1.100   0.674   0.090  1.00  0.00     0.083 A 
HETATM    5  C5  UNL     1       0.955  -0.712  -0.038  1.00  0.00     0.015 A 
HETATM    6  C6  UNL     1      -0.339  -1.279  -0.131  1.00  0.00     0.003 A 
HETATM    7  C7  UNL     1       2.262  -1.274  -0.032  1.00  0.00     0.000 A 
HETATM    8  C8  UNL     1       3.161  -0.241   0.087  1.00  0.00     0.090 A 
HETATM    9  N1  UNL     1       2.450   0.951   0.169  1.00  0.00    -0.245 NA
HETATM   10  C9  UNL     1       4.593  -0.497   0.160  1.00  0.00     0.071 C 
HETATM   11  N2  UNL     1       5.090  -1.649  -0.107  1.00  0.00    -0.273 NA
HETATM   12  C10 UNL     1       4.162  -2.682  -0.642  1.00  0.00     0.130 C 
HETATM   13  C11 UNL     1       2.726  -2.690  -0.088  1.00  0.00     0.054 C 
HETATM   14  C12 UNL     1       5.576   0.565   0.575  1.00  0.00     0.053 C 
ENDROOT
BRANCH   2  15
HETATM   15  O1  UNL     1      -2.456   1.746   0.061  1.00  0.00    -0.328 OA
HETATM   16  C13 UNL     1      -2.352   3.151   0.022  1.00  0.00     0.181 C 
ENDBRANCH   2  15
TORSDOF 1
