REMARK  0 active torsions:
REMARK  status: ('A' for Active; 'I' for Inactive)
ROOT
HETATM    1  C1  UNL     1      -1.509   0.659  -0.064  1.00  0.00     0.133 A 
HETATM    2  C2  UNL     1      -0.890   1.935  -0.135  1.00  0.00     0.028 A 
HETATM    3  C3  UNL     1       0.485   2.104  -0.135  1.00  0.00     0.004 A 
HETATM    4  C4  UNL     1       1.284   0.947  -0.058  1.00  0.00     0.019 A 
HETATM    5  C5  UNL     1       0.692  -0.322   0.009  1.00  0.00     0.084 A 
HETATM    6  C6  UNL     1      -0.711  -0.473   0.008  1.00  0.00     0.046 A 
HETATM    7  N1  UNL     1       1.699  -1.273   0.076  1.00  0.00    -0.244 NA
HETATM    8  C7  UNL     1       2.940  -0.628   0.058  1.00  0.00     0.095 A 
HETATM    9  C8  UNL     1       2.708   0.751  -0.026  1.00  0.00     0.022 A 
HETATM   10  C9  UNL     1       3.803   1.634  -0.058  1.00  0.00     0.022 A 
HETATM   11  C10 UNL     1       5.055   1.042   0.001  1.00  0.00     0.099 A 
HETATM   12  N2  UNL     1       5.286  -0.296   0.083  1.00  0.00    -0.247 NA
HETATM   13  C11 UNL     1       4.256  -1.132   0.112  1.00  0.00     0.077 A 
HETATM   14  C12 UNL     1       4.576  -2.598   0.208  1.00  0.00     0.054 C 
HETATM   15  O1  UNL     1      -2.864   0.540  -0.059  1.00  0.00    -0.190 OA
ENDROOT
TORSDOF 0
