REMARK  4 active torsions:
REMARK  status: ('A' for Active; 'I' for Inactive)
REMARK    1  A    between atoms: C5_5  and  O2_9 
REMARK    2  A    between atoms: C6_6  and  O1_7 
REMARK    3  A    between atoms: C15_17  and  O4_21 
REMARK    4  A    between atoms: C16_18  and  O3_19 
ROOT
HETATM    1  C1  UNL     1       0.526  -0.560  -0.136  1.00  0.00     0.000 C 
HETATM    2  C2  UNL     1      -0.379   0.497   0.047  1.00  0.00    -0.024 C 
HETATM    3  C3  UNL     1      -1.751   0.248   0.064  1.00  0.00    -0.002 C 
HETATM    4  C4  UNL     1      -2.226  -1.054  -0.021  1.00  0.00     0.026 C 
HETATM    5  C5  UNL     1      -1.347  -2.135  -0.134  1.00  0.00     0.116 C 
HETATM    6  C6  UNL     1       0.021  -1.867  -0.360  1.00  0.00     0.112 C 
HETATM    7  C9  UNL     1       0.068   1.923   0.213  1.00  0.00     0.029 C 
HETATM    8  C10 UNL     1       1.456   1.994   0.843  1.00  0.00     0.043 C 
HETATM    9  C11 UNL     1       2.495   1.200   0.032  1.00  0.00     0.237 C 
HETATM   10  C12 UNL     1       2.047  -0.296  -0.115  1.00  0.00     0.063 C 
HETATM   11  C13 UNL     1       2.655  -1.093   1.053  1.00  0.00     0.078 C 
HETATM   12  C14 UNL     1       4.160  -0.999   1.032  1.00  0.00     0.197 C 
HETATM   13  C15 UNL     1       4.704   0.382   1.013  1.00  0.00     0.148 C 
HETATM   14  C16 UNL     1       3.863   1.403   0.724  1.00  0.00     0.126 C 
HETATM   15  O5  UNL     1       4.879  -1.986   1.128  1.00  0.00    -0.289 OA
HETATM   16  C19 UNL     1       2.636  -0.692  -1.496  1.00  0.00     0.042 C 
HETATM   17  C20 UNL     1       3.280   0.583  -2.048  1.00  0.00     0.251 C 
HETATM   18  N1  UNL     1       2.531   1.622  -1.373  1.00  0.00     0.141 N 
HETATM   19  C21 UNL     1       3.017   2.949  -1.699  1.00  0.00     0.286 C 
ENDROOT
BRANCH   5  20
HETATM   20  O2  UNL     1      -1.870  -3.396  -0.258  1.00  0.00    -0.326 OA
HETATM   21  C8  UNL     1      -1.814  -4.149   0.932  1.00  0.00     0.181 C 
ENDBRANCH   5  20
BRANCH   6  22
HETATM   22  O1  UNL     1       0.877  -2.921  -0.578  1.00  0.00    -0.327 OA
HETATM   23  C7  UNL     1       0.778  -3.560  -1.833  1.00  0.00     0.181 C 
ENDBRANCH   6  22
BRANCH  14  24
HETATM   24  O3  UNL     1       4.306   2.697   0.851  1.00  0.00    -0.328 OA
HETATM   25  C17 UNL     1       4.305   3.215   2.164  1.00  0.00     0.181 C 
ENDBRANCH  14  24
BRANCH  13  26
HETATM   26  O4  UNL     1       5.937   0.571   1.579  1.00  0.00    -0.324 OA
HETATM   27  C18 UNL     1       6.989   0.578   0.641  1.00  0.00     0.182 C 
ENDBRANCH  13  26
TORSDOF 4
