REMARK  5 active torsions:
REMARK  status: ('A' for Active; 'I' for Inactive)
REMARK    1  A    between atoms: C3_3  and  C20_22 
REMARK    2  A    between atoms: C4_4  and  C19_20 
REMARK    3  A    between atoms: C7_7  and  C12_12 
REMARK    4  A    between atoms: C12_12  and  C13_13 
REMARK    5  A    between atoms: C13_13  and  C14_14 
ROOT
HETATM    1  C1  UNL     1      -0.899   1.380  -2.994  1.00  0.00     0.026 C 
HETATM    2  C2  UNL     1      -1.826   2.218  -2.158  1.00  0.00    -0.024 C 
HETATM    3  C3  UNL     1      -1.894   2.201  -0.808  1.00  0.00     0.040 C 
HETATM    4  C4  UNL     1      -0.937   1.327   0.032  1.00  0.00     0.055 C 
HETATM    5  C5  UNL     1      -0.515   0.119  -0.864  1.00  0.00     0.007 C 
HETATM    6  C6  UNL     1       0.141   0.626  -2.160  1.00  0.00     0.005 C 
HETATM    7  C7  UNL     1       0.143  -1.156  -0.236  1.00  0.00     0.001 C 
HETATM    8  C8  UNL     1      -0.678  -1.593   1.014  1.00  0.00     0.000 C 
HETATM    9  C9  UNL     1      -0.943  -0.413   1.964  1.00  0.00     0.000 C 
HETATM   10  C10 UNL     1      -1.653   0.764   1.282  1.00  0.00     0.007 C 
HETATM   11  C11 UNL     1      -2.005  -2.325   0.711  1.00  0.00     0.000 C 
HETATM   12  C18 UNL     1       0.116  -2.312  -1.274  1.00  0.00     0.000 C 
ENDROOT
BRANCH   7  13
HETATM   13  C12 UNL     1       1.631  -0.917   0.138  1.00  0.00     0.005 C 
BRANCH  13  14
HETATM   14  C13 UNL     1       2.536  -2.136   0.390  1.00  0.00     0.029 C 
BRANCH  14  15
HETATM   15  C14 UNL     1       3.938  -1.723   0.746  1.00  0.00     0.005 A 
HETATM   16  C15 UNL     1       5.093  -2.241   0.240  1.00  0.00     0.118 A 
HETATM   17  O1  UNL     1       6.184  -1.614   0.764  1.00  0.00    -0.303 OA
HETATM   18  C16 UNL     1       5.703  -0.669   1.621  1.00  0.00     0.122 A 
HETATM   19  C17 UNL     1       4.342  -0.689   1.653  1.00  0.00     0.025 A 
ENDBRANCH  14  15
ENDBRANCH  13  14
ENDBRANCH   7  13
BRANCH   4  20
HETATM   20  C19 UNL     1       0.135   2.372   0.416  1.00  0.00     0.186 C 
HETATM   21  O2  UNL     1       1.154   1.889   1.257  1.00  0.00    -0.220 OA
ENDBRANCH   4  20
BRANCH   3  22
HETATM   22  C20 UNL     1      -2.858   3.169  -0.199  1.00  0.00     0.206 C 
HETATM   23  O3  UNL     1      -2.937   3.324   1.012  1.00  0.00    -0.644 OA
HETATM   24  O4  UNL     1      -3.677   3.955  -0.932  1.00  0.00    -0.644 OA
ENDBRANCH   3  22
TORSDOF 5
