REMARK  4 active torsions:
REMARK  status: ('A' for Active; 'I' for Inactive)
REMARK    1  A    between atoms: C1_2  and  C2_4 
REMARK       I    between atoms: C2_4  and  N1_5 
REMARK    2  A    between atoms: N1_5  and  C3_6 
REMARK    3  A    between atoms: C3_6  and  C4_7 
REMARK    4  A    between atoms: C4_7  and  C5_8 
ROOT
HETATM    1  C2  UNL     1       2.098   0.318   0.285  1.00  0.00     0.340 C 
HETATM    2  N1  UNL     1       0.730   0.318   0.285  1.00  0.00    -0.226 NA
HETATM    3  O5  UNL     1       2.707  -0.725   0.285  1.00  0.00    -0.259 OA
ENDROOT
BRANCH   2   4
HETATM    4  C3  UNL     1       0.010  -0.963   0.285  1.00  0.00     0.180 C 
BRANCH   4   5
HETATM    5  C4  UNL     1      -1.504  -0.740   0.295  1.00  0.00     0.411 C 
HETATM    6  N2  UNL     1      -2.203  -2.004   0.439  1.00  0.00     0.630 N 
BRANCH   5   7
HETATM    7  C5  UNL     1      -1.985  -0.018  -0.936  1.00  0.00     0.226 C 
HETATM    8  O3  UNL     1      -2.815   0.996  -0.705  1.00  0.00    -0.646 OA
HETATM    9  O4  UNL     1      -1.627  -0.357  -2.039  1.00  0.00    -0.646 OA
ENDBRANCH   5   7
ENDBRANCH   4   5
ENDBRANCH   2   4
BRANCH   1  10
HETATM   10  C1  UNL     1       2.814   1.598   0.285  1.00  0.00     0.271 C 
HETATM   11  O1  UNL     1       4.143   1.518   0.285  1.00  0.00    -0.640 OA
HETATM   12  O2  UNL     1       2.203   2.641   0.285  1.00  0.00    -0.640 OA
ENDBRANCH   1  10
TORSDOF 4
