REMARK  2 active torsions:
REMARK  status: ('A' for Active; 'I' for Inactive)
REMARK    1  A    between atoms: C7_7  and  C12_13 
REMARK    2  A    between atoms: C13_14  and  C14_15 
ROOT
HETATM    1  C1  UNL     1      -0.474   1.379  -2.388  1.00  0.00     0.001 C 
HETATM    2  C2  UNL     1       0.621   0.404  -2.836  1.00  0.00     0.004 C 
HETATM    3  C3  UNL     1       0.290  -1.077  -2.533  1.00  0.00     0.018 C 
HETATM    4  C4  UNL     1      -0.139  -1.224  -1.041  1.00  0.00    -0.006 C 
HETATM    5  C5  UNL     1      -1.139  -0.187  -0.459  1.00  0.00     0.025 C 
HETATM    6  C6  UNL     1      -0.722   1.241  -0.882  1.00  0.00     0.004 C 
HETATM    7  C7  UNL     1      -1.078  -0.273   1.098  1.00  0.00     0.044 C 
HETATM    8  C8  UNL     1      -1.229  -1.689   1.613  1.00  0.00    -0.037 C 
HETATM    9  C9  UNL     1      -0.971  -2.756   0.832  1.00  0.00     0.033 C 
HETATM   10  C10 UNL     1      -0.507  -2.628  -0.570  1.00  0.00     0.187 C 
HETATM   11  O1  UNL     1      -0.372  -3.638  -1.247  1.00  0.00    -0.287 OA
HETATM   12  C11 UNL     1      -1.601  -1.868   3.066  1.00  0.00     0.027 C 
HETATM   13  C18 UNL     1      -2.587  -0.470  -0.922  1.00  0.00     0.005 C 
HETATM   14  C19 UNL     1       1.597  -1.878  -2.786  1.00  0.00     0.004 C 
HETATM   15  C20 UNL     1      -0.739  -1.589  -3.566  1.00  0.00     0.004 C 
ENDROOT
BRANCH   7  16
HETATM   16  C12 UNL     1      -2.067   0.651   1.771  1.00  0.00    -0.022 C 
HETATM   17  C13 UNL     1      -1.853   1.770   2.493  1.00  0.00    -0.002 C 
BRANCH  17  18
HETATM   18  C14 UNL     1      -0.617   2.459   2.871  1.00  0.00     0.026 A 
HETATM   19  C15 UNL     1      -0.614   3.646   3.685  1.00  0.00     0.029 A 
HETATM   20  C16 UNL     1       0.685   4.013   3.847  1.00  0.00     0.123 A 
HETATM   21  O2  UNL     1       1.510   3.149   3.194  1.00  0.00    -0.303 OA
HETATM   22  C17 UNL     1       0.704   2.216   2.609  1.00  0.00     0.123 A 
ENDBRANCH  17  18
ENDBRANCH   7  16
TORSDOF 2
