REMARK  3 active torsions:
REMARK  status: ('A' for Active; 'I' for Inactive)
REMARK    1  A    between atoms: C7_7  and  O2_13 
REMARK    2  A    between atoms: O2_13  and  C12_14 
REMARK    3  A    between atoms: C12_14  and  C13_16 
ROOT
HETATM    1  C1  UNL     1      -1.860   2.272  -0.051  1.00  0.00     0.069 C 
HETATM    2  C2  UNL     1      -1.442   2.893  -1.396  1.00  0.00     0.173 C 
HETATM    3  C3  UNL     1       0.038   2.715  -1.672  1.00  0.00    -0.016 C 
HETATM    4  C4  UNL     1       0.475   1.620  -2.317  1.00  0.00    -0.002 C 
HETATM    5  C5  UNL     1       1.849   1.009  -2.244  1.00  0.00     0.152 C 
HETATM    6  C6  UNL     1       2.454   0.829  -0.833  1.00  0.00     0.087 C 
HETATM    7  C7  UNL     1       1.774  -0.132   0.165  1.00  0.00     0.134 C 
HETATM    8  C8  UNL     1       0.539   0.487   0.872  1.00  0.00     0.060 C 
HETATM    9  C9  UNL     1      -0.881  -0.050   0.667  1.00  0.00     0.120 A 
HETATM   10  C10 UNL     1      -1.969   0.753   0.146  1.00  0.00     0.143 A 
HETATM   11  O1  UNL     1      -1.330   0.004  -0.856  1.00  0.00    -0.357 OA
HETATM   12  C11 UNL     1      -1.252  -1.368   1.333  1.00  0.00     0.032 C 
HETATM   13  C17 UNL     1       3.880   0.559  -1.250  1.00  0.00     0.046 C 
HETATM   14  C18 UNL     1       4.012   1.266  -2.543  1.00  0.00     0.292 C 
HETATM   15  O4  UNL     1       2.812   1.619  -3.080  1.00  0.00    -0.296 OA
HETATM   16  O5  UNL     1       5.088   1.552  -3.058  1.00  0.00    -0.259 OA
HETATM   17  C19 UNL     1       4.863  -0.121  -0.640  1.00  0.00     0.001 C 
HETATM   18  C20 UNL     1       0.942   3.754  -1.053  1.00  0.00     0.029 C 
HETATM   19  O6  UNL     1      -2.247   2.361  -2.433  1.00  0.00    -0.219 OA
ENDROOT
BRANCH   7  20
HETATM   20  O2  UNL     1       1.476  -1.337  -0.467  1.00  0.00    -0.301 OA
BRANCH  20  21
HETATM   21  C12 UNL     1       1.927  -2.547  -0.010  1.00  0.00     0.291 C 
HETATM   22  O3  UNL     1       1.673  -3.535  -0.698  1.00  0.00    -0.260 OA
BRANCH  21  23
HETATM   23  C13 UNL     1       2.655  -2.837   1.275  1.00  0.00     0.037 C 
HETATM   24  C14 UNL     1       3.608  -3.794   1.239  1.00  0.00    -0.025 C 
HETATM   25  C15 UNL     1       4.435  -4.268   2.406  1.00  0.00     0.030 C 
HETATM   26  C16 UNL     1       2.268  -2.179   2.576  1.00  0.00     0.036 C 
ENDBRANCH  21  23
ENDBRANCH  20  21
ENDBRANCH   7  20
TORSDOF 3
