REMARK  3 active torsions:
REMARK  status: ('A' for Active; 'I' for Inactive)
REMARK    1  A    between atoms: C4_5  and  C6_7 
REMARK    2  A    between atoms: C6_7  and  C7_8 
REMARK    3  A    between atoms: C16_18  and  C17_20 
ROOT
HETATM    1  C1  UNL     1       1.193   0.772  -0.228  1.00  0.00     0.023 A 
HETATM    2  C2  UNL     1       2.490   1.157   0.158  1.00  0.00     0.105 A 
HETATM    3  O1  UNL     1       2.870   2.464   0.244  1.00  0.00    -0.273 OA
HETATM    4  C3  UNL     1       1.939   3.424  -0.029  1.00  0.00     0.296 A 
HETATM    5  C4  UNL     1       0.554   3.130  -0.492  1.00  0.00     0.044 A 
HETATM    6  C5  UNL     1       0.234   1.815  -0.576  1.00  0.00     0.003 A 
HETATM    7  O2  UNL     1       2.278   4.597   0.107  1.00  0.00    -0.259 OA
HETATM    8  C11 UNL     1       3.424   0.150   0.440  1.00  0.00     0.049 A 
HETATM    9  C12 UNL     1       3.047  -1.188   0.346  1.00  0.00     0.092 A 
HETATM   10  C13 UNL     1       1.750  -1.552   0.006  1.00  0.00     0.003 A 
HETATM   11  C14 UNL     1       0.806  -0.581  -0.295  1.00  0.00    -0.000 A 
HETATM   12  C15 UNL     1       1.603  -3.043   0.034  1.00  0.00     0.061 C 
HETATM   13  C16 UNL     1       3.087  -3.467   0.191  1.00  0.00     0.153 C 
HETATM   14  O3  UNL     1       3.829  -2.300   0.566  1.00  0.00    -0.331 OA
ENDROOT
BRANCH   5  15
HETATM   15  C6  UNL     1      -0.430   4.242  -0.868  1.00  0.00     0.043 C 
HETATM   16  C9  UNL     1       0.148   5.059  -2.047  1.00  0.00     0.009 C 
HETATM   17  C10 UNL     1      -0.678   5.189   0.325  1.00  0.00     0.009 C 
BRANCH  15  18
HETATM   18  C7  UNL     1      -1.764   3.674  -1.338  1.00  0.00    -0.022 C 
HETATM   19  C8  UNL     1      -2.748   3.232  -0.541  1.00  0.00    -0.005 C 
ENDBRANCH  15  18
ENDBRANCH   5  15
BRANCH  13  20
HETATM   20  C17 UNL     1       3.343  -4.632   1.155  1.00  0.00     0.152 C 
HETATM   21  C18 UNL     1       4.833  -4.980   1.211  1.00  0.00     0.036 C 
HETATM   22  C19 UNL     1       2.534  -5.869   0.758  1.00  0.00     0.036 C 
HETATM   23  O4  UNL     1       2.945  -4.237   2.442  1.00  0.00    -0.224 OA
ENDBRANCH  13  20
TORSDOF 3
