REMARK  1 active torsions:
REMARK  status: ('A' for Active; 'I' for Inactive)
REMARK    1  A    between atoms: C10_10  and  C11_11 
ROOT
HETATM    1  C1  UNL     1      -2.224   2.876   0.029  1.00  0.00     0.026 A 
HETATM    2  C2  UNL     1      -2.163   1.482   0.253  1.00  0.00     0.119 A 
HETATM    3  C3  UNL     1      -0.971   0.798   0.275  1.00  0.00     0.119 A 
HETATM    4  C4  UNL     1       0.280   1.440   0.040  1.00  0.00     0.024 A 
HETATM    5  C5  UNL     1       0.223   2.847  -0.145  1.00  0.00     0.002 A 
HETATM    6  C6  UNL     1      -1.032   3.541  -0.155  1.00  0.00     0.002 A 
HETATM    7  C7  UNL     1       1.428   3.594  -0.321  1.00  0.00     0.005 A 
HETATM    8  C8  UNL     1       2.596   2.874  -0.303  1.00  0.00     0.062 A 
HETATM    9  C9  UNL     1       2.674   1.476  -0.141  1.00  0.00     0.013 A 
HETATM   10  C10 UNL     1       1.530   0.731   0.011  1.00  0.00     0.001 A 
HETATM   11  C18 UNL     1       4.124   1.066  -0.230  1.00  0.00     0.179 A 
HETATM   12  O3  UNL     1       4.874   2.269  -0.431  1.00  0.00    -0.293 OA
HETATM   13  C19 UNL     1       3.988   3.313  -0.470  1.00  0.00     0.296 A 
HETATM   14  O4  UNL     1       4.323   4.483  -0.629  1.00  0.00    -0.259 OA
HETATM   15  O5  UNL     1      -1.236  -0.534   0.545  1.00  0.00    -0.300 OA
HETATM   16  C20 UNL     1      -2.653  -0.699   0.642  1.00  0.00     0.304 A 
HETATM   17  O6  UNL     1      -3.208   0.609   0.484  1.00  0.00    -0.300 OA
ENDROOT
BRANCH  10  18
HETATM   18  C11 UNL     1       1.608  -0.755   0.097  1.00  0.00     0.002 A 
HETATM   19  C12 UNL     1       2.302  -1.369   1.153  1.00  0.00     0.002 A 
HETATM   20  C13 UNL     1       2.333  -2.761   1.298  1.00  0.00     0.026 A 
HETATM   21  C14 UNL     1       1.635  -3.515   0.358  1.00  0.00     0.119 A 
HETATM   22  C15 UNL     1       0.960  -2.914  -0.700  1.00  0.00     0.119 A 
HETATM   23  O2  UNL     1       1.471  -4.884   0.279  1.00  0.00    -0.300 OA
HETATM   24  C16 UNL     1       0.949  -1.533  -0.868  1.00  0.00     0.026 A 
HETATM   25  O1  UNL     1       0.355  -3.892  -1.465  1.00  0.00    -0.300 OA
HETATM   26  C17 UNL     1       0.625  -5.156  -0.846  1.00  0.00     0.304 A 
ENDBRANCH  10  18
TORSDOF 1
