REMARK  7 active torsions:
REMARK  status: ('A' for Active; 'I' for Inactive)
REMARK    1  A    between atoms: C2_2  and  O6_30 
REMARK    2  A    between atoms: C5_5  and  C24_27 
REMARK    3  A    between atoms: C15_15  and  C18_18 
REMARK    4  A    between atoms: O6_30  and  C25_31 
REMARK    5  A    between atoms: C27_34  and  O10_39 
REMARK    6  A    between atoms: O10_39  and  C30_40 
REMARK    7  A    between atoms: C31_42  and  C35_49 
ROOT
HETATM    1  C1  UNL     1       8.255   1.365   2.218  1.00  0.00     0.030 C 
HETATM    2  C2  UNL     1       7.828   1.921   0.855  1.00  0.00     0.120 C 
HETATM    3  C3  UNL     1       8.373   0.973  -0.218  1.00  0.00     0.061 C 
HETATM    4  C4  UNL     1       7.910  -0.490  -0.059  1.00  0.00     0.136 C 
HETATM    5  C5  UNL     1       8.301  -1.081   1.321  1.00  0.00     0.084 C 
HETATM    6  C6  UNL     1       7.810  -0.092   2.415  1.00  0.00     0.012 C 
HETATM    7  C7  UNL     1       9.840  -1.349   1.379  1.00  0.00     0.012 C 
HETATM    8  C8  UNL     1      10.345  -2.190   0.185  1.00  0.00     0.029 C 
HETATM    9  C9  UNL     1       9.933  -1.572  -1.161  1.00  0.00     0.005 C 
HETATM   10  C10 UNL     1       8.421  -1.359  -1.212  1.00  0.00     0.031 C 
HETATM   11  C11 UNL     1      11.847  -2.513   0.198  1.00  0.00     0.127 C 
HETATM   12  C12 UNL     1      12.367  -3.079   1.530  1.00  0.00     0.030 C 
HETATM   13  C13 UNL     1      11.872  -2.180   2.691  1.00  0.00     0.003 C 
HETATM   14  C14 UNL     1      10.353  -1.946   2.706  1.00  0.00     0.001 C 
HETATM   15  C15 UNL     1      13.912  -2.945   1.376  1.00  0.00     0.027 C 
HETATM   16  C16 UNL     1      14.084  -1.576   0.688  1.00  0.00     0.007 C 
HETATM   17  C17 UNL     1      12.785  -1.334  -0.103  1.00  0.00     0.031 C 
HETATM   18  C23 UNL     1      11.912  -4.529   1.797  1.00  0.00     0.003 C 
HETATM   19  O3  UNL     1      12.049  -3.487  -0.798  1.00  0.00    -0.226 OA
HETATM   20  O5  UNL     1       6.508  -0.512  -0.174  1.00  0.00    -0.226 OA
ENDROOT
BRANCH   2  21
HETATM   21  O6  UNL     1       6.428   2.007   0.806  1.00  0.00    -0.332 OA
BRANCH  21  22
HETATM   22  C25 UNL     1       5.887   2.884  -0.175  1.00  0.00     0.270 C 
HETATM   23  O7  UNL     1       5.131   3.772   0.630  1.00  0.00    -0.329 OA
HETATM   24  C26 UNL     1       4.318   4.676  -0.071  1.00  0.00     0.148 C 
HETATM   25  C27 UNL     1       3.361   3.967  -1.039  1.00  0.00     0.178 C 
HETATM   26  C36 UNL     1       5.131   5.840  -0.642  1.00  0.00     0.035 C 
HETATM   27  C28 UNL     1       4.136   3.034  -1.960  1.00  0.00     0.217 C 
HETATM   28  C29 UNL     1       4.986   2.110  -1.118  1.00  0.00     0.241 C 
HETATM   29  O9  UNL     1       4.977   3.755  -2.826  1.00  0.00    -0.218 OA
HETATM   30  O8  UNL     1       5.739   1.318  -2.002  1.00  0.00    -0.215 OA
BRANCH  25  31
HETATM   31  O10 UNL     1       2.450   3.242  -0.247  1.00  0.00    -0.326 OA
BRANCH  31  32
HETATM   32  C30 UNL     1       1.344   2.692  -0.928  1.00  0.00     0.270 C 
HETATM   33  O11 UNL     1       0.325   3.667  -0.900  1.00  0.00    -0.326 OA
HETATM   34  C31 UNL     1      -0.825   3.242  -1.589  1.00  0.00     0.184 C 
HETATM   35  C32 UNL     1      -1.382   1.978  -0.936  1.00  0.00     0.215 C 
HETATM   36  C33 UNL     1      -0.324   0.895  -0.878  1.00  0.00     0.220 C 
HETATM   37  O14 UNL     1      -2.477   1.464  -1.653  1.00  0.00    -0.218 OA
HETATM   38  C34 UNL     1       0.893   1.459  -0.179  1.00  0.00     0.241 C 
HETATM   39  O13 UNL     1      -0.813  -0.209  -0.162  1.00  0.00    -0.218 OA
HETATM   40  O12 UNL     1       1.914   0.493  -0.188  1.00  0.00    -0.215 OA
BRANCH  34  41
HETATM   41  C35 UNL     1      -1.827   4.390  -1.602  1.00  0.00     0.214 C 
HETATM   42  O15 UNL     1      -2.625   4.323  -2.768  1.00  0.00    -0.218 OA
ENDBRANCH  34  41
ENDBRANCH  31  32
ENDBRANCH  25  31
ENDBRANCH  21  22
ENDBRANCH   2  21
BRANCH   5  43
HETATM   43  C24 UNL     1       7.486  -2.365   1.550  1.00  0.00     0.209 C 
HETATM   44  O4  UNL     1       7.948  -3.477   1.638  1.00  0.00    -0.288 OA
ENDBRANCH   5  43
BRANCH  15  45
HETATM   45  C18 UNL     1      14.581  -4.098   0.633  1.00  0.00     0.003 A 
HETATM   46  C19 UNL     1      14.959  -5.294   1.386  1.00  0.00     0.003 A 
HETATM   47  C20 UNL     1      15.483  -6.356   0.739  1.00  0.00     0.068 A 
HETATM   48  C21 UNL     1      15.685  -6.250  -0.721  1.00  0.00     0.300 A 
HETATM   49  O1  UNL     1      15.418  -5.099  -1.397  1.00  0.00    -0.271 OA
HETATM   50  O2  UNL     1      16.128  -7.229  -1.318  1.00  0.00    -0.259 OA
HETATM   51  C22 UNL     1      14.845  -4.079  -0.696  1.00  0.00     0.122 A 
ENDBRANCH  15  45
TORSDOF 7
