REMARK  0 active torsions:
REMARK  status: ('A' for Active; 'I' for Inactive)
ROOT
HETATM    1  C1  UNL     1      -0.902   1.018   0.000  1.00  0.00     0.023 A 
HETATM    2  C2  UNL     1      -1.559  -0.224   0.000  1.00  0.00     0.029 A 
HETATM    3  C3  UNL     1      -0.815  -1.418   0.000  1.00  0.00     0.131 A 
HETATM    4  C4  UNL     1       0.590  -1.363   0.000  1.00  0.00     0.029 A 
HETATM    5  C5  UNL     1       1.250  -0.123   0.000  1.00  0.00     0.023 A 
HETATM    6  C6  UNL     1       0.504   1.073   0.000  1.00  0.00     0.103 A 
HETATM    7  N1  UNL     1       1.146   2.282   0.000  1.00  0.00    -0.148 N 
HETATM    8  O1  UNL     1      -1.432  -2.582   0.000  1.00  0.00    -0.190 OA
ENDROOT
TORSDOF 0
