REMARK  12 active torsions:
REMARK  status: ('A' for Active; 'I' for Inactive)
REMARK    1  A    between atoms: C1_1  and  C2_2 
REMARK    2  A    between atoms: C1_1  and  C16_18 
REMARK    3  A    between atoms: C3_3  and  C4_4 
REMARK    4  A    between atoms: C5_5  and  C6_6 
REMARK    5  A    between atoms: C6_6  and  C7_7 
REMARK    6  A    between atoms: C7_7  and  C8_8 
REMARK    7  A    between atoms: C8_8  and  C9_9 
REMARK    8  A    between atoms: C9_9  and  C10_10 
REMARK    9  A    between atoms: C10_10  and  C11_11 
REMARK   10  A    between atoms: C11_11  and  C12_12 
REMARK   11  A    between atoms: C12_12  and  C13_13 
REMARK   12  A    between atoms: C13_13  and  C14_14 
ROOT
HETATM    1  C7  UNL     1       6.511  -1.297   1.712  1.00  0.00     0.165 C 
HETATM    2  O1  UNL     1       6.160  -2.655   1.585  1.00  0.00    -0.222 OA
ENDROOT
BRANCH   1   3
HETATM    3  C6  UNL     1       5.965  -0.741   3.029  1.00  0.00     0.110 C 
BRANCH   3   4
HETATM    4  C5  UNL     1       4.497  -0.801   3.138  1.00  0.00    -0.075 C 
HETATM    5  C4  UNL     1       3.285  -0.791   3.151  1.00  0.00    -0.014 C 
BRANCH   5   6
HETATM    6  C3  UNL     1       1.836  -0.747   3.101  1.00  0.00    -0.011 C 
HETATM    7  C2  UNL     1       0.627  -0.686   3.019  1.00  0.00    -0.041 C 
BRANCH   7   8
HETATM    8  C1  UNL     1      -0.828  -0.548   2.826  1.00  0.00     0.238 C 
HETATM    9  O2  UNL     1      -1.215   0.823   2.851  1.00  0.00    -0.204 OA
BRANCH   8  10
HETATM   10  C16 UNL     1      -1.271  -1.132   1.511  1.00  0.00     0.019 C 
HETATM   11  C17 UNL     1      -2.465  -1.714   1.333  1.00  0.00    -0.001 C 
ENDBRANCH   8  10
ENDBRANCH   7   8
ENDBRANCH   5   6
ENDBRANCH   3   4
ENDBRANCH   1   3
BRANCH   1  12
HETATM   12  C8  UNL     1       6.123  -0.522   0.447  1.00  0.00     0.034 C 
BRANCH  12  13
HETATM   13  C9  UNL     1       4.688  -0.740  -0.060  1.00  0.00     0.003 C 
BRANCH  13  14
HETATM   14  C10 UNL     1       4.385  -0.059  -1.408  1.00  0.00     0.000 C 
BRANCH  14  15
HETATM   15  C11 UNL     1       4.330   1.475  -1.321  1.00  0.00     0.000 C 
BRANCH  15  16
HETATM   16  C12 UNL     1       3.914   2.165  -2.635  1.00  0.00     0.000 C 
BRANCH  16  17
HETATM   17  C13 UNL     1       2.417   2.505  -2.753  1.00  0.00     0.000 C 
BRANCH  17  18
HETATM   18  C14 UNL     1       1.445   1.316  -2.800  1.00  0.00     0.000 C 
HETATM   19  C15 UNL     1       1.646   0.410  -4.021  1.00  0.00     0.000 C 
ENDBRANCH  17  18
ENDBRANCH  16  17
ENDBRANCH  15  16
ENDBRANCH  14  15
ENDBRANCH  13  14
ENDBRANCH  12  13
ENDBRANCH   1  12
TORSDOF 12
