REMARK  8 active torsions:
REMARK  status: ('A' for Active; 'I' for Inactive)
REMARK    1  A    between atoms: O1_2  and  C2_3 
REMARK    2  A    between atoms: C3_4  and  O2_5 
REMARK    3  A    between atoms: C5_7  and  O9_30 
REMARK    4  A    between atoms: C9_12  and  C13_18 
REMARK    5  A    between atoms: C10_13  and  O5_16 
REMARK    6  A    between atoms: C15_20  and  O8_28 
REMARK    7  A    between atoms: C16_21  and  O7_26 
REMARK    8  A    between atoms: C17_22  and  O6_24 
ROOT
HETATM    1  C2  UNL     1      -0.132   1.812   0.258  1.00  0.00     0.120 C 
HETATM    2  C3  UNL     1       0.418   3.101   0.097  1.00  0.00     0.139 C 
HETATM    3  C5  UNL     1       1.799   3.265  -0.136  1.00  0.00     0.123 C 
HETATM    4  C6  UNL     1       2.566   2.122  -0.435  1.00  0.00     0.088 C 
HETATM    5  C7  UNL     1       2.045   0.830  -0.326  1.00  0.00     0.107 C 
HETATM    6  C8  UNL     1       0.699   0.709   0.024  1.00  0.00     0.051 C 
HETATM    7  O3  UNL     1       2.800  -0.273  -0.595  1.00  0.00    -0.305 OA
HETATM    8  C9  UNL     1       4.122  -0.163  -0.273  1.00  0.00     0.125 C 
HETATM    9  C10 UNL     1       4.814   0.986  -0.485  1.00  0.00     0.156 C 
HETATM   10  C11 UNL     1       4.012   2.210  -0.781  1.00  0.00     0.223 C 
HETATM   11  O4  UNL     1       4.574   3.233  -1.160  1.00  0.00    -0.284 OA
ENDROOT
BRANCH   8  12
HETATM   12  C13 UNL     1       4.892  -1.370   0.217  1.00  0.00     0.029 C 
HETATM   13  C14 UNL     1       4.528  -2.499  -0.502  1.00  0.00     0.028 C 
HETATM   14  C15 UNL     1       5.212  -3.704  -0.331  1.00  0.00     0.118 C 
HETATM   15  C16 UNL     1       6.456  -3.444   0.219  1.00  0.00     0.138 C 
HETATM   16  C17 UNL     1       6.625  -2.264   1.001  1.00  0.00     0.118 C 
HETATM   17  C18 UNL     1       5.731  -1.271   1.418  1.00  0.00     0.028 C 
BRANCH  14  18
HETATM   18  O8  UNL     1       4.950  -4.815  -1.084  1.00  0.00    -0.326 OA
HETATM   19  C21 UNL     1       4.291  -5.830  -0.364  1.00  0.00     0.181 C 
ENDBRANCH  14  18
BRANCH  15  20
HETATM   20  O7  UNL     1       7.391  -4.450   0.254  1.00  0.00    -0.324 OA
HETATM   21  C20 UNL     1       8.303  -4.414  -0.819  1.00  0.00     0.182 C 
ENDBRANCH  15  20
BRANCH  16  22
HETATM   22  O6  UNL     1       7.806  -2.211   1.714  1.00  0.00    -0.326 OA
HETATM   23  C19 UNL     1       8.656  -1.150   1.336  1.00  0.00     0.181 C 
ENDBRANCH  16  22
ENDBRANCH   8  12
BRANCH   9  24
HETATM   24  O5  UNL     1       6.139   1.154  -0.177  1.00  0.00    -0.323 OA
HETATM   25  C12 UNL     1       7.000   0.999  -1.282  1.00  0.00     0.182 C 
ENDBRANCH   9  24
BRANCH   3  26
HETATM   26  O9  UNL     1       2.316   4.526  -0.288  1.00  0.00    -0.326 OA
HETATM   27  C22 UNL     1       2.830   5.079   0.902  1.00  0.00     0.181 C 
ENDBRANCH   3  26
BRANCH   1  28
HETATM   28  O1  UNL     1      -1.466   1.714   0.579  1.00  0.00    -0.326 OA
HETATM   29  C1  UNL     1      -2.062   0.438   0.626  1.00  0.00     0.181 C 
ENDBRANCH   1  28
BRANCH   2  30
HETATM   30  O2  UNL     1      -0.384   4.187   0.361  1.00  0.00    -0.324 OA
HETATM   31  C4  UNL     1      -0.661   5.024  -0.741  1.00  0.00     0.182 C 
ENDBRANCH   2  30
TORSDOF 8
