REMARK  4 active torsions:
REMARK  status: ('A' for Active; 'I' for Inactive)
REMARK    1  A    between atoms: C2_2  and  C3_3 
REMARK    2  A    between atoms: C3_3  and  C4_4 
REMARK    3  A    between atoms: C5_5  and  C6_6 
REMARK    4  A    between atoms: C6_6  and  C7_7 
ROOT
HETATM    1  C4  UNL     1      -0.301  -0.345  -0.000  1.00  0.00    -0.031 C 
HETATM    2  C5  UNL     1      -0.269   0.996  -0.001  1.00  0.00    -0.028 C 
ENDROOT
BRANCH   1   3
HETATM    3  C3  UNL     1      -1.585  -1.135  -0.000  1.00  0.00     0.026 C 
BRANCH   3   4
HETATM    4  C2  UNL     1      -1.345  -2.652  -0.000  1.00  0.00     0.005 C 
HETATM    5  C1  UNL     1      -2.667  -3.433   0.000  1.00  0.00     0.000 C 
ENDBRANCH   3   4
ENDBRANCH   1   3
BRANCH   2   6
HETATM    6  C6  UNL     1       1.014   1.787   0.001  1.00  0.00     0.061 C 
BRANCH   6   7
HETATM    7  C7  UNL     1       0.764   3.292   0.002  1.00  0.00     0.187 C 
HETATM    8  O1  UNL     1       2.002   3.973   0.011  1.00  0.00    -0.220 OA
ENDBRANCH   6   7
ENDBRANCH   2   6
TORSDOF 4
