REMARK  21 active torsions:
REMARK  status: ('A' for Active; 'I' for Inactive)
REMARK    1  A    between atoms: C3_3  and  C4_4 
REMARK    2  A    between atoms: C4_4  and  C5_6 
REMARK    3  A    between atoms: C5_6  and  C6_7 
REMARK    4  A    between atoms: C12_14  and  C35_40 
REMARK    5  A    between atoms: C13_15  and  O4_20 
REMARK    6  A    between atoms: C15_17  and  O3_18 
REMARK    7  A    between atoms: O4_20  and  C17_21 
REMARK    8  A    between atoms: C17_21  and  C18_23 
REMARK    9  A    between atoms: C18_23  and  C19_24 
REMARK   10  A    between atoms: C19_24  and  C20_25 
REMARK   11  A    between atoms: C20_25  and  C21_26 
REMARK   12  A    between atoms: C21_26  and  C22_27 
REMARK   13  A    between atoms: C22_27  and  C23_28 
REMARK   14  A    between atoms: C23_28  and  C24_29 
REMARK   15  A    between atoms: C24_29  and  C25_30 
REMARK   16  A    between atoms: C26_31  and  C27_32 
REMARK   17  A    between atoms: C27_32  and  C28_33 
REMARK   18  A    between atoms: C29_34  and  C30_35 
REMARK   19  A    between atoms: C30_35  and  C31_36 
REMARK   20  A    between atoms: C31_36  and  C32_37 
REMARK   21  A    between atoms: C32_37  and  C33_38 
ROOT
HETATM    1  C6  UNL     1       5.144   0.273  -1.159  1.00  0.00     0.106 C 
HETATM    2  C7  UNL     1       5.865   1.627  -1.095  1.00  0.00     0.031 C 
HETATM    3  C8  UNL     1       6.174  -0.844  -0.954  1.00  0.00     0.033 C 
HETATM    4  C9  UNL     1       5.506  -2.221  -0.971  1.00  0.00     0.033 C 
HETATM    5  C10 UNL     1       4.149  -2.194  -0.302  1.00  0.00     0.023 A 
HETATM    6  C11 UNL     1       3.622  -0.971   0.139  1.00  0.00     0.097 A 
HETATM    7  O2  UNL     1       4.255   0.222  -0.089  1.00  0.00    -0.335 OA
HETATM    8  C12 UNL     1       2.329  -0.974   0.692  1.00  0.00     0.087 A 
HETATM    9  C13 UNL     1       1.550  -2.143   0.790  1.00  0.00     0.110 A 
HETATM   10  C14 UNL     1       2.151  -3.330   0.357  1.00  0.00     0.049 A 
HETATM   11  C15 UNL     1       3.455  -3.406  -0.155  1.00  0.00     0.094 A 
ENDROOT
BRANCH   9  12
HETATM   12  O4  UNL     1       0.255  -2.092   1.244  1.00  0.00    -0.276 OA
BRANCH  12  13
HETATM   13  C17 UNL     1      -0.233  -3.266   1.753  1.00  0.00     0.276 C 
HETATM   14  O5  UNL     1      -1.038  -4.082   2.147  1.00  0.00    -0.264 OA
BRANCH  13  15
HETATM   15  C18 UNL     1      -1.667  -2.376   1.517  1.00  0.00     0.096 C 
BRANCH  15  16
HETATM   16  C19 UNL     1      -1.877  -1.165   2.458  1.00  0.00     0.010 C 
BRANCH  16  17
HETATM   17  C20 UNL     1      -1.964  -1.535   3.948  1.00  0.00     0.001 C 
BRANCH  17  18
HETATM   18  C21 UNL     1      -1.614  -0.339   4.855  1.00  0.00     0.000 C 
BRANCH  18  19
HETATM   19  C22 UNL     1      -0.090  -0.163   4.982  1.00  0.00     0.000 C 
BRANCH  19  20
HETATM   20  C23 UNL     1       0.362   1.160   5.623  1.00  0.00     0.005 C 
BRANCH  20  21
HETATM   21  C24 UNL     1       0.284   2.380   4.688  1.00  0.00     0.026 C 
BRANCH  21  22
HETATM   22  C25 UNL     1      -1.067   3.050   4.676  1.00  0.00    -0.030 C 
HETATM   23  C26 UNL     1      -1.923   3.159   3.647  1.00  0.00    -0.026 C 
BRANCH  23  24
HETATM   24  C27 UNL     1      -1.766   2.586   2.261  1.00  0.00     0.051 C 
BRANCH  24  25
HETATM   25  C28 UNL     1      -1.675   3.655   1.203  1.00  0.00    -0.026 C 
HETATM   26  C29 UNL     1      -1.269   3.450  -0.061  1.00  0.00    -0.030 C 
BRANCH  26  27
HETATM   27  C30 UNL     1      -0.827   2.126  -0.636  1.00  0.00     0.026 C 
BRANCH  27  28
HETATM   28  C31 UNL     1      -1.316   1.917  -2.079  1.00  0.00     0.005 C 
BRANCH  28  29
HETATM   29  C32 UNL     1      -0.854   0.563  -2.642  1.00  0.00     0.000 C 
BRANCH  29  30
HETATM   30  C33 UNL     1      -1.362   0.282  -4.067  1.00  0.00     0.000 C 
HETATM   31  C34 UNL     1      -0.820   1.262  -5.115  1.00  0.00     0.000 C 
ENDBRANCH  29  30
ENDBRANCH  28  29
ENDBRANCH  27  28
ENDBRANCH  26  27
ENDBRANCH  24  25
ENDBRANCH  23  24
ENDBRANCH  21  22
ENDBRANCH  20  21
ENDBRANCH  19  20
ENDBRANCH  18  19
ENDBRANCH  17  18
ENDBRANCH  16  17
ENDBRANCH  15  16
ENDBRANCH  13  15
ENDBRANCH  12  13
ENDBRANCH   9  12
BRANCH   8  32
HETATM   32  C35 UNL     1       1.750   0.317   1.156  1.00  0.00     0.238 C 
HETATM   33  O6  UNL     1       2.399   1.298   1.493  1.00  0.00    -0.283 OA
ENDBRANCH   8  32
BRANCH  11  34
HETATM   34  O3  UNL     1       4.044  -4.557  -0.620  1.00  0.00    -0.328 OA
HETATM   35  C16 UNL     1       3.270  -5.730  -0.716  1.00  0.00     0.181 C 
ENDBRANCH  11  34
BRANCH   1  36
HETATM   36  C5  UNL     1       4.387   0.136  -2.497  1.00  0.00     0.097 C 
BRANCH  36  37
HETATM   37  C4  UNL     1       3.388   1.236  -2.845  1.00  0.00     0.175 C 
HETATM   38  O1  UNL     1       2.760   1.851  -1.996  1.00  0.00    -0.291 OA
BRANCH  37  39
HETATM   39  C3  UNL     1       3.299   1.652  -4.284  1.00  0.00     0.029 C 
HETATM   40  C1  UNL     1       3.028   0.821  -5.307  1.00  0.00    -0.041 C 
HETATM   41  C2  UNL     1       3.016   1.315  -6.734  1.00  0.00     0.026 C 
HETATM   42  C36 UNL     1       2.676  -0.638  -5.146  1.00  0.00     0.026 C 
ENDBRANCH  37  39
ENDBRANCH  36  37
ENDBRANCH   1  36
TORSDOF 21
