REMARK  5 active torsions:
REMARK  status: ('A' for Active; 'I' for Inactive)
REMARK    1  A    between atoms: C6_7  and  O7_46 
REMARK    2  A    between atoms: C7_8  and  O6_44 
REMARK    3  A    between atoms: C8_9  and  O5_42 
REMARK    4  A    between atoms: C11_13  and  O4_40 
REMARK    5  A    between atoms: C28_32  and  O3_38 
ROOT
HETATM    1  C1  UNL     1      -2.076   0.689   1.331  1.00  0.00     0.255 C 
HETATM    2  N1  UNL     1      -0.652   0.554   1.567  1.00  0.00     0.142 N 
HETATM    3  C2  UNL     1       0.029   0.050   0.379  1.00  0.00     0.248 C 
HETATM    4  C3  UNL     1      -0.086   1.080  -0.735  1.00  0.00     0.032 C 
HETATM    5  C4  UNL     1      -1.248   1.853  -0.829  1.00  0.00     0.004 C 
HETATM    6  C5  UNL     1      -2.346   1.697   0.203  1.00  0.00     0.064 C 
HETATM    7  C6  UNL     1      -1.376   2.829  -1.832  1.00  0.00     0.114 C 
HETATM    8  C7  UNL     1      -0.366   2.943  -2.807  1.00  0.00     0.140 C 
HETATM    9  C8  UNL     1       0.741   2.074  -2.781  1.00  0.00     0.141 C 
HETATM   10  C9  UNL     1       0.942   1.224  -1.680  1.00  0.00     0.122 C 
HETATM   11  O1  UNL     1       2.090   0.484  -1.595  1.00  0.00    -0.303 OA
HETATM   12  C10 UNL     1       3.186   1.012  -0.950  1.00  0.00     0.122 A 
HETATM   13  C11 UNL     1       3.236   2.259  -0.290  1.00  0.00     0.116 A 
HETATM   14  C12 UNL     1       4.434   2.605   0.349  1.00  0.00     0.022 A 
HETATM   15  C13 UNL     1       5.584   1.815   0.315  1.00  0.00    -0.018 A 
HETATM   16  C14 UNL     1       5.564   0.584  -0.342  1.00  0.00     0.005 A 
HETATM   17  C15 UNL     1       4.358   0.238  -0.963  1.00  0.00     0.027 A 
HETATM   18  C16 UNL     1       6.814  -0.298  -0.398  1.00  0.00     0.018 C 
HETATM   19  N2  UNL     1       7.848   0.025   0.607  1.00  0.00    -0.254 NA
HETATM   20  C17 UNL     1       7.451   0.973   1.636  1.00  0.00     0.081 C 
HETATM   21  C18 UNL     1       6.832   2.235   1.033  1.00  0.00     0.044 C 
HETATM   22  C19 UNL     1       8.504  -1.121   1.222  1.00  0.00     0.094 C 
HETATM   23  C20 UNL     1       6.527  -1.795  -0.676  1.00  0.00     0.064 C 
HETATM   24  C21 UNL     1       5.526  -2.514   0.206  1.00  0.00    -0.017 A 
HETATM   25  C22 UNL     1       5.047  -1.999   1.414  1.00  0.00    -0.002 A 
HETATM   26  C23 UNL     1       4.053  -2.653   2.142  1.00  0.00     0.024 A 
HETATM   27  C24 UNL     1       3.478  -3.846   1.688  1.00  0.00     0.100 A 
HETATM   28  C25 UNL     1       3.990  -4.385   0.502  1.00  0.00     0.024 A 
HETATM   29  C26 UNL     1       4.994  -3.737  -0.219  1.00  0.00    -0.002 A 
HETATM   30  O2  UNL     1       2.437  -4.428   2.352  1.00  0.00    -0.305 OA
HETATM   31  C27 UNL     1       1.186  -4.027   1.953  1.00  0.00     0.122 A 
HETATM   32  C28 UNL     1       0.062  -4.755   2.390  1.00  0.00     0.117 A 
HETATM   33  C29 UNL     1      -1.212  -4.280   2.055  1.00  0.00     0.026 A 
HETATM   34  C30 UNL     1      -1.403  -3.198   1.197  1.00  0.00    -0.002 A 
HETATM   35  C31 UNL     1      -0.298  -2.501   0.705  1.00  0.00    -0.018 A 
HETATM   36  C32 UNL     1      -0.448  -1.304  -0.204  1.00  0.00     0.064 C 
HETATM   37  C33 UNL     1       0.970  -2.934   1.099  1.00  0.00     0.022 A 
HETATM   38  C39 UNL     1      -0.381  -0.208   2.776  1.00  0.00     0.286 C 
ENDROOT
BRANCH   7  39
HETATM   39  O7  UNL     1      -2.545   3.537  -1.977  1.00  0.00    -0.326 OA
HETATM   40  C38 UNL     1      -2.575   4.780  -1.310  1.00  0.00     0.181 C 
ENDBRANCH   7  39
BRANCH   8  41
HETATM   41  O6  UNL     1      -0.550   3.780  -3.882  1.00  0.00    -0.324 OA
HETATM   42  C37 UNL     1       0.199   4.975  -3.846  1.00  0.00     0.182 C 
ENDBRANCH   8  41
BRANCH   9  43
HETATM   43  O5  UNL     1       1.741   2.209  -3.712  1.00  0.00    -0.324 OA
HETATM   44  C36 UNL     1       1.563   1.415  -4.861  1.00  0.00     0.182 C 
ENDBRANCH   9  43
BRANCH  13  45
HETATM   45  O4  UNL     1       2.149   3.087  -0.177  1.00  0.00    -0.326 OA
HETATM   46  C35 UNL     1       2.308   4.368  -0.745  1.00  0.00     0.181 C 
ENDBRANCH  13  45
BRANCH  32  47
HETATM   47  O3  UNL     1       0.202  -5.772   3.297  1.00  0.00    -0.326 OA
HETATM   48  C34 UNL     1       0.290  -7.046   2.701  1.00  0.00     0.181 C 
ENDBRANCH  32  47
TORSDOF 5
