REMARK  2 active torsions:
REMARK  status: ('A' for Active; 'I' for Inactive)
REMARK    1  A    between atoms: C6_6  and  O1_7 
REMARK    2  A    between atoms: N1_16  and  C15_18 
ROOT
HETATM    1  C1  UNL     1      -1.966   1.691   1.325  1.00  0.00     0.030 C 
HETATM    2  C2  UNL     1      -2.477   0.286   1.657  1.00  0.00     0.004 C 
HETATM    3  C3  UNL     1      -1.343  -0.766   1.756  1.00  0.00     0.034 C 
HETATM    4  C4  UNL     1       0.042  -0.067   1.707  1.00  0.00     0.037 C 
HETATM    5  C5  UNL     1       0.172   0.737   0.361  1.00  0.00     0.058 C 
HETATM    6  C6  UNL     1      -1.085   1.625   0.076  1.00  0.00     0.117 C 
HETATM    7  C8  UNL     1       1.426   1.683   0.317  1.00  0.00     0.018 C 
HETATM    8  C9  UNL     1       2.774   1.041   0.654  1.00  0.00     0.115 C 
HETATM    9  C10 UNL     1       2.925  -0.362   0.075  1.00  0.00     0.140 C 
HETATM   10  C11 UNL     1       1.619  -1.156   0.250  1.00  0.00     0.090 C 
HETATM   11  C12 UNL     1       1.118  -1.164   1.696  1.00  0.00     0.157 C 
HETATM   12  O2  UNL     1       2.082  -0.970   2.701  1.00  0.00    -0.223 OA
HETATM   13  C13 UNL     1       0.429  -0.510  -0.516  1.00  0.00     0.226 C 
HETATM   14  N1  UNL     1      -0.813  -1.274  -0.653  1.00  0.00     0.135 N 
HETATM   15  C14 UNL     1      -1.378  -1.791   0.585  1.00  0.00     0.250 C 
HETATM   16  O3  UNL     1       3.932  -0.992   0.840  1.00  0.00    -0.225 OA
HETATM   17  C17 UNL     1       3.459  -0.348  -1.370  1.00  0.00     0.034 C 
HETATM   18  C18 UNL     1       3.043   0.796  -2.314  1.00  0.00     0.033 C 
HETATM   19  C19 UNL     1       2.952   2.199  -1.700  1.00  0.00     0.124 C 
HETATM   20  O4  UNL     1       4.040   2.437  -0.866  1.00  0.00    -0.304 OA
HETATM   21  C20 UNL     1       4.043   1.807   0.331  1.00  0.00     0.274 C 
HETATM   22  O5  UNL     1       5.013   1.732   1.054  1.00  0.00    -0.264 OA
HETATM   23  C21 UNL     1       1.634   2.479  -0.983  1.00  0.00     0.031 C 
HETATM   24  C22 UNL     1      -1.569  -1.516   3.093  1.00  0.00     0.002 C 
ENDROOT
BRANCH   6  25
HETATM   25  O1  UNL     1      -1.947   1.228  -0.963  1.00  0.00    -0.354 OA
HETATM   26  C7  UNL     1      -1.578   1.621  -2.265  1.00  0.00     0.174 C 
ENDBRANCH   6  25
BRANCH  14  27
HETATM   27  C15 UNL     1      -0.823  -2.244  -1.744  1.00  0.00     0.250 C 
HETATM   28  C16 UNL     1       0.231  -3.357  -1.738  1.00  0.00     0.037 C 
ENDBRANCH  14  27
TORSDOF 2
