REMARK  2 active torsions:
REMARK  status: ('A' for Active; 'I' for Inactive)
REMARK    1  A    between atoms: C10_10  and  C14_15 
REMARK    2  A    between atoms: C11_11  and  C13_13 
ROOT
HETATM    1  C1  UNL     1       0.679  -0.726  -0.441  1.00  0.00     0.022 C 
HETATM    2  C2  UNL     1       0.566   0.802  -0.407  1.00  0.00     0.008 C 
HETATM    3  C3  UNL     1      -0.641   1.152  -1.306  1.00  0.00     0.001 C 
HETATM    4  C4  UNL     1      -1.161  -0.165  -1.921  1.00  0.00     0.000 C 
HETATM    5  C5  UNL     1       0.048  -1.108  -1.788  1.00  0.00     0.004 C 
HETATM    6  C6  UNL     1      -1.582   0.008  -3.391  1.00  0.00     0.000 C 
HETATM    7  C7  UNL     1      -2.365  -0.696  -1.117  1.00  0.00     0.000 C 
HETATM    8  C8  UNL     1       0.451   1.320   1.029  1.00  0.00     0.022 C 
HETATM    9  C9  UNL     1       1.466   0.793   2.021  1.00  0.00    -0.028 C 
HETATM   10  C10 UNL     1       2.513  -0.058   1.910  1.00  0.00     0.004 C 
HETATM   11  C11 UNL     1       2.945  -0.788   0.694  1.00  0.00     0.004 C 
HETATM   12  C12 UNL     1       2.116  -1.131  -0.313  1.00  0.00    -0.028 C 
HETATM   13  C15 UNL     1       0.490   2.861   1.060  1.00  0.00     0.005 C 
ENDROOT
BRANCH  11  14
HETATM   14  C13 UNL     1       4.382  -1.261   0.565  1.00  0.00     0.208 C 
HETATM   15  O1  UNL     1       4.922  -0.954  -0.715  1.00  0.00    -0.215 OA
ENDBRANCH  11  14
BRANCH  10  16
HETATM   16  C14 UNL     1       3.309  -0.293   3.188  1.00  0.00     0.208 C 
HETATM   17  O2  UNL     1       3.656  -1.662   3.363  1.00  0.00    -0.215 OA
ENDBRANCH  10  16
TORSDOF 2
