REMARK  3 active torsions:
REMARK  status: ('A' for Active; 'I' for Inactive)
REMARK    1  A    between atoms: C1_1  and  C4_5 
REMARK    2  A    between atoms: C2_2  and  C3_3 
REMARK    3  A    between atoms: C4_5  and  C5_6 
ROOT
HETATM    1  C1  UNL     1       0.483   0.105  -0.615  1.00  0.00    -0.028 C 
HETATM    2  C2  UNL     1       1.665  -0.031   0.005  1.00  0.00     0.004 C 
ENDROOT
BRANCH   1   3
HETATM    3  C4  UNL     1      -0.352   1.360  -0.570  1.00  0.00     0.026 C 
BRANCH   3   4
HETATM    4  C5  UNL     1      -1.815   1.058  -0.207  1.00  0.00     0.005 C 
HETATM    5  C6  UNL     1      -1.958   0.400   1.172  1.00  0.00     0.000 C 
ENDBRANCH   3   4
ENDBRANCH   1   3
BRANCH   2   6
HETATM    6  C3  UNL     1       2.509  -1.279  -0.025  1.00  0.00     0.208 C 
HETATM    7  O1  UNL     1       1.786  -2.426  -0.452  1.00  0.00    -0.215 OA
ENDBRANCH   2   6
TORSDOF 3
