REMARK  10 active torsions:
REMARK  status: ('A' for Active; 'I' for Inactive)
REMARK    1  A    between atoms: O1_1  and  C1_2 
REMARK    2  A    between atoms: O1_1  and  C7_8 
REMARK    3  A    between atoms: C1_2  and  C2_3 
REMARK    4  A    between atoms: C2_3  and  C3_4 
REMARK    5  A    between atoms: C3_4  and  C4_5 
REMARK    6  A    between atoms: C4_5  and  C5_6 
REMARK    7  A    between atoms: C8_10  and  C18_28 
REMARK    8  A    between atoms: C11_13  and  O3_14 
REMARK    9  A    between atoms: O3_14  and  C12_15 
REMARK   10  A    between atoms: C13_17  and  C17_24 
ROOT
HETATM    1  C7  UNL     1       3.754  -0.983   0.497  1.00  0.00     0.267 C 
HETATM    2  O2  UNL     1       5.101  -1.062   0.068  1.00  0.00    -0.326 OA
HETATM    3  C8  UNL     1       5.904  -1.882   0.872  1.00  0.00     0.184 C 
HETATM    4  C9  UNL     1       5.369  -3.304   0.815  1.00  0.00     0.215 C 
HETATM    5  C10 UNL     1       3.945  -3.308   1.319  1.00  0.00     0.217 C 
HETATM    6  C11 UNL     1       3.092  -2.356   0.494  1.00  0.00     0.207 C 
HETATM    7  O9  UNL     1       3.430  -4.613   1.235  1.00  0.00    -0.218 OA
HETATM    8  O10 UNL     1       6.119  -4.167   1.635  1.00  0.00    -0.218 OA
ENDROOT
BRANCH   6   9
HETATM    9  O3  UNL     1       1.825  -2.394   1.096  1.00  0.00    -0.324 OA
BRANCH   9  10
HETATM   10  C12 UNL     1       0.782  -1.716   0.428  1.00  0.00     0.270 C 
HETATM   11  O4  UNL     1       0.574  -0.549   1.199  1.00  0.00    -0.326 OA
HETATM   12  C13 UNL     1      -0.492   0.240   0.739  1.00  0.00     0.184 C 
HETATM   13  C14 UNL     1      -1.788  -0.562   0.743  1.00  0.00     0.215 C 
HETATM   14  C15 UNL     1      -1.625  -1.819  -0.084  1.00  0.00     0.220 C 
HETATM   15  O7  UNL     1      -2.848   0.179   0.188  1.00  0.00    -0.218 OA
HETATM   16  C16 UNL     1      -0.449  -2.592   0.465  1.00  0.00     0.241 C 
HETATM   17  O6  UNL     1      -2.789  -2.599   0.007  1.00  0.00    -0.218 OA
HETATM   18  O5  UNL     1      -0.242  -3.726  -0.339  1.00  0.00    -0.215 OA
BRANCH  12  19
HETATM   19  C17 UNL     1      -0.608   1.462   1.640  1.00  0.00     0.214 C 
HETATM   20  O8  UNL     1       0.589   2.211   1.596  1.00  0.00    -0.218 OA
ENDBRANCH  12  19
ENDBRANCH   9  10
ENDBRANCH   6   9
BRANCH   1  21
HETATM   21  O1  UNL     1       3.162  -0.187  -0.509  1.00  0.00    -0.329 OA
BRANCH  21  22
HETATM   22  C1  UNL     1       3.342   1.197  -0.349  1.00  0.00     0.145 C 
BRANCH  22  23
HETATM   23  C2  UNL     1       2.511   1.893  -1.428  1.00  0.00     0.032 C 
BRANCH  23  24
HETATM   24  C3  UNL     1       2.377   3.411  -1.224  1.00  0.00     0.003 C 
BRANCH  24  25
HETATM   25  C4  UNL     1       1.304   4.002  -2.155  1.00  0.00     0.000 C 
BRANCH  25  26
HETATM   26  C5  UNL     1       1.034   5.489  -1.881  1.00  0.00     0.000 C 
HETATM   27  C6  UNL     1      -0.079   6.036  -2.786  1.00  0.00     0.000 C 
ENDBRANCH  25  26
ENDBRANCH  24  25
ENDBRANCH  23  24
ENDBRANCH  22  23
ENDBRANCH  21  22
ENDBRANCH   1  21
BRANCH   3  28
HETATM   28  C18 UNL     1       7.337  -1.810   0.362  1.00  0.00     0.214 C 
HETATM   29  O11 UNL     1       7.848  -0.505   0.548  1.00  0.00    -0.218 OA
ENDBRANCH   3  28
TORSDOF 10
