REMARK  0 active torsions:
REMARK  status: ('A' for Active; 'I' for Inactive)
ROOT
HETATM    1  C1  UNL     1      -0.829   1.122   0.660  1.00  0.00     0.022 C 
HETATM    2  C2  UNL     1      -1.166  -0.250   0.123  1.00  0.00    -0.048 C 
HETATM    3  C3  UNL     1      -0.244  -1.052  -0.435  1.00  0.00    -0.035 C 
HETATM    4  C4  UNL     1       1.225  -0.695  -0.523  1.00  0.00     0.024 C 
HETATM    5  C5  UNL     1       1.299   0.846  -0.656  1.00  0.00     0.032 C 
HETATM    6  C6  UNL     1       0.661   1.497   0.578  1.00  0.00     0.007 C 
HETATM    7  C7  UNL     1       2.613   1.456  -1.180  1.00  0.00     0.127 C 
HETATM    8  C8  UNL     1       3.816   1.316  -0.250  1.00  0.00     0.030 C 
HETATM    9  C9  UNL     1       4.212  -0.127   0.087  1.00  0.00     0.003 C 
HETATM   10  C10 UNL     1       3.281  -0.767   1.120  1.00  0.00     0.000 C 
HETATM   11  C11 UNL     1       2.007  -1.462   0.588  1.00  0.00     0.004 C 
HETATM   12  C12 UNL     1       2.416  -2.844   0.008  1.00  0.00     0.000 C 
HETATM   13  C13 UNL     1       1.135  -1.778   1.834  1.00  0.00     0.000 C 
HETATM   14  C14 UNL     1       2.446   2.944  -1.536  1.00  0.00     0.033 C 
HETATM   15  O1  UNL     1       2.934   0.814  -2.392  1.00  0.00    -0.226 OA
HETATM   16  C15 UNL     1      -2.616  -0.656   0.219  1.00  0.00     0.026 C 
ENDROOT
TORSDOF 0
