REMARK  0 active torsions:
REMARK  status: ('A' for Active; 'I' for Inactive)
ROOT
HETATM    1  C1  UNL     1      -0.685  -0.751  -1.128  1.00  0.00     0.119 A 
HETATM    2  C2  UNL     1      -0.678  -2.083  -0.724  1.00  0.00     0.119 A 
HETATM    3  C3  UNL     1       0.498  -2.726  -0.347  1.00  0.00     0.031 A 
HETATM    4  C4  UNL     1       1.674  -1.958  -0.377  1.00  0.00     0.061 A 
HETATM    5  C5  UNL     1       1.669  -0.602  -0.746  1.00  0.00    -0.011 A 
HETATM    6  C6  UNL     1       0.480   0.014  -1.153  1.00  0.00     0.022 A 
HETATM    7  C7  UNL     1       2.970   0.153  -0.664  1.00  0.00     0.088 C 
HETATM    8  C8  UNL     1       4.089  -0.782  -1.150  1.00  0.00     0.165 C 
HETATM    9  O1  UNL     1       4.172  -1.947  -0.377  1.00  0.00    -0.298 OA
HETATM   10  C9  UNL     1       2.994  -2.548  -0.036  1.00  0.00     0.296 C 
HETATM   11  O2  UNL     1       3.012  -3.616   0.574  1.00  0.00    -0.259 OA
HETATM   12  C10 UNL     1       5.455  -0.098  -1.186  1.00  0.00     0.202 C 
HETATM   13  C11 UNL     1       5.652   0.935  -0.112  1.00  0.00     0.002 C 
HETATM   14  C12 UNL     1       4.674   1.278   0.733  1.00  0.00    -0.013 C 
HETATM   15  C13 UNL     1       3.314   0.643   0.757  1.00  0.00     0.244 C 
HETATM   16  N1  UNL     1       2.454   1.657   1.347  1.00  0.00     0.142 N 
HETATM   17  C14 UNL     1       3.305   2.325   2.329  1.00  0.00     0.255 C 
HETATM   18  C15 UNL     1       4.702   2.433   1.692  1.00  0.00     0.059 C 
HETATM   19  C16 UNL     1       1.241   1.159   1.972  1.00  0.00     0.286 C 
HETATM   20  O3  UNL     1       5.596   0.557  -2.435  1.00  0.00    -0.216 OA
HETATM   21  O4  UNL     1      -1.966  -2.581  -0.791  1.00  0.00    -0.300 OA
HETATM   22  C17 UNL     1      -2.819  -1.521  -1.240  1.00  0.00     0.304 A 
HETATM   23  O5  UNL     1      -1.975  -0.382  -1.448  1.00  0.00    -0.300 OA
ENDROOT
TORSDOF 0
