REMARK  2 active torsions:
REMARK  status: ('A' for Active; 'I' for Inactive)
REMARK    1  A    between atoms: C2_2  and  N1_22 
REMARK    2  A    between atoms: C15_15  and  C18_19 
ROOT
HETATM    1  C1  UNL     1      -0.739   0.229   0.987  1.00  0.00     0.025 C 
HETATM    2  C2  UNL     1      -0.752  -1.310   1.043  1.00  0.00     0.102 C 
HETATM    3  C3  UNL     1       0.093  -1.892  -0.102  1.00  0.00     0.045 C 
HETATM    4  C4  UNL     1       1.482  -1.291  -0.047  1.00  0.00    -0.047 C 
HETATM    5  C5  UNL     1       1.569   0.225  -0.162  1.00  0.00     0.015 C 
HETATM    6  C6  UNL     1       0.688   0.804   0.966  1.00  0.00     0.006 C 
HETATM    7  C7  UNL     1       3.046   0.707  -0.067  1.00  0.00     0.004 C 
HETATM    8  C8  UNL     1       3.898  -0.107   0.927  1.00  0.00     0.005 C 
HETATM    9  C9  UNL     1       3.945  -1.555   0.415  1.00  0.00     0.025 C 
HETATM   10  C10 UNL     1       2.552  -2.072   0.176  1.00  0.00    -0.035 C 
HETATM   11  C11 UNL     1       5.253   0.566   1.281  1.00  0.00     0.008 C 
HETATM   12  C12 UNL     1       5.729   1.640   0.278  1.00  0.00     0.007 C 
HETATM   13  C13 UNL     1       4.651   2.629  -0.185  1.00  0.00     0.000 C 
HETATM   14  C14 UNL     1       3.235   2.203   0.222  1.00  0.00     0.000 C 
HETATM   15  C15 UNL     1       6.429   0.840  -0.841  1.00  0.00     0.058 C 
HETATM   16  C16 UNL     1       7.002  -0.355  -0.092  1.00  0.00     0.150 C 
HETATM   17  C17 UNL     1       6.478  -0.366   1.332  1.00  0.00     0.065 C 
HETATM   18  O1  UNL     1       7.768  -1.173  -0.544  1.00  0.00    -0.296 OA
HETATM   19  C20 UNL     1       1.033   0.657  -1.551  1.00  0.00     0.004 C 
ENDROOT
BRANCH   2  20
HETATM   20  N1  UNL     1      -2.150  -1.757   0.995  1.00  0.00    -0.295 NA
HETATM   21  C21 UNL     1      -2.350  -3.196   1.147  1.00  0.00     0.145 C 
ENDBRANCH   2  20
BRANCH  15  22
HETATM   22  C18 UNL     1       7.472   1.652  -1.624  1.00  0.00     0.007 C 
HETATM   23  C19 UNL     1       7.880   0.998  -2.951  1.00  0.00     0.000 C 
ENDBRANCH  15  22
TORSDOF 2
