REMARK  3 active torsions:
REMARK  status: ('A' for Active; 'I' for Inactive)
REMARK    1  A    between atoms: C2_2  and  O3_24 
REMARK    2  A    between atoms: O3_24  and  C22_25 
REMARK    3  A    between atoms: C25_29  and  O5_31 
ROOT
HETATM    1  C1  UNL     1       2.453   0.242  -2.178  1.00  0.00     0.030 C 
HETATM    2  C2  UNL     1       1.763  -0.621  -1.123  1.00  0.00     0.118 C 
HETATM    3  C3  UNL     1       2.805  -1.473  -0.381  1.00  0.00     0.030 C 
HETATM    4  C4  UNL     1       4.265  -1.018  -0.589  1.00  0.00     0.002 C 
HETATM    5  C5  UNL     1       4.457   0.518  -0.512  1.00  0.00     0.000 C 
HETATM    6  C6  UNL     1       3.532   1.165  -1.584  1.00  0.00     0.003 C 
HETATM    7  C7  UNL     1       5.954   0.851  -0.812  1.00  0.00     0.002 C 
HETATM    8  C8  UNL     1       6.946   0.052   0.075  1.00  0.00     0.025 C 
HETATM    9  C9  UNL     1       6.673  -1.460   0.028  1.00  0.00     0.002 C 
HETATM   10  C10 UNL     1       5.210  -1.780   0.355  1.00  0.00     0.000 C 
HETATM   11  C11 UNL     1       8.377   0.365  -0.351  1.00  0.00     0.095 C 
HETATM   12  C12 UNL     1       8.709   1.858  -0.292  1.00  0.00     0.032 C 
HETATM   13  C13 UNL     1       7.739   2.747  -1.057  1.00  0.00     0.032 C 
HETATM   14  C14 UNL     1       6.283   2.358  -0.743  1.00  0.00     0.003 C 
HETATM   15  C15 UNL     1       8.148   2.858  -2.523  1.00  0.00     0.145 C 
HETATM   16  O1  UNL     1       8.649   1.671  -3.076  1.00  0.00    -0.335 OA
HETATM   17  C16 UNL     1       9.465   0.888  -2.228  1.00  0.00     0.187 C 
HETATM   18  C17 UNL     1      10.034   1.622  -1.018  1.00  0.00     0.054 C 
HETATM   19  C18 UNL     1      10.715   0.648  -0.030  1.00  0.00     0.007 C 
HETATM   20  C19 UNL     1       9.538  -0.225   0.463  1.00  0.00     0.028 C 
HETATM   21  C20 UNL     1      10.482   0.170  -3.098  1.00  0.00     0.061 C 
HETATM   22  O2  UNL     1       8.582  -0.046  -1.667  1.00  0.00    -0.340 OA
HETATM   23  C21 UNL     1       4.073   1.059   0.887  1.00  0.00     0.000 C 
ENDROOT
BRANCH   2  24
HETATM   24  O3  UNL     1       1.060   0.222  -0.251  1.00  0.00    -0.333 OA
BRANCH  24  25
HETATM   25  C22 UNL     1       0.157  -0.452   0.608  1.00  0.00     0.238 C 
HETATM   26  O4  UNL     1      -1.115  -0.016   0.178  1.00  0.00    -0.331 OA
HETATM   27  C23 UNL     1      -2.160  -0.570   0.931  1.00  0.00     0.157 C 
HETATM   28  C24 UNL     1      -2.020  -0.205   2.415  1.00  0.00     0.355 C 
HETATM   29  C28 UNL     1      -3.480  -0.059   0.349  1.00  0.00     0.035 C 
HETATM   30  C25 UNL     1      -0.656  -0.632   2.966  1.00  0.00     0.160 C 
HETATM   31  N1  UNL     1      -3.076  -0.854   3.213  1.00  0.00     0.621 N 
HETATM   32  C26 UNL     1       0.403  -0.029   2.047  1.00  0.00     0.093 C 
BRANCH  30  33
HETATM   33  O5  UNL     1      -0.620  -2.034   2.997  1.00  0.00    -0.352 OA
HETATM   34  C27 UNL     1       0.528  -2.572   3.616  1.00  0.00     0.174 C 
ENDBRANCH  30  33
ENDBRANCH  24  25
ENDBRANCH   2  24
TORSDOF 3
