REMARK  3 active torsions:
REMARK  status: ('A' for Active; 'I' for Inactive)
REMARK    1  A    between atoms: C2_2  and  O3_24 
REMARK    2  A    between atoms: O3_24  and  C22_25 
REMARK    3  A    between atoms: C24_27  and  O5_33 
ROOT
HETATM    1  C1  UNL     1       1.569  -0.964  -2.812  1.00  0.00     0.030 C 
HETATM    2  C2  UNL     1       0.824  -1.653  -1.671  1.00  0.00     0.118 C 
HETATM    3  C3  UNL     1       1.822  -2.486  -0.856  1.00  0.00     0.030 C 
HETATM    4  C4  UNL     1       3.285  -1.986  -0.920  1.00  0.00     0.002 C 
HETATM    5  C5  UNL     1       3.429  -0.446  -1.036  1.00  0.00     0.000 C 
HETATM    6  C6  UNL     1       2.692  -0.023  -2.341  1.00  0.00     0.003 C 
HETATM    7  C7  UNL     1       4.947  -0.086  -1.139  1.00  0.00     0.002 C 
HETATM    8  C8  UNL     1       5.764  -0.680   0.039  1.00  0.00     0.025 C 
HETATM    9  C9  UNL     1       5.599  -2.205   0.098  1.00  0.00     0.002 C 
HETATM   10  C10 UNL     1       4.116  -2.577   0.233  1.00  0.00     0.000 C 
HETATM   11  C11 UNL     1       7.226  -0.243   0.020  1.00  0.00     0.097 C 
HETATM   12  C12 UNL     1       7.384   1.268  -0.175  1.00  0.00     0.055 C 
HETATM   13  C13 UNL     1       6.693   1.776  -1.434  1.00  0.00     0.005 C 
HETATM   14  C14 UNL     1       5.199   1.426  -1.345  1.00  0.00     0.000 C 
HETATM   15  C15 UNL     1       8.909   1.155  -0.100  1.00  0.00     0.056 C 
HETATM   16  C16 UNL     1       9.326   0.056  -1.083  1.00  0.00     0.007 C 
HETATM   17  C17 UNL     1       8.120  -0.896  -1.045  1.00  0.00     0.028 C 
HETATM   18  C18 UNL     1       8.754   0.643   1.330  1.00  0.00     0.187 C 
HETATM   19  O1  UNL     1       8.028   1.632   2.017  1.00  0.00    -0.335 OA
HETATM   20  C19 UNL     1       7.068   2.067   1.089  1.00  0.00     0.147 C 
HETATM   21  O2  UNL     1       7.865  -0.450   1.245  1.00  0.00    -0.340 OA
HETATM   22  C20 UNL     1      10.010   0.287   2.091  1.00  0.00     0.061 C 
HETATM   23  C21 UNL     1       2.813   0.275   0.192  1.00  0.00     0.000 C 
ENDROOT
BRANCH   2  24
HETATM   24  O3  UNL     1       0.188  -0.680  -0.888  1.00  0.00    -0.333 OA
BRANCH  24  25
HETATM   25  C22 UNL     1      -0.870  -1.157  -0.076  1.00  0.00     0.238 C 
HETATM   26  C23 UNL     1      -0.632  -0.900   1.404  1.00  0.00     0.093 C 
HETATM   27  C24 UNL     1      -0.610   0.593   1.717  1.00  0.00     0.160 C 
HETATM   28  C25 UNL     1      -1.917   1.181   1.188  1.00  0.00     0.355 C 
HETATM   29  C26 UNL     1      -2.080   0.864  -0.301  1.00  0.00     0.157 C 
HETATM   30  N1  UNL     1      -1.909   2.635   1.425  1.00  0.00     0.621 N 
HETATM   31  O4  UNL     1      -2.046  -0.520  -0.533  1.00  0.00    -0.331 OA
HETATM   32  C27 UNL     1      -3.403   1.398  -0.854  1.00  0.00     0.035 C 
BRANCH  27  33
HETATM   33  O5  UNL     1      -0.525   0.842   3.095  1.00  0.00    -0.352 OA
HETATM   34  C28 UNL     1       0.770   0.647   3.622  1.00  0.00     0.174 C 
ENDBRANCH  27  33
ENDBRANCH  24  25
ENDBRANCH   2  24
TORSDOF 3
