REMARK  8 active torsions:
REMARK  status: ('A' for Active; 'I' for Inactive)
REMARK    1  A    between atoms: C1_1  and  C2_2 
REMARK    2  A    between atoms: C1_1  and  N2_12 
REMARK    3  A    between atoms: C1_1  and  C13_15 
REMARK    4  A    between atoms: C2_2  and  C3_3 
REMARK       I    between atoms: C13_15  and  N3_17 
REMARK    5  A    between atoms: N3_17  and  C14_18 
REMARK    6  A    between atoms: C15_19  and  C31_40 
REMARK    7  A    between atoms: C25_31  and  C27_35 
REMARK    8  A    between atoms: C27_35  and  C28_36 
ROOT
HETATM    1  C14 UNL     1       0.314  -1.959   0.106  1.00  0.00     0.214 C 
HETATM    2  C15 UNL     1       0.834  -3.094  -0.838  1.00  0.00     0.153 C 
HETATM    3  O2  UNL     1       1.973  -3.793  -0.289  1.00  0.00    -0.331 OA
HETATM    4  C16 UNL     1       3.168  -3.229  -0.281  1.00  0.00     0.094 C 
HETATM    5  C17 UNL     1       3.736  -2.803   0.934  1.00  0.00     0.024 C 
HETATM    6  C18 UNL     1       4.834  -1.926   0.918  1.00  0.00     0.002 C 
HETATM    7  C19 UNL     1       5.311  -1.471  -0.324  1.00  0.00     0.002 C 
HETATM    8  C20 UNL     1       4.971  -2.148  -1.506  1.00  0.00     0.002 C 
HETATM    9  C21 UNL     1       3.877  -3.023  -1.482  1.00  0.00     0.024 C 
HETATM   10  C22 UNL     1       6.041  -0.166  -0.418  1.00  0.00     0.021 C 
HETATM   11  C23 UNL     1       5.289   0.959  -0.588  1.00  0.00     0.102 C 
HETATM   12  N4  UNL     1       3.897   0.926  -0.639  1.00  0.00    -0.209 NA
HETATM   13  C24 UNL     1       3.025   1.969  -0.803  1.00  0.00     0.278 C 
HETATM   14  C25 UNL     1       1.510   1.731  -0.783  1.00  0.00     0.186 C 
HETATM   15  N5  UNL     1       0.969   0.320  -0.869  1.00  0.00    -0.229 NA
HETATM   16  C26 UNL     1       1.031  -0.603   0.168  1.00  0.00     0.277 C 
HETATM   17  O3  UNL     1       1.645  -0.324   1.172  1.00  0.00    -0.268 OA
HETATM   18  O4  UNL     1       3.449   3.090  -0.959  1.00  0.00    -0.268 OA
ENDROOT
BRANCH   1  19
HETATM   19  N3  UNL     1      -1.135  -1.746  -0.107  1.00  0.00    -0.226 NA
HETATM   20  C13 UNL     1      -1.883  -1.182   0.887  1.00  0.00     0.284 C 
HETATM   21  O1  UNL     1      -1.365  -0.859   1.932  1.00  0.00    -0.268 OA
BRANCH  20  22
HETATM   22  C1  UNL     1      -3.355  -0.975   0.654  1.00  0.00     0.303 C 
BRANCH  22  23
HETATM   23  C2  UNL     1      -3.840   0.383   1.166  1.00  0.00     0.071 C 
BRANCH  23  24
HETATM   24  C3  UNL     1      -3.576   1.479   0.150  1.00  0.00     0.001 A 
HETATM   25  C4  UNL     1      -3.346   1.307  -1.227  1.00  0.00     0.095 A 
HETATM   26  N1  UNL     1      -3.147   2.586  -1.805  1.00  0.00    -0.244 NA
HETATM   27  C5  UNL     1      -3.258   3.516  -0.783  1.00  0.00     0.081 A 
HETATM   28  C6  UNL     1      -3.514   2.813   0.367  1.00  0.00     0.015 A 
HETATM   29  C10 UNL     1      -3.150   4.926  -0.781  1.00  0.00     0.019 A 
HETATM   30  C7  UNL     1      -3.686   3.473   1.609  1.00  0.00     0.001 A 
HETATM   31  C8  UNL     1      -3.584   4.887   1.643  1.00  0.00     0.000 A 
HETATM   32  C9  UNL     1      -3.316   5.613   0.449  1.00  0.00     0.002 A 
ENDBRANCH  23  24
ENDBRANCH  22  23
BRANCH  22  33
HETATM   33  N2  UNL     1      -4.115  -2.049   1.266  1.00  0.00     0.149 N 
HETATM   34  C11 UNL     1      -3.840  -3.311   0.602  1.00  0.00     0.286 C 
HETATM   35  C12 UNL     1      -3.813  -2.145   2.684  1.00  0.00     0.286 C 
ENDBRANCH  22  33
ENDBRANCH  20  22
ENDBRANCH   1  19
BRANCH   2  36
HETATM   36  C31 UNL     1       1.047  -2.645  -2.293  1.00  0.00     0.030 C 
HETATM   37  C32 UNL     1       1.604  -3.760  -3.178  1.00  0.00     0.003 C 
HETATM   38  C33 UNL     1      -0.193  -1.980  -2.893  1.00  0.00     0.003 C 
ENDBRANCH   2  36
BRANCH  14  39
HETATM   39  C27 UNL     1       0.895   2.447   0.424  1.00  0.00     0.032 C 
HETATM   40  C30 UNL     1      -0.471   1.879   0.815  1.00  0.00     0.003 C 
BRANCH  39  41
HETATM   41  C28 UNL     1       1.856   2.539   1.609  1.00  0.00     0.002 C 
HETATM   42  C29 UNL     1       1.180   3.053   2.879  1.00  0.00     0.000 C 
ENDBRANCH  39  41
ENDBRANCH  14  39
TORSDOF 8
