REMARK  3 active torsions:
REMARK  status: ('A' for Active; 'I' for Inactive)
REMARK    1  A    between atoms: C2_2  and  O2_9 
REMARK    2  A    between atoms: O2_9  and  C8_10 
REMARK    3  A    between atoms: C9_12  and  C13_19 
ROOT
HETATM    1  C8  UNL     1       3.148  -0.037  -0.030  1.00  0.00     0.274 C 
HETATM    2  O3  UNL     1       3.930   0.068   1.142  1.00  0.00    -0.326 OA
HETATM    3  C9  UNL     1       4.636  -1.113   1.431  1.00  0.00     0.184 C 
HETATM    4  C10 UNL     1       5.580  -1.444   0.281  1.00  0.00     0.215 C 
HETATM    5  C11 UNL     1       4.797  -1.587  -1.009  1.00  0.00     0.220 C 
HETATM    6  C12 UNL     1       4.023  -0.308  -1.231  1.00  0.00     0.241 C 
HETATM    7  O4  UNL     1       3.204  -0.441  -2.365  1.00  0.00    -0.215 OA
HETATM    8  O5  UNL     1       5.686  -1.802  -2.075  1.00  0.00    -0.218 OA
HETATM    9  O6  UNL     1       6.254  -2.658   0.507  1.00  0.00    -0.218 OA
ENDROOT
BRANCH   1  10
HETATM   10  O2  UNL     1       2.574   1.244  -0.184  1.00  0.00    -0.304 OA
BRANCH  10  11
HETATM   11  C2  UNL     1       1.221   1.427  -0.316  1.00  0.00     0.097 A 
HETATM   12  C1  UNL     1       0.778   2.679  -0.764  1.00  0.00     0.026 A 
HETATM   13  C6  UNL     1      -0.571   2.982  -0.937  1.00  0.00     0.029 A 
HETATM   14  C5  UNL     1      -1.565   2.032  -0.691  1.00  0.00     0.127 A 
HETATM   15  C4  UNL     1      -1.155   0.758  -0.274  1.00  0.00     0.005 A 
HETATM   16  O1  UNL     1      -2.874   2.357  -0.863  1.00  0.00    -0.191 OA
HETATM   17  C3  UNL     1       0.207   0.481  -0.101  1.00  0.00     0.022 A 
HETATM   18  C7  UNL     1      -2.163  -0.332   0.004  1.00  0.00     0.033 C 
ENDBRANCH  10  11
ENDBRANCH   1  10
BRANCH   3  19
HETATM   19  C13 UNL     1       5.383  -0.914   2.742  1.00  0.00     0.214 C 
HETATM   20  O7  UNL     1       4.460  -0.808   3.808  1.00  0.00    -0.218 OA
ENDBRANCH   3  19
TORSDOF 3
