REMARK  7 active torsions:
REMARK  status: ('A' for Active; 'I' for Inactive)
REMARK    1  A    between atoms: C1_1  and  C26_37 
REMARK    2  A    between atoms: C5_5  and  O2_7 
REMARK    3  A    between atoms: O2_7  and  C6_8 
REMARK    4  A    between atoms: C7_9  and  C21_28 
REMARK    5  A    between atoms: C14_17  and  C15_19 
REMARK    6  A    between atoms: C21_28  and  C22_29 
REMARK    7  A    between atoms: C22_29  and  C23_30 
ROOT
HETATM    1  C6  UNL     1      -1.463  -1.557  -0.100  1.00  0.00     0.097 A 
HETATM    2  C7  UNL     1      -0.326  -0.781  -0.440  1.00  0.00     0.023 A 
HETATM    3  C8  UNL     1       0.975  -1.311  -0.248  1.00  0.00     0.103 A 
HETATM    4  C9  UNL     1       1.133  -2.617   0.281  1.00  0.00     0.089 A 
HETATM    5  C10 UNL     1      -0.004  -3.395   0.621  1.00  0.00     0.138 A 
HETATM    6  C11 UNL     1      -1.299  -2.859   0.430  1.00  0.00     0.052 A 
HETATM    7  O3  UNL     1       0.129  -4.631   1.125  1.00  0.00    -0.190 OA
HETATM    8  C12 UNL     1       2.512  -3.145   0.469  1.00  0.00     0.227 A 
HETATM    9  C13 UNL     1       3.613  -2.232   0.076  1.00  0.00     0.192 A 
HETATM   10  C14 UNL     1       3.330  -1.002  -0.418  1.00  0.00     0.128 A 
HETATM   11  O4  UNL     1       2.061  -0.574  -0.568  1.00  0.00    -0.305 OA
HETATM   12  O6  UNL     1       4.875  -2.645   0.221  1.00  0.00    -0.185 OA
HETATM   13  O7  UNL     1       2.826  -4.231   0.902  1.00  0.00    -0.284 OA
ENDROOT
BRANCH   1  14
HETATM   14  O2  UNL     1      -2.697  -1.064  -0.276  1.00  0.00    -0.304 OA
BRANCH  14  15
HETATM   15  C5  UNL     1      -3.338  -0.457   0.838  1.00  0.00     0.274 C 
HETATM   16  C4  UNL     1      -3.902  -1.543   1.779  1.00  0.00     0.241 C 
HETATM   17  C3  UNL     1      -4.490  -0.916   3.062  1.00  0.00     0.220 C 
HETATM   18  O9  UNL     1      -4.908  -2.266   1.088  1.00  0.00    -0.215 OA
HETATM   19  C2  UNL     1      -3.453   0.037   3.693  1.00  0.00     0.215 C 
HETATM   20  O10 UNL     1      -4.830  -1.939   3.984  1.00  0.00    -0.218 OA
HETATM   21  C1  UNL     1      -2.912   1.047   2.656  1.00  0.00     0.184 C 
HETATM   22  O11 UNL     1      -4.049   0.756   4.760  1.00  0.00    -0.218 OA
HETATM   23  O1  UNL     1      -2.393   0.342   1.535  1.00  0.00    -0.326 OA
BRANCH  21  24
HETATM   24  C26 UNL     1      -1.772   1.910   3.207  1.00  0.00     0.214 C 
HETATM   25  O12 UNL     1      -1.492   2.924   2.266  1.00  0.00    -0.218 OA
ENDBRANCH  21  24
ENDBRANCH  14  15
ENDBRANCH   1  14
BRANCH   2  26
HETATM   26  C21 UNL     1      -0.496   0.574  -0.990  1.00  0.00     0.033 C 
BRANCH  26  27
HETATM   27  C22 UNL     1      -0.465   0.570  -2.518  1.00  0.00     0.035 C 
BRANCH  27  28
HETATM   28  C23 UNL     1      -0.830   1.926  -3.121  1.00  0.00     0.127 C 
HETATM   29  C24 UNL     1      -0.504   2.018  -4.612  1.00  0.00     0.033 C 
HETATM   30  C25 UNL     1      -2.268   2.344  -2.805  1.00  0.00     0.033 C 
HETATM   31  O8  UNL     1       0.039   2.897  -2.584  1.00  0.00    -0.226 OA
ENDBRANCH  27  28
ENDBRANCH  26  27
ENDBRANCH   2  26
BRANCH  10  32
HETATM   32  C15 UNL     1       4.451  -0.090  -0.809  1.00  0.00     0.025 A 
HETATM   33  C16 UNL     1       5.617  -0.031  -0.026  1.00  0.00     0.004 A 
HETATM   34  C17 UNL     1       6.668   0.826  -0.395  1.00  0.00     0.028 A 
HETATM   35  C18 UNL     1       6.559   1.627  -1.545  1.00  0.00     0.131 A 
HETATM   36  C19 UNL     1       5.391   1.568  -2.324  1.00  0.00     0.028 A 
HETATM   37  O5  UNL     1       7.545   2.430  -1.889  1.00  0.00    -0.190 OA
HETATM   38  C20 UNL     1       4.338   0.711  -1.959  1.00  0.00     0.004 A 
ENDBRANCH  10  32
TORSDOF 7
