REMARK  14 active torsions:
REMARK  status: ('A' for Active; 'I' for Inactive)
REMARK    1  A    between atoms: C1_1  and  C21_29 
REMARK    2  A    between atoms: C7_7  and  C15_17 
REMARK    3  A    between atoms: C8_8  and  C9_10 
REMARK       I    between atoms: C15_17  and  N1_18 
REMARK    4  A    between atoms: N1_18  and  C16_19 
REMARK    5  A    between atoms: C16_19  and  C17_20 
REMARK    6  A    between atoms: C17_20  and  C18_21 
REMARK    7  A    between atoms: C18_21  and  C19_22 
REMARK    8  A    between atoms: C19_22  and  N2_23 
REMARK       I    between atoms: N2_23  and  C20_24 
REMARK    9  A    between atoms: C22_30  and  C23_31 
REMARK       I    between atoms: C23_31  and  N5_33 
REMARK   10  A    between atoms: N5_33  and  C24_34 
REMARK   11  A    between atoms: C24_34  and  C25_35 
REMARK   12  A    between atoms: C25_35  and  C26_36 
REMARK   13  A    between atoms: C26_36  and  C27_37 
REMARK   14  A    between atoms: C27_37  and  N6_38 
REMARK       I    between atoms: N6_38  and  C28_39 
ROOT
HETATM    1  C1  UNL     1       4.099  -2.388  -1.259  1.00  0.00    -0.000 A 
HETATM    2  C2  UNL     1       3.977  -3.678  -1.813  1.00  0.00     0.002 A 
HETATM    3  C3  UNL     1       2.750  -4.346  -1.857  1.00  0.00     0.024 A 
HETATM    4  C4  UNL     1       1.633  -3.686  -1.349  1.00  0.00     0.091 A 
HETATM    5  C5  UNL     1       1.720  -2.389  -0.854  1.00  0.00     0.011 A 
HETATM    6  C6  UNL     1       2.940  -1.724  -0.812  1.00  0.00    -0.002 A 
HETATM    7  C7  UNL     1       0.378  -1.911  -0.375  1.00  0.00     0.137 C 
HETATM    8  C8  UNL     1      -0.432  -3.234  -0.487  1.00  0.00     0.157 C 
HETATM    9  O1  UNL     1       0.351  -4.171  -1.232  1.00  0.00    -0.328 OA
ENDROOT
BRANCH   1  10
HETATM   10  C21 UNL     1       5.385  -1.684  -1.136  1.00  0.00     0.005 C 
HETATM   11  C22 UNL     1       6.597  -2.281  -1.224  1.00  0.00     0.062 C 
BRANCH  11  12
HETATM   12  C23 UNL     1       7.892  -1.581  -1.064  1.00  0.00     0.275 C 
HETATM   13  O4  UNL     1       8.954  -2.187  -1.117  1.00  0.00    -0.266 OA
HETATM   14  N5  UNL     1       7.829  -0.230  -0.875  1.00  0.00    -0.234 NA
BRANCH  14  15
HETATM   15  C24 UNL     1       9.033   0.599  -0.778  1.00  0.00     0.129 C 
BRANCH  15  16
HETATM   16  C25 UNL     1       9.566   0.914  -2.182  1.00  0.00     0.029 C 
BRANCH  16  17
HETATM   17  C26 UNL     1      10.897   1.681  -2.150  1.00  0.00     0.029 C 
BRANCH  17  18
HETATM   18  C27 UNL     1      11.442   1.901  -3.568  1.00  0.00     0.129 C 
BRANCH  18  19
HETATM   19  N6  UNL     1      12.752   2.581  -3.535  1.00  0.00    -0.241 NA
HETATM   20  C28 UNL     1      13.487   2.824  -4.685  1.00  0.00     0.225 C 
HETATM   21  N7  UNL     1      14.715   3.429  -4.495  1.00  0.00    -0.060 NA
HETATM   22  N8  UNL     1      13.083   2.506  -5.889  1.00  0.00    -0.270 NA
HETATM   23  H2  UNL     1      13.776   2.769  -6.591  1.00  0.00     0.189 HD
ENDBRANCH  18  19
ENDBRANCH  17  18
ENDBRANCH  16  17
ENDBRANCH  15  16
ENDBRANCH  14  15
ENDBRANCH  11  12
ENDBRANCH   1  10
BRANCH   7  24
HETATM   24  C15 UNL     1      -0.144  -0.821  -1.307  1.00  0.00     0.258 C 
HETATM   25  N1  UNL     1      -0.577   0.347  -0.742  1.00  0.00    -0.238 NA
HETATM   26  O3  UNL     1      -0.190  -0.964  -2.505  1.00  0.00    -0.270 OA
BRANCH  25  27
HETATM   27  C16 UNL     1      -0.568   0.655   0.690  1.00  0.00     0.129 C 
BRANCH  27  28
HETATM   28  C17 UNL     1      -1.159   2.054   0.926  1.00  0.00     0.029 C 
BRANCH  28  29
HETATM   29  C18 UNL     1      -1.142   2.424   2.418  1.00  0.00     0.029 C 
BRANCH  29  30
HETATM   30  C19 UNL     1      -1.722   3.820   2.681  1.00  0.00     0.129 C 
BRANCH  30  31
HETATM   31  N2  UNL     1      -1.672   4.120   4.127  1.00  0.00    -0.241 NA
HETATM   32  C20 UNL     1      -2.167   5.296   4.667  1.00  0.00     0.225 C 
HETATM   33  N3  UNL     1      -2.044   5.416   6.039  1.00  0.00    -0.060 NA
HETATM   34  N4  UNL     1      -2.720   6.250   3.962  1.00  0.00    -0.270 NA
HETATM   35  H1  UNL     1      -3.017   7.023   4.559  1.00  0.00     0.189 HD
ENDBRANCH  30  31
ENDBRANCH  29  30
ENDBRANCH  28  29
ENDBRANCH  27  28
ENDBRANCH  25  27
ENDBRANCH   7  24
BRANCH   8  36
HETATM   36  C9  UNL     1      -0.740  -3.814   0.879  1.00  0.00     0.006 A 
HETATM   37  C10 UNL     1      -2.056  -4.006   1.314  1.00  0.00     0.000 A 
HETATM   38  C11 UNL     1      -2.322  -4.533   2.579  1.00  0.00     0.027 A 
HETATM   39  C12 UNL     1      -1.290  -4.883   3.456  1.00  0.00     0.131 A 
HETATM   40  C13 UNL     1       0.023  -4.694   3.017  1.00  0.00     0.027 A 
HETATM   41  O2  UNL     1      -1.541  -5.393   4.690  1.00  0.00    -0.190 OA
HETATM   42  C14 UNL     1       0.294  -4.172   1.752  1.00  0.00     0.000 A 
ENDBRANCH   8  36
TORSDOF 14
