REMARK  8 active torsions:
REMARK  status: ('A' for Active; 'I' for Inactive)
REMARK    1  A    between atoms: C5_5  and  C7_7 
REMARK    2  A    between atoms: C7_7  and  C8_8 
REMARK    3  A    between atoms: C8_8  and  C9_9 
REMARK    4  A    between atoms: C9_9  and  O1_10 
REMARK    5  A    between atoms: O1_10  and  C10_11 
REMARK    6  A    between atoms: C10_11  and  C11_12 
REMARK    7  A    between atoms: C10_11  and  C17_18 
REMARK    8  A    between atoms: C17_18  and  C18_19 
ROOT
HETATM    1  C10 UNL     1      -0.562   1.751  -0.561  1.00  0.00     0.173 C 
ENDROOT
BRANCH   1   2
HETATM    2  O1  UNL     1       0.825   1.554  -0.452  1.00  0.00    -0.324 OA
BRANCH   2   3
HETATM    3  C9  UNL     1       1.619   1.914  -1.495  1.00  0.00     0.274 C 
HETATM    4  O6  UNL     1       1.143   2.535  -2.557  1.00  0.00    -0.190 OA
BRANCH   3   5
HETATM    5  C8  UNL     1       3.095   1.533  -1.499  1.00  0.00     0.090 C 
BRANCH   5   6
HETATM    6  C7  UNL     1       3.468   0.101  -1.207  1.00  0.00    -0.025 C 
BRANCH   6   7
HETATM    7  C5  UNL     1       4.730  -0.287  -0.489  1.00  0.00    -0.030 C 
HETATM    8  C4  UNL     1       4.685  -1.427   0.409  1.00  0.00     0.026 C 
HETATM    9  C3  UNL     1       5.947  -1.992   1.005  1.00  0.00     0.005 C 
HETATM   10  C2  UNL     1       7.182  -1.120   1.004  1.00  0.00     0.005 C 
HETATM   11  C1  UNL     1       7.167   0.008  -0.004  1.00  0.00     0.026 C 
HETATM   12  C6  UNL     1       5.896   0.375  -0.701  1.00  0.00    -0.031 C 
ENDBRANCH   6   7
ENDBRANCH   5   6
ENDBRANCH   3   5
ENDBRANCH   2   3
ENDBRANCH   1   2
BRANCH   1  13
HETATM   13  C11 UNL     1      -1.196   0.886  -1.637  1.00  0.00     0.007 A 
HETATM   14  C12 UNL     1      -2.230   1.400  -2.430  1.00  0.00    -0.002 A 
HETATM   15  C13 UNL     1      -2.827   0.632  -3.431  1.00  0.00    -0.000 A 
HETATM   16  C14 UNL     1      -2.399  -0.677  -3.655  1.00  0.00    -0.000 A 
HETATM   17  C15 UNL     1      -1.369  -1.205  -2.876  1.00  0.00    -0.000 A 
HETATM   18  C16 UNL     1      -0.775  -0.427  -1.879  1.00  0.00    -0.002 A 
ENDBRANCH   1  13
BRANCH   1  19
HETATM   19  C17 UNL     1      -1.208   1.562   0.811  1.00  0.00     0.214 C 
HETATM   20  O5  UNL     1      -2.578   1.880   0.695  1.00  0.00    -0.218 OA
BRANCH  19  21
HETATM   21  C18 UNL     1      -1.127   0.184   1.474  1.00  0.00     0.192 C 
HETATM   22  C19 UNL     1       0.281  -0.297   1.819  1.00  0.00     0.205 C 
HETATM   23  C20 UNL     1       0.282  -1.497   2.720  1.00  0.00     0.014 C 
HETATM   24  O4  UNL     1       0.994   0.735   2.471  1.00  0.00    -0.216 OA
HETATM   25  C21 UNL     1      -0.710  -1.660   3.606  1.00  0.00     0.066 C 
HETATM   26  C22 UNL     1      -1.807  -0.664   3.599  1.00  0.00     0.296 C 
HETATM   27  O2  UNL     1      -1.978   0.235   2.590  1.00  0.00    -0.295 OA
HETATM   28  O3  UNL     1      -2.599  -0.687   4.538  1.00  0.00    -0.259 OA
ENDBRANCH  19  21
ENDBRANCH   1  19
TORSDOF 8
