REMARK  4 active torsions:
REMARK  status: ('A' for Active; 'I' for Inactive)
REMARK    1  A    between atoms: C13_15  and  C15_18 
REMARK    2  A    between atoms: C15_18  and  C16_19 
REMARK    3  A    between atoms: C16_19  and  C17_20 
REMARK    4  A    between atoms: C17_20  and  C18_21 
ROOT
HETATM    1  C1  UNL     1      -2.443  -1.814  -1.355  1.00  0.00     0.000 A 
HETATM    2  C2  UNL     1      -2.451  -3.207  -1.280  1.00  0.00     0.002 A 
HETATM    3  C3  UNL     1      -1.246  -3.909  -1.280  1.00  0.00     0.017 A 
HETATM    4  C4  UNL     1      -0.004  -3.258  -1.353  1.00  0.00     0.065 A 
HETATM    5  C5  UNL     1      -0.007  -1.853  -1.429  1.00  0.00     0.038 A 
HETATM    6  C6  UNL     1      -1.224  -1.147  -1.430  1.00  0.00     0.003 A 
HETATM    7  C7  UNL     1       1.249  -1.100  -1.526  1.00  0.00     0.100 A 
HETATM    8  C8  UNL     1       2.400  -1.824  -1.475  1.00  0.00     0.078 A 
HETATM    9  C9  UNL     1       2.385  -3.303  -1.397  1.00  0.00     0.263 A 
HETATM   10  N1  UNL     1       1.169  -3.939  -1.352  1.00  0.00    -0.294 N 
HETATM   11  C10 UNL     1       1.173  -5.407  -1.289  1.00  0.00     0.134 C 
HETATM   12  O1  UNL     1       3.448  -3.910  -1.370  1.00  0.00    -0.267 OA
HETATM   13  C11 UNL     1       3.675  -1.124  -1.586  1.00  0.00     0.004 C 
HETATM   14  C12 UNL     1       3.660   0.217  -1.498  1.00  0.00     0.001 C 
HETATM   15  C13 UNL     1       2.382   0.970  -1.196  1.00  0.00     0.117 C 
HETATM   16  O2  UNL     1       1.240   0.267  -1.611  1.00  0.00    -0.331 OA
HETATM   17  C14 UNL     1       2.407   2.292  -1.974  1.00  0.00     0.035 C 
ENDROOT
BRANCH  15  18
HETATM   18  C15 UNL     1       2.314   1.198   0.327  1.00  0.00     0.040 C 
BRANCH  18  19
HETATM   19  C16 UNL     1       1.102   2.006   0.823  1.00  0.00     0.067 C 
BRANCH  19  20
HETATM   20  C17 UNL     1       1.103   2.258   2.326  1.00  0.00     0.150 C 
HETATM   21  O3  UNL     1       1.838   1.642   3.066  1.00  0.00    -0.296 OA
BRANCH  20  22
HETATM   22  C18 UNL     1       0.137   3.310   2.863  1.00  0.00     0.058 C 
HETATM   23  C19 UNL     1      -0.183   3.102   4.353  1.00  0.00     0.008 C 
HETATM   24  C20 UNL     1       0.700   4.724   2.645  1.00  0.00     0.008 C 
ENDBRANCH  20  22
ENDBRANCH  19  20
ENDBRANCH  18  19
ENDBRANCH  15  18
TORSDOF 4
