REMARK  2 active torsions:
REMARK  status: ('A' for Active; 'I' for Inactive)
REMARK    1  A    between atoms: N1_9  and  O1_10 
REMARK    2  A    between atoms: C15_19  and  C16_20 
ROOT
HETATM    1  C1  UNL     1      -2.429  -1.458  -0.087  1.00  0.00    -0.000 A 
HETATM    2  C2  UNL     1      -2.410  -2.854  -0.192  1.00  0.00     0.002 A 
HETATM    3  C3  UNL     1      -1.202  -3.533  -0.360  1.00  0.00     0.019 A 
HETATM    4  C4  UNL     1      -0.026  -2.779  -0.407  1.00  0.00     0.087 A 
HETATM    5  C5  UNL     1      -0.028  -1.386  -0.282  1.00  0.00     0.006 A 
HETATM    6  C6  UNL     1      -1.244  -0.718  -0.133  1.00  0.00    -0.002 A 
HETATM    7  C7  UNL     1       1.376  -0.796  -0.319  1.00  0.00     0.123 A 
HETATM    8  C8  UNL     1       2.150  -2.101  -0.587  1.00  0.00     0.266 A 
HETATM    9  N1  UNL     1       1.304  -3.197  -0.590  1.00  0.00    -0.185 N 
HETATM   10  O2  UNL     1       3.361  -2.181  -0.789  1.00  0.00    -0.269 OA
HETATM   11  C10 UNL     1       1.821  -0.167   1.020  1.00  0.00     0.158 C 
HETATM   12  C11 UNL     1       1.239   0.840   2.024  1.00  0.00     0.185 C 
HETATM   13  C12 UNL     1       0.961   2.301   1.389  1.00  0.00     0.073 C 
HETATM   14  C13 UNL     1       2.104   2.280   0.291  1.00  0.00     0.060 C 
HETATM   15  C14 UNL     1       1.578   1.782  -1.083  1.00  0.00     0.106 C 
HETATM   16  N2  UNL     1       0.249   2.393  -0.968  1.00  0.00    -0.281 NA
HETATM   17  C15 UNL     1       0.025   2.749   0.226  1.00  0.00     0.034 C 
HETATM   18  C18 UNL     1       1.613   0.261  -1.461  1.00  0.00     0.040 C 
HETATM   19  C19 UNL     1       3.379   1.564   0.722  1.00  0.00     0.145 C 
HETATM   20  O3  UNL     1       3.166   0.183   0.839  1.00  0.00    -0.353 OA
HETATM   21  O4  UNL     1       0.138   0.218   2.671  1.00  0.00    -0.220 OA
ENDROOT
BRANCH   9  22
HETATM   22  O1  UNL     1       1.624  -4.427  -0.938  1.00  0.00    -0.248 OA
HETATM   23  C9  UNL     1       2.606  -5.029  -0.122  1.00  0.00     0.209 C 
ENDBRANCH   9  22
BRANCH  17  24
HETATM   24  C16 UNL     1      -1.200   3.605   0.487  1.00  0.00     0.041 C 
HETATM   25  C17 UNL     1      -1.935   4.089  -0.771  1.00  0.00     0.006 C 
ENDBRANCH  17  24
TORSDOF 2
