REMARK  1 active torsions:
REMARK  status: ('A' for Active; 'I' for Inactive)
REMARK    1  A    between atoms: N1_9  and  O1_10 
ROOT
HETATM    1  C1  UNL     1      -2.274  -1.854   0.283  1.00  0.00    -0.000 A 
HETATM    2  C2  UNL     1      -2.236  -3.239   0.079  1.00  0.00     0.002 A 
HETATM    3  C3  UNL     1      -1.036  -3.872  -0.247  1.00  0.00     0.019 A 
HETATM    4  C4  UNL     1       0.113  -3.084  -0.355  1.00  0.00     0.087 A 
HETATM    5  C5  UNL     1       0.094  -1.703  -0.134  1.00  0.00     0.006 A 
HETATM    6  C6  UNL     1      -1.115  -1.080   0.179  1.00  0.00    -0.002 A 
HETATM    7  C7  UNL     1       1.469  -1.061  -0.269  1.00  0.00     0.120 A 
HETATM    8  C8  UNL     1       2.234  -2.324  -0.725  1.00  0.00     0.266 A 
HETATM    9  N1  UNL     1       1.429  -3.446  -0.685  1.00  0.00    -0.185 N 
HETATM   10  O2  UNL     1       3.415  -2.342  -1.069  1.00  0.00    -0.269 OA
HETATM   11  C10 UNL     1       2.041  -0.698   1.240  1.00  0.00     0.128 C 
HETATM   12  C11 UNL     1       3.531  -0.119   1.619  1.00  0.00     0.035 C 
HETATM   13  C12 UNL     1       4.183   0.954   0.625  1.00  0.00     0.027 C 
HETATM   14  C13 UNL     1       2.881   0.913  -0.108  1.00  0.00     0.065 C 
HETATM   15  C14 UNL     1       2.661   1.017  -1.576  1.00  0.00     0.223 C 
HETATM   16  C15 UNL     1       1.413   0.039  -1.500  1.00  0.00     0.049 C 
HETATM   17  N2  UNL     1       2.783   2.454  -1.783  1.00  0.00     0.141 N 
HETATM   18  C16 UNL     1       3.975   2.953  -1.029  1.00  0.00     0.272 C 
HETATM   19  C17 UNL     1       4.119   2.468   0.450  1.00  0.00    -0.016 C 
HETATM   20  C18 UNL     1       4.254   3.263   1.526  1.00  0.00    -0.032 C 
HETATM   21  C19 UNL     1       4.227   4.767   1.571  1.00  0.00     0.030 C 
HETATM   22  C20 UNL     1       1.624   3.296  -1.565  1.00  0.00     0.286 C 
HETATM   23  C21 UNL     1       1.671   1.378   0.792  1.00  0.00     0.144 C 
HETATM   24  O3  UNL     1       1.244   0.356   1.641  1.00  0.00    -0.356 OA
ENDROOT
BRANCH   9  25
HETATM   25  O1  UNL     1       1.809  -4.683  -0.935  1.00  0.00    -0.248 OA
HETATM   26  C9  UNL     1       2.668  -5.211   0.053  1.00  0.00     0.209 C 
ENDBRANCH   9  25
TORSDOF 1
