REMARK  0 active torsions:
REMARK  status: ('A' for Active; 'I' for Inactive)
ROOT
HETATM    1  C1  UNL     1      -2.541   1.626  -0.106  1.00  0.00     0.055 C 
HETATM    2  C2  UNL     1      -2.123   0.180  -0.189  1.00  0.00    -0.026 C 
HETATM    3  C3  UNL     1      -1.913  -0.593   0.887  1.00  0.00    -0.031 C 
HETATM    4  C4  UNL     1      -1.293  -1.978   0.855  1.00  0.00     0.022 C 
HETATM    5  C5  UNL     1       0.240  -1.822   0.687  1.00  0.00     0.029 C 
HETATM    6  C6  UNL     1       0.663  -1.151  -0.599  1.00  0.00    -0.034 C 
HETATM    7  C7  UNL     1       1.335   0.003  -0.774  1.00  0.00    -0.048 C 
HETATM    8  C8  UNL     1       1.863   0.901   0.330  1.00  0.00     0.030 C 
HETATM    9  C9  UNL     1       1.269   2.323   0.325  1.00  0.00     0.073 C 
HETATM   10  C10 UNL     1      -0.205   2.308   0.701  1.00  0.00     0.170 C 
HETATM   11  C11 UNL     1      -1.276   2.425  -0.335  1.00  0.00     0.017 C 
HETATM   12  C12 UNL     1      -1.102   3.157  -1.451  1.00  0.00    -0.001 C 
HETATM   13  O1  UNL     1      -0.503   2.060   1.863  1.00  0.00    -0.292 OA
HETATM   14  C13 UNL     1       1.652   0.474  -2.178  1.00  0.00     0.026 C 
HETATM   15  C14 UNL     1      -1.566  -2.671   2.211  1.00  0.00     0.005 C 
HETATM   16  C15 UNL     1      -1.921  -2.858  -0.245  1.00  0.00     0.005 C 
ENDROOT
TORSDOF 0
