REMARK  0 active torsions:
REMARK  status: ('A' for Active; 'I' for Inactive)
ROOT
HETATM    1  C1  UNL     1      -2.527   1.371  -0.276  1.00  0.00     0.033 C 
HETATM    2  C2  UNL     1      -2.049  -0.059  -0.302  1.00  0.00    -0.030 C 
HETATM    3  C3  UNL     1      -1.892  -0.814   0.796  1.00  0.00    -0.031 C 
HETATM    4  C4  UNL     1      -1.283  -2.204   0.816  1.00  0.00     0.022 C 
HETATM    5  C5  UNL     1       0.254  -2.075   0.682  1.00  0.00     0.029 C 
HETATM    6  C6  UNL     1       0.712  -1.429  -0.604  1.00  0.00    -0.034 C 
HETATM    7  C7  UNL     1       1.356  -0.259  -0.780  1.00  0.00    -0.048 C 
HETATM    8  C8  UNL     1       1.806   0.678   0.324  1.00  0.00     0.029 C 
HETATM    9  C9  UNL     1       1.193   2.088   0.259  1.00  0.00     0.069 C 
HETATM   10  C10 UNL     1      -0.281   2.113   0.627  1.00  0.00     0.151 C 
HETATM   11  C11 UNL     1      -1.321   2.309  -0.473  1.00  0.00     0.062 C 
HETATM   12  C12 UNL     1      -1.774   3.777  -0.514  1.00  0.00     0.008 C 
HETATM   13  O1  UNL     1      -0.616   1.999   1.786  1.00  0.00    -0.296 OA
HETATM   14  C13 UNL     1       1.727   0.186  -2.180  1.00  0.00     0.026 C 
HETATM   15  C14 UNL     1      -1.596  -2.863   2.180  1.00  0.00     0.005 C 
HETATM   16  C15 UNL     1      -1.894  -3.103  -0.279  1.00  0.00     0.005 C 
ENDROOT
TORSDOF 0
