REMARK  7 active torsions:
REMARK  status: ('A' for Active; 'I' for Inactive)
REMARK    1  A    between atoms: C1_1  and  C17_21 
REMARK    2  A    between atoms: C3_3  and  C12_14 
REMARK    3  A    between atoms: C5_5  and  C7_8 
REMARK    4  A    between atoms: C7_8  and  C8_9 
REMARK    5  A    between atoms: C12_14  and  C13_15 
REMARK    6  A    between atoms: C17_21  and  C18_23 
REMARK    7  A    between atoms: C18_23  and  C19_24 
ROOT
HETATM    1  C1  UNL     1       3.130   0.652  -0.528  1.00  0.00     0.097 A 
HETATM    2  C2  UNL     1       1.994   0.006  -1.220  1.00  0.00     0.211 A 
HETATM    3  C3  UNL     1       0.735  -0.346  -0.437  1.00  0.00     0.227 A 
HETATM    4  C4  UNL     1       0.802   0.063   1.016  1.00  0.00     0.142 A 
HETATM    5  C5  UNL     1       1.882   0.651   1.578  1.00  0.00     0.032 A 
HETATM    6  C6  UNL     1       3.081   0.962   0.796  1.00  0.00     0.135 A 
HETATM    7  O1  UNL     1       4.141   1.555   1.415  1.00  0.00    -0.190 OA
HETATM    8  O2  UNL     1      -0.291  -0.288   1.746  1.00  0.00    -0.192 OA
HETATM    9  O3  UNL     1       0.573  -1.756  -0.414  1.00  0.00    -0.211 OA
HETATM   10  O4  UNL     1       2.070  -0.182  -2.429  1.00  0.00    -0.288 OA
ENDROOT
BRANCH   1  11
HETATM   11  C17 UNL     1       4.364   0.979  -1.319  1.00  0.00     0.178 C 
HETATM   12  O5  UNL     1       4.918   2.059  -1.167  1.00  0.00    -0.291 OA
BRANCH  11  13
HETATM   13  C18 UNL     1       4.993  -0.110  -2.175  1.00  0.00     0.069 C 
BRANCH  13  14
HETATM   14  C19 UNL     1       6.517  -0.233  -1.978  1.00  0.00     0.008 C 
HETATM   15  C20 UNL     1       6.867  -0.583  -0.522  1.00  0.00     0.001 C 
HETATM   16  C21 UNL     1       7.102  -1.290  -2.932  1.00  0.00     0.001 C 
ENDBRANCH  13  14
ENDBRANCH  11  13
ENDBRANCH   1  11
BRANCH   3  17
HETATM   17  C12 UNL     1      -0.496   0.288  -1.104  1.00  0.00     0.070 C 
BRANCH  17  18
HETATM   18  C13 UNL     1      -0.800  -0.248  -2.482  1.00  0.00    -0.031 C 
HETATM   19  C14 UNL     1      -0.759   0.412  -3.655  1.00  0.00    -0.048 C 
HETATM   20  C15 UNL     1      -1.136  -0.281  -4.946  1.00  0.00     0.026 C 
HETATM   21  C16 UNL     1      -0.353   1.856  -3.828  1.00  0.00     0.026 C 
ENDBRANCH  17  18
ENDBRANCH   3  17
BRANCH   5  22
HETATM   22  C7  UNL     1       1.856   0.964   3.063  1.00  0.00     0.056 C 
BRANCH  22  23
HETATM   23  C8  UNL     1       1.734  -0.313   3.858  1.00  0.00    -0.030 C 
HETATM   24  C9  UNL     1       0.989  -0.505   4.961  1.00  0.00    -0.048 C 
HETATM   25  C10 UNL     1       0.926  -1.859   5.629  1.00  0.00     0.026 C 
HETATM   26  C11 UNL     1       0.172   0.563   5.648  1.00  0.00     0.026 C 
ENDBRANCH  22  23
ENDBRANCH   5  22
TORSDOF 7
