REMARK  1 active torsions:
REMARK  status: ('A' for Active; 'I' for Inactive)
REMARK    1  A    between atoms: C3_3  and  O1_12 
ROOT
HETATM    1  C1  UNL     1      -0.408   1.176   0.308  1.00  0.00     0.121 A 
HETATM    2  C2  UNL     1      -0.331  -0.193   0.086  1.00  0.00     0.141 A 
HETATM    3  C3  UNL     1       0.878  -0.876  -0.058  1.00  0.00     0.116 C 
HETATM    4  C4  UNL     1       2.027  -0.057  -0.147  1.00  0.00     0.031 C 
HETATM    5  C5  UNL     1       1.961   1.328   0.093  1.00  0.00    -0.018 C 
HETATM    6  C6  UNL     1       0.735   1.963   0.332  1.00  0.00     0.022 C 
HETATM    7  C7  UNL     1       3.209   2.170   0.059  1.00  0.00     0.061 C 
HETATM    8  C8  UNL     1       4.482   1.320   0.111  1.00  0.00     0.255 C 
HETATM    9  N1  UNL     1       4.384   0.245  -0.860  1.00  0.00     0.144 N 
HETATM   10  C9  UNL     1       3.358  -0.712  -0.467  1.00  0.00     0.279 C 
HETATM   11  C10 UNL     1       5.665  -0.425  -1.029  1.00  0.00     0.286 C 
HETATM   12  O2  UNL     1      -1.607  -0.724   0.160  1.00  0.00    -0.298 OA
HETATM   13  C12 UNL     1      -2.522   0.356   0.380  1.00  0.00     0.304 A 
HETATM   14  O3  UNL     1      -1.727   1.542   0.489  1.00  0.00    -0.299 OA
ENDROOT
BRANCH   3  15
HETATM   15  O1  UNL     1       0.887  -2.204  -0.395  1.00  0.00    -0.326 OA
HETATM   16  C11 UNL     1       1.002  -3.067   0.712  1.00  0.00     0.181 C 
ENDBRANCH   3  15
TORSDOF 1
