REMARK  0 active torsions:
REMARK  status: ('A' for Active; 'I' for Inactive)
ROOT
HETATM    1  C1  UNL     1       2.239   0.357   1.277  1.00  0.00     0.002 A 
HETATM    2  C2  UNL     1       2.298   0.982   0.009  1.00  0.00     0.028 A 
HETATM    3  C3  UNL     1       1.242   0.958  -0.878  1.00  0.00     0.133 A 
HETATM    4  C4  UNL     1       0.031   0.278  -0.493  1.00  0.00     0.053 A 
HETATM    5  C5  UNL     1      -0.034  -0.348   0.776  1.00  0.00     0.029 A 
HETATM    6  C6  UNL     1       1.094  -0.296   1.653  1.00  0.00     0.002 A 
HETATM    7  C7  UNL     1      -1.210  -1.039   1.216  1.00  0.00     0.131 A 
HETATM    8  C8  UNL     1      -2.286  -1.084   0.364  1.00  0.00     0.029 A 
HETATM    9  C9  UNL     1      -2.236  -0.463  -0.907  1.00  0.00     0.030 A 
HETATM   10  C10 UNL     1      -1.120   0.207  -1.352  1.00  0.00     0.133 A 
HETATM   11  O1  UNL     1      -1.181   0.765  -2.588  1.00  0.00    -0.190 OA
HETATM   12  O2  UNL     1      -1.286  -1.647   2.430  1.00  0.00    -0.190 OA
HETATM   13  O3  UNL     1       1.420   1.598  -2.066  1.00  0.00    -0.190 OA
ENDROOT
TORSDOF 0
