REMARK  4 active torsions:
REMARK  status: ('A' for Active; 'I' for Inactive)
REMARK    1  A    between atoms: C1_1  and  O2_23 
REMARK    2  A    between atoms: C7_7  and  C10_11 
REMARK    3  A    between atoms: C10_11  and  C11_13 
REMARK    4  A    between atoms: C13_16  and  C18_21 
ROOT
HETATM    1  C1  UNL     1       2.184  -3.632  -2.019  1.00  0.00     0.094 A 
HETATM    2  C2  UNL     1       3.587  -3.872  -2.101  1.00  0.00     0.026 A 
HETATM    3  C3  UNL     1       4.516  -2.895  -1.844  1.00  0.00     0.021 A 
HETATM    4  C4  UNL     1       4.099  -1.580  -1.489  1.00  0.00     0.081 A 
HETATM    5  C5  UNL     1       2.722  -1.290  -1.409  1.00  0.00     0.018 A 
HETATM    6  C6  UNL     1       1.798  -2.342  -1.707  1.00  0.00     0.025 A 
HETATM    7  C7  UNL     1       2.307   0.041  -1.056  1.00  0.00     0.013 A 
HETATM    8  C8  UNL     1       3.312   0.962  -0.852  1.00  0.00     0.019 A 
HETATM    9  C9  UNL     1       4.674   0.574  -0.955  1.00  0.00     0.099 A 
HETATM   10  N1  UNL     1       5.068  -0.639  -1.251  1.00  0.00    -0.244 NA
ENDROOT
BRANCH   7  11
HETATM   11  C10 UNL     1       0.838   0.422  -0.963  1.00  0.00     0.206 C 
HETATM   12  O1  UNL     1       0.300   0.456  -2.276  1.00  0.00    -0.216 OA
BRANCH  11  13
HETATM   13  C11 UNL     1       0.489   1.745  -0.258  1.00  0.00     0.254 C 
HETATM   14  N2  UNL     1       1.032   1.845   1.099  1.00  0.00     0.138 N 
HETATM   15  C12 UNL     1       0.334   0.961   2.025  1.00  0.00     0.250 C 
HETATM   16  C17 UNL     1       0.910   3.220   1.574  1.00  0.00     0.250 C 
HETATM   17  C13 UNL     1      -1.136   1.389   2.210  1.00  0.00     0.034 C 
HETATM   18  C14 UNL     1      -1.436   2.488   1.170  1.00  0.00     0.006 C 
HETATM   19  C15 UNL     1      -1.035   1.995  -0.229  1.00  0.00     0.036 C 
HETATM   20  C16 UNL     1      -0.549   3.702   1.498  1.00  0.00     0.035 C 
BRANCH  17  21
HETATM   21  C18 UNL     1      -2.120   0.206   2.153  1.00  0.00     0.002 C 
HETATM   22  C19 UNL     1      -1.999  -0.728   3.365  1.00  0.00     0.000 C 
ENDBRANCH  17  21
ENDBRANCH  11  13
ENDBRANCH   7  11
BRANCH   1  23
HETATM   23  O2  UNL     1       1.333  -4.663  -2.336  1.00  0.00    -0.328 OA
HETATM   24  C20 UNL     1      -0.025  -4.371  -2.573  1.00  0.00     0.181 C 
ENDBRANCH   1  23
TORSDOF 4
