REMARK  0 active torsions:
REMARK  status: ('A' for Active; 'I' for Inactive)
ROOT
HETATM    1  C1  UNL     1      -3.248   0.362  -3.572  1.00  0.00     0.033 C 
HETATM    2  C2  UNL     1      -2.315  -0.445  -4.466  1.00  0.00     0.152 C 
HETATM    3  C3  UNL     1      -1.909  -1.804  -3.859  1.00  0.00     0.028 C 
HETATM    4  C4  UNL     1      -1.338  -1.522  -2.434  1.00  0.00     0.002 C 
HETATM    5  C5  UNL     1      -2.246  -0.741  -1.436  1.00  0.00     0.000 C 
HETATM    6  C6  UNL     1      -2.662   0.570  -2.167  1.00  0.00     0.003 C 
HETATM    7  C7  UNL     1      -1.383  -0.393  -0.173  1.00  0.00     0.001 C 
HETATM    8  C8  UNL     1      -0.635  -1.531   0.595  1.00  0.00     0.003 C 
HETATM    9  C9  UNL     1       0.158  -2.288  -0.508  1.00  0.00     0.000 C 
HETATM   10  C10 UNL     1      -0.657  -2.715  -1.745  1.00  0.00     0.000 C 
HETATM   11  C11 UNL     1       0.258  -0.907   1.775  1.00  0.00     0.015 C 
HETATM   12  C12 UNL     1       0.372   0.628   1.683  1.00  0.00    -0.053 C 
HETATM   13  C13 UNL     1      -0.950   1.364   1.529  1.00  0.00     0.021 C 
HETATM   14  C14 UNL     1      -2.048   0.533   0.856  1.00  0.00     0.004 C 
HETATM   15  C15 UNL     1       1.530   1.323   1.796  1.00  0.00    -0.053 C 
HETATM   16  C16 UNL     1       2.879   0.636   1.945  1.00  0.00     0.015 C 
HETATM   17  C17 UNL     1       2.766  -0.714   1.210  1.00  0.00     0.004 C 
HETATM   18  C18 UNL     1       1.664  -1.563   1.854  1.00  0.00     0.004 C 
HETATM   19  C19 UNL     1       3.955   1.513   1.274  1.00  0.00     0.004 C 
HETATM   20  C20 UNL     1       4.095   2.902   1.922  1.00  0.00     0.001 C 
HETATM   21  C21 UNL     1       2.749   3.587   2.261  1.00  0.00     0.004 C 
HETATM   22  C22 UNL     1       1.577   2.832   1.607  1.00  0.00     0.021 C 
HETATM   23  C23 UNL     1       2.777   5.039   1.720  1.00  0.00     0.000 C 
HETATM   24  C24 UNL     1       2.486   3.699   3.781  1.00  0.00     0.000 C 
HETATM   25  C25 UNL     1       3.287   0.379   3.414  1.00  0.00     0.004 C 
HETATM   26  C26 UNL     1      -0.355  -1.105   3.196  1.00  0.00     0.004 C 
HETATM   27  C27 UNL     1      -1.575  -2.605   1.204  1.00  0.00     0.000 C 
HETATM   28  C28 UNL     1      -3.540  -1.474  -1.018  1.00  0.00     0.000 C 
HETATM   29  C29 UNL     1      -0.811  -2.409  -4.774  1.00  0.00     0.003 C 
HETATM   30  C30 UNL     1      -3.076  -2.813  -3.879  1.00  0.00     0.003 C 
HETATM   31  O1  UNL     1      -2.926  -0.609  -5.726  1.00  0.00    -0.224 OA
ENDROOT
TORSDOF 0
