REMARK  3 active torsions:
REMARK  status: ('A' for Active; 'I' for Inactive)
REMARK    1  A    between atoms: C5_6  and  O2_7 
REMARK    2  A    between atoms: O2_7  and  C6_8 
REMARK    3  A    between atoms: C6_8  and  C7_9 
ROOT
HETATM    1  C1  UNL     1       5.297   1.330   0.274  1.00  0.00     0.209 C 
HETATM    2  C2  UNL     1       4.986   2.547   1.142  1.00  0.00     0.129 C 
HETATM    3  O1  UNL     1       3.767   3.087   0.735  1.00  0.00    -0.333 OA
HETATM    4  C3  UNL     1       2.718   2.219   0.588  1.00  0.00     0.094 A 
HETATM    5  C4  UNL     1       2.879   0.830   0.460  1.00  0.00     0.030 A 
HETATM    6  C5  UNL     1       4.265   0.224   0.430  1.00  0.00     0.181 C 
HETATM    7  C11 UNL     1       1.754   0.008   0.367  1.00  0.00     0.002 A 
HETATM    8  C12 UNL     1       0.458   0.538   0.417  1.00  0.00     0.023 A 
HETATM    9  C13 UNL     1       0.260   1.918   0.584  1.00  0.00     0.105 A 
HETATM   10  C14 UNL     1       1.410   2.711   0.675  1.00  0.00     0.049 A 
HETATM   11  O4  UNL     1      -0.975   2.500   0.669  1.00  0.00    -0.273 OA
HETATM   12  C15 UNL     1      -2.060   1.680   0.570  1.00  0.00     0.300 A 
HETATM   13  C16 UNL     1      -1.939   0.215   0.387  1.00  0.00     0.069 A 
HETATM   14  C17 UNL     1      -0.709  -0.336   0.315  1.00  0.00     0.007 A 
HETATM   15  O5  UNL     1      -3.194   2.152   0.632  1.00  0.00    -0.259 OA
HETATM   16  C18 UNL     1       6.042   3.640   0.918  1.00  0.00     0.033 C 
HETATM   17  C19 UNL     1       4.921   2.229   2.642  1.00  0.00     0.033 C 
HETATM   18  O6  UNL     1       6.564   0.801   0.582  1.00  0.00    -0.218 OA
ENDROOT
BRANCH   6  19
HETATM   19  O2  UNL     1       4.422  -0.674  -0.648  1.00  0.00    -0.294 OA
BRANCH  19  20
HETATM   20  C6  UNL     1       4.640  -2.003  -0.419  1.00  0.00     0.292 C 
HETATM   21  O3  UNL     1       4.792  -2.419   0.726  1.00  0.00    -0.260 OA
BRANCH  20  22
HETATM   22  C7  UNL     1       4.662  -2.964  -1.560  1.00  0.00     0.037 C 
HETATM   23  C8  UNL     1       4.955  -4.263  -1.319  1.00  0.00    -0.025 C 
HETATM   24  C9  UNL     1       5.039  -5.387  -2.319  1.00  0.00     0.030 C 
HETATM   25  C10 UNL     1       4.360  -2.385  -2.922  1.00  0.00     0.036 C 
ENDBRANCH  20  22
ENDBRANCH  19  20
ENDBRANCH   6  19
TORSDOF 3
