REMARK  0 active torsions:
REMARK  status: ('A' for Active; 'I' for Inactive)
ROOT
HETATM    1  C1  UNL     1      -2.012   0.922  -0.821  1.00  0.00     0.037 C 
HETATM    2  C2  UNL     1      -2.088  -0.477  -0.226  1.00  0.00     0.171 C 
HETATM    3  C3  UNL     1      -0.751  -1.178  -0.303  1.00  0.00    -0.014 C 
HETATM    4  C4  UNL     1       0.468  -0.283  -0.478  1.00  0.00     0.025 C 
HETATM    5  C5  UNL     1       0.327   1.062   0.293  1.00  0.00     0.010 C 
HETATM    6  C6  UNL     1      -1.012   1.779  -0.036  1.00  0.00     0.004 C 
HETATM    7  C7  UNL     1       1.487   2.010  -0.107  1.00  0.00     0.051 C 
HETATM    8  C8  UNL     1       2.810   1.317  -0.044  1.00  0.00     0.073 A 
HETATM    9  C9  UNL     1       2.944  -0.037  -0.076  1.00  0.00    -0.005 A 
HETATM   10  C10 UNL     1       1.804  -1.000  -0.178  1.00  0.00     0.032 C 
HETATM   11  C11 UNL     1       4.343  -0.313   0.040  1.00  0.00     0.001 A 
HETATM   12  C12 UNL     1       4.947   0.905   0.125  1.00  0.00     0.118 A 
HETATM   13  O1  UNL     1       4.031   1.914   0.073  1.00  0.00    -0.310 OA
HETATM   14  C13 UNL     1       4.993  -1.660   0.088  1.00  0.00     0.033 C 
HETATM   15  C14 UNL     1       0.396   0.810   1.819  1.00  0.00     0.001 C 
HETATM   16  C15 UNL     1      -0.684  -2.518  -0.233  1.00  0.00    -0.007 C 
HETATM   17  O2  UNL     1      -3.087  -1.204  -0.918  1.00  0.00    -0.219 OA
ENDROOT
TORSDOF 0
