REMARK  7 active torsions:
REMARK  status: ('A' for Active; 'I' for Inactive)
REMARK    1  A    between atoms: C2_2  and  C7_8 
REMARK    2  A    between atoms: C7_8  and  O3_10 
REMARK    3  A    between atoms: O3_10  and  C8_11 
REMARK    4  A    between atoms: C8_11  and  C9_12 
REMARK    5  A    between atoms: C12_15  and  O4_18 
REMARK    6  A    between atoms: O4_18  and  C15_19 
REMARK    7  A    between atoms: C16_21  and  C20_28 
ROOT
HETATM    1  C9  UNL     1       3.934  -1.996   0.109  1.00  0.00     0.010 A 
HETATM    2  C10 UNL     1       3.515  -0.665   0.143  1.00  0.00     0.028 A 
HETATM    3  C11 UNL     1       4.390   0.430   0.154  1.00  0.00     0.153 A 
HETATM    4  C12 UNL     1       5.782   0.206   0.096  1.00  0.00     0.122 A 
HETATM    5  C13 UNL     1       6.187  -1.139   0.103  1.00  0.00     0.026 A 
HETATM    6  C14 UNL     1       5.310  -2.222   0.107  1.00  0.00     0.000 A 
HETATM    7  O10 UNL     1       3.809   1.658   0.170  1.00  0.00    -0.188 OA
ENDROOT
BRANCH   4   8
HETATM    8  O4  UNL     1       6.808   1.122   0.074  1.00  0.00    -0.301 OA
BRANCH   8   9
HETATM    9  C15 UNL     1       6.646   2.503   0.298  1.00  0.00     0.274 C 
HETATM   10  O5  UNL     1       7.244   3.121  -0.823  1.00  0.00    -0.326 OA
HETATM   11  C16 UNL     1       7.169   4.522  -0.764  1.00  0.00     0.184 C 
HETATM   12  C17 UNL     1       7.897   5.025   0.480  1.00  0.00     0.215 C 
HETATM   13  C18 UNL     1       7.326   4.381   1.729  1.00  0.00     0.220 C 
HETATM   14  O8  UNL     1       7.764   6.419   0.614  1.00  0.00    -0.218 OA
HETATM   15  C19 UNL     1       7.389   2.880   1.558  1.00  0.00     0.241 C 
HETATM   16  O7  UNL     1       8.084   4.769   2.846  1.00  0.00    -0.218 OA
HETATM   17  O6  UNL     1       6.772   2.245   2.649  1.00  0.00    -0.215 OA
BRANCH  11  18
HETATM   18  C20 UNL     1       7.768   5.095  -2.041  1.00  0.00     0.214 C 
HETATM   19  O9  UNL     1       7.001   4.690  -3.159  1.00  0.00    -0.218 OA
ENDBRANCH  11  18
ENDBRANCH   8   9
ENDBRANCH   4   8
BRANCH   1  20
HETATM   20  C8  UNL     1       2.922  -3.119   0.056  1.00  0.00     0.178 C 
BRANCH  20  21
HETATM   21  O3  UNL     1       3.463  -4.292  -0.515  1.00  0.00    -0.304 OA
BRANCH  21  22
HETATM   22  C7  UNL     1       2.598  -5.293  -0.837  1.00  0.00     0.228 C 
HETATM   23  O2  UNL     1       3.058  -6.428  -1.335  1.00  0.00    -0.163 OA
BRANCH  22  24
HETATM   24  C2  UNL     1       1.085  -5.195  -0.674  1.00  0.00     0.045 C 
HETATM   25  C1  UNL     1       0.356  -4.577  -1.636  1.00  0.00    -0.015 C 
HETATM   26  C6  UNL     1      -1.122  -4.445  -1.451  1.00  0.00     0.080 C 
HETATM   27  C5  UNL     1      -1.783  -5.384  -0.472  1.00  0.00     0.113 C 
HETATM   28  C4  UNL     1      -0.893  -5.863   0.633  1.00  0.00     0.023 C 
HETATM   29  O1  UNL     1      -3.135  -5.385  -0.342  1.00  0.00    -0.195 OA
HETATM   30  C3  UNL     1       0.455  -5.787   0.519  1.00  0.00     0.006 C 
ENDBRANCH  22  24
ENDBRANCH  21  22
ENDBRANCH  20  21
ENDBRANCH   1  20
TORSDOF 7
