REMARK  0 active torsions:
REMARK  status: ('A' for Active; 'I' for Inactive)
ROOT
HETATM    1  C1  UNL     1      -3.265   0.397  -3.776  1.00  0.00     0.065 C 
HETATM    2  C2  UNL     1      -2.481  -0.554  -4.657  1.00  0.00     0.150 C 
HETATM    3  C3  UNL     1      -1.975  -1.859  -4.038  1.00  0.00     0.051 C 
HETATM    4  C4  UNL     1      -1.387  -1.534  -2.634  1.00  0.00     0.006 C 
HETATM    5  C5  UNL     1      -2.270  -0.720  -1.641  1.00  0.00     0.001 C 
HETATM    6  C6  UNL     1      -2.640   0.595  -2.388  1.00  0.00     0.008 C 
HETATM    7  C7  UNL     1      -1.408  -0.378  -0.372  1.00  0.00     0.001 C 
HETATM    8  C8  UNL     1      -0.676  -1.525   0.396  1.00  0.00     0.003 C 
HETATM    9  C9  UNL     1       0.104  -2.298  -0.704  1.00  0.00     0.000 C 
HETATM   10  C10 UNL     1      -0.720  -2.726  -1.933  1.00  0.00     0.000 C 
HETATM   11  C11 UNL     1       0.232  -0.913   1.570  1.00  0.00     0.015 C 
HETATM   12  C12 UNL     1       0.322   0.625   1.531  1.00  0.00    -0.053 C 
HETATM   13  C13 UNL     1      -1.005   1.350   1.388  1.00  0.00     0.021 C 
HETATM   14  C14 UNL     1      -2.083   0.538   0.662  1.00  0.00     0.004 C 
HETATM   15  C15 UNL     1       1.465   1.333   1.697  1.00  0.00    -0.053 C 
HETATM   16  C16 UNL     1       2.833   0.669   1.764  1.00  0.00     0.015 C 
HETATM   17  C17 UNL     1       2.716  -0.642   0.960  1.00  0.00     0.004 C 
HETATM   18  C18 UNL     1       1.653  -1.539   1.605  1.00  0.00     0.004 C 
HETATM   19  C19 UNL     1       3.851   1.614   1.093  1.00  0.00     0.004 C 
HETATM   20  C20 UNL     1       3.985   2.970   1.813  1.00  0.00     0.001 C 
HETATM   21  C21 UNL     1       2.651   3.572   2.315  1.00  0.00     0.004 C 
HETATM   22  C22 UNL     1       1.466   2.854   1.644  1.00  0.00     0.021 C 
HETATM   23  C23 UNL     1       2.610   5.077   1.947  1.00  0.00     0.000 C 
HETATM   24  C24 UNL     1       2.481   3.511   3.852  1.00  0.00     0.000 C 
HETATM   25  C25 UNL     1       3.327   0.336   3.190  1.00  0.00     0.004 C 
HETATM   26  C26 UNL     1      -0.349  -1.149   2.998  1.00  0.00     0.004 C 
HETATM   27  C27 UNL     1      -1.632  -2.584   1.007  1.00  0.00     0.000 C 
HETATM   28  C28 UNL     1      -3.586  -1.415  -1.229  1.00  0.00     0.000 C 
HETATM   29  C29 UNL     1      -0.886  -2.437  -4.979  1.00  0.00     0.007 C 
HETATM   30  C30 UNL     1      -3.138  -2.870  -4.053  1.00  0.00     0.007 C 
HETATM   31  O1  UNL     1      -2.328  -0.293  -5.830  1.00  0.00    -0.296 OA
ENDROOT
TORSDOF 0
