REMARK  2 active torsions:
REMARK  status: ('A' for Active; 'I' for Inactive)
REMARK    1  A    between atoms: C6_9  and  C7_11 
REMARK    2  A    between atoms: C7_11  and  C8_12 
ROOT
HETATM    1  C1  UNL     1       4.703  -2.231   0.263  1.00  0.00     0.773 A 
HETATM    2  N1  UNL     1       3.748  -3.065   0.646  1.00  0.00    -0.016 NA
HETATM    3  C2  UNL     1       2.428  -2.680   0.562  1.00  0.00     0.316 A 
HETATM    4  C3  UNL     1       2.072  -1.333   0.018  1.00  0.00     0.176 A 
HETATM    5  C4  UNL     1       3.095  -0.516  -0.361  1.00  0.00     0.206 A 
HETATM    6  N2  UNL     1       4.405  -0.978  -0.225  1.00  0.00    -0.037 NA
HETATM    7  N3  UNL     1       2.826   0.704  -0.854  1.00  0.00    -0.185 NA
HETATM    8  C5  UNL     1       1.572   1.191  -1.013  1.00  0.00     0.297 A 
HETATM    9  C6  UNL     1       0.495   0.249  -0.602  1.00  0.00     0.150 A 
HETATM   10  N4  UNL     1       0.726  -0.913  -0.114  1.00  0.00    -0.234 NA
HETATM   11  O3  UNL     1       1.351   2.306  -1.455  1.00  0.00    -0.264 OA
HETATM   12  O4  UNL     1       1.520  -3.431   0.933  1.00  0.00    -0.263 OA
HETATM   13  N5  UNL     1       6.036  -2.570   0.315  1.00  0.00     0.062 N 
ENDROOT
BRANCH   9  14
HETATM   14  C7  UNL     1      -0.939   0.686  -0.766  1.00  0.00     0.227 C 
HETATM   15  O2  UNL     1      -1.022   1.349  -2.018  1.00  0.00    -0.214 OA
BRANCH  14  16
HETATM   16  C8  UNL     1      -1.350   1.629   0.363  1.00  0.00     0.188 C 
HETATM   17  O1  UNL     1      -1.920   2.803  -0.167  1.00  0.00    -0.220 OA
HETATM   18  C9  UNL     1      -2.341   0.992   1.332  1.00  0.00     0.039 C 
ENDBRANCH  14  16
ENDBRANCH   9  14
TORSDOF 2
