REMARK  1 active torsions:
REMARK  status: ('A' for Active; 'I' for Inactive)
REMARK    1  A    between atoms: C12_13  and  O2_16 
ROOT
HETATM    1  C1  UNL     1       2.077   2.901  -0.025  1.00  0.00     0.033 C 
HETATM    2  C2  UNL     1       0.772   2.162  -0.290  1.00  0.00     0.152 C 
HETATM    3  C3  UNL     1       0.660   0.834   0.484  1.00  0.00     0.029 C 
HETATM    4  C4  UNL     1       1.950  -0.009   0.223  1.00  0.00     0.014 C 
HETATM    5  C5  UNL     1       3.330   0.683   0.382  1.00  0.00     0.020 C 
HETATM    6  C6  UNL     1       3.285   2.028  -0.382  1.00  0.00     0.007 C 
HETATM    7  C7  UNL     1       4.408  -0.250  -0.191  1.00  0.00    -0.018 A 
HETATM    8  C8  UNL     1       4.301  -1.654  -0.138  1.00  0.00     0.058 A 
HETATM    9  C9  UNL     1       3.099  -2.272   0.480  1.00  0.00     0.175 C 
HETATM   10  C10 UNL     1       1.955  -1.378   0.916  1.00  0.00     0.070 C 
HETATM   11  O1  UNL     1       2.980  -3.477   0.673  1.00  0.00    -0.291 OA
HETATM   12  C11 UNL     1       5.313  -2.494  -0.647  1.00  0.00     0.155 A 
HETATM   13  C12 UNL     1       6.482  -1.956  -1.212  1.00  0.00     0.119 A 
HETATM   14  C13 UNL     1       6.617  -0.564  -1.187  1.00  0.00     0.026 A 
HETATM   15  C14 UNL     1       5.605   0.262  -0.699  1.00  0.00    -0.002 A 
HETATM   16  O3  UNL     1       5.206  -3.852  -0.619  1.00  0.00    -0.188 OA
HETATM   17  C16 UNL     1       3.781   0.934   1.838  1.00  0.00     0.004 C 
HETATM   18  C17 UNL     1      -0.582   0.084  -0.074  1.00  0.00     0.003 C 
HETATM   19  C18 UNL     1       0.367   1.078   1.981  1.00  0.00     0.003 C 
HETATM   20  O4  UNL     1      -0.299   3.025   0.013  1.00  0.00    -0.224 OA
ENDROOT
BRANCH  13  21
HETATM   21  O2  UNL     1       7.453  -2.824  -1.646  1.00  0.00    -0.326 OA
HETATM   22  C15 UNL     1       8.760  -2.334  -1.830  1.00  0.00     0.181 C 
ENDBRANCH  13  21
TORSDOF 1
