REMARK  1 active torsions:
REMARK  status: ('A' for Active; 'I' for Inactive)
REMARK    1  A    between atoms: C3_3  and  C20_20 
ROOT
HETATM    1  C1  UNL     1      -2.642   0.401   2.016  1.00  0.00     0.033 C 
HETATM    2  C2  UNL     1      -2.762  -1.115   1.890  1.00  0.00     0.154 C 
HETATM    3  C3  UNL     1      -2.131  -1.749   0.617  1.00  0.00     0.059 C 
HETATM    4  C4  UNL     1      -0.671  -1.148   0.400  1.00  0.00     0.005 C 
HETATM    5  C5  UNL     1      -0.643   0.438   0.384  1.00  0.00     0.000 C 
HETATM    6  C6  UNL     1      -1.231   0.934   1.729  1.00  0.00     0.003 C 
HETATM    7  C7  UNL     1       0.824   0.976   0.239  1.00  0.00     0.000 C 
HETATM    8  C8  UNL     1       1.641   0.397  -0.941  1.00  0.00     0.000 C 
HETATM    9  C9  UNL     1       1.471  -1.121  -1.083  1.00  0.00     0.000 C 
HETATM   10  C10 UNL     1       0.024  -1.611  -0.914  1.00  0.00     0.000 C 
HETATM   11  C11 UNL     1       3.134   0.763  -0.714  1.00  0.00     0.000 C 
HETATM   12  C12 UNL     1       3.194   2.235  -1.076  1.00  0.00     0.000 A 
HETATM   13  C13 UNL     1       2.041   3.107  -0.641  1.00  0.00     0.000 A 
HETATM   14  C14 UNL     1       1.033   2.509   0.332  1.00  0.00     0.000 C 
HETATM   15  C15 UNL     1       2.069   2.527  -2.040  1.00  0.00     0.000 A 
HETATM   16  C16 UNL     1       1.394   1.178  -2.252  1.00  0.00     0.000 C 
HETATM   17  C17 UNL     1       4.544   2.885  -1.295  1.00  0.00     0.000 C 
HETATM   18  C18 UNL     1      -1.496   1.076  -0.750  1.00  0.00     0.000 C 
HETATM   19  C19 UNL     1       0.222  -1.732   1.544  1.00  0.00     0.000 C 
HETATM   20  C21 UNL     1      -3.092  -1.561  -0.586  1.00  0.00     0.005 C 
HETATM   21  O2  UNL     1      -4.129  -1.447   2.007  1.00  0.00    -0.223 OA
ENDROOT
BRANCH   3  22
HETATM   22  C20 UNL     1      -2.161  -3.283   0.884  1.00  0.00     0.185 C 
HETATM   23  O1  UNL     1      -1.755  -4.045  -0.234  1.00  0.00    -0.221 OA
ENDBRANCH   3  22
TORSDOF 1
