REMARK  4 active torsions:
REMARK  status: ('A' for Active; 'I' for Inactive)
REMARK    1  A    between atoms: C15_15  and  C18_18 
REMARK    2  A    between atoms: C18_18  and  C20_20 
REMARK    3  A    between atoms: C20_20  and  C21_21 
REMARK    4  A    between atoms: C21_21  and  C22_22 
ROOT
HETATM    1  C1  UNL     1      -5.094  -0.547   0.299  1.00  0.00     0.033 C 
HETATM    2  C2  UNL     1      -5.171  -1.995  -0.176  1.00  0.00     0.152 C 
HETATM    3  C3  UNL     1      -3.833  -2.758  -0.070  1.00  0.00     0.029 C 
HETATM    4  C4  UNL     1      -3.189  -2.542   1.337  1.00  0.00     0.007 C 
HETATM    5  C5  UNL     1      -3.153  -1.094   1.911  1.00  0.00     0.004 C 
HETATM    6  C6  UNL     1      -4.557  -0.467   1.732  1.00  0.00     0.003 C 
HETATM    7  C7  UNL     1      -2.036  -0.258   1.230  1.00  0.00     0.018 C 
HETATM    8  C8  UNL     1      -0.715  -1.000   1.132  1.00  0.00    -0.049 C 
HETATM    9  C9  UNL     1      -0.646  -2.333   1.267  1.00  0.00    -0.035 C 
HETATM   10  C10 UNL     1      -1.823  -3.227   1.530  1.00  0.00     0.025 C 
HETATM   11  C11 UNL     1       0.546  -0.164   0.968  1.00  0.00     0.015 C 
HETATM   12  C12 UNL     1       0.258   1.128   0.149  1.00  0.00     0.003 C 
HETATM   13  C13 UNL     1      -0.758   1.972   0.955  1.00  0.00     0.001 C 
HETATM   14  C14 UNL     1      -1.806   1.167   1.764  1.00  0.00     0.004 C 
HETATM   15  C15 UNL     1       1.689   1.711  -0.052  1.00  0.00     0.003 C 
HETATM   16  C16 UNL     1       2.523   0.426  -0.306  1.00  0.00     0.000 C 
HETATM   17  C17 UNL     1       1.692  -0.790   0.155  1.00  0.00     0.004 C 
HETATM   18  C26 UNL     1      -0.293   0.851  -1.277  1.00  0.00     0.000 C 
HETATM   19  C27 UNL     1       1.126   0.051   2.393  1.00  0.00     0.004 C 
HETATM   20  C28 UNL     1      -2.881  -1.145   3.437  1.00  0.00     0.000 C 
HETATM   21  C29 UNL     1      -2.930  -2.350  -1.257  1.00  0.00     0.003 C 
HETATM   22  C30 UNL     1      -4.131  -4.268  -0.294  1.00  0.00     0.003 C 
HETATM   23  O3  UNL     1      -6.172  -2.648   0.574  1.00  0.00    -0.224 OA
ENDROOT
BRANCH  15  24
HETATM   24  C18 UNL     1       1.933   2.852  -1.082  1.00  0.00     0.038 C 
HETATM   25  C19 UNL     1       1.172   4.128  -0.669  1.00  0.00     0.003 C 
BRANCH  24  26
HETATM   26  C20 UNL     1       3.437   3.160  -1.266  1.00  0.00     0.213 C 
HETATM   27  O2  UNL     1       3.632   4.461  -1.797  1.00  0.00    -0.215 OA
BRANCH  26  28
HETATM   28  C21 UNL     1       4.192   2.195  -2.192  1.00  0.00     0.203 C 
HETATM   29  O1  UNL     1       3.605   1.698  -3.127  1.00  0.00    -0.289 OA
BRANCH  28  30
HETATM   30  C22 UNL     1       5.502   1.969  -1.909  1.00  0.00     0.032 C 
HETATM   31  C23 UNL     1       6.344   1.135  -2.547  1.00  0.00    -0.041 C 
HETATM   32  C24 UNL     1       7.800   1.056  -2.137  1.00  0.00     0.026 C 
HETATM   33  C25 UNL     1       5.998   0.217  -3.697  1.00  0.00     0.026 C 
ENDBRANCH  28  30
ENDBRANCH  26  28
ENDBRANCH  24  26
ENDBRANCH  15  24
TORSDOF 4
