REMARK  0 active torsions:
REMARK  status: ('A' for Active; 'I' for Inactive)
ROOT
HETATM    1  C1  UNL     1      -0.352   1.308  -1.414  1.00  0.00     0.035 C 
HETATM    2  C2  UNL     1      -0.287  -0.213  -1.408  1.00  0.00     0.180 C 
HETATM    3  C3  UNL     1       1.139  -0.758  -1.409  1.00  0.00     0.157 C 
HETATM    4  C4  UNL     1       1.921  -0.135  -0.229  1.00  0.00     0.058 C 
HETATM    5  C5  UNL     1       1.848   1.410  -0.073  1.00  0.00     0.005 C 
HETATM    6  C6  UNL     1       0.370   1.860  -0.176  1.00  0.00     0.003 C 
HETATM    7  C7  UNL     1       2.415   1.820   1.320  1.00  0.00     0.000 C 
HETATM    8  C8  UNL     1       3.064   0.672   2.112  1.00  0.00     0.003 C 
HETATM    9  C9  UNL     1       4.029  -0.132   1.230  1.00  0.00     0.037 C 
HETATM   10  C10 UNL     1       3.364  -0.629  -0.057  1.00  0.00     0.127 C 
HETATM   11  O1  UNL     1       3.402  -2.023  -0.045  1.00  0.00    -0.304 OA
HETATM   12  C11 UNL     1       4.111  -2.532   0.987  1.00  0.00     0.271 C 
HETATM   13  C12 UNL     1       4.626  -1.403   1.854  1.00  0.00     0.089 C 
HETATM   14  C13 UNL     1       4.332  -1.662   3.337  1.00  0.00     0.011 C 
HETATM   15  O2  UNL     1       4.281  -3.716   1.182  1.00  0.00    -0.264 OA
HETATM   16  C14 UNL     1       2.669   2.183  -1.133  1.00  0.00     0.000 C 
HETATM   17  C15 UNL     1       1.814  -0.672  -2.781  1.00  0.00     0.036 C 
HETATM   18  O3  UNL     1       0.987  -2.138  -1.161  1.00  0.00    -0.223 OA
HETATM   19  O4  UNL     1      -0.992  -0.747  -2.502  1.00  0.00    -0.221 OA
ENDROOT
TORSDOF 0
