REMARK  4 active torsions:
REMARK  status: ('A' for Active; 'I' for Inactive)
REMARK    1  A    between atoms: C4_4  and  O3_15 
REMARK    2  A    between atoms: O3_15  and  C13_16 
REMARK    3  A    between atoms: C13_16  and  C14_17 
REMARK    4  A    between atoms: C14_17  and  C16_19 
ROOT
HETATM    1  C1  UNL     1      -1.328  -2.249   0.324  1.00  0.00     0.087 C 
HETATM    2  C2  UNL     1       0.198  -2.125   0.358  1.00  0.00     0.136 C 
HETATM    3  C3  UNL     1       0.725  -0.897  -0.400  1.00  0.00     0.084 C 
HETATM    4  C4  UNL     1       1.016   0.287   0.521  1.00  0.00     0.135 C 
HETATM    5  C5  UNL     1      -0.124   0.478   1.530  1.00  0.00     0.055 C 
HETATM    6  C6  UNL     1      -1.478   0.358   0.861  1.00  0.00    -0.014 C 
HETATM    7  C7  UNL     1      -2.151  -1.010   0.773  1.00  0.00     0.149 C 
HETATM    8  C8  UNL     1      -2.725  -1.406   2.146  1.00  0.00     0.067 C 
HETATM    9  C9  UNL     1      -2.754  -2.923   2.193  1.00  0.00     0.143 A 
HETATM   10  C10 UNL     1      -1.886  -3.402   1.160  1.00  0.00     0.123 A 
HETATM   11  O1  UNL     1      -3.483  -3.470   1.122  1.00  0.00    -0.356 OA
HETATM   12  C11 UNL     1      -1.268  -4.781   1.228  1.00  0.00     0.032 C 
HETATM   13  O2  UNL     1      -3.246  -0.923  -0.126  1.00  0.00    -0.222 OA
HETATM   14  C12 UNL     1      -2.067   1.477   0.403  1.00  0.00    -0.007 C 
HETATM   15  C18 UNL     1       1.898  -1.471  -1.148  1.00  0.00     0.045 C 
HETATM   16  C19 UNL     1       1.819  -2.816  -1.022  1.00  0.00     0.292 C 
HETATM   17  O5  UNL     1       0.810  -3.250  -0.221  1.00  0.00    -0.301 OA
HETATM   18  O6  UNL     1       2.581  -3.587  -1.566  1.00  0.00    -0.260 OA
HETATM   19  C20 UNL     1       2.833  -0.824  -1.856  1.00  0.00     0.001 C 
ENDROOT
BRANCH   4  20
HETATM   20  O3  UNL     1       1.142   1.442  -0.260  1.00  0.00    -0.304 OA
BRANCH  20  21
HETATM   21  C13 UNL     1       1.887   2.470   0.218  1.00  0.00     0.271 C 
HETATM   22  O4  UNL     1       2.496   2.435   1.264  1.00  0.00    -0.264 OA
BRANCH  21  23
HETATM   23  C14 UNL     1       1.822   3.695  -0.692  1.00  0.00     0.086 C 
HETATM   24  C15 UNL     1       3.149   4.474  -0.606  1.00  0.00     0.010 C 
BRANCH  23  25
HETATM   25  C16 UNL     1       1.469   3.430  -2.171  1.00  0.00     0.010 C 
HETATM   26  C17 UNL     1      -0.017   3.150  -2.447  1.00  0.00     0.001 C 
ENDBRANCH  23  25
ENDBRANCH  21  23
ENDBRANCH  20  21
ENDBRANCH   4  20
TORSDOF 4
