REMARK  3 active torsions:
REMARK  status: ('A' for Active; 'I' for Inactive)
REMARK    1  A    between atoms: C7_7  and  O1_8 
REMARK    2  A    between atoms: O1_8  and  C8_9 
REMARK    3  A    between atoms: C8_9  and  C9_11 
ROOT
HETATM    1  C1  UNL     1      -1.244   1.196   0.188  1.00  0.00     0.055 C 
HETATM    2  C2  UNL     1      -2.112   0.723  -0.961  1.00  0.00    -0.014 C 
HETATM    3  C3  UNL     1      -2.605  -0.724  -0.987  1.00  0.00     0.149 C 
HETATM    4  C4  UNL     1      -1.588  -1.879  -0.772  1.00  0.00     0.087 C 
HETATM    5  C5  UNL     1      -0.259  -1.508  -0.103  1.00  0.00     0.136 C 
HETATM    6  C6  UNL     1       0.457  -0.345  -0.824  1.00  0.00     0.084 C 
HETATM    7  C7  UNL     1       0.255   0.980  -0.083  1.00  0.00     0.135 C 
HETATM    8  C13 UNL     1       1.866  -0.846  -0.975  1.00  0.00     0.045 C 
HETATM    9  C14 UNL     1       1.827  -2.240  -0.511  1.00  0.00     0.292 C 
HETATM   10  O3  UNL     1       0.607  -2.618  -0.059  1.00  0.00    -0.301 OA
HETATM   11  O4  UNL     1       2.792  -2.997  -0.537  1.00  0.00    -0.260 OA
HETATM   12  C15 UNL     1       2.952  -0.240  -1.486  1.00  0.00     0.001 C 
HETATM   13  C16 UNL     1      -2.384  -2.960  -0.036  1.00  0.00     0.123 A 
HETATM   14  C17 UNL     1      -3.634  -2.444   0.435  1.00  0.00     0.143 A 
HETATM   15  C18 UNL     1      -3.681  -0.966   0.088  1.00  0.00     0.067 C 
HETATM   16  O5  UNL     1      -3.809  -3.256  -0.701  1.00  0.00    -0.356 OA
HETATM   17  C19 UNL     1      -1.779  -4.223   0.536  1.00  0.00     0.032 C 
HETATM   18  O6  UNL     1      -3.219  -0.970  -2.244  1.00  0.00    -0.222 OA
HETATM   19  C20 UNL     1      -2.436   1.611  -1.918  1.00  0.00    -0.007 C 
ENDROOT
BRANCH   7  20
HETATM   20  O1  UNL     1       0.740   2.033  -0.866  1.00  0.00    -0.300 OA
BRANCH  20  21
HETATM   21  C8  UNL     1       1.664   2.945  -0.428  1.00  0.00     0.291 C 
HETATM   22  O2  UNL     1       1.874   3.918  -1.150  1.00  0.00    -0.260 OA
BRANCH  21  23
HETATM   23  C9  UNL     1       2.456   2.961   0.853  1.00  0.00     0.037 C 
HETATM   24  C10 UNL     1       2.711   4.315   1.476  1.00  0.00     0.036 C 
HETATM   25  C11 UNL     1       2.983   1.832   1.369  1.00  0.00    -0.025 C 
HETATM   26  C12 UNL     1       3.833   1.724   2.608  1.00  0.00     0.030 C 
ENDBRANCH  21  23
ENDBRANCH  20  21
ENDBRANCH   7  20
TORSDOF 3
