REMARK  5 active torsions:
REMARK  status: ('A' for Active; 'I' for Inactive)
REMARK    1  A    between atoms: C15_16  and  C18_19 
REMARK    2  A    between atoms: C18_19  and  C19_20 
REMARK    3  A    between atoms: C19_20  and  C20_21 
REMARK    4  A    between atoms: C20_21  and  C21_22 
REMARK    5  A    between atoms: C21_22  and  C22_23 
ROOT
HETATM    1  C1  UNL     1      -0.454  -2.098  -2.030  1.00  0.00     0.033 C 
HETATM    2  C2  UNL     1      -0.566  -3.525  -1.519  1.00  0.00     0.155 C 
HETATM    3  C3  UNL     1       0.780  -4.253  -1.544  1.00  0.00     0.071 C 
HETATM    4  C4  UNL     1       2.012  -3.343  -1.688  1.00  0.00     0.184 C 
HETATM    5  C5  UNL     1       1.910  -2.028  -0.890  1.00  0.00     0.036 C 
HETATM    6  C6  UNL     1       0.601  -1.280  -1.266  1.00  0.00     0.006 C 
HETATM    7  C7  UNL     1       3.151  -1.135  -1.213  1.00  0.00     0.021 C 
HETATM    8  C8  UNL     1       4.453  -1.915  -1.111  1.00  0.00    -0.042 C 
HETATM    9  C9  UNL     1       4.493  -3.261  -1.143  1.00  0.00     0.032 C 
HETATM   10  C10 UNL     1       3.278  -4.095  -1.285  1.00  0.00     0.200 C 
HETATM   11  O1  UNL     1       3.335  -5.315  -1.193  1.00  0.00    -0.289 OA
HETATM   12  C11 UNL     1       5.714  -1.083  -1.087  1.00  0.00     0.018 C 
HETATM   13  C12 UNL     1       5.672   0.049  -0.037  1.00  0.00     0.003 C 
HETATM   14  C13 UNL     1       4.506   0.953  -0.484  1.00  0.00     0.001 C 
HETATM   15  C14 UNL     1       3.168   0.197  -0.427  1.00  0.00     0.004 C 
HETATM   16  C15 UNL     1       7.095   0.662  -0.172  1.00  0.00     0.000 C 
HETATM   17  C16 UNL     1       7.988  -0.574  -0.455  1.00  0.00     0.000 C 
HETATM   18  C17 UNL     1       7.070  -1.750  -0.839  1.00  0.00     0.004 C 
HETATM   19  C27 UNL     1       5.454  -0.509   1.386  1.00  0.00     0.000 C 
HETATM   20  C28 UNL     1       1.900  -2.373   0.625  1.00  0.00     0.003 C 
HETATM   21  O2  UNL     1       2.172  -3.025  -3.059  1.00  0.00    -0.218 OA
HETATM   22  O3  UNL     1      -1.092  -3.502  -0.212  1.00  0.00    -0.223 OA
ENDROOT
BRANCH  16  23
HETATM   23  C18 UNL     1       7.634   1.544   0.985  1.00  0.00     0.000 C 
HETATM   24  C26 UNL     1       6.748   2.779   1.238  1.00  0.00     0.000 C 
BRANCH  23  25
HETATM   25  C19 UNL     1       9.098   2.001   0.758  1.00  0.00     0.000 C 
BRANCH  25  26
HETATM   26  C20 UNL     1       9.791   2.471   2.051  1.00  0.00     0.000 C 
BRANCH  26  27
HETATM   27  C21 UNL     1      11.311   2.745   1.953  1.00  0.00     0.000 C 
HETATM   28  C25 UNL     1      11.835   2.989   3.384  1.00  0.00     0.000 C 
BRANCH  27  29
HETATM   29  C22 UNL     1      11.647   3.880   0.950  1.00  0.00     0.000 C 
HETATM   30  C23 UNL     1      12.046   3.313  -0.428  1.00  0.00     0.000 C 
HETATM   31  C24 UNL     1      12.760   4.845   1.403  1.00  0.00     0.000 C 
ENDBRANCH  27  29
ENDBRANCH  26  27
ENDBRANCH  25  26
ENDBRANCH  23  25
ENDBRANCH  16  23
TORSDOF 5
