REMARK  3 active torsions:
REMARK  status: ('A' for Active; 'I' for Inactive)
REMARK    1  A    between atoms: C1_1  and  O2_17 
REMARK    2  A    between atoms: C10_10  and  C11_12 
REMARK    3  A    between atoms: O2_17  and  C16_18 
ROOT
HETATM    1  C1  UNL     1      -1.593   0.648   0.019  1.00  0.00     0.142 C 
HETATM    2  C2  UNL     1      -1.874  -0.610  -0.741  1.00  0.00    -0.021 C 
HETATM    3  C3  UNL     1      -0.905  -1.261  -1.393  1.00  0.00    -0.030 C 
HETATM    4  C4  UNL     1       0.506  -0.762  -1.393  1.00  0.00     0.050 C 
HETATM    5  C5  UNL     1       0.506   0.761  -1.393  1.00  0.00     0.009 C 
HETATM    6  C6  UNL     1      -0.189   1.269  -0.137  1.00  0.00     0.035 C 
HETATM    7  C7  UNL     1       1.942   1.269  -1.420  1.00  0.00     0.001 C 
HETATM    8  C8  UNL     1       2.681   0.765  -0.187  1.00  0.00     0.003 C 
HETATM    9  C9  UNL     1       2.661  -0.766  -0.152  1.00  0.00     0.031 C 
HETATM   10  C10 UNL     1       1.224  -1.270  -0.150  1.00  0.00     0.130 C 
HETATM   11  O1  UNL     1       1.220  -2.671  -0.148  1.00  0.00    -0.226 OA
HETATM   12  C14 UNL     1       2.638   0.756  -2.673  1.00  0.00     0.000 C 
HETATM   13  C15 UNL     1      -3.270  -1.151  -0.773  1.00  0.00     0.029 C 
ENDROOT
BRANCH   1  14
HETATM   14  O2  UNL     1      -2.526   1.609  -0.396  1.00  0.00    -0.300 OA
BRANCH  14  15
HETATM   15  C16 UNL     1      -3.411   2.104   0.477  1.00  0.00     0.273 C 
HETATM   16  O3  UNL     1      -4.215   2.932   0.119  1.00  0.00    -0.264 OA
HETATM   17  C17 UNL     1      -3.404   1.629   1.909  1.00  0.00     0.106 C 
ENDBRANCH  14  15
ENDBRANCH   1  14
BRANCH  10  18
HETATM   18  C11 UNL     1       0.509  -0.758   1.094  1.00  0.00     0.028 C 
HETATM   19  C12 UNL     1       0.020  -1.940   1.920  1.00  0.00     0.003 C 
HETATM   20  C13 UNL     1       1.473   0.079   1.925  1.00  0.00     0.003 C 
ENDBRANCH  10  18
TORSDOF 3
