REMARK  2 active torsions:
REMARK  status: ('A' for Active; 'I' for Inactive)
REMARK    1  A    between atoms: C2_2  and  O2_17 
REMARK    2  A    between atoms: O2_17  and  C16_18 
ROOT
HETATM    1  C1  UNL     1      -0.828   0.879  -1.045  1.00  0.00     0.035 C 
HETATM    2  C2  UNL     1      -0.883  -0.540  -0.484  1.00  0.00     0.143 C 
HETATM    3  C3  UNL     1       0.488  -1.185  -0.527  1.00  0.00    -0.017 C 
HETATM    4  C4  UNL     1       1.675  -0.273  -0.784  1.00  0.00     0.025 C 
HETATM    5  C5  UNL     1       1.552   1.082  -0.029  1.00  0.00     0.010 C 
HETATM    6  C6  UNL     1       0.166   1.747  -0.261  1.00  0.00     0.004 C 
HETATM    7  C7  UNL     1       2.650   2.050  -0.544  1.00  0.00     0.051 C 
HETATM    8  C8  UNL     1       3.990   1.388  -0.593  1.00  0.00     0.073 A 
HETATM    9  C9  UNL     1       4.158   0.037  -0.599  1.00  0.00    -0.005 A 
HETATM   10  C10 UNL     1       3.041  -0.956  -0.555  1.00  0.00     0.032 C 
HETATM   11  C11 UNL     1       5.568  -0.203  -0.635  1.00  0.00     0.001 A 
HETATM   12  C12 UNL     1       6.145   1.031  -0.644  1.00  0.00     0.118 A 
HETATM   13  O1  UNL     1       5.202   2.017  -0.625  1.00  0.00    -0.310 OA
HETATM   14  C13 UNL     1       6.256  -1.532  -0.624  1.00  0.00     0.033 C 
HETATM   15  C14 UNL     1       1.754   0.873   1.491  1.00  0.00     0.001 C 
HETATM   16  C15 UNL     1       0.582  -2.515  -0.361  1.00  0.00    -0.007 C 
ENDROOT
BRANCH   2  17
HETATM   17  O2  UNL     1      -1.344  -0.544   0.847  1.00  0.00    -0.300 OA
BRANCH  17  18
HETATM   18  C16 UNL     1      -2.677  -0.401   1.068  1.00  0.00     0.273 C 
HETATM   19  C17 UNL     1      -2.963  -0.439   2.555  1.00  0.00     0.106 C 
HETATM   20  O3  UNL     1      -3.518  -0.272   0.207  1.00  0.00    -0.264 OA
ENDBRANCH  17  18
ENDBRANCH   2  17
TORSDOF 2
