REMARK  6 active torsions:
REMARK  status: ('A' for Active; 'I' for Inactive)
REMARK    1  A    between atoms: C2_2  and  O4_34 
REMARK    2  A    between atoms: C15_15  and  C16_16 
REMARK    3  A    between atoms: C16_16  and  C18_19 
REMARK    4  A    between atoms: C18_19  and  C19_20 
REMARK    5  A    between atoms: C20_21  and  C21_22 
REMARK    6  A    between atoms: O4_34  and  C31_35 
ROOT
HETATM    1  C1  UNL     1       0.368   1.270  -2.377  1.00  0.00     0.030 C 
HETATM    2  C2  UNL     1      -0.593   0.351  -1.625  1.00  0.00     0.124 C 
HETATM    3  C3  UNL     1       0.165  -0.863  -1.031  1.00  0.00     0.026 C 
HETATM    4  C4  UNL     1       1.698  -0.571  -0.814  1.00  0.00     0.002 C 
HETATM    5  C5  UNL     1       2.118   0.896  -0.469  1.00  0.00     0.000 C 
HETATM    6  C6  UNL     1       1.444   1.883  -1.471  1.00  0.00     0.003 C 
HETATM    7  C7  UNL     1       3.686   1.112  -0.468  1.00  0.00     0.000 C 
HETATM    8  C8  UNL     1       4.576  -0.170  -0.550  1.00  0.00     0.000 C 
HETATM    9  C9  UNL     1       4.111  -0.907  -1.822  1.00  0.00     0.000 C 
HETATM   10  C10 UNL     1       2.607  -1.217  -1.884  1.00  0.00     0.000 C 
HETATM   11  C11 UNL     1       6.090   0.234  -0.696  1.00  0.00     0.003 C 
HETATM   12  C12 UNL     1       6.468   1.081   0.545  1.00  0.00     0.005 C 
HETATM   13  C13 UNL     1       5.742   2.427   0.491  1.00  0.00     0.000 C 
HETATM   14  C14 UNL     1       4.225   2.152   0.547  1.00  0.00     0.000 C 
HETATM   15  C15 UNL     1       8.001   0.997   0.685  1.00  0.00     0.059 C 
HETATM   16  C24 UNL     1       8.216  -0.491   0.350  1.00  0.00     0.154 C 
HETATM   17  C25 UNL     1       7.118  -0.925  -0.632  1.00  0.00     0.033 C 
HETATM   18  O3  UNL     1       8.146  -1.306   1.494  1.00  0.00    -0.223 OA
HETATM   19  C26 UNL     1       6.420   0.981  -2.023  1.00  0.00     0.000 C 
HETATM   20  C27 UNL     1       4.371  -1.091   0.684  1.00  0.00     0.000 C 
HETATM   21  C28 UNL     1       1.560   1.248   0.940  1.00  0.00     0.000 C 
HETATM   22  C29 UNL     1      -0.085  -2.054  -2.005  1.00  0.00     0.002 C 
HETATM   23  C30 UNL     1      -0.481  -1.376   0.288  1.00  0.00     0.002 C 
ENDROOT
BRANCH  15  24
HETATM   24  C16 UNL     1       8.641   1.643   1.946  1.00  0.00     0.133 C 
HETATM   25  C17 UNL     1       9.210   3.022   1.562  1.00  0.00     0.033 C 
HETATM   26  O1  UNL     1       7.637   1.901   2.899  1.00  0.00    -0.226 OA
BRANCH  24  27
HETATM   27  C18 UNL     1       9.732   0.868   2.712  1.00  0.00     0.056 C 
BRANCH  27  28
HETATM   28  C19 UNL     1      10.662   0.038   1.869  1.00  0.00    -0.026 C 
HETATM   29  C20 UNL     1      10.936  -1.242   2.168  1.00  0.00    -0.001 C 
BRANCH  29  30
HETATM   30  C21 UNL     1      11.630  -2.240   1.270  1.00  0.00     0.145 C 
HETATM   31  C22 UNL     1      12.415  -3.247   2.114  1.00  0.00     0.038 C 
HETATM   32  C23 UNL     1      12.537  -1.614   0.211  1.00  0.00     0.038 C 
HETATM   33  O2  UNL     1      10.603  -2.945   0.600  1.00  0.00    -0.222 OA
ENDBRANCH  29  30
ENDBRANCH  27  28
ENDBRANCH  24  27
ENDBRANCH  15  24
BRANCH   2  34
HETATM   34  O4  UNL     1      -1.261   1.106  -0.655  1.00  0.00    -0.304 OA
BRANCH  34  35
HETATM   35  C31 UNL     1      -2.615   1.142  -0.492  1.00  0.00     0.272 C 
HETATM   36  O5  UNL     1      -3.137   1.827   0.362  1.00  0.00    -0.264 OA
HETATM   37  C32 UNL     1      -3.460   0.280  -1.415  1.00  0.00     0.106 C 
ENDBRANCH  34  35
ENDBRANCH   2  34
TORSDOF 6
