REMARK  5 active torsions:
REMARK  status: ('A' for Active; 'I' for Inactive)
REMARK    1  A    between atoms: C3_3  and  O3_12 
REMARK    2  A    between atoms: O3_12  and  C10_13 
REMARK    3  A    between atoms: C13_16  and  O4_19 
REMARK    4  A    between atoms: O4_19  and  C16_20 
REMARK    5  A    between atoms: C16_20  and  C17_21 
ROOT
HETATM    1  C1  UNL     1       0.903   0.948  -0.069  1.00  0.00     0.005 C 
HETATM    2  C2  UNL     1       0.100  -0.372   0.150  1.00  0.00     0.031 C 
HETATM    3  C3  UNL     1       1.019  -1.631   0.016  1.00  0.00     0.136 C 
HETATM    4  C4  UNL     1       2.457  -1.219  -0.104  1.00  0.00     0.011 A 
HETATM    5  C5  UNL     1       3.007  -0.215   0.857  1.00  0.00     0.145 A 
HETATM    6  C6  UNL     1       2.208   1.078   0.749  1.00  0.00     0.035 C 
HETATM    7  O1  UNL     1       4.349  -0.048   0.446  1.00  0.00    -0.297 OA
HETATM    8  C7  UNL     1       4.503  -0.882  -0.627  1.00  0.00     0.291 A 
HETATM    9  C8  UNL     1       3.401  -1.588  -0.978  1.00  0.00     0.038 A 
HETATM   10  C9  UNL     1       3.300  -2.561  -2.115  1.00  0.00     0.036 C 
HETATM   11  O2  UNL     1       5.552  -0.981  -1.226  1.00  0.00    -0.260 OA
HETATM   12  C12 UNL     1      -1.030  -0.464  -0.930  1.00  0.00     0.030 C 
HETATM   13  C13 UNL     1      -1.460   0.872  -1.559  1.00  0.00     0.125 C 
HETATM   14  C14 UNL     1      -0.266   1.580  -2.219  1.00  0.00     0.030 C 
HETATM   15  C15 UNL     1       1.084   1.223  -1.571  1.00  0.00     0.003 C 
HETATM   16  C21 UNL     1      -2.247  -1.308  -0.510  1.00  0.00     0.003 C 
HETATM   17  C22 UNL     1      -0.498  -0.281   1.576  1.00  0.00     0.003 C 
ENDROOT
BRANCH  13  18
HETATM   18  O4  UNL     1      -2.075   1.709  -0.614  1.00  0.00    -0.301 OA
BRANCH  18  19
HETATM   19  C16 UNL     1      -3.168   2.449  -0.989  1.00  0.00     0.291 C 
HETATM   20  O5  UNL     1      -3.625   2.306  -2.104  1.00  0.00    -0.260 OA
BRANCH  19  21
HETATM   21  C17 UNL     1      -3.802   3.370  -0.206  1.00  0.00     0.037 C 
HETATM   22  C18 UNL     1      -5.027   4.058  -0.790  1.00  0.00     0.036 C 
HETATM   23  C19 UNL     1      -3.421   3.699   1.044  1.00  0.00    -0.025 C 
HETATM   24  C20 UNL     1      -2.253   3.225   1.865  1.00  0.00     0.030 C 
ENDBRANCH  19  21
ENDBRANCH  18  19
ENDBRANCH  13  18
BRANCH   3  25
HETATM   25  O3  UNL     1       0.839  -2.510   1.106  1.00  0.00    -0.353 OA
BRANCH  25  26
HETATM   26  C10 UNL     1       1.427  -3.774   0.922  1.00  0.00     0.143 C 
HETATM   27  C11 UNL     1       1.210  -4.604   2.184  1.00  0.00     0.035 C 
ENDBRANCH  25  26
ENDBRANCH   3  25
TORSDOF 5
