REMARK  6 active torsions:
REMARK  status: ('A' for Active; 'I' for Inactive)
REMARK    1  A    between atoms: C2_2  and  O2_32 
REMARK    2  A    between atoms: C15_16  and  C18_19 
REMARK    3  A    between atoms: C18_19  and  C20_21 
REMARK    4  A    between atoms: C20_21  and  C21_22 
REMARK    5  A    between atoms: C21_22  and  C22_23 
REMARK    6  A    between atoms: O2_32  and  C31_33 
ROOT
HETATM    1  C1  UNL     1       0.405  -0.871   0.189  1.00  0.00     0.031 C 
HETATM    2  C2  UNL     1       0.506  -2.287  -0.370  1.00  0.00     0.124 C 
HETATM    3  C3  UNL     1       1.770  -3.034   0.110  1.00  0.00     0.026 C 
HETATM    4  C4  UNL     1       3.018  -2.116  -0.080  1.00  0.00     0.006 C 
HETATM    5  C5  UNL     1       2.963  -0.646   0.434  1.00  0.00     0.021 C 
HETATM    6  C6  UNL     1       1.656  -0.039  -0.128  1.00  0.00     0.007 C 
HETATM    7  C7  UNL     1       4.232   0.112  -0.013  1.00  0.00     0.004 C 
HETATM    8  C8  UNL     1       5.389  -0.539  -0.288  1.00  0.00    -0.046 C 
HETATM    9  C9  UNL     1       5.502  -2.044  -0.329  1.00  0.00     0.022 C 
HETATM   10  C10 UNL     1       4.338  -2.767   0.346  1.00  0.00     0.005 C 
HETATM   11  C11 UNL     1       6.625   0.225  -0.730  1.00  0.00     0.015 C 
HETATM   12  C12 UNL     1       6.798   1.491   0.155  1.00  0.00     0.010 C 
HETATM   13  C13 UNL     1       5.582   2.373  -0.150  1.00  0.00     0.069 C 
HETATM   14  C14 UNL     1       4.265   1.610  -0.037  1.00  0.00     0.169 C 
HETATM   15  O1  UNL     1       3.260   2.299   0.079  1.00  0.00    -0.292 OA
HETATM   16  C15 UNL     1       8.198   2.027  -0.260  1.00  0.00     0.001 C 
HETATM   17  C16 UNL     1       8.989   0.714  -0.473  1.00  0.00     0.000 C 
HETATM   18  C17 UNL     1       7.990  -0.453  -0.535  1.00  0.00     0.004 C 
HETATM   19  C26 UNL     1       6.793   1.164   1.671  1.00  0.00     0.001 C 
HETATM   20  C27 UNL     1       6.446   0.472  -2.249  1.00  0.00     0.004 C 
HETATM   21  C28 UNL     1       2.979  -0.482   1.972  1.00  0.00     0.004 C 
HETATM   22  C29 UNL     1       1.905  -4.293  -0.795  1.00  0.00     0.002 C 
HETATM   23  C30 UNL     1       1.608  -3.561   1.553  1.00  0.00     0.002 C 
ENDROOT
BRANCH  16  24
HETATM   24  C18 UNL     1       8.945   3.058   0.629  1.00  0.00     0.000 C 
HETATM   25  C19 UNL     1       8.104   4.336   0.840  1.00  0.00     0.000 C 
BRANCH  24  26
HETATM   26  C20 UNL     1      10.325   3.501   0.066  1.00  0.00     0.005 C 
BRANCH  26  27
HETATM   27  C21 UNL     1      11.495   2.524   0.279  1.00  0.00     0.025 C 
BRANCH  27  28
HETATM   28  C22 UNL     1      12.849   3.089  -0.074  1.00  0.00    -0.035 C 
HETATM   29  C23 UNL     1      13.952   2.358  -0.319  1.00  0.00    -0.048 C 
HETATM   30  C24 UNL     1      15.263   3.012  -0.688  1.00  0.00     0.026 C 
HETATM   31  C25 UNL     1      14.003   0.849  -0.257  1.00  0.00     0.026 C 
ENDBRANCH  27  28
ENDBRANCH  26  27
ENDBRANCH  24  26
ENDBRANCH  16  24
BRANCH   2  32
HETATM   32  O2  UNL     1      -0.643  -3.002  -0.006  1.00  0.00    -0.304 OA
BRANCH  32  33
HETATM   33  C31 UNL     1      -1.613  -3.224  -0.932  1.00  0.00     0.272 C 
HETATM   34  C32 UNL     1      -2.726  -4.054  -0.322  1.00  0.00     0.106 C 
HETATM   35  O3  UNL     1      -1.599  -2.835  -2.078  1.00  0.00    -0.264 OA
ENDBRANCH  32  33
ENDBRANCH   2  32
TORSDOF 6
