REMARK  5 active torsions:
REMARK  status: ('A' for Active; 'I' for Inactive)
REMARK    1  A    between atoms: C2_2  and  O6_26 
REMARK    2  A    between atoms: C7_7  and  O2_13 
REMARK    3  A    between atoms: O2_13  and  C12_14 
REMARK    4  A    between atoms: C12_14  and  C13_15 
REMARK    5  A    between atoms: O6_26  and  C21_27 
ROOT
HETATM    1  C1  UNL     1      -3.032  -0.131  -0.793  1.00  0.00     0.066 C 
HETATM    2  C2  UNL     1      -2.209   0.755  -1.745  1.00  0.00     0.136 C 
HETATM    3  C3  UNL     1      -0.962   1.520  -1.300  1.00  0.00    -0.019 C 
HETATM    4  C4  UNL     1      -0.507   1.780  -0.060  1.00  0.00    -0.002 C 
HETATM    5  C5  UNL     1      -1.043   1.447   1.307  1.00  0.00     0.152 A 
HETATM    6  C6  UNL     1      -0.596   0.102   1.916  1.00  0.00     0.087 A 
HETATM    7  C7  UNL     1       0.407  -0.785   1.158  1.00  0.00     0.134 C 
HETATM    8  C8  UNL     1      -0.135  -1.391  -0.141  1.00  0.00     0.060 C 
HETATM    9  C9  UNL     1      -1.460  -2.117   0.030  1.00  0.00     0.120 A 
HETATM   10  C10 UNL     1      -1.444  -3.377   0.887  1.00  0.00     0.032 C 
HETATM   11  C11 UNL     1      -2.736  -1.561  -0.335  1.00  0.00     0.143 A 
HETATM   12  O1  UNL     1      -2.212  -2.371  -1.359  1.00  0.00    -0.357 OA
HETATM   13  C17 UNL     1      -0.043   0.538   3.252  1.00  0.00     0.046 A 
HETATM   14  C18 UNL     1       0.454  -0.238   4.224  1.00  0.00     0.001 C 
HETATM   15  C19 UNL     1      -0.123   1.887   3.314  1.00  0.00     0.292 A 
HETATM   16  O4  UNL     1      -0.677   2.468   2.222  1.00  0.00    -0.296 OA
HETATM   17  O5  UNL     1       0.261   2.537   4.262  1.00  0.00    -0.259 OA
HETATM   18  C20 UNL     1      -0.164   2.095  -2.462  1.00  0.00     0.029 C 
ENDROOT
BRANCH   7  19
HETATM   19  O2  UNL     1       1.605  -0.089   0.927  1.00  0.00    -0.301 OA
BRANCH  19  20
HETATM   20  C12 UNL     1       2.797  -0.703   1.219  1.00  0.00     0.291 C 
HETATM   21  O3  UNL     1       2.805  -1.891   1.463  1.00  0.00    -0.260 OA
BRANCH  20  22
HETATM   22  C13 UNL     1       3.993  -0.057   1.339  1.00  0.00     0.037 C 
HETATM   23  C14 UNL     1       5.201  -0.869   1.772  1.00  0.00     0.036 C 
HETATM   24  C15 UNL     1       4.147   1.260   1.105  1.00  0.00    -0.025 C 
HETATM   25  C16 UNL     1       3.120   2.250   0.629  1.00  0.00     0.030 C 
ENDBRANCH  20  22
ENDBRANCH  19  20
ENDBRANCH   7  19
BRANCH   2  26
HETATM   26  O6  UNL     1      -1.934   0.024  -2.926  1.00  0.00    -0.353 OA
BRANCH  26  27
HETATM   27  C21 UNL     1      -2.869   0.205  -3.960  1.00  0.00     0.143 C 
HETATM   28  C22 UNL     1      -2.493  -0.721  -5.113  1.00  0.00     0.035 C 
ENDBRANCH  26  27
ENDBRANCH   2  26
TORSDOF 5
