REMARK  1 active torsions:
REMARK  status: ('A' for Active; 'I' for Inactive)
REMARK    1  A    between atoms: C16_16  and  C25_25 
ROOT
HETATM    1  C1  UNL     1      -0.836   1.150   0.027  1.00  0.00     0.033 C 
HETATM    2  C2  UNL     1      -1.520  -0.170   0.352  1.00  0.00     0.152 C 
HETATM    3  C3  UNL     1      -0.741  -1.375  -0.217  1.00  0.00     0.028 C 
HETATM    4  C4  UNL     1       0.794  -1.079  -0.246  1.00  0.00     0.002 C 
HETATM    5  C5  UNL     1       1.345  -0.076   0.805  1.00  0.00     0.001 C 
HETATM    6  C6  UNL     1       0.557   1.264   0.669  1.00  0.00     0.003 C 
HETATM    7  C7  UNL     1       2.861   0.212   0.486  1.00  0.00     0.005 C 
HETATM    8  C8  UNL     1       3.834  -0.969   0.192  1.00  0.00     0.004 C 
HETATM    9  C9  UNL     1       3.118  -1.986  -0.731  1.00  0.00     0.000 C 
HETATM   10  C10 UNL     1       1.684  -2.337  -0.312  1.00  0.00     0.000 C 
HETATM   11  C11 UNL     1       5.168  -0.413  -0.480  1.00  0.00     0.015 C 
HETATM   12  C12 UNL     1       5.775   0.662   0.426  1.00  0.00    -0.049 C 
HETATM   13  C13 UNL     1       4.996   1.403   1.233  1.00  0.00    -0.035 C 
HETATM   14  C14 UNL     1       3.521   1.216   1.447  1.00  0.00     0.025 C 
HETATM   15  C15 UNL     1       7.260   0.995   0.371  1.00  0.00     0.025 C 
HETATM   16  C16 UNL     1       8.126  -0.276   0.307  1.00  0.00     0.062 C 
HETATM   17  C17 UNL     1       7.655  -1.141  -0.876  1.00  0.00     0.008 C 
HETATM   18  C18 UNL     1       6.181  -1.562  -0.737  1.00  0.00     0.004 C 
HETATM   19  C19 UNL     1       9.620   0.099   0.203  1.00  0.00     0.008 C 
HETATM   20  C20 UNL     1       9.932   1.127  -0.892  1.00  0.00     0.001 C 
HETATM   21  C21 UNL     1       9.102   2.421  -0.768  1.00  0.00     0.000 C 
HETATM   22  C22 UNL     1       7.606   2.047  -0.699  1.00  0.00     0.004 C 
HETATM   23  C23 UNL     1       9.349   3.292  -2.021  1.00  0.00     0.000 C 
HETATM   24  C24 UNL     1       9.527   3.250   0.462  1.00  0.00     0.000 C 
HETATM   25  C26 UNL     1       4.925   0.268  -1.856  1.00  0.00     0.004 C 
HETATM   26  C27 UNL     1       4.196  -1.695   1.516  1.00  0.00     0.000 C 
HETATM   27  C28 UNL     1       1.104  -0.595   2.246  1.00  0.00     0.000 C 
HETATM   28  C29 UNL     1      -1.103  -2.629   0.612  1.00  0.00     0.003 C 
HETATM   29  C30 UNL     1      -1.207  -1.663  -1.671  1.00  0.00     0.003 C 
HETATM   30  O2  UNL     1      -2.845  -0.134  -0.128  1.00  0.00    -0.224 OA
ENDROOT
BRANCH  16  31
HETATM   31  C25 UNL     1       7.996  -1.043   1.627  1.00  0.00     0.207 C 
HETATM   32  O1  UNL     1       7.998  -2.249   1.700  1.00  0.00    -0.288 OA
ENDBRANCH  16  31
TORSDOF 1
