REMARK  1 active torsions:
REMARK  status: ('A' for Active; 'I' for Inactive)
REMARK    1  A    between atoms: C12_12  and  O2_16 
ROOT
HETATM    1  C1  UNL     1      -0.777  -1.674   1.564  1.00  0.00     0.033 C 
HETATM    2  C2  UNL     1      -1.802  -1.354   0.483  1.00  0.00     0.152 C 
HETATM    3  C3  UNL     1      -1.550   0.032  -0.149  1.00  0.00     0.029 C 
HETATM    4  C4  UNL     1      -0.059   0.463   0.011  1.00  0.00     0.006 C 
HETATM    5  C5  UNL     1       1.015  -0.655  -0.058  1.00  0.00     0.022 C 
HETATM    6  C6  UNL     1       0.667  -1.703   1.034  1.00  0.00     0.007 C 
HETATM    7  C7  UNL     1       2.430  -0.082   0.153  1.00  0.00     0.015 A 
HETATM    8  C8  UNL     1       2.702   1.237   0.009  1.00  0.00     0.018 A 
HETATM    9  C9  UNL     1       1.647   2.265  -0.322  1.00  0.00     0.029 C 
HETATM   10  C10 UNL     1       0.348   1.660  -0.859  1.00  0.00     0.005 C 
HETATM   11  C11 UNL     1       4.078   1.782   0.186  1.00  0.00     0.214 A 
HETATM   12  C12 UNL     1       5.218   0.846   0.388  1.00  0.00     0.136 A 
HETATM   13  C13 UNL     1       4.936  -0.469   0.491  1.00  0.00     0.069 A 
HETATM   14  C14 UNL     1       3.559  -1.018   0.429  1.00  0.00     0.194 A 
HETATM   15  O1  UNL     1       3.419  -2.228   0.564  1.00  0.00    -0.287 OA
HETATM   16  O3  UNL     1       4.281   2.990   0.131  1.00  0.00    -0.285 OA
HETATM   17  C16 UNL     1       1.119  -1.325  -1.450  1.00  0.00     0.004 C 
HETATM   18  C17 UNL     1      -2.436   1.043   0.635  1.00  0.00     0.003 C 
HETATM   19  C18 UNL     1      -2.055   0.087  -1.608  1.00  0.00     0.003 C 
HETATM   20  O4  UNL     1      -1.807  -2.391  -0.469  1.00  0.00    -0.224 OA
ENDROOT
BRANCH  12  21
HETATM   21  O2  UNL     1       6.466   1.416   0.391  1.00  0.00    -0.325 OA
HETATM   22  C15 UNL     1       7.590   0.569   0.342  1.00  0.00     0.181 C 
ENDBRANCH  12  21
TORSDOF 1
