REMARK  1 active torsions:
REMARK  status: ('A' for Active; 'I' for Inactive)
REMARK    1  A    between atoms: C21_21  and  C23_23 
ROOT
HETATM    1  C1  UNL     1      -2.059  -0.333   0.097  1.00  0.00     0.181 C 
HETATM    2  C2  UNL     1      -2.325  -1.801   0.383  1.00  0.00     0.209 C 
HETATM    3  C3  UNL     1      -1.097  -2.657   0.051  1.00  0.00     0.038 C 
HETATM    4  C4  UNL     1       0.223  -2.152   0.727  1.00  0.00     0.003 C 
HETATM    5  C5  UNL     1       0.444  -0.637   0.413  1.00  0.00     0.007 C 
HETATM    6  C6  UNL     1      -0.801   0.211   0.743  1.00  0.00     0.067 C 
HETATM    7  C7  UNL     1       1.802   0.012   0.881  1.00  0.00     0.000 C 
HETATM    8  C8  UNL     1       2.963  -1.026   0.719  1.00  0.00     0.000 C 
HETATM    9  C9  UNL     1       2.614  -2.122  -0.309  1.00  0.00     0.000 C 
HETATM   10  C10 UNL     1       1.409  -2.967   0.136  1.00  0.00     0.000 C 
HETATM   11  C11 UNL     1       4.422  -0.441   0.682  1.00  0.00     0.000 C 
HETATM   12  C12 UNL     1       4.572   0.696  -0.389  1.00  0.00     0.000 C 
HETATM   13  C13 UNL     1       3.547   1.796  -0.012  1.00  0.00     0.000 C 
HETATM   14  C14 UNL     1       2.085   1.297   0.047  1.00  0.00     0.000 C 
HETATM   15  C15 UNL     1       6.062   1.168  -0.606  1.00  0.00     0.001 C 
HETATM   16  C16 UNL     1       7.206   0.572   0.250  1.00  0.00     0.000 C 
HETATM   17  C17 UNL     1       6.972  -0.950   0.471  1.00  0.00     0.000 C 
HETATM   18  C18 UNL     1       5.523  -1.480   0.358  1.00  0.00     0.000 C 
HETATM   19  C19 UNL     1       8.529   0.745  -0.559  1.00  0.00     0.001 C 
HETATM   20  C20 UNL     1       8.820   2.190  -1.010  1.00  0.00     0.010 C 
HETATM   21  C21 UNL     1       7.620   2.948  -1.621  1.00  0.00     0.078 C 
HETATM   22  C22 UNL     1       6.299   2.669  -0.860  1.00  0.00     0.010 C 
HETATM   23  C24 UNL     1       7.916   4.465  -1.563  1.00  0.00     0.011 C 
HETATM   24  C25 UNL     1       7.441   1.341   1.576  1.00  0.00     0.000 C 
HETATM   25  C26 UNL     1       4.147   0.270  -1.837  1.00  0.00     0.000 C 
HETATM   26  C27 UNL     1       4.722  -0.045   2.164  1.00  0.00     0.000 C 
HETATM   27  C28 UNL     1       1.672   0.528   2.341  1.00  0.00     0.000 C 
HETATM   28  C29 UNL     1       0.145  -2.426   2.247  1.00  0.00     0.000 C 
HETATM   29  C30 UNL     1      -1.427  -4.142   0.318  1.00  0.00     0.003 C 
HETATM   30  O3  UNL     1      -3.454  -2.271  -0.337  1.00  0.00    -0.215 OA
HETATM   31  O4  UNL     1      -2.811   0.380  -0.529  1.00  0.00    -0.293 OA
ENDROOT
BRANCH  21  32
HETATM   32  C23 UNL     1       7.378   2.627  -3.102  1.00  0.00     0.184 C 
HETATM   33  O1  UNL     1       6.616   3.215  -3.833  1.00  0.00    -0.647 OA
HETATM   34  O2  UNL     1       8.090   1.587  -3.567  1.00  0.00    -0.647 OA
ENDBRANCH  21  32
TORSDOF 1
