REMARK  8 active torsions:
REMARK  status: ('A' for Active; 'I' for Inactive)
REMARK    1  A    between atoms: C2_2  and  O4_33 
REMARK    2  A    between atoms: C15_15  and  C18_19 
REMARK    3  A    between atoms: C18_19  and  C19_20 
REMARK    4  A    between atoms: C18_19  and  C24_25 
REMARK    5  A    between atoms: C19_20  and  C20_21 
REMARK    6  A    between atoms: C20_21  and  C21_22 
REMARK    7  A    between atoms: O4_33  and  C30_34 
REMARK    8  A    between atoms: C30_34  and  C31_35 
ROOT
HETATM    1  C1  UNL     1       2.651  -0.450  -1.922  1.00  0.00     0.031 C 
HETATM    2  C2  UNL     1       2.333  -1.727  -1.150  1.00  0.00     0.124 C 
HETATM    3  C3  UNL     1       3.588  -2.642  -1.128  1.00  0.00     0.026 C 
HETATM    4  C4  UNL     1       4.920  -1.820  -1.115  1.00  0.00     0.010 C 
HETATM    5  C5  UNL     1       4.849  -0.404  -0.493  1.00  0.00     0.019 C 
HETATM    6  C6  UNL     1       3.730   0.394  -1.215  1.00  0.00     0.007 C 
HETATM    7  C7  UNL     1       6.203   0.310  -0.621  1.00  0.00    -0.031 C 
HETATM    8  C8  UNL     1       7.455  -0.471  -0.666  1.00  0.00    -0.031 C 
HETATM    9  C9  UNL     1       7.409  -1.817  -0.674  1.00  0.00    -0.031 C 
HETATM   10  C10 UNL     1       6.135  -2.611  -0.603  1.00  0.00     0.026 C 
HETATM   11  C11 UNL     1       8.772   0.279  -0.734  1.00  0.00     0.021 C 
HETATM   12  C12 UNL     1       8.680   1.527   0.187  1.00  0.00     0.010 C 
HETATM   13  C13 UNL     1       7.582   2.435  -0.388  1.00  0.00     0.026 C 
HETATM   14  C14 UNL     1       6.292   1.657  -0.512  1.00  0.00    -0.031 C 
HETATM   15  C15 UNL     1      10.136   2.061   0.178  1.00  0.00     0.041 C 
HETATM   16  C16 UNL     1      10.942   0.752   0.267  1.00  0.00     0.153 C 
HETATM   17  C17 UNL     1      10.039  -0.404  -0.190  1.00  0.00     0.037 C 
HETATM   18  O1  UNL     1      12.101   0.817  -0.528  1.00  0.00    -0.223 OA
HETATM   19  C25 UNL     1       8.284   1.165   1.645  1.00  0.00     0.001 C 
HETATM   20  C26 UNL     1       8.995   0.553  -2.242  1.00  0.00     0.004 C 
HETATM   21  C27 UNL     1       4.670  -0.425   1.047  1.00  0.00     0.004 C 
HETATM   22  C28 UNL     1       3.564  -3.505  -2.423  1.00  0.00     0.003 C 
HETATM   23  C29 UNL     1       3.479  -3.659   0.033  1.00  0.00     0.003 C 
ENDROOT
BRANCH   2  24
HETATM   24  O4  UNL     1       1.949  -1.355   0.138  1.00  0.00    -0.301 OA
BRANCH  24  25
HETATM   25  C30 UNL     1       0.787  -1.722   0.747  1.00  0.00     0.296 C 
HETATM   26  O6  UNL     1       0.666  -1.459   1.942  1.00  0.00    -0.259 OA
BRANCH  25  27
HETATM   27  C31 UNL     1      -0.404  -2.401   0.143  1.00  0.00     0.063 A 
HETATM   28  C32 UNL     1      -1.057  -3.393   0.884  1.00  0.00     0.007 A 
HETATM   29  C33 UNL     1      -2.199  -4.013   0.376  1.00  0.00     0.028 A 
HETATM   30  C34 UNL     1      -2.722  -3.656  -0.872  1.00  0.00     0.131 A 
HETATM   31  C35 UNL     1      -2.069  -2.650  -1.592  1.00  0.00     0.028 A 
HETATM   32  O5  UNL     1      -3.854  -4.236  -1.353  1.00  0.00    -0.190 OA
HETATM   33  C36 UNL     1      -0.923  -2.022  -1.100  1.00  0.00     0.007 A 
ENDBRANCH  25  27
ENDBRANCH  24  25
ENDBRANCH   2  24
BRANCH  15  34
HETATM   34  C18 UNL     1      10.515   3.144   1.218  1.00  0.00     0.090 C 
BRANCH  34  35
HETATM   35  C19 UNL     1      11.995   3.594   1.149  1.00  0.00     0.015 C 
BRANCH  35  36
HETATM   36  C20 UNL     1      12.919   2.868   2.142  1.00  0.00     0.023 C 
BRANCH  36  37
HETATM   37  C21 UNL     1      14.402   3.135   2.014  1.00  0.00    -0.044 C 
HETATM   38  C22 UNL     1      15.292   2.144   2.728  1.00  0.00     0.026 C 
HETATM   39  C23 UNL     1      14.924   4.178   1.349  1.00  0.00    -0.009 C 
ENDBRANCH  36  37
ENDBRANCH  35  36
ENDBRANCH  34  35
BRANCH  34  40
HETATM   40  C24 UNL     1       9.647   4.385   1.030  1.00  0.00     0.185 C 
HETATM   41  O2  UNL     1       9.010   4.742   2.160  1.00  0.00    -0.647 OA
HETATM   42  O3  UNL     1       9.526   5.022   0.011  1.00  0.00    -0.647 OA
ENDBRANCH  34  40
ENDBRANCH  15  34
TORSDOF 8
