REMARK  6 active torsions:
REMARK  status: ('A' for Active; 'I' for Inactive)
REMARK    1  A    between atoms: C7_8  and  C45_63 
REMARK    2  A    between atoms: C8_9  and  O14_53 
REMARK    3  A    between atoms: C16_19  and  C25_32 
REMARK    4  A    between atoms: C18_21  and  C19_23 
REMARK    5  A    between atoms: C27_35  and  C34_45 
REMARK    6  A    between atoms: O14_53  and  C40_54 
ROOT
HETATM    1  C1  UNL     1      -4.225   2.395  -2.430  1.00  0.00     0.135 A 
HETATM    2  C2  UNL     1      -4.386   1.075  -2.263  1.00  0.00     0.055 A 
HETATM    3  C3  UNL     1      -3.382   0.202  -2.438  1.00  0.00     0.131 A 
HETATM    4  C4  UNL     1      -2.161   0.680  -2.755  1.00  0.00     0.032 A 
HETATM    5  C5  UNL     1      -1.961   1.996  -2.958  1.00  0.00     0.097 A 
HETATM    6  C6  UNL     1      -3.007   2.824  -2.790  1.00  0.00     0.051 A 
HETATM    7  O1  UNL     1      -0.758   2.525  -3.337  1.00  0.00    -0.304 OA
HETATM    8  C7  UNL     1       0.301   1.678  -3.769  1.00  0.00     0.242 C 
HETATM    9  C8  UNL     1      -0.112   0.239  -4.067  1.00  0.00     0.182 C 
HETATM   10  C9  UNL     1      -0.948  -0.210  -2.871  1.00  0.00     0.085 C 
HETATM   11  C10 UNL     1      -0.098  -0.049  -1.616  1.00  0.00     0.029 A 
HETATM   12  C11 UNL     1      -0.369  -0.786  -0.517  1.00  0.00     0.091 A 
HETATM   13  C12 UNL     1       0.346  -0.562   0.605  1.00  0.00     0.032 A 
HETATM   14  C13 UNL     1       1.359   0.322   0.625  1.00  0.00     0.131 A 
HETATM   15  C14 UNL     1       1.613   1.012  -0.493  1.00  0.00     0.051 A 
HETATM   16  C15 UNL     1       0.901   0.858  -1.619  1.00  0.00     0.097 A 
HETATM   17  O2  UNL     1       1.207   1.660  -2.683  1.00  0.00    -0.304 OA
HETATM   18  O3  UNL     1       2.094   0.558   1.747  1.00  0.00    -0.190 OA
HETATM   19  C16 UNL     1       0.002  -1.288   1.885  1.00  0.00     0.086 C 
HETATM   20  C17 UNL     1      -1.119  -2.302   1.713  1.00  0.00     0.192 C 
HETATM   21  C18 UNL     1      -2.124  -1.840   0.679  1.00  0.00     0.174 C 
HETATM   22  O4  UNL     1      -1.440  -1.641  -0.534  1.00  0.00    -0.327 OA
HETATM   23  O7  UNL     1      -1.721  -2.522   2.965  1.00  0.00    -0.220 OA
HETATM   24  O21 UNL     1      -3.612  -1.122  -2.227  1.00  0.00    -0.190 OA
HETATM   25  O22 UNL     1      -5.244   3.267  -2.211  1.00  0.00    -0.190 OA
ENDROOT
BRANCH  19  26
HETATM   26  C25 UNL     1       1.175  -2.004   2.545  1.00  0.00     0.032 A 
HETATM   27  C26 UNL     1       1.316  -1.946   3.888  1.00  0.00     0.091 A 
HETATM   28  O8  UNL     1       0.384  -1.240   4.604  1.00  0.00    -0.327 OA
HETATM   29  C30 UNL     1       2.346  -2.602   4.465  1.00  0.00     0.028 A 
HETATM   30  C27 UNL     1       0.354  -1.394   5.997  1.00  0.00     0.174 C 
HETATM   31  C28 UNL     1       1.763  -1.362   6.546  1.00  0.00     0.188 C 
HETATM   32  C29 UNL     1       2.535  -2.538   5.967  1.00  0.00     0.066 C 
HETATM   33  O11 UNL     1       1.707  -1.454   7.949  1.00  0.00    -0.220 OA
HETATM   34  C31 UNL     1       3.225  -3.301   3.721  1.00  0.00     0.131 A 
HETATM   35  C32 UNL     1       3.050  -3.336   2.392  1.00  0.00     0.054 A 
HETATM   36  O10 UNL     1       4.263  -3.979   4.284  1.00  0.00    -0.190 OA
HETATM   37  C33 UNL     1       2.038  -2.704   1.781  1.00  0.00     0.131 A 
HETATM   38  O9  UNL     1       1.919  -2.781   0.427  1.00  0.00    -0.190 OA
BRANCH  30  39
HETATM   39  C34 UNL     1      -0.457  -0.281   6.636  1.00  0.00     0.010 A 
HETATM   40  C35 UNL     1      -1.326  -0.537   7.629  1.00  0.00     0.028 A 
HETATM   41  C36 UNL     1      -2.040   0.436   8.220  1.00  0.00     0.156 A 
HETATM   42  C37 UNL     1      -1.882   1.709   7.816  1.00  0.00     0.156 A 
HETATM   43  O13 UNL     1      -2.921   0.160   9.220  1.00  0.00    -0.188 OA
HETATM   44  C38 UNL     1      -1.010   1.976   6.832  1.00  0.00     0.029 A 
HETATM   45  O12 UNL     1      -2.597   2.705   8.403  1.00  0.00    -0.188 OA
HETATM   46  C39 UNL     1      -0.302   0.997   6.251  1.00  0.00     0.000 A 
ENDBRANCH  30  39
ENDBRANCH  19  26
BRANCH  21  47
HETATM   47  C19 UNL     1      -3.023  -0.670   1.070  1.00  0.00     0.010 A 
HETATM   48  C20 UNL     1      -4.109  -0.874   1.839  1.00  0.00     0.000 A 
HETATM   49  C21 UNL     1      -4.955   0.127   2.127  1.00  0.00     0.029 A 
HETATM   50  C22 UNL     1      -4.755   1.370   1.658  1.00  0.00     0.156 A 
HETATM   51  C23 UNL     1      -3.669   1.600   0.903  1.00  0.00     0.156 A 
HETATM   52  O6  UNL     1      -5.627   2.385   1.900  1.00  0.00    -0.188 OA
HETATM   53  C24 UNL     1      -2.837   0.585   0.628  1.00  0.00     0.028 A 
HETATM   54  O5  UNL     1      -3.450   2.826   0.356  1.00  0.00    -0.188 OA
ENDBRANCH  21  47
BRANCH   9  55
HETATM   55  O14 UNL     1       0.965  -0.662  -4.082  1.00  0.00    -0.325 OA
BRANCH  55  56
HETATM   56  C40 UNL     1       1.886  -0.574  -5.140  1.00  0.00     0.270 C 
HETATM   57  O15 UNL     1       1.877  -1.833  -5.783  1.00  0.00    -0.326 OA
HETATM   58  C41 UNL     1       2.332  -2.892  -4.977  1.00  0.00     0.181 C 
HETATM   59  C42 UNL     1       3.734  -2.639  -4.452  1.00  0.00     0.215 C 
HETATM   60  C43 UNL     1       3.824  -1.315  -3.723  1.00  0.00     0.220 C 
HETATM   61  O18 UNL     1       4.079  -3.651  -3.534  1.00  0.00    -0.218 OA
HETATM   62  C44 UNL     1       3.249  -0.214  -4.590  1.00  0.00     0.241 C 
HETATM   63  O17 UNL     1       3.094  -1.425  -2.515  1.00  0.00    -0.218 OA
HETATM   64  O16 UNL     1       4.108   0.111  -5.657  1.00  0.00    -0.215 OA
ENDBRANCH  55  56
ENDBRANCH   9  55
BRANCH   8  65
HETATM   65  C45 UNL     1       0.926   2.369  -4.986  1.00  0.00     0.034 A 
HETATM   66  C46 UNL     1       2.158   2.909  -4.971  1.00  0.00     0.003 A 
HETATM   67  C47 UNL     1       2.674   3.479  -6.069  1.00  0.00     0.029 A 
HETATM   68  C48 UNL     1       1.969   3.557  -7.209  1.00  0.00     0.156 A 
HETATM   69  C49 UNL     1       0.721   3.058  -7.233  1.00  0.00     0.156 A 
HETATM   70  O20 UNL     1       2.479   4.144  -8.325  1.00  0.00    -0.188 OA
HETATM   71  C50 UNL     1       0.224   2.480  -6.128  1.00  0.00     0.030 A 
HETATM   72  O19 UNL     1      -0.022   3.144  -8.369  1.00  0.00    -0.188 OA
ENDBRANCH   8  65
TORSDOF 6
