REMARK  0 active torsions:
REMARK  status: ('A' for Active; 'I' for Inactive)
ROOT
HETATM    1  C1  UNL     1      -0.312   1.630   1.252  1.00  0.00     0.030 A 
HETATM    2  C2  UNL     1      -0.322   0.130   1.224  1.00  0.00    -0.024 A 
HETATM    3  C3  UNL     1       0.821  -0.559   1.141  1.00  0.00    -0.013 C 
HETATM    4  C4  UNL     1       1.214  -1.162   0.003  1.00  0.00    -0.044 C 
HETATM    5  C5  UNL     1       0.496  -1.057  -1.337  1.00  0.00     0.018 C 
HETATM    6  C6  UNL     1      -0.536   0.076  -1.555  1.00  0.00     0.004 C 
HETATM    7  C7  UNL     1      -0.120   1.558  -1.386  1.00  0.00     0.001 C 
HETATM    8  C8  UNL     1       0.357   2.162  -0.037  1.00  0.00     0.004 C 
HETATM    9  C9  UNL     1       1.898   2.180   0.041  1.00  0.00     0.000 C 
HETATM   10  C10 UNL     1      -0.087  -2.418  -1.758  1.00  0.00     0.004 C 
HETATM   11  C11 UNL     1       2.599  -1.776  -0.071  1.00  0.00     0.026 C 
HETATM   12  C12 UNL     1      -1.551  -0.402   1.319  1.00  0.00     0.009 A 
HETATM   13  C13 UNL     1      -2.489   0.572   1.404  1.00  0.00     0.169 A 
HETATM   14  C14 UNL     1      -1.820   1.935   1.338  1.00  0.00     0.073 A 
HETATM   15  O1  UNL     1      -3.680   0.399   1.514  1.00  0.00    -0.292 OA
HETATM   16  C15 UNL     1      -1.890  -1.865   1.384  1.00  0.00     0.034 C 
ENDROOT
TORSDOF 0
