REMARK  3 active torsions:
REMARK  status: ('A' for Active; 'I' for Inactive)
REMARK    1  A    between atoms: C7_7  and  C9_11 
REMARK    2  A    between atoms: C9_11  and  C10_12 
REMARK    3  A    between atoms: C10_12  and  C11_13 
ROOT
HETATM    1  C1  UNL     1      -1.926  -0.390   0.615  1.00  0.00     0.130 A 
HETATM    2  C2  UNL     1      -3.083  -1.059   0.615  1.00  0.00     0.029 A 
HETATM    3  C3  UNL     1      -3.083  -2.396   0.615  1.00  0.00     0.030 A 
HETATM    4  C4  UNL     1      -1.926  -3.064   0.615  1.00  0.00     0.136 A 
HETATM    5  C5  UNL     1      -0.768  -2.396   0.615  1.00  0.00     0.089 A 
HETATM    6  C6  UNL     1      -0.768  -1.059   0.615  1.00  0.00     0.038 A 
HETATM    7  C7  UNL     1       0.630  -0.522   0.628  1.00  0.00     0.149 A 
HETATM    8  O1  UNL     1       1.389  -1.885   0.612  1.00  0.00    -0.296 OA
HETATM    9  C8  UNL     1       0.493  -2.880   0.604  1.00  0.00     0.298 A 
HETATM   10  O2  UNL     1       0.775  -4.054   0.588  1.00  0.00    -0.259 OA
HETATM   11  O3  UNL     1      -1.926  -4.419   0.615  1.00  0.00    -0.190 OA
HETATM   12  O4  UNL     1      -1.926   0.965   0.615  1.00  0.00    -0.190 OA
ENDROOT
BRANCH   7  13
HETATM   13  C9  UNL     1       0.934   0.321  -0.603  1.00  0.00     0.035 C 
BRANCH  13  14
HETATM   14  C10 UNL     1       1.433   1.693  -0.169  1.00  0.00     0.003 C 
BRANCH  14  15
HETATM   15  C11 UNL     1       1.737   2.536  -1.400  1.00  0.00     0.000 C 
HETATM   16  C12 UNL     1       2.236   3.908  -0.966  1.00  0.00     0.000 C 
ENDBRANCH  14  15
ENDBRANCH  13  14
ENDBRANCH   7  13
TORSDOF 3
