REMARK  29 active torsions:
REMARK  status: ('A' for Active; 'I' for Inactive)
REMARK    1  A    between atoms: C1_1  and  C2_2 
REMARK    2  A    between atoms: C1_1  and  C25_25 
REMARK    3  A    between atoms: C2_2  and  C3_3 
REMARK    4  A    between atoms: C3_3  and  C4_4 
REMARK    5  A    between atoms: C4_4  and  C5_5 
REMARK    6  A    between atoms: C5_5  and  C6_6 
REMARK    7  A    between atoms: C6_6  and  C7_7 
REMARK    8  A    between atoms: C7_7  and  C8_8 
REMARK    9  A    between atoms: C8_8  and  C9_9 
REMARK   10  A    between atoms: C9_9  and  C10_10 
REMARK   11  A    between atoms: C10_10  and  C11_11 
REMARK   12  A    between atoms: C11_11  and  C12_12 
REMARK   13  A    between atoms: C12_12  and  C13_13 
REMARK   14  A    between atoms: C13_13  and  C14_14 
REMARK   15  A    between atoms: C14_14  and  C15_15 
REMARK   16  A    between atoms: C15_15  and  C16_16 
REMARK   17  A    between atoms: C16_16  and  C17_17 
REMARK   18  A    between atoms: C17_17  and  C18_18 
REMARK   19  A    between atoms: C18_18  and  C19_19 
REMARK   20  A    between atoms: C19_19  and  C20_20 
REMARK   21  A    between atoms: C20_20  and  C21_21 
REMARK   22  A    between atoms: C21_21  and  C22_22 
REMARK   23  A    between atoms: C22_22  and  C23_23 
REMARK   24  A    between atoms: C25_25  and  C26_26 
REMARK   25  A    between atoms: C26_26  and  C28_28 
REMARK   26  A    between atoms: C28_28  and  C29_29 
REMARK   27  A    between atoms: C28_28  and  C33_34 
REMARK   28  A    between atoms: C29_29  and  C30_30 
REMARK   29  A    between atoms: C30_30  and  O1_32 
ROOT
HETATM    1  C6  UNL     1       0.896  -3.358  -0.192  1.00  0.00     0.000 C 
ENDROOT
BRANCH   1   2
HETATM    2  C5  UNL     1      -0.631  -3.529  -0.099  1.00  0.00     0.000 C 
BRANCH   2   3
HETATM    3  C4  UNL     1      -1.411  -2.841  -1.236  1.00  0.00     0.000 C 
BRANCH   3   4
HETATM    4  C3  UNL     1      -1.307  -1.307  -1.193  1.00  0.00     0.000 C 
BRANCH   4   5
HETATM    5  C2  UNL     1      -2.159  -0.595  -2.258  1.00  0.00     0.000 C 
BRANCH   5   6
HETATM    6  C1  UNL     1      -1.932   0.931  -2.286  1.00  0.00     0.000 C 
BRANCH   6   7
HETATM    7  C25 UNL     1      -0.545   1.314  -2.833  1.00  0.00     0.000 C 
BRANCH   7   8
HETATM    8  C26 UNL     1      -0.248   2.821  -2.996  1.00  0.00     0.007 C 
HETATM    9  C27 UNL     1      -0.287   3.529  -1.626  1.00  0.00     0.000 C 
BRANCH   8  10
HETATM   10  C28 UNL     1      -1.114   3.576  -4.036  1.00  0.00     0.060 C 
BRANCH  10  11
HETATM   11  C29 UNL     1      -0.425   4.876  -4.522  1.00  0.00     0.037 C 
BRANCH  11  12
HETATM   12  C30 UNL     1      -1.317   6.120  -4.641  1.00  0.00     0.116 C 
HETATM   13  C31 UNL     1      -1.702   6.673  -3.264  1.00  0.00     0.032 C 
BRANCH  12  14
HETATM   14  O1  UNL     1      -2.494   5.861  -5.356  1.00  0.00    -0.354 OA
HETATM   15  C32 UNL     1      -2.306   5.792  -6.753  1.00  0.00     0.174 C 
ENDBRANCH  12  14
ENDBRANCH  11  12
ENDBRANCH  10  11
BRANCH  10  16
HETATM   16  C33 UNL     1      -1.544   2.702  -5.216  1.00  0.00     0.151 C 
HETATM   17  O2  UNL     1      -2.707   2.423  -5.405  1.00  0.00    -0.296 OA
HETATM   18  C34 UNL     1      -0.489   2.169  -6.170  1.00  0.00     0.072 C 
ENDBRANCH  10  16
ENDBRANCH   8  10
ENDBRANCH   7   8
ENDBRANCH   6   7
ENDBRANCH   5   6
ENDBRANCH   4   5
ENDBRANCH   3   4
ENDBRANCH   2   3
ENDBRANCH   1   2
BRANCH   1  19
HETATM   19  C7  UNL     1       1.628  -3.882   1.055  1.00  0.00     0.000 C 
BRANCH  19  20
HETATM   20  C8  UNL     1       3.142  -3.616   0.985  1.00  0.00     0.000 C 
BRANCH  20  21
HETATM   21  C9  UNL     1       3.855  -3.948   2.306  1.00  0.00     0.000 C 
BRANCH  21  22
HETATM   22  C10 UNL     1       5.371  -3.706   2.220  1.00  0.00     0.000 C 
BRANCH  22  23
HETATM   23  C11 UNL     1       6.070  -3.887   3.579  1.00  0.00     0.000 C 
BRANCH  23  24
HETATM   24  C12 UNL     1       7.577  -3.597   3.487  1.00  0.00     0.000 C 
BRANCH  24  25
HETATM   25  C13 UNL     1       8.263  -3.562   4.864  1.00  0.00     0.000 C 
BRANCH  25  26
HETATM   26  C14 UNL     1       9.661  -2.917   4.841  1.00  0.00     0.000 C 
BRANCH  26  27
HETATM   27  C15 UNL     1       9.720  -1.391   5.076  1.00  0.00     0.000 C 
BRANCH  27  28
HETATM   28  C16 UNL     1       9.082  -0.509   3.987  1.00  0.00     0.000 C 
BRANCH  28  29
HETATM   29  C17 UNL     1       7.593  -0.208   4.237  1.00  0.00     0.000 C 
BRANCH  29  30
HETATM   30  C18 UNL     1       6.837   0.223   2.968  1.00  0.00     0.000 C 
BRANCH  30  31
HETATM   31  C19 UNL     1       5.323   0.310   3.224  1.00  0.00     0.000 C 
BRANCH  31  32
HETATM   32  C20 UNL     1       4.510   0.539   1.940  1.00  0.00     0.000 C 
BRANCH  32  33
HETATM   33  C21 UNL     1       3.002   0.588   2.243  1.00  0.00     0.000 C 
BRANCH  33  34
HETATM   34  C22 UNL     1       2.138   0.707   0.979  1.00  0.00     0.000 C 
BRANCH  34  35
HETATM   35  C23 UNL     1       0.648   0.938   1.285  1.00  0.00     0.000 C 
HETATM   36  C24 UNL     1       0.020  -0.146   2.171  1.00  0.00     0.000 C 
ENDBRANCH  34  35
ENDBRANCH  33  34
ENDBRANCH  32  33
ENDBRANCH  31  32
ENDBRANCH  30  31
ENDBRANCH  29  30
ENDBRANCH  28  29
ENDBRANCH  27  28
ENDBRANCH  26  27
ENDBRANCH  25  26
ENDBRANCH  24  25
ENDBRANCH  23  24
ENDBRANCH  22  23
ENDBRANCH  21  22
ENDBRANCH  20  21
ENDBRANCH  19  20
ENDBRANCH   1  19
TORSDOF 29
