REMARK  2 active torsions:
REMARK  status: ('A' for Active; 'I' for Inactive)
REMARK    1  A    between atoms: C2_2  and  C12_14 
REMARK    2  A    between atoms: C3_4  and  C6_7 
ROOT
HETATM    1  C1  UNL     1      -0.766   0.842  -1.273  1.00  0.00     0.034 C 
HETATM    2  C2  UNL     1      -0.780  -0.679  -1.145  1.00  0.00     0.138 C 
HETATM    3  O1  UNL     1       0.347  -0.978  -0.361  1.00  0.00    -0.350 OA
HETATM    4  C3  UNL     1       1.392  -0.134  -0.790  1.00  0.00     0.138 C 
HETATM    5  C4  UNL     1       0.743   1.134  -1.368  1.00  0.00     0.034 C 
HETATM    6  C5  UNL     1       1.126   2.461  -0.699  1.00  0.00     0.003 C 
HETATM    7  C18 UNL     1      -1.584   1.362  -2.459  1.00  0.00     0.003 C 
ENDROOT
BRANCH   2   8
HETATM    8  C12 UNL     1      -2.050  -1.225  -0.521  1.00  0.00     0.005 A 
HETATM    9  C13 UNL     1      -2.927  -1.944  -1.242  1.00  0.00     0.000 A 
HETATM   10  C14 UNL     1      -4.045  -2.431  -0.683  1.00  0.00     0.027 A 
HETATM   11  C15 UNL     1      -4.330  -2.216   0.613  1.00  0.00     0.131 A 
HETATM   12  C16 UNL     1      -3.454  -1.492   1.329  1.00  0.00     0.027 A 
HETATM   13  O3  UNL     1      -5.462  -2.708   1.186  1.00  0.00    -0.190 OA
HETATM   14  C17 UNL     1      -2.334  -1.005   0.775  1.00  0.00     0.000 A 
ENDBRANCH   2   8
BRANCH   4  15
HETATM   15  C6  UNL     1       2.407   0.092   0.314  1.00  0.00     0.005 A 
HETATM   16  C7  UNL     1       3.724   0.117   0.044  1.00  0.00     0.000 A 
HETATM   17  C8  UNL     1       4.628   0.307   1.018  1.00  0.00     0.027 A 
HETATM   18  C9  UNL     1       4.251   0.480   2.296  1.00  0.00     0.131 A 
HETATM   19  C10 UNL     1       2.935   0.462   2.563  1.00  0.00     0.027 A 
HETATM   20  O2  UNL     1       5.163   0.668   3.288  1.00  0.00    -0.190 OA
HETATM   21  C11 UNL     1       2.029   0.273   1.591  1.00  0.00     0.000 A 
ENDBRANCH   4  15
TORSDOF 2
