REMARK  0 active torsions:
REMARK  status: ('A' for Active; 'I' for Inactive)
ROOT
HETATM    1  C1  UNL     1      -2.343   1.155  -0.700  1.00  0.00     0.004 C 
HETATM    2  C2  UNL     1      -2.522  -0.353  -0.500  1.00  0.00     0.001 C 
HETATM    3  C3  UNL     1      -1.169  -1.086  -0.552  1.00  0.00     0.004 C 
HETATM    4  C4  UNL     1      -0.147  -0.553   0.494  1.00  0.00     0.019 C 
HETATM    5  C5  UNL     1      -0.108   0.969   0.515  1.00  0.00    -0.049 C 
HETATM    6  C6  UNL     1      -1.418   1.719   0.381  1.00  0.00     0.022 C 
HETATM    7  C7  UNL     1       0.986   1.648   0.900  1.00  0.00    -0.034 C 
HETATM    8  C8  UNL     1       2.298   1.043   1.318  1.00  0.00     0.029 C 
HETATM    9  C9  UNL     1       2.487  -0.409   0.937  1.00  0.00     0.026 A 
HETATM   10  C10 UNL     1       1.213  -1.230   0.281  1.00  0.00     0.026 A 
HETATM   11  C11 UNL     1       2.226  -0.494  -0.524  1.00  0.00    -0.044 A 
HETATM   12  C12 UNL     1       2.661  -0.148  -1.730  1.00  0.00    -0.009 C 
HETATM   13  C13 UNL     1      -0.600  -0.977   1.916  1.00  0.00     0.004 C 
HETATM   14  C14 UNL     1      -0.626  -1.065  -1.994  1.00  0.00     0.000 C 
ENDROOT
TORSDOF 0
