REMARK  3 active torsions:
REMARK  status: ('A' for Active; 'I' for Inactive)
REMARK    1  A    between atoms: C1_1  and  C8_11 
REMARK    2  A    between atoms: C3_3  and  O3_8 
REMARK    3  A    between atoms: O3_8  and  C6_9 
ROOT
HETATM    1  C1  UNL     1      -0.637  -1.165   0.673  1.00  0.00     0.116 A 
HETATM    2  C2  UNL     1       0.197  -0.210   0.224  1.00  0.00     0.047 A 
HETATM    3  C3  UNL     1      -0.207   0.740  -0.641  1.00  0.00     0.101 A 
HETATM    4  C4  UNL     1      -1.495   0.677  -1.031  1.00  0.00     0.093 A 
HETATM    5  C5  UNL     1      -2.342  -0.285  -0.581  1.00  0.00     0.302 A 
HETATM    6  O1  UNL     1      -1.943  -1.250   0.294  1.00  0.00    -0.275 OA
HETATM    7  O2  UNL     1      -3.488  -0.272  -0.982  1.00  0.00    -0.259 OA
ENDROOT
BRANCH   3   8
HETATM    8  O3  UNL     1       0.583   1.747  -1.143  1.00  0.00    -0.331 OA
BRANCH   8   9
HETATM    9  C6  UNL     1       1.925   1.829  -0.743  1.00  0.00     0.149 C 
HETATM   10  C7  UNL     1       2.566   3.027  -1.440  1.00  0.00     0.035 C 
ENDBRANCH   8   9
ENDBRANCH   3   8
BRANCH   1  11
HETATM   11  C8  UNL     1      -0.114  -2.202   1.641  1.00  0.00     0.233 C 
HETATM   12  O4  UNL     1      -1.121  -3.128   2.029  1.00  0.00    -0.213 OA
ENDBRANCH   1  11
TORSDOF 3
