REMARK  0 active torsions:
REMARK  status: ('A' for Active; 'I' for Inactive)
ROOT
HETATM    1  C1  UNL     1      -0.097   0.769   0.616  1.00  0.00     0.021 C 
HETATM    2  C2  UNL     1      -0.205  -0.733   0.746  1.00  0.00    -0.015 C 
HETATM    3  C3  UNL     1       0.771  -1.654   0.628  1.00  0.00     0.031 C 
HETATM    4  C4  UNL     1       2.205  -1.469   0.271  1.00  0.00     0.172 C 
HETATM    5  C5  UNL     1       2.798  -0.152  -0.214  1.00  0.00     0.062 C 
HETATM    6  C6  UNL     1       2.277   0.270  -1.600  1.00  0.00     0.008 C 
HETATM    7  C7  UNL     1       0.754   0.324  -1.797  1.00  0.00     0.001 C 
HETATM    8  C8  UNL     1      -0.045   1.244  -0.850  1.00  0.00     0.004 C 
HETATM    9  C9  UNL     1       0.442   2.701  -0.946  1.00  0.00     0.000 C 
HETATM   10  C10 UNL     1       4.341  -0.198  -0.245  1.00  0.00     0.008 C 
HETATM   11  O1  UNL     1       2.928  -2.456   0.352  1.00  0.00    -0.291 OA
HETATM   12  C11 UNL     1      -1.633  -1.122   1.073  1.00  0.00     0.142 C 
HETATM   13  C12 UNL     1      -2.415   0.193   1.069  1.00  0.00     0.035 C 
HETATM   14  C13 UNL     1      -1.352   1.254   1.373  1.00  0.00     0.007 C 
HETATM   15  O2  UNL     1      -1.646  -1.667   2.374  1.00  0.00    -0.222 OA
HETATM   16  C14 UNL     1      -2.231  -2.138   0.104  1.00  0.00     0.037 C 
ENDROOT
TORSDOF 0
