REMARK  1 active torsions:
REMARK  status: ('A' for Active; 'I' for Inactive)
REMARK    1  A    between atoms: C1_1  and  O3_20 
ROOT
HETATM    1  C1  UNL     1      -1.027   1.986  -0.154  1.00  0.00     0.119 A 
HETATM    2  C2  UNL     1      -1.154   0.601   0.041  1.00  0.00     0.153 A 
HETATM    3  C3  UNL     1      -0.022  -0.268   0.084  1.00  0.00     0.029 A 
HETATM    4  C4  UNL     1       1.208   0.364  -0.025  1.00  0.00     0.023 A 
HETATM    5  C5  UNL     1       1.361   1.744  -0.236  1.00  0.00     0.060 A 
HETATM    6  C6  UNL     1       0.262   2.568  -0.332  1.00  0.00     0.031 A 
HETATM    7  C7  UNL     1       2.812   2.027  -0.293  1.00  0.00     0.261 A 
HETATM    8  N1  UNL     1       3.420   0.812  -0.084  1.00  0.00    -0.294 N 
HETATM    9  C8  UNL     1       2.501  -0.250   0.082  1.00  0.00     0.063 A 
HETATM   10  C9  UNL     1       2.573  -1.591   0.315  1.00  0.00     0.017 A 
HETATM   11  C10 UNL     1       1.330  -2.334   0.380  1.00  0.00     0.002 A 
HETATM   12  C11 UNL     1       0.060  -1.718   0.232  1.00  0.00     0.002 A 
HETATM   13  C12 UNL     1      -1.069  -2.574   0.138  1.00  0.00     0.000 A 
HETATM   14  C13 UNL     1      -0.963  -3.943   0.300  1.00  0.00     0.000 A 
HETATM   15  C14 UNL     1       0.293  -4.533   0.535  1.00  0.00     0.000 A 
HETATM   16  C15 UNL     1       1.422  -3.739   0.558  1.00  0.00     0.000 A 
HETATM   17  C16 UNL     1       4.873   0.667  -0.025  1.00  0.00     0.134 C 
HETATM   18  O1  UNL     1       3.373   3.106  -0.479  1.00  0.00    -0.267 OA
HETATM   19  O2  UNL     1      -2.397   0.106   0.284  1.00  0.00    -0.188 OA
ENDROOT
BRANCH   1  20
HETATM   20  O3  UNL     1      -2.190   2.719  -0.190  1.00  0.00    -0.326 OA
HETATM   21  C17 UNL     1      -2.124   4.071  -0.578  1.00  0.00     0.181 C 
ENDBRANCH   1  20
TORSDOF 1
