REMARK  1 active torsions:
REMARK  status: ('A' for Active; 'I' for Inactive)
REMARK    1  A    between atoms: C6_6  and  O4_13 
ROOT
HETATM    1  C1  UNL     1      -0.861   2.128  -0.354  1.00  0.00     0.125 C 
HETATM    2  C2  UNL     1       0.567   1.812  -0.839  1.00  0.00     0.038 C 
HETATM    3  C3  UNL     1       1.626   1.744   0.278  1.00  0.00     0.067 C 
HETATM    4  C4  UNL     1       2.798   0.808   0.008  1.00  0.00     0.153 C 
HETATM    5  C5  UNL     1       2.621  -0.648  -0.428  1.00  0.00     0.097 C 
HETATM    6  C6  UNL     1       1.624  -1.577   0.312  1.00  0.00     0.153 C 
HETATM    7  C7  UNL     1       0.212  -1.520  -0.292  1.00  0.00     0.189 C 
HETATM    8  C8  UNL     1      -0.766  -0.621   0.468  1.00  0.00     0.131 C 
HETATM    9  C9  UNL     1      -1.802  -0.117  -0.520  1.00  0.00     0.275 C 
HETATM   10  O1  UNL     1      -1.803   1.210  -0.843  1.00  0.00    -0.304 OA
HETATM   11  O2  UNL     1      -2.544  -0.936  -1.022  1.00  0.00    -0.264 OA
HETATM   12  O3  UNL     1      -0.439  -2.769  -0.388  1.00  0.00    -0.220 OA
HETATM   13  O5  UNL     1       3.918   1.252   0.143  1.00  0.00    -0.296 OA
HETATM   14  C11 UNL     1      -1.296   3.522  -0.820  1.00  0.00     0.033 C 
ENDROOT
BRANCH   6  15
HETATM   15  O4  UNL     1       2.144  -2.884   0.217  1.00  0.00    -0.351 OA
HETATM   16  C10 UNL     1       1.866  -3.687   1.345  1.00  0.00     0.174 C 
ENDBRANCH   6  15
TORSDOF 1
