REMARK  3 active torsions:
REMARK  status: ('A' for Active; 'I' for Inactive)
REMARK    1  A    between atoms: C10_10  and  O1_11 
REMARK    2  A    between atoms: O1_11  and  C11_12 
REMARK    3  A    between atoms: C12_14  and  C16_21 
ROOT
HETATM    1  O1  UNL     1       0.652  -1.097  -0.301  1.00  0.00    -0.304 OA
ENDROOT
BRANCH   1   2
HETATM    2  C10 UNL     1       0.581  -1.091   1.068  1.00  0.00     0.097 A 
HETATM    3  C2  UNL     1       1.538  -0.391   1.876  1.00  0.00     0.024 A 
HETATM    4  C1  UNL     1       2.571   0.383   1.258  1.00  0.00     0.002 A 
HETATM    5  C3  UNL     1       1.459  -0.415   3.283  1.00  0.00     0.027 A 
HETATM    6  C6  UNL     1       3.484   1.078   2.013  1.00  0.00     0.000 A 
HETATM    7  C5  UNL     1       3.410   1.042   3.429  1.00  0.00     0.000 A 
HETATM    8  C4  UNL     1       2.420   0.318   4.048  1.00  0.00     0.002 A 
HETATM    9  C7  UNL     1       0.434  -1.168   3.939  1.00  0.00     0.131 A 
HETATM   10  C8  UNL     1      -0.426  -1.893   3.150  1.00  0.00     0.029 A 
HETATM   11  O7  UNL     1       0.328  -1.213   5.294  1.00  0.00    -0.190 OA
HETATM   12  C9  UNL     1      -0.337  -1.873   1.735  1.00  0.00     0.026 A 
ENDBRANCH   1   2
BRANCH   1  13
HETATM   13  C11 UNL     1      -0.454  -0.505  -0.948  1.00  0.00     0.274 C 
HETATM   14  O2  UNL     1      -0.264  -0.868  -2.301  1.00  0.00    -0.326 OA
HETATM   15  C12 UNL     1      -1.314  -0.434  -3.126  1.00  0.00     0.184 C 
HETATM   16  C13 UNL     1      -1.426   1.086  -3.065  1.00  0.00     0.215 C 
HETATM   17  C14 UNL     1      -1.582   1.553  -1.633  1.00  0.00     0.220 C 
HETATM   18  O5  UNL     1      -2.547   1.536  -3.787  1.00  0.00    -0.218 OA
HETATM   19  C15 UNL     1      -0.435   1.002  -0.813  1.00  0.00     0.241 C 
HETATM   20  O4  UNL     1      -1.566   2.957  -1.592  1.00  0.00    -0.218 OA
HETATM   21  O3  UNL     1      -0.612   1.393   0.525  1.00  0.00    -0.215 OA
BRANCH  15  22
HETATM   22  C16 UNL     1      -1.042  -0.912  -4.546  1.00  0.00     0.214 C 
HETATM   23  O6  UNL     1      -1.046  -2.325  -4.588  1.00  0.00    -0.218 OA
ENDBRANCH  15  22
ENDBRANCH   1  13
TORSDOF 3
