REMARK  0 active torsions:
REMARK  status: ('A' for Active; 'I' for Inactive)
ROOT
HETATM    1  C1  UNL     1       0.259   1.316   0.420  1.00  0.00    -0.050 C 
HETATM    2  C2  UNL     1       0.226  -0.194   0.280  1.00  0.00     0.050 C 
HETATM    3  C3  UNL     1       0.772  -0.573  -1.109  1.00  0.00     0.028 C 
HETATM    4  C4  UNL     1       2.288  -0.628  -1.068  1.00  0.00    -0.051 C 
HETATM    5  C5  UNL     1       2.914   0.753  -1.087  1.00  0.00     0.026 C 
HETATM    6  C6  UNL     1       2.754   1.451   0.273  1.00  0.00     0.026 C 
HETATM    7  C7  UNL     1       1.379   2.061   0.441  1.00  0.00    -0.051 C 
HETATM    8  C8  UNL     1       1.362   3.566   0.580  1.00  0.00     0.026 C 
HETATM    9  C9  UNL     1       2.989  -1.778  -0.935  1.00  0.00    -0.051 C 
HETATM   10  C10 UNL     1       4.500  -1.867  -0.860  1.00  0.00     0.026 C 
HETATM   11  C11 UNL     1       2.360  -3.155  -0.844  1.00  0.00     0.026 C 
HETATM   12  C12 UNL     1      -1.250  -0.540   0.545  1.00  0.00     0.131 C 
HETATM   13  C13 UNL     1      -2.015   0.681   0.037  1.00  0.00     0.035 C 
HETATM   14  C14 UNL     1      -1.145   1.868   0.471  1.00  0.00     0.024 C 
HETATM   15  C15 UNL     1      -1.521  -0.799   2.029  1.00  0.00     0.033 C 
HETATM   16  O1  UNL     1      -1.652  -1.681  -0.161  1.00  0.00    -0.226 OA
ENDROOT
TORSDOF 0
