REMARK  1 active torsions:
REMARK  status: ('A' for Active; 'I' for Inactive)
REMARK    1  A    between atoms: C2_2  and  C8_9 
ROOT
HETATM    1  C1  UNL     1       0.914   1.065  -0.279  1.00  0.00     0.136 A 
HETATM    2  C2  UNL     1       1.449  -0.179   0.053  1.00  0.00     0.093 A 
HETATM    3  C3  UNL     1       0.600  -1.249   0.337  1.00  0.00     0.136 A 
HETATM    4  C4  UNL     1      -0.783  -1.075   0.289  1.00  0.00     0.023 A 
HETATM    5  C5  UNL     1      -1.317   0.170  -0.044  1.00  0.00    -0.018 A 
HETATM    6  C6  UNL     1      -0.469   1.240  -0.328  1.00  0.00     0.023 A 
HETATM    7  C7  UNL     1      -2.802   0.357  -0.096  1.00  0.00     0.031 C 
HETATM    8  O1  UNL     1       1.120  -2.458   0.660  1.00  0.00    -0.190 OA
HETATM    9  O3  UNL     1       1.738   2.105  -0.555  1.00  0.00    -0.190 OA
ENDROOT
BRANCH   2  10
HETATM   10  C8  UNL     1       2.788  -0.348   0.101  1.00  0.00     0.238 C 
HETATM   11  O2  UNL     1       3.300  -1.281  -0.472  1.00  0.00    -0.283 OA
ENDBRANCH   2  10
TORSDOF 1
