REMARK  0 active torsions:
REMARK  status: ('A' for Active; 'I' for Inactive)
ROOT
HETATM    1  C1  UNL     1       1.346   1.734  -0.413  1.00  0.00     0.163 C 
HETATM    2  C2  UNL     1       1.178   0.550   0.538  1.00  0.00     0.078 C 
HETATM    3  C3  UNL     1       2.379  -0.398   0.376  1.00  0.00     0.113 C 
HETATM    4  C4  UNL     1       3.673   0.363   0.617  1.00  0.00    -0.003 A 
HETATM    5  C5  UNL     1       3.758   1.752   0.392  1.00  0.00    -0.020 A 
HETATM    6  C6  UNL     1       2.551   2.572  -0.004  1.00  0.00     0.059 C 
HETATM    7  C7  UNL     1       4.975   2.431   0.569  1.00  0.00     0.022 A 
HETATM    8  C8  UNL     1       6.087   1.706   0.981  1.00  0.00     0.119 A 
HETATM    9  C9  UNL     1       5.996   0.346   1.246  1.00  0.00     0.119 A 
HETATM   10  C10 UNL     1       4.797  -0.340   1.085  1.00  0.00     0.024 A 
HETATM   11  O1  UNL     1       7.231  -0.119   1.655  1.00  0.00    -0.300 OA
HETATM   12  C11 UNL     1       8.139   0.990   1.637  1.00  0.00     0.304 A 
HETATM   13  O2  UNL     1       7.379   2.131   1.220  1.00  0.00    -0.300 OA
HETATM   14  N1  UNL     1       2.343  -1.065  -0.933  1.00  0.00    -0.312 N 
HETATM   15  C12 UNL     1       1.165  -1.501  -1.488  1.00  0.00     0.259 C 
HETATM   16  C13 UNL     1      -0.086  -1.200  -0.753  1.00  0.00     0.076 A 
HETATM   17  C14 UNL     1      -0.096  -0.207   0.244  1.00  0.00    -0.011 A 
HETATM   18  C15 UNL     1      -1.283   0.093   0.923  1.00  0.00    -0.002 A 
HETATM   19  C16 UNL     1      -2.485  -0.571   0.640  1.00  0.00     0.026 A 
HETATM   20  C17 UNL     1      -2.453  -1.554  -0.342  1.00  0.00     0.119 A 
HETATM   21  C18 UNL     1      -1.280  -1.876  -1.021  1.00  0.00     0.123 A 
HETATM   22  O3  UNL     1      -1.545  -2.893  -1.919  1.00  0.00    -0.299 OA
HETATM   23  C19 UNL     1      -2.945  -3.192  -1.830  1.00  0.00     0.304 A 
HETATM   24  O4  UNL     1      -3.483  -2.345  -0.809  1.00  0.00    -0.300 OA
HETATM   25  O5  UNL     1       1.131  -2.117  -2.546  1.00  0.00    -0.267 OA
HETATM   26  C20 UNL     1       3.624  -1.334  -1.581  1.00  0.00     0.129 C 
HETATM   27  O6  UNL     1       0.191   2.538  -0.387  1.00  0.00    -0.223 OA
ENDROOT
TORSDOF 0
