REMARK  2 active torsions:
REMARK  status: ('A' for Active; 'I' for Inactive)
REMARK    1  A    between atoms: C1_1  and  C7_8 
REMARK    2  A    between atoms: C8_9  and  C9_10 
ROOT
HETATM    1  C1  UNL     1      -0.021  -0.309   0.009  1.00  0.00     0.025 A 
HETATM    2  C2  UNL     1       0.585  -1.506   0.423  1.00  0.00     0.002 A 
HETATM    3  C3  UNL     1      -0.179  -2.591   0.852  1.00  0.00     0.000 A 
HETATM    4  C4  UNL     1      -1.571  -2.496   0.844  1.00  0.00     0.002 A 
HETATM    5  C5  UNL     1      -2.174  -1.324   0.389  1.00  0.00     0.027 A 
HETATM    6  C6  UNL     1      -1.424  -0.217  -0.028  1.00  0.00     0.131 A 
HETATM    7  O1  UNL     1      -2.062   0.877  -0.519  1.00  0.00    -0.190 OA
ENDROOT
BRANCH   1   8
HETATM    8  C7  UNL     1       0.869   0.786  -0.434  1.00  0.00     0.005 C 
HETATM    9  C8  UNL     1       0.630   2.100  -0.232  1.00  0.00     0.045 C 
BRANCH   9  10
HETATM   10  C9  UNL     1       1.564   3.156  -0.683  1.00  0.00     0.234 C 
HETATM   11  O2  UNL     1       1.336   4.343  -0.500  1.00  0.00    -0.283 OA
ENDBRANCH   9  10
ENDBRANCH   1   8
TORSDOF 2
