REMARK  8 active torsions:
REMARK  status: ('A' for Active; 'I' for Inactive)
REMARK    1  A    between atoms: C1_2  and  C2_3 
REMARK    2  A    between atoms: C2_3  and  C3_4 
REMARK    3  A    between atoms: C3_4  and  C4_5 
REMARK    4  A    between atoms: C4_5  and  C5_6 
REMARK    5  A    between atoms: C5_6  and  C6_7 
REMARK    6  A    between atoms: C6_7  and  C7_8 
REMARK    7  A    between atoms: C7_8  and  C8_9 
REMARK    8  A    between atoms: C9_10  and  C10_11 
ROOT
HETATM    1  C6  UNL     1       4.459   0.746   0.482  1.00  0.00     0.005 C 
ENDROOT
BRANCH   1   2
HETATM    2  C5  UNL     1       3.322  -0.256   0.736  1.00  0.00     0.000 C 
BRANCH   2   3
HETATM    3  C4  UNL     1       1.968   0.451   0.909  1.00  0.00     0.000 C 
BRANCH   3   4
HETATM    4  C3  UNL     1       0.801  -0.549   0.978  1.00  0.00     0.003 C 
BRANCH   4   5
HETATM    5  C2  UNL     1      -0.556   0.162   1.103  1.00  0.00     0.036 C 
BRANCH   5   6
HETATM    6  C1  UNL     1      -1.716  -0.828   1.069  1.00  0.00     0.182 C 
HETATM    7  O1  UNL     1      -2.939  -0.126   1.169  1.00  0.00    -0.221 OA
ENDBRANCH   5   6
ENDBRANCH   4   5
ENDBRANCH   3   4
ENDBRANCH   2   3
ENDBRANCH   1   2
BRANCH   1   8
HETATM    8  C7  UNL     1       5.832   0.076   0.312  1.00  0.00     0.026 C 
BRANCH   8   9
HETATM    9  C8  UNL     1       5.835  -0.975  -0.770  1.00  0.00    -0.020 C 
HETATM   10  C9  UNL     1       5.962  -0.797  -2.100  1.00  0.00     0.066 C 
BRANCH  10  11
HETATM   11  C10 UNL     1       6.139   0.499  -2.805  1.00  0.00     0.211 C 
HETATM   12  O2  UNL     1       6.221   0.496  -4.027  1.00  0.00    -0.644 OA
HETATM   13  O3  UNL     1       6.210   1.700  -2.200  1.00  0.00    -0.644 OA
ENDBRANCH  10  11
ENDBRANCH   8   9
ENDBRANCH   1   8
TORSDOF 8
