REMARK  1 active torsions:
REMARK  status: ('A' for Active; 'I' for Inactive)
REMARK    1  A    between atoms: C10_12  and  C11_13 
ROOT
HETATM    1  C1  UNL     1      -2.675  -3.006  -0.577  1.00  0.00     0.002 C 
HETATM    2  C2  UNL     1      -1.645  -3.247  -1.485  1.00  0.00     0.019 C 
HETATM    3  C3  UNL     1      -0.465  -2.517  -1.323  1.00  0.00     0.081 C 
HETATM    4  C4  UNL     1      -0.281  -1.491  -0.392  1.00  0.00     0.006 C 
HETATM    5  C5  UNL     1      -1.255  -1.422   0.614  1.00  0.00    -0.002 C 
HETATM    6  C6  UNL     1      -2.452  -2.135   0.496  1.00  0.00    -0.000 C 
HETATM    7  C7  UNL     1       1.088  -0.761  -0.476  1.00  0.00     0.122 C 
HETATM    8  C8  UNL     1       1.710  -2.006  -1.259  1.00  0.00     0.261 C 
HETATM    9  N1  UNL     1       0.750  -2.727  -1.942  1.00  0.00    -0.212 NA
HETATM   10  O1  UNL     1       2.881  -2.373  -1.363  1.00  0.00    -0.270 OA
HETATM   11  C9  UNL     1       1.561   0.005   1.348  1.00  0.00     0.055 A 
HETATM   12  C10 UNL     1       2.984   0.675   1.290  1.00  0.00     0.051 A 
HETATM   13  C13 UNL     1       2.496  -0.059   0.163  1.00  0.00     0.082 A 
HETATM   14  N2  UNL     1       0.815   0.855   0.212  1.00  0.00    -0.370 N 
HETATM   15  C14 UNL     1       1.126   1.530   1.349  1.00  0.00     0.082 C 
HETATM   16  C15 UNL     1       1.930   2.561   0.488  1.00  0.00     0.050 C 
HETATM   17  C16 UNL     1       3.241   1.808   0.225  1.00  0.00     0.011 C 
HETATM   18  C17 UNL     1       3.231   1.379  -1.328  1.00  0.00     0.031 C 
HETATM   19  C18 UNL     1       1.776   0.617  -1.670  1.00  0.00     0.128 C 
HETATM   20  O3  UNL     1       1.165   1.913  -1.900  1.00  0.00    -0.356 OA
HETATM   21  C19 UNL     1       1.391   2.970  -0.917  1.00  0.00     0.144 C 
HETATM   22  C20 UNL     1      -0.463   1.087  -0.556  1.00  0.00     0.121 C 
ENDROOT
BRANCH  12  23
HETATM   23  C11 UNL     1       4.142   0.110   2.093  1.00  0.00     0.154 C 
HETATM   24  C12 UNL     1       5.387  -0.249   1.285  1.00  0.00     0.036 C 
HETATM   25  O2  UNL     1       4.495   1.086   3.045  1.00  0.00    -0.223 OA
ENDBRANCH  12  23
TORSDOF 1
