REMARK  6 active torsions:
REMARK  status: ('A' for Active; 'I' for Inactive)
REMARK    1  A    between atoms: C4_4  and  O4_20 
REMARK    2  A    between atoms: C5_5  and  C8_9 
REMARK    3  A    between atoms: C6_6  and  O1_7 
REMARK    4  A    between atoms: C8_9  and  C9_10 
REMARK    5  A    between atoms: C9_10  and  C10_11 
REMARK    6  A    between atoms: C10_11  and  C11_12 
ROOT
HETATM    1  C8  UNL     1       0.421  -1.071   1.037  1.00  0.00     0.177 C 
HETATM    2  O3  UNL     1       0.061  -1.053   2.205  1.00  0.00    -0.291 OA
ENDROOT
BRANCH   1   3
HETATM    3  C5  UNL     1       1.639  -1.894   0.655  1.00  0.00     0.079 C 
HETATM    4  C4  UNL     1       1.508  -3.292   0.695  1.00  0.00     0.099 C 
HETATM    5  C3  UNL     1       2.628  -4.042   0.317  1.00  0.00     0.024 C 
HETATM    6  C2  UNL     1       3.856  -3.429   0.076  1.00  0.00     0.004 C 
HETATM    7  C1  UNL     1       3.965  -2.041   0.137  1.00  0.00     0.024 C 
HETATM    8  C6  UNL     1       2.854  -1.230   0.413  1.00  0.00     0.099 C 
BRANCH   4   9
HETATM    9  O4  UNL     1       0.292  -3.897   0.876  1.00  0.00    -0.328 OA
HETATM   10  C17 UNL     1       0.143  -4.511   2.136  1.00  0.00     0.181 C 
ENDBRANCH   4   9
BRANCH   8  11
HETATM   11  O1  UNL     1       2.898   0.138   0.485  1.00  0.00    -0.328 OA
HETATM   12  C7  UNL     1       4.130   0.798   0.330  1.00  0.00     0.181 C 
ENDBRANCH   8  11
ENDBRANCH   1   3
BRANCH   1  13
HETATM   13  C9  UNL     1      -0.374  -0.322  -0.029  1.00  0.00     0.074 C 
BRANCH  13  14
HETATM   14  C10 UNL     1       0.187   1.081  -0.307  1.00  0.00     0.035 C 
BRANCH  14  15
HETATM   15  C11 UNL     1      -0.705   2.186  -0.831  1.00  0.00    -0.022 A 
HETATM   16  C12 UNL     1      -0.099   3.386  -1.221  1.00  0.00    -0.002 A 
HETATM   17  C13 UNL     1      -0.851   4.485  -1.641  1.00  0.00     0.027 A 
HETATM   18  C14 UNL     1      -2.245   4.428  -1.687  1.00  0.00     0.131 A 
HETATM   19  C15 UNL     1      -2.852   3.224  -1.319  1.00  0.00     0.027 A 
HETATM   20  O2  UNL     1      -2.987   5.505  -2.061  1.00  0.00    -0.190 OA
HETATM   21  C16 UNL     1      -2.102   2.119  -0.905  1.00  0.00    -0.002 A 
ENDBRANCH  14  15
ENDBRANCH  13  14
ENDBRANCH   1  13
TORSDOF 6
