REMARK  6 active torsions:
REMARK  status: ('A' for Active; 'I' for Inactive)
REMARK    1  A    between atoms: C6_6  and  O1_7 
REMARK    2  A    between atoms: O1_7  and  C7_8 
REMARK    3  A    between atoms: C8_10  and  C12_17 
REMARK    4  A    between atoms: C14_21  and  C16_23 
REMARK    5  A    between atoms: C18_26  and  O10_32 
REMARK    6  A    between atoms: C19_27  and  O9_30 
ROOT
HETATM    1  C1  UNL     1       3.367  -1.546   0.330  1.00  0.00     0.024 A 
HETATM    2  C2  UNL     1       4.498  -1.469  -0.485  1.00  0.00    -0.000 A 
HETATM    3  C3  UNL     1       5.327  -0.344  -0.474  1.00  0.00     0.000 A 
HETATM    4  C4  UNL     1       5.038   0.712   0.397  1.00  0.00     0.092 A 
HETATM    5  C5  UNL     1       3.888   0.604   1.188  1.00  0.00     0.048 A 
HETATM    6  C6  UNL     1       3.015  -0.492   1.185  1.00  0.00     0.099 A 
HETATM    7  O7  UNL     1       5.783   1.857   0.427  1.00  0.00    -0.331 OA
HETATM    8  C13 UNL     1       6.553   2.115  -0.718  1.00  0.00     0.149 C 
HETATM    9  C14 UNL     1       7.451   0.925  -1.065  1.00  0.00     0.041 C 
HETATM   10  C15 UNL     1       6.534  -0.277  -1.374  1.00  0.00     0.031 C 
ENDROOT
BRANCH   6  11
HETATM   11  O1  UNL     1       1.950  -0.466   2.048  1.00  0.00    -0.304 OA
BRANCH  11  12
HETATM   12  C7  UNL     1       1.341  -1.662   2.485  1.00  0.00     0.274 C 
HETATM   13  O2  UNL     1       0.023  -1.609   1.981  1.00  0.00    -0.326 OA
HETATM   14  C8  UNL     1      -0.762  -2.701   2.388  1.00  0.00     0.184 C 
HETATM   15  C9  UNL     1      -0.837  -2.757   3.911  1.00  0.00     0.215 C 
HETATM   16  C10 UNL     1       0.553  -2.829   4.506  1.00  0.00     0.220 C 
HETATM   17  O5  UNL     1      -1.547  -3.891   4.343  1.00  0.00    -0.218 OA
HETATM   18  C11 UNL     1       1.335  -1.641   3.997  1.00  0.00     0.241 C 
HETATM   19  O4  UNL     1       0.471  -2.780   5.907  1.00  0.00    -0.218 OA
HETATM   20  O3  UNL     1       2.660  -1.717   4.456  1.00  0.00    -0.215 OA
BRANCH  14  21
HETATM   21  C12 UNL     1      -2.150  -2.552   1.779  1.00  0.00     0.214 C 
HETATM   22  O6  UNL     1      -2.071  -2.620   0.370  1.00  0.00    -0.218 OA
ENDBRANCH  14  21
ENDBRANCH  11  12
ENDBRANCH   6  11
BRANCH   9  23
HETATM   23  C16 UNL     1       8.453   1.188  -2.225  1.00  0.00     0.058 C 
HETATM   24  C17 UNL     1       9.203   2.523  -2.138  1.00  0.00     0.186 C 
HETATM   25  O8  UNL     1       8.367   3.577  -2.564  1.00  0.00    -0.220 OA
HETATM   26  C18 UNL     1      10.438   2.573  -3.032  1.00  0.00     0.177 C 
HETATM   27  C19 UNL     1      11.453   1.528  -2.571  1.00  0.00     0.167 C 
HETATM   28  C20 UNL     1      10.766   0.189  -2.466  1.00  0.00     0.001 C 
HETATM   29  C21 UNL     1       9.440   0.044  -2.325  1.00  0.00    -0.026 C 
BRANCH  26  30
HETATM   30  O10 UNL     1      10.979   3.867  -2.923  1.00  0.00    -0.349 OA
HETATM   31  C23 UNL     1      11.391   4.419  -4.155  1.00  0.00     0.174 C 
ENDBRANCH  26  30
BRANCH  27  32
HETATM   32  O9  UNL     1      12.514   1.496  -3.503  1.00  0.00    -0.347 OA
HETATM   33  C22 UNL     1      13.711   0.962  -2.982  1.00  0.00     0.175 C 
ENDBRANCH  27  32
ENDBRANCH   9  23
TORSDOF 6
