REMARK  2 active torsions:
REMARK  status: ('A' for Active; 'I' for Inactive)
REMARK    1  A    between atoms: C2_2  and  O3_17 
REMARK    2  A    between atoms: C11_12  and  C13_14 
ROOT
HETATM    1  C1  UNL     1       1.151  -2.579  -0.519  1.00  0.00     0.024 A 
HETATM    2  C2  UNL     1       0.016  -1.940   0.056  1.00  0.00     0.096 A 
HETATM    3  C3  UNL     1       0.181  -0.633   0.508  1.00  0.00     0.043 A 
HETATM    4  C4  UNL     1       1.448  -0.019   0.429  1.00  0.00     0.083 A 
HETATM    5  C5  UNL     1       2.547  -0.684  -0.124  1.00  0.00     0.019 A 
HETATM    6  C6  UNL     1       2.404  -1.996  -0.613  1.00  0.00     0.004 A 
HETATM    7  C7  UNL     1       3.665   0.221  -0.077  1.00  0.00     0.019 A 
HETATM    8  C8  UNL     1       3.209   1.407   0.509  1.00  0.00     0.083 A 
HETATM    9  N1  UNL     1       1.865   1.254   0.816  1.00  0.00    -0.245 NA
HETATM   10  C9  UNL     1       4.081   2.502   0.693  1.00  0.00     0.047 A 
HETATM   11  C10 UNL     1       5.401   2.408   0.278  1.00  0.00     0.136 A 
HETATM   12  C11 UNL     1       5.854   1.189  -0.320  1.00  0.00     0.068 A 
HETATM   13  C12 UNL     1       5.001   0.100  -0.499  1.00  0.00     0.007 A 
HETATM   14  O2  UNL     1       6.227   3.473   0.471  1.00  0.00    -0.190 OA
ENDROOT
BRANCH   2  15
HETATM   15  O3  UNL     1      -1.179  -2.615   0.045  1.00  0.00    -0.328 OA
HETATM   16  C14 UNL     1      -2.363  -1.879   0.252  1.00  0.00     0.181 C 
ENDBRANCH   2  15
BRANCH  12  17
HETATM   17  C13 UNL     1       7.254   1.050  -0.781  1.00  0.00     0.236 C 
HETATM   18  O1  UNL     1       7.705   0.031  -1.290  1.00  0.00    -0.283 OA
ENDBRANCH  12  17
TORSDOF 2
