REMARK  4 active torsions:
REMARK  status: ('A' for Active; 'I' for Inactive)
REMARK    1  A    between atoms: C10_10  and  O1_11 
REMARK    2  A    between atoms: O1_11  and  C11_12 
REMARK    3  A    between atoms: C11_12  and  C12_13 
REMARK    4  A    between atoms: C12_13  and  C14_15 
ROOT
HETATM    1  C1  UNL     1      -2.509  -0.790  -2.080  1.00  0.00     0.003 C 
HETATM    2  C2  UNL     1      -1.294  -0.914  -3.008  1.00  0.00     0.000 C 
HETATM    3  C3  UNL     1      -0.041  -0.151  -2.518  1.00  0.00     0.005 C 
HETATM    4  C4  UNL     1       0.322  -0.480  -1.034  1.00  0.00     0.056 C 
HETATM    5  C5  UNL     1      -0.937  -0.185  -0.165  1.00  0.00     0.135 C 
HETATM    6  C6  UNL     1      -2.140  -1.026  -0.610  1.00  0.00     0.031 C 
HETATM    7  C7  UNL     1      -1.338   1.302  -0.121  1.00  0.00     0.082 C 
HETATM    8  C8  UNL     1      -0.152   2.201  -0.015  1.00  0.00     0.078 A 
HETATM    9  C9  UNL     1       1.126   1.785  -0.219  1.00  0.00     0.022 A 
HETATM   10  C10 UNL     1       1.524   0.371  -0.521  1.00  0.00     0.150 C 
HETATM   11  C16 UNL     1       1.963   2.931  -0.022  1.00  0.00     0.003 A 
HETATM   12  C17 UNL     1       1.113   3.957   0.264  1.00  0.00     0.118 A 
HETATM   13  O3  UNL     1      -0.183   3.534   0.271  1.00  0.00    -0.310 OA
HETATM   14  C18 UNL     1       3.455   2.994  -0.113  1.00  0.00     0.033 C 
HETATM   15  O4  UNL     1      -0.653  -0.542   1.166  1.00  0.00    -0.226 OA
HETATM   16  C19 UNL     1       0.744  -1.973  -0.941  1.00  0.00     0.005 C 
HETATM   17  C20 UNL     1       1.085  -0.387  -3.548  1.00  0.00     0.000 C 
ENDROOT
BRANCH  10  18
HETATM   18  O1  UNL     1       2.058  -0.180   0.664  1.00  0.00    -0.300 OA
BRANCH  18  19
HETATM   19  C11 UNL     1       3.377  -0.501   0.732  1.00  0.00     0.272 C 
HETATM   20  O2  UNL     1       4.189  -0.316  -0.146  1.00  0.00    -0.264 OA
BRANCH  19  21
HETATM   21  C12 UNL     1       3.672  -1.184   2.064  1.00  0.00     0.086 C 
HETATM   22  C13 UNL     1       5.010  -1.940   2.016  1.00  0.00     0.010 C 
BRANCH  21  23
HETATM   23  C14 UNL     1       3.624  -0.169   3.223  1.00  0.00     0.010 C 
HETATM   24  C15 UNL     1       3.393  -0.833   4.588  1.00  0.00     0.001 C 
ENDBRANCH  21  23
ENDBRANCH  19  21
ENDBRANCH  18  19
ENDBRANCH  10  18
TORSDOF 4
