REMARK  1 active torsions:
REMARK  status: ('A' for Active; 'I' for Inactive)
REMARK    1  A    between atoms: N1_9  and  O1_10 
ROOT
HETATM    1  C1  UNL     1      -2.143  -0.713   0.762  1.00  0.00    -0.000 A 
HETATM    2  C2  UNL     1      -2.492  -2.069   0.748  1.00  0.00     0.002 A 
HETATM    3  C3  UNL     1      -1.524  -3.044   0.499  1.00  0.00     0.019 A 
HETATM    4  C4  UNL     1      -0.212  -2.621   0.269  1.00  0.00     0.087 A 
HETATM    5  C5  UNL     1       0.155  -1.272   0.285  1.00  0.00     0.006 A 
HETATM    6  C6  UNL     1      -0.824  -0.308   0.537  1.00  0.00    -0.002 A 
HETATM    7  C7  UNL     1       1.660  -1.039   0.086  1.00  0.00     0.120 C 
HETATM    8  C8  UNL     1       2.002  -2.518  -0.248  1.00  0.00     0.266 C 
HETATM    9  N1  UNL     1       0.936  -3.369  -0.029  1.00  0.00    -0.185 N 
HETATM   10  O2  UNL     1       3.047  -2.891  -0.782  1.00  0.00    -0.269 OA
HETATM   11  C10 UNL     1       2.205  -0.499   1.512  1.00  0.00     0.130 C 
HETATM   12  C11 UNL     1       2.795   0.934   2.021  1.00  0.00     0.065 C 
HETATM   13  C12 UNL     1       3.131   1.742   0.752  1.00  0.00     0.150 C 
HETATM   14  C13 UNL     1       3.947   2.942   0.378  1.00  0.00     0.012 C 
HETATM   15  C14 UNL     1       4.004   3.010  -1.176  1.00  0.00     0.275 C 
HETATM   16  N2  UNL     1       3.119   2.005  -1.840  1.00  0.00     0.141 N 
HETATM   17  C15 UNL     1       3.270   0.598  -1.390  1.00  0.00     0.226 C 
HETATM   18  C16 UNL     1       3.953   0.707  -0.047  1.00  0.00     0.093 C 
HETATM   19  C17 UNL     1       4.412  -0.566   0.653  1.00  0.00     0.147 C 
HETATM   20  O3  UNL     1       3.431  -1.168   1.440  1.00  0.00    -0.356 OA
HETATM   21  C18 UNL     1       1.935  -0.204  -1.238  1.00  0.00     0.049 C 
HETATM   22  C19 UNL     1       3.188   2.099  -3.288  1.00  0.00     0.286 C 
HETATM   23  C20 UNL     1       4.508   3.792   1.248  1.00  0.00    -0.030 C 
HETATM   24  C21 UNL     1       5.333   4.994   0.876  1.00  0.00     0.030 C 
HETATM   25  O4  UNL     1       1.847   2.191   0.303  1.00  0.00    -0.222 OA
ENDROOT
BRANCH   9  26
HETATM   26  O1  UNL     1       0.906  -4.663  -0.275  1.00  0.00    -0.248 OA
HETATM   27  C9  UNL     1       1.859  -5.418   0.440  1.00  0.00     0.209 C 
ENDBRANCH   9  26
TORSDOF 1
