REMARK  4 active torsions:
REMARK  status: ('A' for Active; 'I' for Inactive)
REMARK    1  A    between atoms: C1_1  and  O5_15 
REMARK    2  A    between atoms: C5_6  and  C6_7 
REMARK    3  A    between atoms: O5_15  and  C11_16 
REMARK    4  A    between atoms: C12_18  and  C16_25 
ROOT
HETATM    1  C1  UNL     1       0.211   0.793   0.039  1.00  0.00     0.244 C 
HETATM    2  O1  UNL     1       1.495   1.281  -0.277  1.00  0.00    -0.304 OA
HETATM    3  C2  UNL     1       1.623   2.644  -0.292  1.00  0.00     0.120 C 
HETATM    4  C3  UNL     1       0.580   3.496  -0.164  1.00  0.00     0.065 C 
HETATM    5  C4  UNL     1      -0.825   2.981  -0.032  1.00  0.00     0.040 C 
HETATM    6  C5  UNL     1      -0.874   1.584  -0.685  1.00  0.00     0.092 C 
HETATM    7  C8  UNL     1      -1.786   4.031  -0.597  1.00  0.00     0.038 C 
HETATM    8  C9  UNL     1      -1.567   5.366   0.109  1.00  0.00     0.152 C 
HETATM    9  O3  UNL     1      -0.257   5.855  -0.033  1.00  0.00    -0.299 OA
HETATM   10  C10 UNL     1       0.772   4.968  -0.174  1.00  0.00     0.294 C 
HETATM   11  O4  UNL     1       1.913   5.404  -0.318  1.00  0.00    -0.259 OA
ENDROOT
BRANCH   1  12
HETATM   12  O5  UNL     1       0.189  -0.559  -0.358  1.00  0.00    -0.304 OA
BRANCH  12  13
HETATM   13  C11 UNL     1      -0.669  -1.376   0.416  1.00  0.00     0.272 C 
HETATM   14  O6  UNL     1       0.215  -2.183   1.166  1.00  0.00    -0.326 OA
HETATM   15  C12 UNL     1      -0.449  -3.115   1.979  1.00  0.00     0.184 C 
HETATM   16  C13 UNL     1      -1.271  -4.055   1.103  1.00  0.00     0.215 C 
HETATM   17  C14 UNL     1      -2.268  -3.253   0.295  1.00  0.00     0.220 C 
HETATM   18  O9  UNL     1      -1.995  -4.987   1.866  1.00  0.00    -0.218 OA
HETATM   19  C15 UNL     1      -1.524  -2.212  -0.511  1.00  0.00     0.241 C 
HETATM   20  O8  UNL     1      -2.971  -4.106  -0.572  1.00  0.00    -0.218 OA
HETATM   21  O7  UNL     1      -2.483  -1.402  -1.146  1.00  0.00    -0.215 OA
BRANCH  15  22
HETATM   22  C16 UNL     1       0.598  -3.845   2.811  1.00  0.00     0.214 C 
HETATM   23  O10 UNL     1       0.011  -4.364   3.988  1.00  0.00    -0.218 OA
ENDBRANCH  15  22
ENDBRANCH  12  13
ENDBRANCH   1  12
BRANCH   6  24
HETATM   24  C6  UNL     1      -0.784   1.643  -2.227  1.00  0.00     0.157 C 
HETATM   25  C7  UNL     1      -0.064   0.536  -2.997  1.00  0.00     0.036 C 
HETATM   26  O2  UNL     1      -2.100   1.694  -2.731  1.00  0.00    -0.223 OA
ENDBRANCH   6  24
TORSDOF 4
