REMARK  6 active torsions:
REMARK  status: ('A' for Active; 'I' for Inactive)
REMARK    1  A    between atoms: C15_15  and  C18_18 
REMARK    2  A    between atoms: C18_18  and  C19_19 
REMARK    3  A    between atoms: C19_19  and  C20_20 
REMARK    4  A    between atoms: C20_20  and  C21_21 
REMARK    5  A    between atoms: C22_22  and  C23_23 
REMARK    6  A    between atoms: C22_22  and  C24_26 
ROOT
HETATM    1  C1  UNL     1      -2.507  -1.923   0.037  1.00  0.00     0.033 C 
HETATM    2  C2  UNL     1      -2.208  -3.259   0.727  1.00  0.00     0.152 C 
HETATM    3  C3  UNL     1      -1.225  -4.148  -0.059  1.00  0.00     0.028 C 
HETATM    4  C4  UNL     1       0.139  -3.402  -0.178  1.00  0.00     0.002 C 
HETATM    5  C5  UNL     1       0.009  -1.875  -0.145  1.00  0.00     0.000 A 
HETATM    6  C6  UNL     1      -1.294  -1.338  -0.706  1.00  0.00     0.003 C 
HETATM    7  C7  UNL     1       1.310  -1.116  -0.291  1.00  0.00     0.000 A 
HETATM    8  C8  UNL     1       2.566  -1.977  -0.456  1.00  0.00     0.000 C 
HETATM    9  C9  UNL     1       2.357  -3.119  -1.472  1.00  0.00     0.000 C 
HETATM   10  C10 UNL     1       0.975  -3.801  -1.407  1.00  0.00     0.000 C 
HETATM   11  C11 UNL     1       3.753  -1.090  -0.878  1.00  0.00     0.000 C 
HETATM   12  C12 UNL     1       3.838   0.243  -0.101  1.00  0.00     0.000 C 
HETATM   13  C13 UNL     1       2.578   1.073  -0.455  1.00  0.00     0.000 C 
HETATM   14  C14 UNL     1       1.398   0.233  -0.990  1.00  0.00     0.000 C 
HETATM   15  C15 UNL     1       5.184   0.798  -0.647  1.00  0.00     0.000 C 
HETATM   16  C16 UNL     1       6.079  -0.465  -0.749  1.00  0.00     0.000 C 
HETATM   17  C17 UNL     1       5.155  -1.697  -0.784  1.00  0.00     0.000 C 
HETATM   18  C26 UNL     1       3.926   0.018   1.425  1.00  0.00     0.000 C 
HETATM   19  C27 UNL     1       0.588  -1.138   1.039  1.00  0.00     0.000 A 
HETATM   20  C28 UNL     1      -1.020  -5.481   0.702  1.00  0.00     0.003 C 
HETATM   21  C29 UNL     1      -1.873  -4.522  -1.413  1.00  0.00     0.003 C 
HETATM   22  O4  UNL     1      -1.698  -3.005   2.018  1.00  0.00    -0.224 OA
ENDROOT
BRANCH  15  23
HETATM   23  C18 UNL     1       5.874   1.976   0.088  1.00  0.00     0.000 C 
HETATM   24  C25 UNL     1       4.927   3.172   0.293  1.00  0.00     0.000 C 
BRANCH  23  25
HETATM   25  C19 UNL     1       7.154   2.415  -0.668  1.00  0.00     0.005 C 
BRANCH  25  26
HETATM   26  C20 UNL     1       8.032   3.461   0.048  1.00  0.00     0.026 C 
BRANCH  26  27
HETATM   27  C21 UNL     1       7.461   4.858   0.019  1.00  0.00    -0.022 C 
HETATM   28  C22 UNL     1       7.572   5.848   0.931  1.00  0.00     0.071 C 
BRANCH  28  29
HETATM   29  C23 UNL     1       8.411   5.726   2.158  1.00  0.00     0.209 C 
HETATM   30  O1  UNL     1       8.453   6.664   2.944  1.00  0.00    -0.644 OA
HETATM   31  O2  UNL     1       9.198   4.675   2.464  1.00  0.00    -0.644 OA
ENDBRANCH  28  29
BRANCH  28  32
HETATM   32  C24 UNL     1       6.846   7.164   0.724  1.00  0.00     0.214 C 
HETATM   33  O3  UNL     1       5.647   7.021  -0.030  1.00  0.00    -0.215 OA
ENDBRANCH  28  32
ENDBRANCH  26  27
ENDBRANCH  25  26
ENDBRANCH  23  25
ENDBRANCH  15  23
TORSDOF 6
