REMARK  1 active torsions:
REMARK  status: ('A' for Active; 'I' for Inactive)
REMARK    1  A    between atoms: C13_15  and  O3_16 
ROOT
HETATM    1  C1  UNL     1      -1.159  -1.591  -0.058  1.00  0.00     0.029 A 
HETATM    2  C2  UNL     1       0.119  -2.149  -0.065  1.00  0.00     0.027 A 
HETATM    3  C3  UNL     1       1.273  -1.357  -0.043  1.00  0.00     0.103 A 
HETATM    4  C4  UNL     1       1.100   0.029  -0.008  1.00  0.00     0.064 A 
HETATM    5  C5  UNL     1      -0.187   0.591  -0.004  1.00  0.00     0.033 A 
HETATM    6  C6  UNL     1      -1.335  -0.205  -0.031  1.00  0.00     0.131 A 
HETATM    7  O1  UNL     1      -2.582   0.335  -0.027  1.00  0.00    -0.190 OA
HETATM    8  C7  UNL     1       2.302   0.901   0.024  1.00  0.00     0.201 A 
HETATM    9  C8  UNL     1       3.648   0.253   0.011  1.00  0.00     0.086 A 
HETATM   10  C9  UNL     1       3.619  -1.171  -0.033  1.00  0.00     0.107 A 
HETATM   11  O2  UNL     1       2.493  -1.946  -0.053  1.00  0.00    -0.307 OA
HETATM   12  C10 UNL     1       4.812  -1.905  -0.062  1.00  0.00     0.051 A 
HETATM   13  C11 UNL     1       6.017  -1.226  -0.040  1.00  0.00     0.123 A 
HETATM   14  C12 UNL     1       6.029   0.158   0.021  1.00  0.00     0.141 A 
HETATM   15  C13 UNL     1       4.887   0.969   0.048  1.00  0.00     0.123 A 
HETATM   16  O4  UNL     1       7.356   0.564   0.045  1.00  0.00    -0.298 OA
HETATM   17  C15 UNL     1       8.189  -0.601  -0.009  1.00  0.00     0.304 A 
HETATM   18  O5  UNL     1       7.302  -1.721  -0.060  1.00  0.00    -0.299 OA
HETATM   19  O6  UNL     1       2.092   2.107   0.055  1.00  0.00    -0.286 OA
ENDROOT
BRANCH  15  20
HETATM   20  O3  UNL     1       5.223   2.304   0.095  1.00  0.00    -0.326 OA
HETATM   21  C14 UNL     1       4.324   3.375   0.080  1.00  0.00     0.181 C 
ENDBRANCH  15  20
TORSDOF 1
