REMARK  4 active torsions:
REMARK  status: ('A' for Active; 'I' for Inactive)
REMARK    1  A    between atoms: C8_8  and  C12_12 
REMARK    2  A    between atoms: C12_12  and  C13_13 
REMARK    3  A    between atoms: C13_13  and  C14_14 
REMARK    4  A    between atoms: C17_17  and  O1_20 
ROOT
HETATM    1  C1  UNL     1      10.157  -0.940   0.395  1.00  0.00     0.027 A 
HETATM    2  C2  UNL     1      10.178  -2.283   0.016  1.00  0.00     0.131 A 
HETATM    3  C3  UNL     1       8.951  -2.918  -0.201  1.00  0.00     0.027 A 
HETATM    4  C4  UNL     1       7.717  -2.263  -0.055  1.00  0.00    -0.002 A 
HETATM    5  C5  UNL     1       7.724  -0.911   0.332  1.00  0.00    -0.018 A 
HETATM    6  C6  UNL     1       8.945  -0.267   0.549  1.00  0.00    -0.002 A 
HETATM    7  C7  UNL     1       6.459  -0.114   0.517  1.00  0.00     0.048 A 
HETATM    8  C8  UNL     1       5.182  -0.888   0.339  1.00  0.00    -0.040 A 
HETATM    9  C9  UNL     1       5.182  -2.180  -0.038  1.00  0.00    -0.008 A 
HETATM   10  C10 UNL     1       6.421  -2.933  -0.283  1.00  0.00    -0.001 A 
HETATM   11  C11 UNL     1       6.296  -4.213  -0.709  1.00  0.00    -0.000 C 
HETATM   12  O2  UNL     1      11.349  -2.957  -0.138  1.00  0.00    -0.190 OA
ENDROOT
BRANCH   8  13
HETATM   13  C12 UNL     1       3.892  -0.126   0.563  1.00  0.00     0.027 C 
BRANCH  13  14
HETATM   14  C13 UNL     1       3.490   0.688  -0.678  1.00  0.00     0.031 C 
BRANCH  14  15
HETATM   15  C14 UNL     1       2.251   1.524  -0.447  1.00  0.00    -0.022 A 
HETATM   16  C15 UNL     1       2.286   2.918  -0.539  1.00  0.00    -0.002 A 
HETATM   17  C16 UNL     1       1.133   3.677  -0.335  1.00  0.00     0.024 A 
HETATM   18  C17 UNL     1      -0.107   3.101  -0.023  1.00  0.00     0.094 A 
HETATM   19  C18 UNL     1      -0.125   1.701   0.061  1.00  0.00     0.024 A 
HETATM   20  C19 UNL     1       1.022   0.931  -0.148  1.00  0.00    -0.002 A 
BRANCH  18  21
HETATM   21  O1  UNL     1      -1.192   3.924   0.155  1.00  0.00    -0.328 OA
HETATM   22  C20 UNL     1      -2.446   3.333   0.405  1.00  0.00     0.181 C 
ENDBRANCH  18  21
ENDBRANCH  14  15
ENDBRANCH  13  14
ENDBRANCH   8  13
TORSDOF 4
