REMARK  1 active torsions:
REMARK  status: ('A' for Active; 'I' for Inactive)
REMARK    1  A    between atoms: C13_14  and  C15_16 
ROOT
HETATM    1  C1  UNL     1      -2.240  -0.028  -0.218  1.00  0.00     0.000 A 
HETATM    2  C2  UNL     1      -1.200   0.904  -0.302  1.00  0.00     0.003 A 
HETATM    3  C3  UNL     1       0.130   0.501  -0.138  1.00  0.00     0.042 A 
HETATM    4  C4  UNL     1       0.419  -0.854   0.113  1.00  0.00     0.042 A 
HETATM    5  C5  UNL     1      -0.627  -1.779   0.198  1.00  0.00     0.003 A 
HETATM    6  C6  UNL     1      -1.954  -1.368   0.033  1.00  0.00     0.000 A 
HETATM    7  C7  UNL     1       1.817  -1.323   0.291  1.00  0.00     0.196 A 
HETATM    8  C8  UNL     1       2.897  -0.309   0.194  1.00  0.00     0.042 A 
HETATM    9  C9  UNL     1       2.607   1.045  -0.052  1.00  0.00     0.042 A 
HETATM   10  C10 UNL     1       1.210   1.515  -0.230  1.00  0.00     0.196 A 
HETATM   11  O1  UNL     1       0.958   2.698  -0.447  1.00  0.00    -0.287 OA
HETATM   12  C11 UNL     1       3.655   1.968  -0.128  1.00  0.00     0.003 A 
HETATM   13  C12 UNL     1       4.981   1.550   0.026  1.00  0.00    -0.002 A 
HETATM   14  C13 UNL     1       5.283   0.207   0.257  1.00  0.00     0.011 A 
HETATM   15  C14 UNL     1       4.227  -0.712   0.345  1.00  0.00     0.002 A 
HETATM   16  O3  UNL     1       2.067  -2.505   0.515  1.00  0.00    -0.287 OA
ENDROOT
BRANCH  14  17
HETATM   17  C15 UNL     1       6.707  -0.264   0.405  1.00  0.00     0.209 C 
HETATM   18  O2  UNL     1       7.038  -1.174  -0.636  1.00  0.00    -0.215 OA
ENDBRANCH  14  17
TORSDOF 1
