REMARK  1 active torsions:
REMARK  status: ('A' for Active; 'I' for Inactive)
REMARK    1  A    between atoms: C9_9  and  C12_13 
ROOT
HETATM    1  C1  UNL     1      -2.139   0.787  -0.039  1.00  0.00     0.002 A 
HETATM    2  C2  UNL     1      -1.358  -0.354   0.033  1.00  0.00     0.019 A 
HETATM    3  C3  UNL     1       0.043  -0.188   0.017  1.00  0.00     0.081 A 
HETATM    4  C4  UNL     1       0.621   1.088  -0.066  1.00  0.00     0.019 A 
HETATM    5  C5  UNL     1      -0.180   2.245  -0.134  1.00  0.00     0.002 A 
HETATM    6  C6  UNL     1      -1.555   2.076  -0.120  1.00  0.00     0.000 A 
HETATM    7  C7  UNL     1       2.047   0.904  -0.069  1.00  0.00     0.022 A 
HETATM    8  C8  UNL     1       2.294  -0.472   0.014  1.00  0.00     0.097 A 
HETATM    9  C9  UNL     1       3.612  -0.973   0.026  1.00  0.00     0.110 A 
HETATM   10  N1  UNL     1       4.633  -0.128  -0.046  1.00  0.00    -0.244 NA
HETATM   11  C10 UNL     1       4.391   1.208  -0.128  1.00  0.00     0.099 A 
HETATM   12  C11 UNL     1       3.134   1.794  -0.142  1.00  0.00     0.022 A 
HETATM   13  N2  UNL     1       1.062  -1.130   0.069  1.00  0.00    -0.244 NA
ENDROOT
BRANCH   9  14
HETATM   14  C12 UNL     1       3.891  -2.450   0.113  1.00  0.00     0.229 C 
HETATM   15  O1  UNL     1       5.277  -2.767   0.166  1.00  0.00    -0.214 OA
ENDBRANCH   9  14
TORSDOF 1
