REMARK  3 active torsions:
REMARK  status: ('A' for Active; 'I' for Inactive)
REMARK    1  A    between atoms: C3_3  and  C8_10 
REMARK    2  A    between atoms: C5_5  and  O2_8 
REMARK    3  A    between atoms: C12_14  and  C13_16 
ROOT
HETATM    1  C8  UNL     1      -1.454   1.139  -0.005  1.00  0.00     0.053 C 
HETATM    2  C9  UNL     1      -2.159   0.597  -1.288  1.00  0.00     0.017 C 
HETATM    3  C10 UNL     1      -1.010   0.490  -2.301  1.00  0.00     0.093 C 
HETATM    4  C11 UNL     1      -0.081   1.620  -1.919  1.00  0.00     0.143 A 
HETATM    5  C12 UNL     1      -0.289   1.995  -0.515  1.00  0.00     0.154 A 
HETATM    6  O3  UNL     1      -0.716   2.876  -1.556  1.00  0.00    -0.351 OA
HETATM    7  C14 UNL     1       0.749   1.982  -3.035  1.00  0.00     0.006 C 
HETATM    8  C15 UNL     1       0.097   1.564  -4.139  1.00  0.00     0.035 C 
HETATM    9  C16 UNL     1      -1.125   0.781  -3.790  1.00  0.00     0.175 C 
HETATM   10  O5  UNL     1      -2.001   0.388  -4.545  1.00  0.00    -0.291 OA
ENDROOT
BRANCH   1  11
HETATM   11  C3  UNL     1      -0.997   0.005   0.892  1.00  0.00    -0.018 A 
HETATM   12  C2  UNL     1      -1.740  -0.354   2.018  1.00  0.00    -0.002 A 
HETATM   13  C1  UNL     1      -1.315  -1.405   2.827  1.00  0.00     0.029 A 
HETATM   14  C6  UNL     1      -0.158  -2.143   2.551  1.00  0.00     0.153 A 
HETATM   15  C5  UNL     1       0.626  -1.790   1.436  1.00  0.00     0.119 A 
HETATM   16  O1  UNL     1       0.174  -3.147   3.405  1.00  0.00    -0.188 OA
HETATM   17  C4  UNL     1       0.161  -0.736   0.636  1.00  0.00     0.022 A 
BRANCH  15  18
HETATM   18  O2  UNL     1       1.764  -2.432   1.007  1.00  0.00    -0.326 OA
HETATM   19  C7  UNL     1       2.035  -3.744   1.438  1.00  0.00     0.181 C 
ENDBRANCH  15  18
ENDBRANCH   1  11
BRANCH   5  20
HETATM   20  C13 UNL     1       0.797   2.550   0.381  1.00  0.00     0.212 C 
HETATM   21  O4  UNL     1       2.017   2.805  -0.299  1.00  0.00    -0.218 OA
ENDBRANCH   5  20
TORSDOF 3
