REMARK  0 active torsions:
REMARK  status: ('A' for Active; 'I' for Inactive)
ROOT
HETATM    1  C1  UNL     1       1.279  -1.153  -0.026  1.00  0.00     0.127 A 
HETATM    2  C2  UNL     1       0.146  -1.570  -0.741  1.00  0.00     0.005 A 
HETATM    3  C3  UNL     1      -0.976  -0.738  -0.800  1.00  0.00     0.023 A 
HETATM    4  C4  UNL     1      -1.037   0.512  -0.171  1.00  0.00     0.103 A 
HETATM    5  C5  UNL     1       0.103   0.913   0.545  1.00  0.00     0.025 A 
HETATM    6  C6  UNL     1       1.235   0.087   0.612  1.00  0.00     0.029 A 
HETATM    7  C7  UNL     1       0.090   2.208   1.223  1.00  0.00     0.007 A 
HETATM    8  C8  UNL     1      -1.019   2.972   1.142  1.00  0.00     0.069 A 
HETATM    9  C9  UNL     1      -2.178   2.473   0.369  1.00  0.00     0.300 A 
HETATM   10  O1  UNL     1      -2.169   1.271  -0.276  1.00  0.00    -0.273 OA
HETATM   11  O2  UNL     1      -3.178   3.187   0.320  1.00  0.00    -0.259 OA
HETATM   12  C10 UNL     1       0.152  -2.909  -1.439  1.00  0.00     0.033 C 
HETATM   13  O3  UNL     1       2.392  -1.929   0.057  1.00  0.00    -0.191 OA
ENDROOT
TORSDOF 0
