REMARK  1 active torsions:
REMARK  status: ('A' for Active; 'I' for Inactive)
REMARK    1  A    between atoms: C2_2  and  C7_13 
ROOT
HETATM    1  C1  UNL     1      -1.400   1.165   0.084  1.00  0.00     0.118 A 
HETATM    2  C2  UNL     1      -1.435  -0.245   0.131  1.00  0.00     0.112 A 
HETATM    3  N1  UNL     1      -0.306  -0.934   0.083  1.00  0.00    -0.238 NA
HETATM    4  C3  UNL     1       0.853  -0.257  -0.015  1.00  0.00     0.175 A 
HETATM    5  C4  UNL     1       0.861   1.145  -0.060  1.00  0.00     0.190 A 
HETATM    6  N2  UNL     1      -0.274   1.855  -0.009  1.00  0.00    -0.222 NA
HETATM    7  N3  UNL     1       2.039   1.786  -0.157  1.00  0.00    -0.170 NA
HETATM    8  C5  UNL     1       3.248   1.170  -0.218  1.00  0.00     0.373 A 
HETATM    9  N4  UNL     1       3.271  -0.196  -0.180  1.00  0.00    -0.150 NA
HETATM   10  C6  UNL     1       2.155  -0.983  -0.079  1.00  0.00     0.304 A 
HETATM   11  O1  UNL     1       2.270  -2.200  -0.050  1.00  0.00    -0.263 OA
HETATM   12  O2  UNL     1       4.271   1.801  -0.305  1.00  0.00    -0.242 OA
ENDROOT
BRANCH   2  13
HETATM   13  C7  UNL     1      -2.736  -1.000   0.232  1.00  0.00     0.229 C 
HETATM   14  O3  UNL     1      -2.576  -2.411   0.156  1.00  0.00    -0.214 OA
ENDBRANCH   2  13
TORSDOF 1
