REMARK  3 active torsions:
REMARK  status: ('A' for Active; 'I' for Inactive)
REMARK    1  A    between atoms: C1_2  and  C2_3 
REMARK    2  A    between atoms: C2_3  and  C3_4 
REMARK    3  A    between atoms: C2_3  and  C4_8 
ROOT
HETATM    1  C2  UNL     1      -1.046  -0.101   0.084  1.00  0.00     0.405 C 
HETATM    2  N1  UNL     1      -1.178  -1.567   0.004  1.00  0.00     0.630 N 
ENDROOT
BRANCH   1   3
HETATM    3  C1  UNL     1      -2.449   0.513   0.160  1.00  0.00     0.233 C 
HETATM    4  O1  UNL     1      -2.352   1.914   0.312  1.00  0.00    -0.218 OA
ENDBRANCH   1   3
BRANCH   1   5
HETATM    5  C3  UNL     1      -0.213   0.268   1.307  1.00  0.00     0.226 C 
HETATM    6  O2  UNL     1       0.967   0.523   1.315  1.00  0.00    -0.646 OA
HETATM    7  O3  UNL     1      -0.920   0.234   2.452  1.00  0.00    -0.646 OA
ENDBRANCH   1   5
BRANCH   1   8
HETATM    8  C4  UNL     1      -0.313   0.359  -1.181  1.00  0.00     0.233 C 
HETATM    9  O4  UNL     1      -0.984  -0.136  -2.322  1.00  0.00    -0.218 OA
ENDBRANCH   1   8
TORSDOF 3
