REMARK  0 active torsions:
REMARK  status: ('A' for Active; 'I' for Inactive)
ROOT
HETATM    1  C1  UNL     1      -1.374  -1.549   0.071  1.00  0.00     0.017 A 
HETATM    2  C2  UNL     1      -0.204  -1.377  -0.676  1.00  0.00     0.089 A 
HETATM    3  N1  UNL     1       0.286  -0.156  -0.937  1.00  0.00    -0.252 NA
HETATM    4  C3  UNL     1      -0.335   0.932  -0.462  1.00  0.00     0.059 A 
HETATM    5  C4  UNL     1      -1.509   0.833   0.293  1.00  0.00     0.015 A 
HETATM    6  C5  UNL     1      -2.043  -0.427   0.561  1.00  0.00     0.003 A 
HETATM    7  C6  UNL     1       0.294   2.266  -0.794  1.00  0.00     0.046 C 
HETATM    8  C7  UNL     1       1.836   2.317  -0.716  1.00  0.00     0.006 C 
HETATM    9  C8  UNL     1       2.340   2.059   0.721  1.00  0.00     0.000 C 
HETATM   10  C9  UNL     1       3.849   1.758   0.835  1.00  0.00     0.000 C 
HETATM   11  C10 UNL     1       4.200   0.303   0.475  1.00  0.00     0.000 C 
HETATM   12  C11 UNL     1       3.969  -0.673   1.642  1.00  0.00     0.000 C 
HETATM   13  C12 UNL     1       3.709  -2.131   1.217  1.00  0.00     0.000 C 
HETATM   14  C13 UNL     1       2.265  -2.393   0.742  1.00  0.00     0.003 C 
HETATM   15  C14 UNL     1       2.091  -2.449  -0.785  1.00  0.00     0.039 C 
HETATM   16  C15 UNL     1       0.622  -2.526  -1.216  1.00  0.00     0.192 C 
HETATM   17  O1  UNL     1       0.100  -3.784  -0.828  1.00  0.00    -0.217 OA
HETATM   18  C16 UNL     1       2.317   3.684  -1.243  1.00  0.00     0.000 C 
ENDROOT
TORSDOF 0
