REMARK  1 active torsions:
REMARK  status: ('A' for Active; 'I' for Inactive)
REMARK    1  A    between atoms: C5_6  and  O8_27 
ROOT
HETATM    1  C1  UNL     1      -2.263   0.536   0.499  1.00  0.00     0.123 A 
HETATM    2  C2  UNL     1      -1.546  -0.613   0.583  1.00  0.00     0.029 A 
HETATM    3  C3  UNL     1      -0.178  -0.218   0.354  1.00  0.00     0.027 A 
HETATM    4  C4  UNL     1      -0.174   1.161   0.152  1.00  0.00     0.124 A 
HETATM    5  O1  UNL     1      -1.463   1.621   0.239  1.00  0.00    -0.303 OA
HETATM    6  C5  UNL     1       1.011   1.881  -0.149  1.00  0.00     0.139 A 
HETATM    7  C6  UNL     1       2.194   1.135  -0.209  1.00  0.00     0.121 A 
HETATM    8  C7  UNL     1       2.177  -0.269   0.051  1.00  0.00     0.062 A 
HETATM    9  C8  UNL     1       1.006  -0.968   0.317  1.00  0.00     0.007 A 
HETATM   10  C9  UNL     1       3.452  -1.026  -0.005  1.00  0.00     0.209 C 
HETATM   11  C10 UNL     1       4.643  -0.239  -0.549  1.00  0.00     0.229 C 
HETATM   12  C11 UNL     1       4.515   1.152   0.052  1.00  0.00     0.190 C 
HETATM   13  O2  UNL     1       3.374   1.805  -0.416  1.00  0.00    -0.325 OA
HETATM   14  C12 UNL     1       5.758   1.963  -0.259  1.00  0.00     0.182 C 
HETATM   15  O3  UNL     1       6.852   1.398   0.412  1.00  0.00    -0.328 OA
HETATM   16  C13 UNL     1       7.033   0.050   0.237  1.00  0.00     0.095 A 
HETATM   17  C14 UNL     1       6.018  -0.803  -0.253  1.00  0.00     0.039 A 
HETATM   18  C15 UNL     1       6.287  -2.150  -0.547  1.00  0.00     0.027 A 
HETATM   19  C16 UNL     1       7.552  -2.653  -0.266  1.00  0.00     0.119 A 
HETATM   20  C17 UNL     1       8.547  -1.833   0.246  1.00  0.00     0.121 A 
HETATM   21  C18 UNL     1       8.312  -0.482   0.474  1.00  0.00     0.050 A 
HETATM   22  O4  UNL     1       9.705  -2.570   0.406  1.00  0.00    -0.299 OA
HETATM   23  C19 UNL     1       9.420  -3.916   0.004  1.00  0.00     0.304 A 
HETATM   24  O5  UNL     1       8.058  -3.926  -0.444  1.00  0.00    -0.300 OA
HETATM   25  O6  UNL     1       4.534  -0.183  -1.962  1.00  0.00    -0.211 OA
HETATM   26  O7  UNL     1       3.541  -2.202   0.327  1.00  0.00    -0.288 OA
ENDROOT
BRANCH   6  27
HETATM   27  O8  UNL     1       1.098   3.244  -0.290  1.00  0.00    -0.324 OA
HETATM   28  C20 UNL     1       0.006   4.045   0.094  1.00  0.00     0.182 C 
ENDBRANCH   6  27
TORSDOF 1
