REMARK  3 active torsions:
REMARK  status: ('A' for Active; 'I' for Inactive)
REMARK    1  A    between atoms: C4_4  and  C7_7 
REMARK    2  A    between atoms: C7_7  and  C8_8 
REMARK    3  A    between atoms: C8_8  and  C9_10 
ROOT
HETATM    1  C1  UNL     1       3.047   1.591  -0.646  1.00  0.00     0.002 A 
HETATM    2  C2  UNL     1       3.364   0.380  -0.031  1.00  0.00     0.027 A 
HETATM    3  C3  UNL     1       2.384  -0.572   0.268  1.00  0.00     0.127 A 
HETATM    4  C4  UNL     1       1.044  -0.298  -0.060  1.00  0.00     0.011 A 
HETATM    5  C5  UNL     1       0.733   0.919  -0.681  1.00  0.00    -0.002 A 
HETATM    6  C6  UNL     1       1.720   1.861  -0.973  1.00  0.00    -0.000 A 
HETATM    7  O4  UNL     1       2.737  -1.739   0.871  1.00  0.00    -0.191 OA
ENDROOT
BRANCH   4   8
HETATM    8  C7  UNL     1      -0.028  -1.322   0.258  1.00  0.00     0.104 C 
BRANCH   8   9
HETATM    9  C8  UNL     1      -1.415  -1.016  -0.288  1.00  0.00     0.241 C 
HETATM   10  O1  UNL     1      -1.818  -1.540  -1.317  1.00  0.00    -0.284 OA
BRANCH   9  11
HETATM   11  C9  UNL     1      -2.289  -0.072   0.477  1.00  0.00     0.248 C 
HETATM   12  O2  UNL     1      -3.515   0.292   0.050  1.00  0.00    -0.642 OA
HETATM   13  O3  UNL     1      -1.889   0.412   1.526  1.00  0.00    -0.642 OA
ENDBRANCH   9  11
ENDBRANCH   8   9
ENDBRANCH   4   8
TORSDOF 3
