REMARK  3 active torsions:
REMARK  status: ('A' for Active; 'I' for Inactive)
REMARK    1  A    between atoms: C4_4  and  C7_7 
REMARK    2  A    between atoms: C7_7  and  C8_8 
REMARK    3  A    between atoms: C8_8  and  C9_9 
ROOT
HETATM    1  C1  UNL     1       3.137   1.999  -0.523  1.00  0.00     0.131 A 
HETATM    2  C2  UNL     1       3.481   0.691  -0.173  1.00  0.00     0.027 A 
HETATM    3  C3  UNL     1       2.501  -0.270   0.079  1.00  0.00     0.002 A 
HETATM    4  C4  UNL     1       1.133   0.025  -0.005  1.00  0.00     0.004 A 
HETATM    5  C5  UNL     1       0.796   1.337  -0.357  1.00  0.00     0.002 A 
HETATM    6  C6  UNL     1       1.775   2.299  -0.610  1.00  0.00     0.027 A 
HETATM    7  O4  UNL     1       4.078   2.947  -0.773  1.00  0.00    -0.190 OA
ENDROOT
BRANCH   4   8
HETATM    8  C7  UNL     1       0.146  -1.090   0.289  1.00  0.00     0.049 C 
BRANCH   8   9
HETATM    9  C8  UNL     1      -1.362  -0.876   0.228  1.00  0.00     0.259 C 
HETATM   10  O3  UNL     1      -1.896   0.183  -0.059  1.00  0.00    -0.280 OA
BRANCH   9  11
HETATM   11  C9  UNL     1      -2.197  -2.080   0.549  1.00  0.00     0.252 C 
HETATM   12  O1  UNL     1      -3.417  -2.028   0.523  1.00  0.00    -0.642 OA
HETATM   13  O2  UNL     1      -1.654  -3.269   0.878  1.00  0.00    -0.642 OA
ENDBRANCH   9  11
ENDBRANCH   8   9
ENDBRANCH   4   8
TORSDOF 3
