REMARK  0 active torsions:
REMARK  status: ('A' for Active; 'I' for Inactive)
ROOT
HETATM    1  N1  UNL     1       5.423   4.016  -1.656  1.00  0.00    -0.273 NA
HETATM    2  C1  UNL     1       4.646   2.851  -1.211  1.00  0.00     0.172 C 
HETATM    3  C2  UNL     1       5.591   1.738  -0.718  1.00  0.00     0.051 C 
HETATM    4  C3  UNL     1       6.685   2.227   0.236  1.00  0.00     0.006 C 
HETATM    5  C4  UNL     1       7.482   3.378  -0.391  1.00  0.00     0.024 C 
HETATM    6  C5  UNL     1       6.487   4.483  -0.766  1.00  0.00     0.122 C 
HETATM    7  C6  UNL     1       8.337   2.939  -1.591  1.00  0.00     0.002 C 
HETATM    8  O1  UNL     1       4.028   2.408  -2.392  1.00  0.00    -0.339 OA
HETATM    9  C7  UNL     1       2.781   1.858  -2.098  1.00  0.00     0.147 C 
HETATM   10  C8  UNL     1       2.238   2.525  -0.847  1.00  0.00     0.034 C 
HETATM   11  C9  UNL     1       3.502   3.172  -0.231  1.00  0.00     0.049 C 
HETATM   12  C10 UNL     1       3.231   4.665   0.032  1.00  0.00     0.004 C 
HETATM   13  C11 UNL     1       1.490   1.432  -0.040  1.00  0.00     0.005 C 
HETATM   14  C12 UNL     1       2.241   0.130  -0.420  1.00  0.00     0.033 C 
HETATM   15  C13 UNL     1       2.838   0.361  -1.823  1.00  0.00     0.179 C 
HETATM   16  O2  UNL     1       2.119  -0.291  -2.845  1.00  0.00    -0.221 OA
HETATM   17  C14 UNL     1       1.436  -1.187  -0.293  1.00  0.00     0.003 C 
HETATM   18  C15 UNL     1       0.308  -1.040   0.740  1.00  0.00     0.000 C 
HETATM   19  C16 UNL     1      -0.664   0.027   0.182  1.00  0.00     0.000 C 
HETATM   20  C17 UNL     1       0.032   1.228  -0.505  1.00  0.00     0.000 C 
HETATM   21  C18 UNL     1      -0.288  -2.389   1.265  1.00  0.00     0.000 C 
HETATM   22  C19 UNL     1       0.076  -3.540   0.296  1.00  0.00     0.003 C 
HETATM   23  C20 UNL     1       1.594  -3.701   0.083  1.00  0.00     0.000 C 
HETATM   24  C21 UNL     1       2.358  -2.370   0.024  1.00  0.00     0.000 C 
HETATM   25  C22 UNL     1      -0.547  -4.894   0.690  1.00  0.00     0.033 C 
HETATM   26  C23 UNL     1      -2.061  -4.803   0.856  1.00  0.00     0.152 C 
HETATM   27  C24 UNL     1      -2.461  -3.689   1.819  1.00  0.00     0.033 C 
HETATM   28  C25 UNL     1      -1.832  -2.352   1.394  1.00  0.00     0.003 C 
HETATM   29  O3  UNL     1      -2.547  -6.034   1.342  1.00  0.00    -0.224 OA
HETATM   30  C26 UNL     1       0.301  -2.655   2.677  1.00  0.00     0.000 C 
HETATM   31  C27 UNL     1       1.468   1.837   1.453  1.00  0.00     0.000 C 
ENDROOT
TORSDOF 0
