REMARK  0 active torsions:
REMARK  status: ('A' for Active; 'I' for Inactive)
ROOT
HETATM    1  N1  UNL     1       4.335   0.507  -2.389  1.00  0.00    -0.273 NA
HETATM    2  C1  UNL     1       5.582   1.084  -1.879  1.00  0.00     0.172 C 
HETATM    3  C2  UNL     1       6.450   1.619  -3.033  1.00  0.00     0.051 C 
HETATM    4  C3  UNL     1       5.690   2.405  -4.107  1.00  0.00     0.006 C 
HETATM    5  C4  UNL     1       4.470   1.622  -4.613  1.00  0.00     0.024 C 
HETATM    6  C5  UNL     1       3.601   1.258  -3.404  1.00  0.00     0.122 C 
HETATM    7  C6  UNL     1       4.846   0.373  -5.427  1.00  0.00     0.002 C 
HETATM    8  O1  UNL     1       6.292  -0.008  -1.356  1.00  0.00    -0.339 OA
HETATM    9  C7  UNL     1       5.934  -0.226  -0.024  1.00  0.00     0.147 C 
HETATM   10  C8  UNL     1       5.457   1.106   0.593  1.00  0.00     0.034 C 
HETATM   11  C9  UNL     1       5.413   2.013  -0.666  1.00  0.00     0.049 C 
HETATM   12  C10 UNL     1       4.341   3.096  -0.766  1.00  0.00     0.004 C 
HETATM   13  C11 UNL     1       4.246   0.680   1.485  1.00  0.00     0.005 C 
HETATM   14  C12 UNL     1       3.624  -0.428   0.622  1.00  0.00     0.033 C 
HETATM   15  C13 UNL     1       4.810  -1.252   0.144  1.00  0.00     0.179 C 
HETATM   16  O2  UNL     1       4.503  -1.966  -1.028  1.00  0.00    -0.221 OA
HETATM   17  C14 UNL     1       2.373  -1.142   1.150  1.00  0.00     0.007 C 
HETATM   18  C15 UNL     1       1.522  -0.220   2.043  1.00  0.00     0.004 C 
HETATM   19  C16 UNL     1       1.719   1.247   1.620  1.00  0.00     0.000 C 
HETATM   20  C17 UNL     1       3.167   1.708   1.900  1.00  0.00     0.000 C 
HETATM   21  C18 UNL     1       0.065  -0.748   2.158  1.00  0.00     0.015 C 
HETATM   22  C19 UNL     1       0.061  -2.276   2.235  1.00  0.00    -0.046 C 
HETATM   23  C20 UNL     1       1.173  -3.029   2.155  1.00  0.00    -0.035 C 
HETATM   24  C21 UNL     1       2.548  -2.481   1.873  1.00  0.00     0.025 C 
HETATM   25  C22 UNL     1      -1.301  -2.931   2.298  1.00  0.00     0.055 C 
HETATM   26  C23 UNL     1      -2.067  -2.532   1.038  1.00  0.00     0.156 C 
HETATM   27  C24 UNL     1      -2.183  -1.014   0.914  1.00  0.00     0.034 C 
HETATM   28  C25 UNL     1      -0.800  -0.340   0.943  1.00  0.00     0.006 C 
HETATM   29  O3  UNL     1      -3.353  -3.103   1.070  1.00  0.00    -0.223 OA
HETATM   30  C26 UNL     1      -0.543  -0.173   3.461  1.00  0.00     0.004 C 
HETATM   31  C27 UNL     1       4.851   0.109   2.800  1.00  0.00     0.000 C 
ENDROOT
TORSDOF 0
