REMARK  13 active torsions:
REMARK  status: ('A' for Active; 'I' for Inactive)
REMARK    1  A    between atoms: C5_5  and  C8_10 
REMARK    2  A    between atoms: C6_6  and  C7_7 
REMARK    3  A    between atoms: C8_10  and  C9_11 
REMARK    4  A    between atoms: C9_11  and  C10_12 
REMARK    5  A    between atoms: C10_12  and  C11_13 
REMARK    6  A    between atoms: C11_13  and  C12_14 
REMARK    7  A    between atoms: C12_14  and  C13_15 
REMARK    8  A    between atoms: C13_15  and  C14_16 
REMARK    9  A    between atoms: C14_16  and  C15_17 
REMARK   10  A    between atoms: C16_18  and  C17_19 
REMARK   11  A    between atoms: C17_19  and  C18_20 
REMARK   12  A    between atoms: C19_21  and  C20_22 
REMARK   13  A    between atoms: C20_22  and  C21_23 
ROOT
HETATM    1  C10 UNL     1       1.498  -0.811   0.687  1.00  0.00     0.000 C 
ENDROOT
BRANCH   1   2
HETATM    2  C9  UNL     1       2.985  -1.039   1.002  1.00  0.00     0.005 C 
BRANCH   2   3
HETATM    3  C8  UNL     1       3.570  -2.211   0.196  1.00  0.00     0.027 C 
BRANCH   3   4
HETATM    4  C5  UNL     1       5.017  -2.500   0.585  1.00  0.00    -0.014 A 
HETATM    5  C4  UNL     1       5.176  -3.509   1.464  1.00  0.00    -0.004 A 
HETATM    6  C3  UNL     1       6.383  -3.885   1.895  1.00  0.00     0.002 A 
HETATM    7  C2  UNL     1       7.453  -3.227   1.442  1.00  0.00     0.028 A 
HETATM    8  C1  UNL     1       7.346  -2.210   0.568  1.00  0.00     0.137 A 
HETATM    9  C6  UNL     1       6.114  -1.839   0.131  1.00  0.00     0.086 A 
HETATM   10  O3  UNL     1       8.514  -1.600   0.211  1.00  0.00    -0.190 OA
BRANCH   9  11
HETATM   11  C7  UNL     1       6.007  -0.812  -0.768  1.00  0.00     0.213 C 
HETATM   12  O1  UNL     1       7.056  -0.123  -1.272  1.00  0.00    -0.644 OA
HETATM   13  O2  UNL     1       4.954  -0.413  -1.209  1.00  0.00    -0.644 OA
ENDBRANCH   9  11
ENDBRANCH   3   4
ENDBRANCH   2   3
ENDBRANCH   1   2
BRANCH   1  14
HETATM   14  C11 UNL     1       0.987   0.526   1.248  1.00  0.00     0.000 C 
BRANCH  14  15
HETATM   15  C12 UNL     1      -0.533   0.678   1.075  1.00  0.00     0.000 C 
BRANCH  15  16
HETATM   16  C13 UNL     1      -1.002   2.122   1.318  1.00  0.00     0.005 C 
BRANCH  16  17
HETATM   17  C14 UNL     1      -2.534   2.231   1.268  1.00  0.00     0.026 C 
BRANCH  17  18
HETATM   18  C15 UNL     1      -3.026   3.656   1.265  1.00  0.00    -0.030 C 
HETATM   19  C16 UNL     1      -4.307   4.013   1.080  1.00  0.00    -0.026 C 
BRANCH  19  20
HETATM   20  C17 UNL     1      -5.446   3.047   0.876  1.00  0.00     0.051 C 
BRANCH  20  21
HETATM   21  C18 UNL     1      -5.490   2.552  -0.546  1.00  0.00    -0.026 C 
HETATM   22  C19 UNL     1      -5.405   1.254  -0.878  1.00  0.00    -0.030 C 
BRANCH  22  23
HETATM   23  C20 UNL     1      -5.440   0.731  -2.292  1.00  0.00     0.026 C 
BRANCH  23  24
HETATM   24  C21 UNL     1      -6.626  -0.224  -2.495  1.00  0.00     0.005 C 
HETATM   25  C22 UNL     1      -6.657  -0.803  -3.915  1.00  0.00     0.000 C 
ENDBRANCH  23  24
ENDBRANCH  22  23
ENDBRANCH  20  21
ENDBRANCH  19  20
ENDBRANCH  17  18
ENDBRANCH  16  17
ENDBRANCH  15  16
ENDBRANCH  14  15
ENDBRANCH   1  14
TORSDOF 13
