REMARK  4 active torsions:
REMARK  status: ('A' for Active; 'I' for Inactive)
REMARK    1  A    between atoms: C1_1  and  O7_23 
REMARK    2  A    between atoms: C10_11  and  O5_20 
REMARK    3  A    between atoms: C11_12  and  O4_18 
REMARK    4  A    between atoms: C12_13  and  O3_16 
ROOT
HETATM    1  C1  UNL     1      -1.549   4.331  -1.787  1.00  0.00     0.094 A 
HETATM    2  C2  UNL     1      -1.615   4.603  -0.415  1.00  0.00     0.026 A 
HETATM    3  C3  UNL     1      -1.530   3.599   0.551  1.00  0.00     0.027 A 
HETATM    4  C4  UNL     1      -1.375   2.254   0.207  1.00  0.00     0.103 A 
HETATM    5  C5  UNL     1      -1.304   1.968  -1.161  1.00  0.00     0.064 A 
HETATM    6  C6  UNL     1      -1.390   2.980  -2.130  1.00  0.00     0.029 A 
HETATM    7  C7  UNL     1      -1.145   0.553  -1.579  1.00  0.00     0.202 C 
HETATM    8  C8  UNL     1      -1.190  -0.464  -0.494  1.00  0.00     0.091 C 
HETATM    9  C9  UNL     1      -1.265  -0.009   0.831  1.00  0.00     0.129 C 
HETATM   10  O1  UNL     1      -1.277   1.311   1.183  1.00  0.00    -0.305 OA
HETATM   11  C10 UNL     1      -1.382  -0.958   1.858  1.00  0.00     0.141 C 
HETATM   12  C11 UNL     1      -1.236  -2.338   1.604  1.00  0.00     0.142 C 
HETATM   13  C12 UNL     1      -1.110  -2.773   0.269  1.00  0.00     0.144 C 
HETATM   14  C13 UNL     1      -1.162  -1.839  -0.782  1.00  0.00     0.160 C 
HETATM   15  O2  UNL     1      -1.156  -2.316  -2.060  1.00  0.00    -0.188 OA
HETATM   16  O6  UNL     1      -0.988   0.270  -2.763  1.00  0.00    -0.286 OA
ENDROOT
BRANCH   1  17
HETATM   17  O7  UNL     1      -1.635   5.376  -2.672  1.00  0.00    -0.328 OA
HETATM   18  C17 UNL     1      -1.542   5.100  -4.050  1.00  0.00     0.181 C 
ENDBRANCH   1  17
BRANCH  11  19
HETATM   19  O5  UNL     1      -1.422  -0.514   3.159  1.00  0.00    -0.324 OA
HETATM   20  C16 UNL     1      -2.730  -0.347   3.660  1.00  0.00     0.182 C 
ENDBRANCH  11  19
BRANCH  13  21
HETATM   21  O3  UNL     1      -1.089  -4.104  -0.064  1.00  0.00    -0.324 OA
HETATM   22  C14 UNL     1       0.196  -4.602  -0.370  1.00  0.00     0.182 C 
ENDBRANCH  13  21
BRANCH  12  23
HETATM   23  O4  UNL     1      -1.307  -3.143   2.722  1.00  0.00    -0.324 OA
HETATM   24  C15 UNL     1      -1.607  -4.514   2.639  1.00  0.00     0.182 C 
ENDBRANCH  12  23
TORSDOF 4
