REMARK  10 active torsions:
REMARK  status: ('A' for Active; 'I' for Inactive)
REMARK    1  A    between atoms: C2_2  and  C3_3 
REMARK    2  A    between atoms: C3_3  and  C4_5 
REMARK    3  A    between atoms: C5_6  and  C6_7 
REMARK    4  A    between atoms: C6_7  and  C7_8 
REMARK    5  A    between atoms: C7_8  and  C8_9 
REMARK    6  A    between atoms: C8_9  and  C9_10 
REMARK    7  A    between atoms: C9_10  and  C10_11 
REMARK    8  A    between atoms: C10_11  and  C11_12 
REMARK    9  A    between atoms: C11_12  and  C12_13 
REMARK   10  A    between atoms: C12_13  and  C13_14 
ROOT
HETATM    1  C7  UNL     1       0.755  -0.022  -0.046  1.00  0.00     0.005 C 
ENDROOT
BRANCH   1   2
HETATM    2  C6  UNL     1       0.992  -1.540  -0.052  1.00  0.00     0.026 C 
BRANCH   2   3
HETATM    3  C5  UNL     1      -0.295  -2.324  -0.053  1.00  0.00    -0.028 C 
HETATM    4  C4  UNL     1      -0.328  -3.665  -0.044  1.00  0.00     0.002 C 
BRANCH   4   5
HETATM    5  C3  UNL     1      -1.614  -4.450  -0.027  1.00  0.00     0.174 C 
HETATM    6  O1  UNL     1      -2.348  -4.071   1.124  1.00  0.00    -0.219 OA
BRANCH   5   7
HETATM    7  C2  UNL     1      -1.391  -5.962  -0.023  1.00  0.00     0.037 C 
HETATM    8  C1  UNL     1      -2.707  -6.752  -0.050  1.00  0.00     0.003 C 
ENDBRANCH   5   7
ENDBRANCH   4   5
ENDBRANCH   2   3
ENDBRANCH   1   2
BRANCH   1   9
HETATM    9  C8  UNL     1       2.075   0.766  -0.040  1.00  0.00     0.000 C 
BRANCH   9  10
HETATM   10  C9  UNL     1       1.824   2.282  -0.038  1.00  0.00     0.000 C 
BRANCH  10  11
HETATM   11  C10 UNL     1       3.130   3.092  -0.036  1.00  0.00     0.001 C 
BRANCH  11  12
HETATM   12  C11 UNL     1       2.849   4.604  -0.036  1.00  0.00     0.011 C 
BRANCH  12  13
HETATM   13  C12 UNL     1       4.139   5.436  -0.034  1.00  0.00     0.098 C 
BRANCH  13  14
HETATM   14  C13 UNL     1       3.960   6.944  -0.039  1.00  0.00     0.185 C 
HETATM   15  O2  UNL     1       4.854   7.757  -0.053  1.00  0.00    -0.647 OA
HETATM   16  O3  UNL     1       2.671   7.327  -0.024  1.00  0.00    -0.647 OA
ENDBRANCH  13  14
ENDBRANCH  12  13
ENDBRANCH  11  12
ENDBRANCH  10  11
ENDBRANCH   9  10
ENDBRANCH   1   9
TORSDOF 10
