REMARK  8 active torsions:
REMARK  status: ('A' for Active; 'I' for Inactive)
REMARK    1  A    between atoms: C2_2  and  O6_29 
REMARK    2  A    between atoms: C3_3  and  O5_27 
REMARK    3  A    between atoms: C5_5  and  C8_9 
REMARK    4  A    between atoms: C6_6  and  O1_7 
REMARK    5  A    between atoms: C9_10  and  C14_15 
REMARK    6  A    between atoms: C16_17  and  O4_25 
REMARK    7  A    between atoms: C17_18  and  O3_23 
REMARK    8  A    between atoms: C19_20  and  O2_21 
ROOT
HETATM    1  C8  UNL     1      -0.730   0.709  -0.235  1.00  0.00     0.028 C 
HETATM    2  C9  UNL     1       0.806   0.732   0.005  1.00  0.00     0.028 C 
HETATM    3  C10 UNL     1       0.792   2.279  -0.156  1.00  0.00     0.005 C 
HETATM    4  C11 UNL     1      -0.757   2.258  -0.105  1.00  0.00     0.005 C 
HETATM    5  C12 UNL     1      -1.492   3.070  -1.169  1.00  0.00     0.000 C 
HETATM    6  C13 UNL     1       1.505   3.126   0.896  1.00  0.00     0.000 C 
ENDROOT
BRANCH   1   7
HETATM    7  C5  UNL     1      -1.276   0.072  -1.510  1.00  0.00     0.002 C 
HETATM    8  C4  UNL     1      -2.403  -0.655  -1.389  1.00  0.00     0.024 C 
HETATM    9  C3  UNL     1      -3.029  -1.268  -2.408  1.00  0.00     0.116 C 
HETATM   10  C2  UNL     1      -2.415  -1.252  -3.608  1.00  0.00     0.118 C 
HETATM   11  C1  UNL     1      -1.330  -0.469  -3.743  1.00  0.00     0.050 C 
HETATM   12  C6  UNL     1      -0.714   0.183  -2.737  1.00  0.00     0.092 C 
BRANCH   9  13
HETATM   13  O5  UNL     1      -4.148  -2.030  -2.187  1.00  0.00    -0.326 OA
HETATM   14  C23 UNL     1      -5.356  -1.363  -2.476  1.00  0.00     0.181 C 
ENDBRANCH   9  13
BRANCH  10  15
HETATM   15  O6  UNL     1      -2.976  -1.863  -4.702  1.00  0.00    -0.326 OA
HETATM   16  C24 UNL     1      -2.518  -3.180  -4.908  1.00  0.00     0.181 C 
ENDBRANCH  10  15
BRANCH  12  17
HETATM   17  O1  UNL     1       0.399   0.963  -2.934  1.00  0.00    -0.328 OA
HETATM   18  C7  UNL     1       0.696   1.433  -4.228  1.00  0.00     0.181 C 
ENDBRANCH  12  17
ENDBRANCH   1   7
BRANCH   2  19
HETATM   19  C14 UNL     1       1.383   0.148   1.292  1.00  0.00     0.002 A 
HETATM   20  C15 UNL     1       2.535  -0.539   1.188  1.00  0.00     0.024 A 
HETATM   21  C16 UNL     1       3.198  -1.119   2.205  1.00  0.00     0.116 A 
HETATM   22  C17 UNL     1       2.644  -1.024   3.436  1.00  0.00     0.118 A 
HETATM   23  C18 UNL     1       1.499  -0.319   3.535  1.00  0.00     0.050 A 
HETATM   24  C19 UNL     1       0.826   0.257   2.518  1.00  0.00     0.092 A 
BRANCH  21  25
HETATM   25  O4  UNL     1       4.350  -1.804   1.878  1.00  0.00    -0.326 OA
HETATM   26  C22 UNL     1       4.788  -2.881   2.671  1.00  0.00     0.181 C 
ENDBRANCH  21  25
BRANCH  22  27
HETATM   27  O3  UNL     1       3.278  -1.584   4.521  1.00  0.00    -0.326 OA
HETATM   28  C21 UNL     1       2.832  -1.304   5.827  1.00  0.00     0.181 C 
ENDBRANCH  22  27
BRANCH  24  29
HETATM   29  O2  UNL     1      -0.330   0.976   2.701  1.00  0.00    -0.328 OA
HETATM   30  C20 UNL     1      -0.632   1.499   3.974  1.00  0.00     0.181 C 
ENDBRANCH  24  29
ENDBRANCH   2  19
TORSDOF 8
