REMARK  1 active torsions:
REMARK  status: ('A' for Active; 'I' for Inactive)
REMARK    1  A    between atoms: C2_3  and  C12_14 
ROOT
HETATM    1  C1  UNL     1       0.984   0.238  -0.053  1.00  0.00     0.082 A 
HETATM    2  N1  UNL     1       2.118  -0.455   0.516  1.00  0.00    -0.246 NA
HETATM    3  C2  UNL     1       3.274  -0.452  -0.042  1.00  0.00     0.081 C 
HETATM    4  C3  UNL     1       3.548   0.314  -1.292  1.00  0.00     0.019 C 
HETATM    5  C4  UNL     1       3.562   1.658  -1.342  1.00  0.00     0.002 C 
HETATM    6  C5  UNL     1       3.207   2.526  -0.201  1.00  0.00     0.000 C 
HETATM    7  C6  UNL     1       1.988   2.512   0.368  1.00  0.00     0.002 C 
HETATM    8  C7  UNL     1       0.895   1.633  -0.118  1.00  0.00     0.020 A 
HETATM    9  C8  UNL     1      -0.287   2.225  -0.582  1.00  0.00     0.029 A 
HETATM   10  C9  UNL     1      -1.377   1.463  -1.008  1.00  0.00     0.131 A 
HETATM   11  C10 UNL     1      -1.277   0.072  -0.915  1.00  0.00     0.029 A 
HETATM   12  C11 UNL     1      -0.120  -0.535  -0.427  1.00  0.00     0.021 A 
HETATM   13  O1  UNL     1      -2.520   2.046  -1.462  1.00  0.00    -0.190 OA
ENDROOT
BRANCH   3  14
HETATM   14  C12 UNL     1       4.345  -1.280   0.555  1.00  0.00     0.018 A 
HETATM   15  C13 UNL     1       5.651  -1.281   0.034  1.00  0.00     0.002 A 
HETATM   16  C14 UNL     1       6.663  -2.046   0.615  1.00  0.00     0.000 A 
HETATM   17  C15 UNL     1       6.397  -2.826   1.742  1.00  0.00     0.000 A 
HETATM   18  C16 UNL     1       5.111  -2.835   2.280  1.00  0.00     0.000 A 
HETATM   19  C17 UNL     1       4.100  -2.071   1.692  1.00  0.00     0.002 A 
ENDBRANCH   3  14
TORSDOF 1
