REMARK  1 active torsions:
REMARK  status: ('A' for Active; 'I' for Inactive)
REMARK    1  A    between atoms: C3_3  and  C18_22 
ROOT
HETATM    1  C1  UNL     1      -1.763  -1.112  -0.467  1.00  0.00    -0.023 C 
HETATM    2  C2  UNL     1      -1.536   0.009   0.521  1.00  0.00     0.026 C 
HETATM    3  C3  UNL     1      -0.079   0.535   0.392  1.00  0.00     0.078 C 
HETATM    4  C4  UNL     1       1.070  -0.517   0.183  1.00  0.00     0.091 C 
HETATM    5  C5  UNL     1       0.648  -1.410  -0.986  1.00  0.00     0.175 C 
HETATM    6  C6  UNL     1      -0.789  -1.728  -1.157  1.00  0.00     0.033 C 
HETATM    7  O1  UNL     1       1.450  -1.939  -1.741  1.00  0.00    -0.291 OA
HETATM    8  C7  UNL     1       1.209  -1.418   1.415  1.00  0.00     0.159 C 
HETATM    9  O2  UNL     1       2.358  -2.212   1.482  1.00  0.00    -0.301 OA
HETATM   10  C8  UNL     1       3.595  -1.680   1.337  1.00  0.00     0.274 C 
HETATM   11  C9  UNL     1       3.735  -0.604   0.270  1.00  0.00     0.110 C 
HETATM   12  C10 UNL     1       2.438   0.186  -0.041  1.00  0.00     0.021 C 
HETATM   13  C11 UNL     1       2.563   1.069  -1.308  1.00  0.00     0.001 C 
HETATM   14  C12 UNL     1       3.485   0.533  -2.415  1.00  0.00     0.004 C 
HETATM   15  C13 UNL     1       4.751  -0.113  -1.842  1.00  0.00     0.021 C 
HETATM   16  C14 UNL     1       4.331  -1.304  -0.976  1.00  0.00     0.016 C 
HETATM   17  C15 UNL     1       5.394   0.772  -0.805  1.00  0.00    -0.014 C 
HETATM   18  C16 UNL     1       4.928   0.344   0.562  1.00  0.00     0.179 C 
HETATM   19  O3  UNL     1       4.590   1.456   1.363  1.00  0.00    -0.218 OA
HETATM   20  C17 UNL     1       6.238   1.779  -1.061  1.00  0.00    -0.007 C 
HETATM   21  O4  UNL     1       4.566  -2.175   1.871  1.00  0.00    -0.264 OA
HETATM   22  C19 UNL     1      -2.518   1.148   0.142  1.00  0.00     0.005 C 
HETATM   23  C20 UNL     1      -1.945  -0.466   1.931  1.00  0.00     0.005 C 
ENDROOT
BRANCH   3  24
HETATM   24  C18 UNL     1       0.211   1.597   1.451  1.00  0.00     0.208 C 
HETATM   25  O5  UNL     1       0.272   2.773   1.176  1.00  0.00    -0.288 OA
ENDBRANCH   3  24
TORSDOF 1
