REMARK  6 active torsions:
REMARK  status: ('A' for Active; 'I' for Inactive)
REMARK    1  A    between atoms: C4_4  and  O2_9 
REMARK    2  A    between atoms: C6_6  and  C7_7 
REMARK    3  A    between atoms: O2_9  and  C8_10 
REMARK    4  A    between atoms: C11_13  and  O4_18 
REMARK    5  A    between atoms: C12_14  and  O3_16 
REMARK    6  A    between atoms: C16_21  and  C19_25 
ROOT
HETATM    1  C8  UNL     1       0.009  -0.208  -0.341  1.00  0.00     0.101 A 
HETATM    2  C9  UNL     1       0.791  -0.339   0.756  1.00  0.00     0.081 A 
HETATM    3  C10 UNL     1       1.818   0.510   0.992  1.00  0.00     0.123 A 
HETATM    4  C11 UNL     1       2.082   1.510   0.119  1.00  0.00     0.139 A 
HETATM    5  C12 UNL     1       1.381   1.618  -1.029  1.00  0.00     0.120 A 
HETATM    6  C13 UNL     1       0.360   0.764  -1.205  1.00  0.00     0.051 A 
HETATM    7  O5  UNL     1       2.648   0.400   2.079  1.00  0.00    -0.326 OA
HETATM    8  C16 UNL     1       2.801  -0.892   2.594  1.00  0.00     0.151 C 
HETATM    9  C17 UNL     1       1.417  -1.445   2.889  1.00  0.00     0.104 C 
HETATM   10  C18 UNL     1       0.532  -1.332   1.658  1.00  0.00     0.180 C 
HETATM   11  O6  UNL     1      -0.356  -2.150   1.556  1.00  0.00    -0.291 OA
ENDROOT
BRANCH   1  12
HETATM   12  O2  UNL     1      -1.063  -1.049  -0.541  1.00  0.00    -0.330 OA
BRANCH  12  13
HETATM   13  C4  UNL     1      -1.889  -0.919  -1.658  1.00  0.00     0.154 C 
HETATM   14  C3  UNL     1      -2.786  -2.147  -1.703  1.00  0.00     0.212 C 
HETATM   15  C2  UNL     1      -3.628  -2.138  -2.965  1.00  0.00     0.215 C 
HETATM   16  O7  UNL     1      -1.980  -3.300  -1.688  1.00  0.00    -0.218 OA
HETATM   17  C1  UNL     1      -4.468  -0.873  -3.086  1.00  0.00     0.188 C 
HETATM   18  O8  UNL     1      -4.453  -3.278  -2.927  1.00  0.00    -0.218 OA
HETATM   19  C6  UNL     1      -3.644   0.404  -2.869  1.00  0.00     0.069 C 
HETATM   20  O9  UNL     1      -5.038  -0.837  -4.376  1.00  0.00    -0.221 OA
HETATM   21  C5  UNL     1      -2.812   0.301  -1.576  1.00  0.00     0.038 C 
BRANCH  19  22
HETATM   22  C7  UNL     1      -4.506   1.669  -2.830  1.00  0.00     0.185 C 
HETATM   23  O1  UNL     1      -5.193   1.827  -4.053  1.00  0.00    -0.221 OA
ENDBRANCH  19  22
ENDBRANCH  12  13
ENDBRANCH   1  12
BRANCH   5  24
HETATM   24  O3  UNL     1       1.720   2.621  -1.910  1.00  0.00    -0.326 OA
HETATM   25  C14 UNL     1       0.882   2.890  -3.012  1.00  0.00     0.181 C 
ENDBRANCH   5  24
BRANCH   4  26
HETATM   26  O4  UNL     1       3.158   2.341   0.329  1.00  0.00    -0.324 OA
HETATM   27  C15 UNL     1       2.853   3.476   1.107  1.00  0.00     0.182 C 
ENDBRANCH   4  26
BRANCH   8  28
HETATM   28  C19 UNL     1       3.698  -0.865   3.820  1.00  0.00     0.005 A 
HETATM   29  C20 UNL     1       4.774  -1.667   3.912  1.00  0.00    -0.002 A 
HETATM   30  C21 UNL     1       5.573  -1.633   4.990  1.00  0.00    -0.000 A 
HETATM   31  C22 UNL     1       5.304  -0.791   5.999  1.00  0.00    -0.000 A 
HETATM   32  C23 UNL     1       4.234   0.014   5.922  1.00  0.00    -0.000 A 
HETATM   33  C24 UNL     1       3.441  -0.026   4.840  1.00  0.00    -0.002 A 
ENDBRANCH   8  28
TORSDOF 6
