REMARK  3 active torsions:
REMARK  status: ('A' for Active; 'I' for Inactive)
REMARK    1  A    between atoms: C3_4  and  C6_8 
REMARK    2  A    between atoms: C7_9  and  C8_10 
REMARK    3  A    between atoms: C9_11  and  C10_12 
ROOT
HETATM    1  C10 UNL     1      -0.925   2.483  -3.349  1.00  0.00    -0.014 C 
HETATM    2  C11 UNL     1      -1.611   3.153  -4.091  1.00  0.00    -0.077 C 
HETATM    3  C12 UNL     1      -2.437   3.963  -4.999  1.00  0.00     0.091 C 
ENDROOT
BRANCH   1   4
HETATM    4  C9  UNL     1      -0.101   1.682  -2.465  1.00  0.00    -0.009 C 
HETATM    5  C8  UNL     1       0.593   1.012  -1.731  1.00  0.00    -0.051 C 
BRANCH   5   6
HETATM    6  C7  UNL     1       1.442   0.196  -0.844  1.00  0.00     0.048 C 
HETATM    7  C6  UNL     1       1.701   0.590   0.411  1.00  0.00     0.014 C 
BRANCH   7   8
HETATM    8  C3  UNL     1       2.559  -0.199   1.377  1.00  0.00     0.168 C 
HETATM    9  O1  UNL     1       3.831  -0.424   0.809  1.00  0.00    -0.350 OA
HETATM   10  C2  UNL     1       4.714  -1.060   1.700  1.00  0.00     0.143 C 
HETATM   11  C1  UNL     1       4.187  -2.438   2.091  1.00  0.00     0.035 C 
HETATM   12  C5  UNL     1       2.790  -2.308   2.709  1.00  0.00     0.038 C 
HETATM   13  C4  UNL     1       1.903  -1.522   1.748  1.00  0.00     0.183 C 
HETATM   14  O2  UNL     1       0.657  -1.280   2.358  1.00  0.00    -0.221 OA
ENDBRANCH   7   8
ENDBRANCH   5   6
ENDBRANCH   1   4
TORSDOF 3
