REMARK  2 active torsions:
REMARK  status: ('A' for Active; 'I' for Inactive)
REMARK    1  A    between atoms: C2_4  and  C4_6 
REMARK    2  A    between atoms: C4_6  and  C5_7 
ROOT
HETATM    1  N1  UNL     1      -2.570   0.017   0.138  1.00  0.00    -0.221 NA
HETATM    2  C1  UNL     1      -2.391  -1.286   0.272  1.00  0.00     0.199 A 
HETATM    3  N2  UNL     1      -1.079  -1.620   0.224  1.00  0.00    -0.227 NA
HETATM    4  C2  UNL     1      -0.347  -0.456   0.048  1.00  0.00     0.083 A 
HETATM    5  C3  UNL     1      -1.317   0.526   0.002  1.00  0.00     0.116 A 
ENDROOT
BRANCH   4   6
HETATM    6  C4  UNL     1       1.142  -0.299  -0.068  1.00  0.00     0.083 C 
BRANCH   6   7
HETATM    7  C5  UNL     1       1.615   1.141  -0.232  1.00  0.00     0.189 C 
HETATM    8  O1  UNL     1       3.024   1.160  -0.347  1.00  0.00    -0.220 OA
ENDBRANCH   6   7
ENDBRANCH   4   6
TORSDOF 2
