REMARK  4 active torsions:
REMARK  status: ('A' for Active; 'I' for Inactive)
REMARK    1  A    between atoms: C3_4  and  C5_6 
REMARK    2  A    between atoms: C6_9  and  C7_10 
REMARK    3  A    between atoms: C10_13  and  C14_20 
REMARK    4  A    between atoms: C11_15  and  C13_17 
ROOT
HETATM    1  C7  UNL     1       0.458   0.237  -0.336  1.00  0.00     0.014 C 
HETATM    2  C8  UNL     1       0.731  -1.015   0.118  1.00  0.00    -0.017 C 
HETATM    3  C9  UNL     1       2.070  -1.303   0.766  1.00  0.00     0.062 C 
HETATM    4  C10 UNL     1       1.899  -2.256   1.955  1.00  0.00     0.194 C 
HETATM    5  N2  UNL     1       1.080  -3.417   1.569  1.00  0.00    -0.255 NA
HETATM    6  C11 UNL     1       0.032  -3.309   0.658  1.00  0.00     0.141 C 
HETATM    7  C12 UNL     1      -0.190  -2.145  -0.021  1.00  0.00     0.021 C 
ENDROOT
BRANCH   1   8
HETATM    8  C6  UNL     1      -0.795   0.684  -0.947  1.00  0.00     0.072 C 
HETATM    9  N1  UNL     1      -1.070   1.909  -1.368  1.00  0.00    -0.340 N 
HETATM   10  C2  UNL     1      -2.382   2.277  -2.042  1.00  0.00     0.102 C 
HETATM   11  C3  UNL     1      -0.146   3.093  -1.377  1.00  0.00     0.169 C 
HETATM   12  C1  UNL     1      -2.336   3.812  -2.100  1.00  0.00     0.027 C 
HETATM   13  C4  UNL     1      -0.842   4.119  -2.281  1.00  0.00     0.035 C 
BRANCH  11  14
HETATM   14  C5  UNL     1      -0.142   3.470   0.076  1.00  0.00     0.207 C 
HETATM   15  O1  UNL     1       0.838   4.099   0.517  1.00  0.00    -0.646 OA
HETATM   16  O2  UNL     1      -1.126   3.033   0.709  1.00  0.00    -0.646 OA
ENDBRANCH  11  14
ENDBRANCH   1   8
BRANCH   4  17
HETATM   17  C14 UNL     1       1.210  -1.597   3.143  1.00  0.00     0.209 C 
HETATM   18  O5  UNL     1       1.317  -2.337   4.262  1.00  0.00    -0.646 OA
HETATM   19  O6  UNL     1       0.619  -0.543   3.136  1.00  0.00    -0.646 OA
ENDBRANCH   4  17
BRANCH   6  20
HETATM   20  C13 UNL     1      -0.873  -4.479   0.462  1.00  0.00     0.229 C 
HETATM   21  O3  UNL     1      -1.934  -4.459  -0.371  1.00  0.00    -0.643 OA
HETATM   22  O4  UNL     1      -0.670  -5.519   1.076  1.00  0.00    -0.643 OA
ENDBRANCH   6  20
TORSDOF 4
