REMARK  4 active torsions:
REMARK  status: ('A' for Active; 'I' for Inactive)
REMARK    1  A    between atoms: C2_2  and  O1_13 
REMARK    2  A    between atoms: C7_7  and  C9_10 
REMARK    3  A    between atoms: O1_13  and  C11_14 
REMARK    4  A    between atoms: C12_16  and  C16_23 
ROOT
HETATM    1  C9  UNL     1      -2.434   0.657   1.450  1.00  0.00     0.133 C 
HETATM    2  C10 UNL     1      -2.956   1.545   0.397  1.00  0.00     0.079 C 
HETATM    3  N2  UNL     1      -3.362   2.243  -0.434  1.00  0.00    -0.196 NA
ENDROOT
BRANCH   1   4
HETATM    4  C7  UNL     1      -1.240  -0.097   0.949  1.00  0.00     0.013 A 
HETATM    5  C5  UNL     1       0.083   0.414   0.778  1.00  0.00     0.016 A 
HETATM    6  C4  UNL     1       0.895  -0.621   0.310  1.00  0.00     0.083 A 
HETATM    7  C6  UNL     1       0.644   1.694   1.001  1.00  0.00     0.003 A 
HETATM    8  C3  UNL     1       2.278  -0.433   0.057  1.00  0.00     0.043 A 
HETATM    9  N1  UNL     1       0.093  -1.738   0.194  1.00  0.00    -0.244 NA
HETATM   10  C2  UNL     1       2.853   0.809   0.279  1.00  0.00     0.098 A 
HETATM   11  C1  UNL     1       1.992   1.849   0.756  1.00  0.00     0.024 A 
HETATM   12  C8  UNL     1      -1.198  -1.421   0.584  1.00  0.00     0.096 A 
BRANCH  10  13
HETATM   13  O1  UNL     1       4.181   1.121   0.124  1.00  0.00    -0.304 OA
BRANCH  13  14
HETATM   14  C11 UNL     1       5.122   0.111  -0.167  1.00  0.00     0.274 C 
HETATM   15  O2  UNL     1       6.288   0.545   0.505  1.00  0.00    -0.326 OA
HETATM   16  C12 UNL     1       7.361  -0.346   0.338  1.00  0.00     0.184 C 
HETATM   17  C13 UNL     1       7.722  -0.434  -1.140  1.00  0.00     0.215 C 
HETATM   18  C14 UNL     1       6.516  -0.879  -1.944  1.00  0.00     0.220 C 
HETATM   19  O5  UNL     1       8.751  -1.368  -1.357  1.00  0.00    -0.218 OA
HETATM   20  C15 UNL     1       5.370   0.065  -1.657  1.00  0.00     0.241 C 
HETATM   21  O4  UNL     1       6.830  -0.845  -3.313  1.00  0.00    -0.218 OA
HETATM   22  O3  UNL     1       4.216  -0.388  -2.317  1.00  0.00    -0.215 OA
BRANCH  16  23
HETATM   23  C16 UNL     1       8.528   0.141   1.183  1.00  0.00     0.214 C 
HETATM   24  O6  UNL     1       8.188   0.065   2.553  1.00  0.00    -0.218 OA
ENDBRANCH  16  23
ENDBRANCH  13  14
ENDBRANCH  10  13
ENDBRANCH   1   4
TORSDOF 4
