REMARK  3 active torsions:
REMARK  status: ('A' for Active; 'I' for Inactive)
REMARK    1  A    between atoms: C2_2  and  C16_19 
REMARK    2  A    between atoms: C9_10  and  C10_11 
REMARK    3  A    between atoms: C16_19  and  C17_20 
ROOT
HETATM    1  C1  UNL     1       0.162  -2.014  -1.845  1.00  0.00     0.129 C 
HETATM    2  C2  UNL     1       1.349  -1.437  -1.361  1.00  0.00     0.008 C 
HETATM    3  C3  UNL     1       1.279  -0.148  -0.829  1.00  0.00     0.000 C 
HETATM    4  C4  UNL     1       0.066   0.536  -0.653  1.00  0.00     0.023 C 
HETATM    5  C5  UNL     1      -1.112   0.001  -1.202  1.00  0.00     0.105 C 
HETATM    6  C6  UNL     1      -1.020  -1.272  -1.776  1.00  0.00     0.052 C 
HETATM    7  O1  UNL     1      -2.316   0.646  -1.182  1.00  0.00    -0.273 OA
HETATM    8  C7  UNL     1      -2.336   1.909  -0.668  1.00  0.00     0.300 C 
HETATM    9  C8  UNL     1      -1.163   2.504   0.012  1.00  0.00     0.069 C 
HETATM   10  C9  UNL     1       0.010   1.830   0.042  1.00  0.00     0.007 C 
HETATM   11  O3  UNL     1      -3.364   2.580  -0.725  1.00  0.00    -0.259 OA
HETATM   12  O4  UNL     1       0.148  -3.245  -2.423  1.00  0.00    -0.190 OA
ENDROOT
BRANCH  10  13
HETATM   13  C10 UNL     1       1.151   2.365   0.832  1.00  0.00     0.000 A 
HETATM   14  C11 UNL     1       1.835   1.540   1.735  1.00  0.00     0.002 A 
HETATM   15  C12 UNL     1       2.899   2.032   2.490  1.00  0.00     0.027 A 
HETATM   16  C13 UNL     1       3.301   3.369   2.392  1.00  0.00     0.131 A 
HETATM   17  C14 UNL     1       2.590   4.198   1.518  1.00  0.00     0.027 A 
HETATM   18  O2  UNL     1       4.325   3.857   3.141  1.00  0.00    -0.190 OA
HETATM   19  C15 UNL     1       1.533   3.709   0.746  1.00  0.00     0.002 A 
ENDBRANCH  10  13
BRANCH   2  20
HETATM   20  C16 UNL     1       2.668  -2.180  -1.490  1.00  0.00     0.054 C 
BRANCH  20  21
HETATM   21  C17 UNL     1       3.703  -1.927  -0.417  1.00  0.00    -0.030 C 
HETATM   22  C18 UNL     1       4.828  -2.640  -0.226  1.00  0.00    -0.048 C 
HETATM   23  C19 UNL     1       5.830  -2.251   0.839  1.00  0.00     0.026 C 
HETATM   24  C20 UNL     1       5.212  -3.856  -1.034  1.00  0.00     0.026 C 
ENDBRANCH  20  21
ENDBRANCH   2  20
TORSDOF 3
