REMARK  1 active torsions:
REMARK  status: ('A' for Active; 'I' for Inactive)
REMARK    1  A    between atoms: C4_4  and  C16_17 
ROOT
HETATM    1  C1  UNL     1       1.281  -0.541   0.689  1.00  0.00     0.101 C 
HETATM    2  C2  UNL     1       0.927  -2.041   0.574  1.00  0.00     0.199 C 
HETATM    3  C3  UNL     1       0.592  -2.451  -0.884  1.00  0.00     0.204 C 
HETATM    4  C4  UNL     1      -0.134  -1.435  -1.770  1.00  0.00     0.017 C 
HETATM    5  C5  UNL     1       0.249  -0.173  -2.065  1.00  0.00    -0.023 C 
HETATM    6  C6  UNL     1       1.490   0.565  -1.602  1.00  0.00     0.079 C 
HETATM    7  C7  UNL     1       2.092  -0.344  -0.578  1.00  0.00     0.160 C 
HETATM    8  O1  UNL     1       3.102  -0.980  -0.780  1.00  0.00    -0.295 OA
HETATM    9  C8  UNL     1       1.243   1.942  -0.984  1.00  0.00     0.011 A 
HETATM   10  C9  UNL     1       1.850   2.302   0.377  1.00  0.00     0.001 A 
HETATM   11  C10 UNL     1       2.804   1.398   1.172  1.00  0.00     0.001 C 
HETATM   12  C11 UNL     1       2.181   0.101   1.773  1.00  0.00     0.013 C 
HETATM   13  C12 UNL     1       1.511   0.439   3.116  1.00  0.00     0.001 C 
HETATM   14  C13 UNL     1       2.335   2.990  -0.883  1.00  0.00     0.001 A 
HETATM   15  C14 UNL     1       1.909   4.446  -1.037  1.00  0.00     0.000 C 
HETATM   16  C15 UNL     1       3.709   2.700  -1.470  1.00  0.00     0.000 C 
HETATM   17  O3  UNL     1       1.757  -2.901  -1.560  1.00  0.00    -0.216 OA
HETATM   18  C17 UNL     1      -0.297  -2.288   1.460  1.00  0.00     0.202 C 
HETATM   19  C18 UNL     1      -0.964  -0.951   1.347  1.00  0.00    -0.015 C 
HETATM   20  C19 UNL     1      -0.133  -0.026   0.851  1.00  0.00    -0.023 C 
HETATM   21  C20 UNL     1      -2.388  -0.736   1.759  1.00  0.00     0.029 C 
HETATM   22  O4  UNL     1       0.123  -2.580   2.778  1.00  0.00    -0.216 OA
HETATM   23  O5  UNL     1       1.997  -2.822   1.020  1.00  0.00    -0.219 OA
ENDROOT
BRANCH   4  24
HETATM   24  C16 UNL     1      -1.415  -1.969  -2.381  1.00  0.00     0.207 C 
HETATM   25  O2  UNL     1      -2.404  -2.138  -1.375  1.00  0.00    -0.216 OA
ENDBRANCH   4  24
TORSDOF 1
