REMARK  1 active torsions:
REMARK  status: ('A' for Active; 'I' for Inactive)
REMARK    1  A    between atoms: C3_3  and  C7_7 
ROOT
HETATM    1  C7  UNL     1       2.153   0.572  -0.686  1.00  0.00     0.009 C 
HETATM    2  C8  UNL     1       1.000  -0.128  -0.484  1.00  0.00     0.046 A 
HETATM    3  C9  UNL     1       1.081  -1.482  -0.403  1.00  0.00     0.110 A 
HETATM    4  O1  UNL     1       2.271  -2.151  -0.524  1.00  0.00    -0.273 OA
HETATM    5  C10 UNL     1       3.357  -1.438  -0.881  1.00  0.00     0.300 C 
HETATM    6  C11 UNL     1       3.302  -0.089  -0.932  1.00  0.00     0.069 C 
HETATM    7  O2  UNL     1       4.412  -1.997  -1.105  1.00  0.00    -0.259 OA
HETATM    8  C12 UNL     1      -0.034  -2.224  -0.198  1.00  0.00     0.080 A 
HETATM    9  C13 UNL     1      -1.254  -1.655  -0.140  1.00  0.00     0.100 A 
HETATM   10  C14 UNL     1      -1.327  -0.317  -0.304  1.00  0.00     0.045 A 
HETATM   11  C15 UNL     1      -0.230   0.456  -0.473  1.00  0.00     0.098 A 
HETATM   12  O3  UNL     1      -0.365   1.809  -0.690  1.00  0.00    -0.332 OA
HETATM   13  C16 UNL     1      -1.539   2.465  -0.305  1.00  0.00     0.117 C 
HETATM   14  C17 UNL     1      -2.722   1.561  -0.461  1.00  0.00     0.001 C 
HETATM   15  C18 UNL     1      -2.553   0.239  -0.369  1.00  0.00     0.002 C 
HETATM   16  C19 UNL     1      -1.681   3.716  -1.174  1.00  0.00     0.035 C 
HETATM   17  C20 UNL     1      -1.463   2.858   1.177  1.00  0.00     0.035 C 
HETATM   18  O4  UNL     1      -2.404  -2.370   0.090  1.00  0.00    -0.333 OA
HETATM   19  C21 UNL     1      -2.258  -3.546   0.820  1.00  0.00     0.129 C 
HETATM   20  C22 UNL     1      -1.218  -4.397   0.109  1.00  0.00     0.090 C 
HETATM   21  C23 UNL     1       0.056  -3.584  -0.080  1.00  0.00     0.179 C 
HETATM   22  O5  UNL     1       1.090  -4.213  -0.119  1.00  0.00    -0.291 OA
HETATM   23  C24 UNL     1      -0.992  -5.751   0.802  1.00  0.00     0.011 C 
HETATM   24  C25 UNL     1      -1.945  -3.229   2.284  1.00  0.00     0.033 C 
ENDROOT
BRANCH   1  25
HETATM   25  C3  UNL     1       2.336   1.913  -0.602  1.00  0.00     0.000 A 
HETATM   26  C2  UNL     1       3.084   2.602  -1.490  1.00  0.00     0.000 A 
HETATM   27  C1  UNL     1       3.300   3.921  -1.365  1.00  0.00     0.000 A 
HETATM   28  C6  UNL     1       2.799   4.588  -0.317  1.00  0.00     0.000 A 
HETATM   29  C5  UNL     1       2.096   3.919   0.606  1.00  0.00     0.000 A 
HETATM   30  C4  UNL     1       1.880   2.601   0.464  1.00  0.00     0.000 A 
ENDBRANCH   1  25
TORSDOF 1
