REMARK  6 active torsions:
REMARK  status: ('A' for Active; 'I' for Inactive)
REMARK    1  A    between atoms: C19_23  and  O6_26 
REMARK    2  A    between atoms: O6_26  and  C21_27 
REMARK    3  A    between atoms: C23_29  and  O10_36 
REMARK    4  A    between atoms: C25_31  and  C26_33 
REMARK    5  A    between atoms: O10_36  and  C27_37 
REMARK    6  A    between atoms: C31_41  and  C32_43 
ROOT
HETATM    1  C1  UNL     1       1.539  -0.385  -6.415  1.00  0.00     0.029 A 
HETATM    2  C2  UNL     1       1.442  -1.703  -6.192  1.00  0.00    -0.002 A 
HETATM    3  C3  UNL     1       2.530  -2.422  -5.871  1.00  0.00    -0.018 A 
HETATM    4  C4  UNL     1       3.709  -1.774  -5.841  1.00  0.00     0.023 A 
HETATM    5  C5  UNL     1       3.833  -0.450  -6.063  1.00  0.00     0.125 A 
HETATM    6  C6  UNL     1       2.718   0.255  -6.346  1.00  0.00     0.154 A 
HETATM    7  O1  UNL     1       2.771   1.599  -6.562  1.00  0.00    -0.188 OA
HETATM    8  O2  UNL     1       5.054   0.176  -5.997  1.00  0.00    -0.305 OA
HETATM    9  C7  UNL     1       5.609   0.172  -4.745  1.00  0.00     0.100 A 
HETATM   10  C8  UNL     1       5.155   0.970  -3.760  1.00  0.00     0.024 A 
HETATM   11  C9  UNL     1       5.667   0.924  -2.520  1.00  0.00    -0.002 A 
HETATM   12  C10 UNL     1       6.656   0.066  -2.216  1.00  0.00    -0.019 A 
HETATM   13  C11 UNL     1       7.156  -0.693  -3.206  1.00  0.00    -0.002 A 
HETATM   14  C12 UNL     1       6.640  -0.638  -4.442  1.00  0.00     0.024 A 
HETATM   15  C13 UNL     1       7.155  -0.106  -0.797  1.00  0.00     0.059 C 
HETATM   16  C14 UNL     1       6.679  -1.424  -0.163  1.00  0.00     0.157 C 
HETATM   17  O3  UNL     1       5.308  -1.413   0.156  1.00  0.00    -0.298 OA
HETATM   18  C15 UNL     1       4.394  -1.438  -0.863  1.00  0.00     0.294 C 
HETATM   19  O4  UNL     1       4.748  -1.769  -1.972  1.00  0.00    -0.259 OA
HETATM   20  C16 UNL     1       3.104  -1.013  -0.719  1.00  0.00     0.069 C 
HETATM   21  C17 UNL     1       2.207  -0.830  -1.923  1.00  0.00     0.062 C 
HETATM   22  C18 UNL     1       0.855  -0.241  -1.587  1.00  0.00     0.012 C 
HETATM   23  C19 UNL     1       0.384  -0.457  -0.170  1.00  0.00     0.263 C 
HETATM   24  O5  UNL     1       1.404  -0.270   0.800  1.00  0.00    -0.300 OA
HETATM   25  C20 UNL     1       2.669  -0.678   0.507  1.00  0.00     0.120 C 
HETATM   26  C33 UNL     1       0.137   0.346  -2.565  1.00  0.00    -0.029 C 
HETATM   27  C34 UNL     1      -1.278   0.856  -2.508  1.00  0.00     0.030 C 
HETATM   28  C35 UNL     1       2.053  -2.035  -2.870  1.00  0.00     0.105 C 
HETATM   29  C36 UNL     1       1.867  -3.409  -2.263  1.00  0.00     0.273 C 
HETATM   30  O17 UNL     1       1.872  -4.435  -3.167  1.00  0.00    -0.301 OA
HETATM   31  C37 UNL     1       1.379  -4.290  -4.481  1.00  0.00     0.157 C 
HETATM   32  C38 UNL     1       2.421  -3.902  -5.545  1.00  0.00     0.059 C 
HETATM   33  O18 UNL     1       1.878  -3.585  -1.064  1.00  0.00    -0.264 OA
ENDROOT
BRANCH  23  34
HETATM   34  O6  UNL     1      -0.566   0.524   0.229  1.00  0.00    -0.300 OA
BRANCH  34  35
HETATM   35  C21 UNL     1      -1.351   0.155   1.341  1.00  0.00     0.272 C 
HETATM   36  C22 UNL     1      -1.986   1.398   1.914  1.00  0.00     0.238 C 
HETATM   37  C23 UNL     1      -2.919   1.038   3.058  1.00  0.00     0.186 C 
HETATM   38  O16 UNL     1      -2.736   2.074   0.929  1.00  0.00    -0.215 OA
HETATM   39  C24 UNL     1      -3.896  -0.032   2.586  1.00  0.00     0.211 C 
HETATM   40  C25 UNL     1      -3.214  -1.180   1.840  1.00  0.00     0.184 C 
HETATM   41  O9  UNL     1      -4.577  -0.559   3.701  1.00  0.00    -0.218 OA
HETATM   42  O7  UNL     1      -2.336  -0.721   0.848  1.00  0.00    -0.326 OA
BRANCH  37  43
HETATM   43  O10 UNL     1      -3.536   2.242   3.423  1.00  0.00    -0.326 OA
BRANCH  43  44
HETATM   44  C27 UNL     1      -4.193   2.237   4.671  1.00  0.00     0.270 C 
HETATM   45  C28 UNL     1      -3.724   3.445   5.447  1.00  0.00     0.241 C 
HETATM   46  C29 UNL     1      -4.491   3.511   6.747  1.00  0.00     0.220 C 
HETATM   47  O15 UNL     1      -2.352   3.325   5.726  1.00  0.00    -0.215 OA
HETATM   48  C30 UNL     1      -5.971   3.548   6.424  1.00  0.00     0.215 C 
HETATM   49  O14 UNL     1      -4.130   4.675   7.447  1.00  0.00    -0.218 OA
HETATM   50  C31 UNL     1      -6.365   2.378   5.526  1.00  0.00     0.184 C 
HETATM   51  O13 UNL     1      -6.674   3.510   7.642  1.00  0.00    -0.218 OA
HETATM   52  O11 UNL     1      -5.566   2.367   4.370  1.00  0.00    -0.326 OA
BRANCH  50  53
HETATM   53  C32 UNL     1      -7.825   2.487   5.105  1.00  0.00     0.214 C 
HETATM   54  O12 UNL     1      -8.207   1.349   4.359  1.00  0.00    -0.218 OA
ENDBRANCH  50  53
ENDBRANCH  43  44
ENDBRANCH  37  43
BRANCH  40  55
HETATM   55  C26 UNL     1      -2.538  -2.213   2.734  1.00  0.00     0.214 C 
HETATM   56  O8  UNL     1      -3.528  -2.980   3.392  1.00  0.00    -0.218 OA
ENDBRANCH  40  55
ENDBRANCH  34  35
ENDBRANCH  23  34
TORSDOF 6
