REMARK  2 active torsions:
REMARK  status: ('A' for Active; 'I' for Inactive)
REMARK    1  A    between atoms: C5_5  and  C8_8 
REMARK    2  A    between atoms: C9_9  and  C10_10 
ROOT
HETATM    1  C1  UNL     1       2.463  -0.851  -0.724  1.00  0.00    -0.034 C 
HETATM    2  C2  UNL     1       2.014  -2.259  -0.445  1.00  0.00     0.025 C 
HETATM    3  C3  UNL     1       0.586  -2.314   0.111  1.00  0.00     0.005 C 
HETATM    4  C4  UNL     1      -0.371  -1.361  -0.633  1.00  0.00     0.007 C 
HETATM    5  C5  UNL     1       0.154   0.091  -0.508  1.00  0.00     0.040 C 
HETATM    6  C6  UNL     1       1.640   0.209  -0.768  1.00  0.00    -0.044 C 
HETATM    7  C7  UNL     1       2.158   1.601  -1.042  1.00  0.00     0.026 C 
HETATM    8  C12 UNL     1      -0.466  -1.752  -2.125  1.00  0.00     0.001 C 
HETATM    9  C13 UNL     1      -1.787  -1.489  -0.029  1.00  0.00     0.001 C 
ENDROOT
BRANCH   5  10
HETATM   10  C8  UNL     1      -0.130   0.705   0.845  1.00  0.00    -0.019 C 
HETATM   11  C9  UNL     1      -1.006   1.705   1.039  1.00  0.00     0.033 C 
BRANCH  11  12
HETATM   12  C10 UNL     1      -1.255   2.250   2.257  1.00  0.00     0.173 C 
HETATM   13  C11 UNL     1      -2.267   3.384   2.340  1.00  0.00     0.077 C 
HETATM   14  O1  UNL     1      -0.708   1.876   3.271  1.00  0.00    -0.291 OA
ENDBRANCH  11  12
ENDBRANCH   5  10
TORSDOF 2
