REMARK  5 active torsions:
REMARK  status: ('A' for Active; 'I' for Inactive)
REMARK    1  A    between atoms: C2_2  and  C3_3 
REMARK    2  A    between atoms: C3_3  and  C4_4 
REMARK    3  A    between atoms: C4_4  and  C5_5 
REMARK    4  A    between atoms: C5_5  and  C6_6 
REMARK    5  A    between atoms: C9_9  and  C10_11 
ROOT
HETATM    1  C6  UNL     1       1.218  -0.328  -1.498  1.00  0.00     0.100 C 
HETATM    2  C7  UNL     1       0.988  -1.839  -1.540  1.00  0.00     0.031 C 
HETATM    3  C8  UNL     1       1.677  -2.288  -0.253  1.00  0.00     0.037 C 
HETATM    4  C9  UNL     1       2.793  -1.253  -0.109  1.00  0.00     0.139 C 
HETATM    5  O1  UNL     1       2.520  -0.199  -1.009  1.00  0.00    -0.357 OA
HETATM    6  C14 UNL     1       1.178   0.296  -2.897  1.00  0.00     0.030 C 
ENDROOT
BRANCH   1   7
HETATM    7  C5  UNL     1       0.275   0.425  -0.540  1.00  0.00     0.092 C 
BRANCH   7   8
HETATM    8  C4  UNL     1      -1.210   0.458  -0.878  1.00  0.00     0.153 C 
HETATM    9  O3  UNL     1      -1.688  -0.207  -1.768  1.00  0.00    -0.296 OA
BRANCH   8  10
HETATM   10  C3  UNL     1      -2.057   1.394  -0.027  1.00  0.00     0.065 C 
BRANCH  10  11
HETATM   11  C2  UNL     1      -3.579   1.285  -0.229  1.00  0.00     0.007 C 
HETATM   12  C1  UNL     1      -4.127  -0.058   0.282  1.00  0.00     0.000 C 
HETATM   13  C15 UNL     1      -4.295   2.444   0.488  1.00  0.00     0.000 C 
ENDBRANCH  10  11
ENDBRANCH   8  10
ENDBRANCH   7   8
ENDBRANCH   1   7
BRANCH   4  14
HETATM   14  C10 UNL     1       2.980  -0.765   1.302  1.00  0.00     0.031 A 
HETATM   15  C11 UNL     1       3.290   0.472   1.715  1.00  0.00     0.027 A 
HETATM   16  C12 UNL     1       3.322   0.374   3.049  1.00  0.00     0.122 A 
HETATM   17  O2  UNL     1       3.070  -0.767   3.431  1.00  0.00    -0.303 OA
HETATM   18  C13 UNL     1       2.865  -1.465   2.439  1.00  0.00     0.121 A 
ENDBRANCH   4  14
TORSDOF 5
