REMARK  3 active torsions:
REMARK  status: ('A' for Active; 'I' for Inactive)
REMARK    1  A    between atoms: C3_3  and  C8_9 
REMARK    2  A    between atoms: C4_4  and  C7_7 
REMARK    3  A    between atoms: C8_9  and  C9_10 
ROOT
HETATM    1  C1  UNL     1      -1.893  -1.212  -0.954  1.00  0.00     0.000 C 
HETATM    2  C2  UNL     1      -1.492   0.274  -0.933  1.00  0.00     0.000 C 
HETATM    3  C3  UNL     1      -0.532   0.449   0.262  1.00  0.00     0.005 C 
HETATM    4  C4  UNL     1       0.069  -0.966   0.458  1.00  0.00     0.033 C 
HETATM    5  C5  UNL     1      -1.195  -1.835   0.264  1.00  0.00     0.003 C 
HETATM    6  C6  UNL     1      -0.992  -3.349   0.148  1.00  0.00     0.000 C 
ENDROOT
BRANCH   3   7
HETATM    7  C8  UNL     1       0.433   1.647   0.140  1.00  0.00     0.033 C 
HETATM    8  C10 UNL     1      -0.328   2.948  -0.180  1.00  0.00     0.003 C 
BRANCH   7   9
HETATM    9  C9  UNL     1       1.244   1.832   1.427  1.00  0.00     0.182 C 
HETATM   10  O2  UNL     1       2.241   2.818   1.241  1.00  0.00    -0.221 OA
ENDBRANCH   7   9
ENDBRANCH   3   7
BRANCH   4  11
HETATM   11  C7  UNL     1       1.195  -1.323  -0.516  1.00  0.00     0.182 C 
HETATM   12  O1  UNL     1       2.416  -0.736  -0.110  1.00  0.00    -0.221 OA
ENDBRANCH   4  11
TORSDOF 3
