REMARK  1 active torsions:
REMARK  status: ('A' for Active; 'I' for Inactive)
REMARK    1  A    between atoms: C9_9  and  C11_12 
ROOT
HETATM    1  C1  UNL     1      -2.717   1.106  -2.392  1.00  0.00     0.025 C 
HETATM    2  C2  UNL     1      -2.974  -0.241  -1.770  1.00  0.00    -0.034 C 
HETATM    3  C3  UNL     1      -2.096  -0.904  -0.996  1.00  0.00    -0.042 C 
HETATM    4  C4  UNL     1      -0.720  -0.337  -0.712  1.00  0.00     0.075 C 
HETATM    5  C5  UNL     1      -0.653   1.195  -0.894  1.00  0.00     0.010 C 
HETATM    6  C6  UNL     1      -1.249   1.536  -2.276  1.00  0.00     0.005 C 
HETATM    7  C7  UNL     1       0.833   1.624  -0.853  1.00  0.00     0.001 C 
HETATM    8  C8  UNL     1       1.583   1.175   0.413  1.00  0.00     0.007 C 
HETATM    9  C9  UNL     1       1.437  -0.334   0.686  1.00  0.00     0.058 C 
HETATM   10  C10 UNL     1      -0.051  -0.680   0.614  1.00  0.00     0.153 C 
HETATM   11  O1  UNL     1      -0.651  -1.159   1.549  1.00  0.00    -0.296 OA
HETATM   12  C14 UNL     1      -1.435   1.931   0.216  1.00  0.00     0.001 C 
HETATM   13  C15 UNL     1      -2.425  -2.285  -0.480  1.00  0.00     0.026 C 
ENDROOT
BRANCH   9  14
HETATM   14  C11 UNL     1       2.117  -0.804   1.996  1.00  0.00     0.007 C 
HETATM   15  C12 UNL     1       2.204  -2.343   2.051  1.00  0.00     0.000 C 
HETATM   16  C13 UNL     1       3.533  -0.229   2.186  1.00  0.00     0.000 C 
ENDBRANCH   9  14
TORSDOF 1
