REMARK  0 active torsions:
REMARK  status: ('A' for Active; 'I' for Inactive)
ROOT
HETATM    1  C1  UNL     1      -2.801   0.928   0.030  1.00  0.00     0.004 C 
HETATM    2  C2  UNL     1      -2.740  -0.581   0.291  1.00  0.00     0.022 C 
HETATM    3  C3  UNL     1      -1.757  -1.219  -0.658  1.00  0.00    -0.044 C 
HETATM    4  C4  UNL     1      -0.353  -0.647  -0.647  1.00  0.00     0.019 C 
HETATM    5  C5  UNL     1      -0.373   0.893  -0.874  1.00  0.00     0.006 C 
HETATM    6  C6  UNL     1      -1.397   1.550   0.086  1.00  0.00     0.001 C 
HETATM    7  C7  UNL     1       1.037   1.528  -0.677  1.00  0.00     0.031 C 
HETATM    8  C8  UNL     1       1.679   1.020   0.604  1.00  0.00     0.129 C 
HETATM    9  C9  UNL     1       1.806  -0.496   0.545  1.00  0.00     0.056 C 
HETATM   10  C10 UNL     1       0.417  -1.120   0.610  1.00  0.00     0.011 C 
HETATM   11  C11 UNL     1       2.872  -0.692   1.579  1.00  0.00     0.043 C 
HETATM   12  C12 UNL     1       3.544   0.487   1.619  1.00  0.00     0.292 C 
HETATM   13  O1  UNL     1       2.961   1.501   0.902  1.00  0.00    -0.301 OA
HETATM   14  O2  UNL     1       4.570   0.649   2.244  1.00  0.00    -0.260 OA
HETATM   15  C13 UNL     1       3.178  -1.803   2.257  1.00  0.00     0.001 C 
HETATM   16  C14 UNL     1      -0.795   1.188  -2.335  1.00  0.00     0.000 C 
HETATM   17  C15 UNL     1      -2.106  -2.238  -1.460  1.00  0.00    -0.009 C 
ENDROOT
TORSDOF 0
