REMARK  2 active torsions:
REMARK  status: ('A' for Active; 'I' for Inactive)
REMARK    1  A    between atoms: C11_13  and  O4_21 
REMARK    2  A    between atoms: O4_21  and  C18_22 
ROOT
HETATM    1  C1  UNL     1      -3.446   0.888   0.491  1.00  0.00     0.057 C 
HETATM    2  C2  UNL     1      -2.147   0.039   0.543  1.00  0.00     0.159 C 
HETATM    3  C3  UNL     1      -1.156   0.969   1.268  1.00  0.00     0.061 C 
HETATM    4  C4  UNL     1      -2.021   1.782   2.261  1.00  0.00     0.038 C 
HETATM    5  C5  UNL     1      -3.480   1.492   1.904  1.00  0.00     0.155 C 
HETATM    6  O1  UNL     1      -4.002   0.563   2.827  1.00  0.00    -0.223 OA
HETATM    7  C6  UNL     1       0.113   0.332   1.864  1.00  0.00     0.129 C 
HETATM    8  C7  UNL     1       0.767  -0.757   0.972  1.00  0.00     0.031 C 
HETATM    9  C8  UNL     1       0.932  -0.565  -0.570  1.00  0.00     0.033 C 
HETATM   10  C9  UNL     1      -0.322  -0.030  -1.302  1.00  0.00     0.038 C 
HETATM   11  C10 UNL     1      -1.687  -0.507  -0.810  1.00  0.00     0.180 C 
HETATM   12  O2  UNL     1      -1.716  -1.914  -0.805  1.00  0.00    -0.221 OA
HETATM   13  C11 UNL     1       2.169   0.317  -0.829  1.00  0.00     0.127 C 
HETATM   14  C12 UNL     1       3.309  -0.660  -0.522  1.00  0.00     0.056 C 
HETATM   15  C13 UNL     1       3.367  -0.845   1.004  1.00  0.00     0.005 C 
HETATM   16  C14 UNL     1       2.049  -1.361   1.602  1.00  0.00     0.003 C 
HETATM   17  C15 UNL     1       2.908  -1.918  -1.301  1.00  0.00     0.129 C 
HETATM   18  C16 UNL     1       1.376  -1.928  -1.197  1.00  0.00     0.033 C 
HETATM   19  C17 UNL     1       3.595  -3.215  -0.880  1.00  0.00     0.033 C 
HETATM   20  O3  UNL     1       3.262  -1.724  -2.651  1.00  0.00    -0.226 OA
HETATM   21  C20 UNL     1       1.063   1.458   2.300  1.00  0.00     0.033 C 
HETATM   22  O6  UNL     1      -0.270  -0.317   3.059  1.00  0.00    -0.226 OA
HETATM   23  O7  UNL     1      -2.392  -1.051   1.401  1.00  0.00    -0.223 OA
HETATM   24  C21 UNL     1      -4.713   0.068   0.168  1.00  0.00     0.005 C 
HETATM   25  C22 UNL     1      -3.390   2.055  -0.526  1.00  0.00     0.005 C 
ENDROOT
BRANCH  13  26
HETATM   26  O4  UNL     1       2.261   0.741  -2.160  1.00  0.00    -0.304 OA
BRANCH  26  27
HETATM   27  C18 UNL     1       1.970   2.035  -2.462  1.00  0.00     0.272 C 
HETATM   28  C19 UNL     1       2.161   2.275  -3.946  1.00  0.00     0.106 C 
HETATM   29  O5  UNL     1       1.600   2.877  -1.675  1.00  0.00    -0.264 OA
ENDBRANCH  26  27
ENDBRANCH  13  26
TORSDOF 2
