REMARK  1 active torsions:
REMARK  status: ('A' for Active; 'I' for Inactive)
REMARK    1  A    between atoms: C3_3  and  O2_10 
ROOT
HETATM    1  C1  UNL     1      -0.947   0.555   0.326  1.00  0.00     0.107 A 
HETATM    2  C2  UNL     1      -0.243  -0.599   0.250  1.00  0.00     0.045 A 
HETATM    3  C3  UNL     1       1.101  -0.621   0.049  1.00  0.00     0.098 A 
HETATM    4  C4  UNL     1       1.766   0.553   0.016  1.00  0.00     0.049 A 
HETATM    5  C5  UNL     1       1.091   1.703   0.086  1.00  0.00     0.104 A 
HETATM    6  C6  UNL     1      -0.235   1.687   0.235  1.00  0.00     0.048 A 
HETATM    7  C7  UNL     1      -0.585   2.978   0.280  1.00  0.00     0.031 A 
HETATM    8  C8  UNL     1       0.582   3.624   0.155  1.00  0.00     0.123 A 
HETATM    9  O1  UNL     1       1.534   2.850   0.046  1.00  0.00    -0.305 OA
HETATM   10  C10 UNL     1      -0.940  -1.745   0.375  1.00  0.00     0.009 A 
HETATM   11  C11 UNL     1      -2.268  -1.751   0.559  1.00  0.00     0.069 A 
HETATM   12  C12 UNL     1      -2.943  -0.577   0.624  1.00  0.00     0.300 A 
HETATM   13  O3  UNL     1      -2.301   0.618   0.506  1.00  0.00    -0.273 OA
HETATM   14  O4  UNL     1      -4.145  -0.605   0.790  1.00  0.00    -0.259 OA
ENDROOT
BRANCH   3  15
HETATM   15  O2  UNL     1       1.828  -1.788   0.027  1.00  0.00    -0.328 OA
HETATM   16  C9  UNL     1       2.050  -2.293  -1.270  1.00  0.00     0.181 C 
ENDBRANCH   3  15
TORSDOF 1
