REMARK  0 active torsions:
REMARK  status: ('A' for Active; 'I' for Inactive)
ROOT
HETATM    1  C1  UNL     1       1.517   1.337   0.465  1.00  0.00     0.004 C 
HETATM    2  C2  UNL     1       0.102   0.738   0.605  1.00  0.00     0.003 C 
HETATM    3  C3  UNL     1      -0.606   0.988   1.956  1.00  0.00     0.030 C 
HETATM    4  C4  UNL     1      -1.588  -0.186   2.031  1.00  0.00     0.152 C 
HETATM    5  C5  UNL     1      -0.809  -1.375   1.479  1.00  0.00     0.033 C 
HETATM    6  C6  UNL     1       0.090  -0.798   0.368  1.00  0.00     0.003 C 
HETATM    7  C7  UNL     1      -0.303  -1.008  -1.121  1.00  0.00     0.004 C 
HETATM    8  C8  UNL     1      -0.202   0.420  -1.715  1.00  0.00     0.018 C 
HETATM    9  C9  UNL     1       1.208   0.889  -2.022  1.00  0.00    -0.045 C 
HETATM   10  C10 UNL     1       2.184   0.959  -0.868  1.00  0.00     0.022 C 
HETATM   11  C11 UNL     1       1.586   1.211  -3.269  1.00  0.00    -0.009 C 
HETATM   12  C12 UNL     1      -0.718   1.302  -0.574  1.00  0.00     0.004 C 
HETATM   13  C13 UNL     1      -1.739  -1.545  -1.326  1.00  0.00     0.000 C 
HETATM   14  C14 UNL     1       0.631  -2.004  -1.839  1.00  0.00     0.000 C 
HETATM   15  O1  UNL     1      -2.044  -0.429   3.338  1.00  0.00    -0.224 OA
HETATM   16  C15 UNL     1       0.344   1.036   3.165  1.00  0.00     0.003 C 
ENDROOT
TORSDOF 0
