REMARK  3 active torsions:
REMARK  status: ('A' for Active; 'I' for Inactive)
REMARK    1  A    between atoms: C4_4  and  C7_7 
REMARK    2  A    between atoms: C7_7  and  C8_8 
REMARK    3  A    between atoms: C16_18  and  C17_20 
ROOT
HETATM    1  C8  UNL     1      -2.203  -0.026  -0.355  1.00  0.00     0.033 A 
HETATM    2  C9  UNL     1      -2.222   1.177   0.246  1.00  0.00     0.131 A 
HETATM    3  O1  UNL     1      -3.362   1.735   0.737  1.00  0.00    -0.190 OA
HETATM    4  C10 UNL     1      -1.062   1.837   0.358  1.00  0.00     0.051 A 
HETATM    5  C11 UNL     1       0.106   1.364  -0.105  1.00  0.00     0.101 A 
HETATM    6  C12 UNL     1       0.105   0.142  -0.685  1.00  0.00     0.082 A 
HETATM    7  C13 UNL     1      -1.049  -0.555  -0.821  1.00  0.00     0.134 A 
HETATM    8  O2  UNL     1      -1.132  -1.773  -1.433  1.00  0.00    -0.190 OA
HETATM    9  C14 UNL     1       1.293  -0.352  -1.138  1.00  0.00     0.180 C 
HETATM   10  C15 UNL     1       2.548   0.491  -0.971  1.00  0.00     0.104 C 
HETATM   11  C16 UNL     1       2.422   1.418   0.227  1.00  0.00     0.151 C 
HETATM   12  O3  UNL     1       1.224   2.131   0.103  1.00  0.00    -0.328 OA
HETATM   13  O4  UNL     1       1.440  -1.426  -1.677  1.00  0.00    -0.291 OA
ENDROOT
BRANCH   1  14
HETATM   14  C7  UNL     1      -3.499  -0.805  -0.518  1.00  0.00     0.059 C 
BRANCH  14  15
HETATM   15  C4  UNL     1      -3.497  -2.167   0.155  1.00  0.00     0.008 A 
HETATM   16  C3  UNL     1      -4.169  -3.211  -0.376  1.00  0.00     0.127 A 
HETATM   17  C2  UNL     1      -4.131  -4.396   0.258  1.00  0.00     0.027 A 
HETATM   18  O5  UNL     1      -4.877  -3.094  -1.533  1.00  0.00    -0.191 OA
HETATM   19  C1  UNL     1      -3.453  -4.565   1.401  1.00  0.00     0.002 A 
HETATM   20  C6  UNL     1      -2.800  -3.525   1.935  1.00  0.00    -0.000 A 
HETATM   21  C5  UNL     1      -2.831  -2.337   1.313  1.00  0.00    -0.002 A 
ENDBRANCH  14  15
ENDBRANCH   1  14
BRANCH  11  22
HETATM   22  C17 UNL     1       3.596   2.374   0.350  1.00  0.00     0.005 A 
HETATM   23  C18 UNL     1       4.437   2.314   1.399  1.00  0.00    -0.002 A 
HETATM   24  C19 UNL     1       5.471   3.163   1.508  1.00  0.00    -0.000 A 
HETATM   25  C20 UNL     1       5.682   4.090   0.562  1.00  0.00    -0.000 A 
HETATM   26  C21 UNL     1       4.853   4.163  -0.489  1.00  0.00    -0.000 A 
HETATM   27  C22 UNL     1       3.820   3.312  -0.589  1.00  0.00    -0.002 A 
ENDBRANCH  11  22
TORSDOF 3
