REMARK  5 active torsions:
REMARK  status: ('A' for Active; 'I' for Inactive)
REMARK    1  A    between atoms: C1_2  and  C2_3 
REMARK    2  A    between atoms: C2_3  and  C3_4 
REMARK    3  A    between atoms: C3_4  and  C4_5 
REMARK    4  A    between atoms: C3_4  and  C6_10 
REMARK    5  A    between atoms: C4_5  and  C5_6 
ROOT
HETATM    1  C3  UNL     1       0.564   0.098  -0.183  1.00  0.00     0.139 C 
ENDROOT
BRANCH   1   2
HETATM    2  C2  UNL     1      -0.679   0.950  -0.511  1.00  0.00     0.112 C 
BRANCH   2   3
HETATM    3  C1  UNL     1      -0.443   2.444  -0.387  1.00  0.00     0.186 C 
HETATM    4  O1  UNL     1      -1.568   3.144  -0.614  1.00  0.00    -0.647 OA
HETATM    5  O7  UNL     1       0.600   2.988  -0.115  1.00  0.00    -0.647 OA
ENDBRANCH   2   3
ENDBRANCH   1   2
BRANCH   1   6
HETATM    6  C4  UNL     1       0.358  -1.395  -0.480  1.00  0.00     0.249 C 
HETATM    7  O4  UNL     1       1.554  -2.090  -0.151  1.00  0.00    -0.211 OA
BRANCH   6   8
HETATM    8  C5  UNL     1      -0.740  -2.105   0.289  1.00  0.00     0.218 C 
HETATM    9  O2  UNL     1      -0.495  -2.898   1.166  1.00  0.00    -0.645 OA
HETATM   10  O3  UNL     1      -1.980  -1.854  -0.160  1.00  0.00    -0.645 OA
ENDBRANCH   6   8
ENDBRANCH   1   6
BRANCH   1  11
HETATM   11  C6  UNL     1       0.987   0.307   1.266  1.00  0.00     0.188 C 
HETATM   12  O5  UNL     1       2.286   0.636   1.392  1.00  0.00    -0.647 OA
HETATM   13  O6  UNL     1       0.255   0.202   2.220  1.00  0.00    -0.647 OA
ENDBRANCH   1  11
TORSDOF 5
