REMARK  3 active torsions:
REMARK  status: ('A' for Active; 'I' for Inactive)
REMARK    1  A    between atoms: C2_2  and  O2_20 
REMARK    2  A    between atoms: C11_12  and  C12_13 
REMARK    3  A    between atoms: C11_12  and  O1_18 
ROOT
HETATM    1  C1  UNL     1      -3.273   2.157  -0.319  1.00  0.00     0.024 A 
HETATM    2  C2  UNL     1      -3.406   0.885   0.098  1.00  0.00     0.094 A 
HETATM    3  C3  UNL     1      -2.268   0.163   0.134  1.00  0.00     0.021 A 
HETATM    4  C4  UNL     1      -1.061   0.654  -0.202  1.00  0.00    -0.011 A 
HETATM    5  C5  UNL     1      -0.958   1.940  -0.593  1.00  0.00    -0.023 A 
HETATM    6  C6  UNL     1      -2.082   2.676  -0.644  1.00  0.00    -0.003 A 
HETATM    7  C7  UNL     1       0.359   2.592  -0.960  1.00  0.00     0.043 C 
HETATM    8  C8  UNL     1       1.408   1.645  -1.561  1.00  0.00     0.077 C 
HETATM    9  N1  UNL     1       1.578   0.359  -0.915  1.00  0.00    -0.271 NA
HETATM   10  C9  UNL     1       0.152  -0.254  -0.112  1.00  0.00     0.074 A 
HETATM   11  C10 UNL     1       0.038  -1.555  -0.783  1.00  0.00     0.048 A 
HETATM   12  C11 UNL     1       1.343  -1.369  -0.025  1.00  0.00     0.109 A 
HETATM   13  C12 UNL     1       1.313   0.415   0.998  1.00  0.00     0.028 A 
HETATM   14  C13 UNL     1       0.637   0.378   2.119  1.00  0.00     0.004 A 
HETATM   15  C14 UNL     1       0.640  -0.932   1.643  1.00  0.00     0.020 A 
HETATM   16  C15 UNL     1       2.536  -0.893   1.544  1.00  0.00     0.019 C 
HETATM   17  C16 UNL     1       2.960   0.096   0.051  1.00  0.00     0.072 C 
ENDROOT
BRANCH   2  18
HETATM   18  O2  UNL     1      -4.660   0.410   0.397  1.00  0.00    -0.328 OA
HETATM   19  C18 UNL     1      -4.853  -0.985   0.459  1.00  0.00     0.181 C 
ENDBRANCH   2  18
BRANCH  12  20
HETATM   20  O1  UNL     1       2.380  -1.865  -0.928  1.00  0.00    -0.355 OA
HETATM   21  C17 UNL     1       2.256  -3.212  -1.353  1.00  0.00     0.174 C 
ENDBRANCH  12  20
TORSDOF 3
