REMARK  3 active torsions:
REMARK  status: ('A' for Active; 'I' for Inactive)
REMARK    1  A    between atoms: C1_1  and  O4_24 
REMARK    2  A    between atoms: C8_9  and  O2_10 
REMARK    3  A    between atoms: C10_12  and  O3_22 
ROOT
HETATM    1  C1  UNL     1      -3.382  -0.769  -0.654  1.00  0.00     0.119 A 
HETATM    2  C2  UNL     1      -3.411  -1.929   0.020  1.00  0.00     0.026 A 
HETATM    3  C3  UNL     1      -2.299  -2.414   0.579  1.00  0.00    -0.002 A 
HETATM    4  C4  UNL     1      -1.140  -1.747   0.470  1.00  0.00    -0.018 A 
HETATM    5  C5  UNL     1      -1.073  -0.562  -0.179  1.00  0.00     0.025 A 
HETATM    6  C6  UNL     1      -2.205  -0.120  -0.787  1.00  0.00     0.153 A 
HETATM    7  O1  UNL     1      -2.226   0.946  -1.641  1.00  0.00    -0.188 OA
HETATM    8  C7  UNL     1       0.130   0.074  -0.215  1.00  0.00     0.024 C 
HETATM    9  C8  UNL     1       0.260   1.429  -0.179  1.00  0.00     0.116 C 
HETATM   10  C10 UNL     1       1.477   2.007  -0.311  1.00  0.00     0.116 C 
HETATM   11  C11 UNL     1       2.556   1.218  -0.412  1.00  0.00     0.022 C 
HETATM   12  C12 UNL     1       2.464  -0.112  -0.306  1.00  0.00    -0.020 C 
HETATM   13  C13 UNL     1       1.254  -0.688  -0.210  1.00  0.00     0.007 C 
HETATM   14  C14 UNL     1       1.131  -2.207  -0.106  1.00  0.00     0.246 C 
HETATM   15  C15 UNL     1       0.115  -2.376   1.033  1.00  0.00     0.064 C 
HETATM   16  N1  UNL     1       2.401  -2.926   0.025  1.00  0.00     0.142 N 
HETATM   17  C16 UNL     1       3.453  -2.144   0.638  1.00  0.00     0.255 C 
HETATM   18  C17 UNL     1       3.721  -0.936  -0.263  1.00  0.00     0.061 C 
HETATM   19  C18 UNL     1       2.277  -4.221   0.676  1.00  0.00     0.286 C 
ENDROOT
BRANCH   1  20
HETATM   20  O4  UNL     1      -4.500  -0.335  -1.323  1.00  0.00    -0.326 OA
HETATM   21  C20 UNL     1      -5.312   0.529  -0.560  1.00  0.00     0.181 C 
ENDBRANCH   1  20
BRANCH   9  22
HETATM   22  O2  UNL     1      -0.805   2.285  -0.021  1.00  0.00    -0.326 OA
HETATM   23  C9  UNL     1      -1.307   2.341   1.298  1.00  0.00     0.181 C 
ENDBRANCH   9  22
BRANCH  10  24
HETATM   24  O3  UNL     1       1.622   3.373  -0.389  1.00  0.00    -0.326 OA
HETATM   25  C19 UNL     1       2.196   3.967   0.754  1.00  0.00     0.181 C 
ENDBRANCH  10  24
TORSDOF 3
