REMARK  1 active torsions:
REMARK  status: ('A' for Active; 'I' for Inactive)
REMARK    1  A    between atoms: C9_9  and  C11_11 
ROOT
HETATM    1  C1  UNL     1      -1.805   0.470  -2.782  1.00  0.00     0.037 C 
HETATM    2  C2  UNL     1      -2.660  -0.356  -1.829  1.00  0.00     0.171 C 
HETATM    3  C3  UNL     1      -1.855  -0.920  -0.681  1.00  0.00    -0.015 C 
HETATM    4  C4  UNL     1      -0.424  -0.421  -0.579  1.00  0.00     0.021 C 
HETATM    5  C5  UNL     1      -0.414   1.126  -0.687  1.00  0.00     0.004 C 
HETATM    6  C6  UNL     1      -1.037   1.575  -2.041  1.00  0.00     0.003 C 
HETATM    7  C7  UNL     1       1.046   1.637  -0.612  1.00  0.00     0.001 C 
HETATM    8  C8  UNL     1       1.817   1.129   0.616  1.00  0.00     0.004 C 
HETATM    9  C9  UNL     1       1.810  -0.406   0.655  1.00  0.00     0.019 C 
HETATM   10  C10 UNL     1       0.367  -0.939   0.638  1.00  0.00     0.008 C 
HETATM   11  C14 UNL     1      -1.239   1.763   0.458  1.00  0.00     0.000 C 
HETATM   12  C15 UNL     1      -2.424  -1.778   0.181  1.00  0.00    -0.007 C 
HETATM   13  O1  UNL     1      -3.268  -1.410  -2.553  1.00  0.00    -0.219 OA
ENDROOT
BRANCH   9  14
HETATM   14  C11 UNL     1       2.617  -0.964   1.817  1.00  0.00    -0.044 C 
HETATM   15  C12 UNL     1       3.688  -1.747   1.604  1.00  0.00    -0.009 C 
HETATM   16  C13 UNL     1       2.186  -0.620   3.224  1.00  0.00     0.026 C 
ENDBRANCH   9  14
TORSDOF 1
