REMARK  0 active torsions:
REMARK  status: ('A' for Active; 'I' for Inactive)
ROOT
HETATM    1  C1  UNL     1      -3.227   1.144   0.085  1.00  0.00     0.000 A 
HETATM    2  C2  UNL     1      -3.265  -0.254   0.138  1.00  0.00     0.002 A 
HETATM    3  C3  UNL     1      -2.083  -0.989   0.133  1.00  0.00     0.017 A 
HETATM    4  C4  UNL     1      -0.829  -0.346   0.072  1.00  0.00     0.065 A 
HETATM    5  C5  UNL     1      -0.802   1.067   0.015  1.00  0.00     0.055 A 
HETATM    6  C6  UNL     1      -2.002   1.801   0.024  1.00  0.00     0.005 A 
HETATM    7  C7  UNL     1       0.486   1.803  -0.059  1.00  0.00     0.200 A 
HETATM    8  C8  UNL     1       1.687   0.960  -0.088  1.00  0.00     0.081 A 
HETATM    9  C9  UNL     1       1.637  -0.410  -0.027  1.00  0.00     0.167 A 
HETATM   10  N1  UNL     1       0.405  -1.031   0.058  1.00  0.00    -0.307 N 
HETATM   11  C10 UNL     1       0.417  -2.505   0.142  1.00  0.00     0.133 C 
HETATM   12  O1  UNL     1       2.904  -0.912  -0.099  1.00  0.00    -0.289 OA
HETATM   13  C11 UNL     1       3.746   0.170  -0.201  1.00  0.00     0.125 A 
HETATM   14  C12 UNL     1       3.061   1.348  -0.198  1.00  0.00     0.034 A 
HETATM   15  O2  UNL     1       0.571   3.029  -0.099  1.00  0.00    -0.286 OA
ENDROOT
TORSDOF 0
