REMARK  0 active torsions:
REMARK  status: ('A' for Active; 'I' for Inactive)
ROOT
HETATM    1  C1  UNL     1      -4.156  -0.213  -0.011  1.00  0.00     0.070 C 
HETATM    2  C2  UNL     1      -4.047  -1.726   0.045  1.00  0.00     0.172 C 
HETATM    3  C3  UNL     1      -2.868  -2.313  -0.279  1.00  0.00     0.029 C 
HETATM    4  C4  UNL     1      -1.781  -1.638  -0.686  1.00  0.00    -0.042 C 
HETATM    5  C5  UNL     1      -1.754  -0.128  -0.863  1.00  0.00     0.016 C 
HETATM    6  C6  UNL     1      -2.794   0.483   0.096  1.00  0.00     0.012 C 
HETATM    7  C7  UNL     1      -0.312   0.370  -0.564  1.00  0.00     0.004 C 
HETATM    8  C8  UNL     1       0.353  -0.476   0.540  1.00  0.00     0.001 C 
HETATM    9  C9  UNL     1       0.624  -1.881  -0.043  1.00  0.00     0.004 C 
HETATM   10  C10 UNL     1      -0.484  -2.340  -1.013  1.00  0.00     0.022 C 
HETATM   11  C11 UNL     1       1.503   0.242   1.301  1.00  0.00     0.007 C 
HETATM   12  C12 UNL     1       2.213   1.396   0.551  1.00  0.00     0.051 C 
HETATM   13  C13 UNL     1       1.319   2.231  -0.387  1.00  0.00     0.007 C 
HETATM   14  C14 UNL     1      -0.166   1.865  -0.268  1.00  0.00     0.001 C 
HETATM   15  C15 UNL     1       3.327   0.632  -0.156  1.00  0.00     0.150 C 
HETATM   16  C16 UNL     1       3.707  -0.603   0.639  1.00  0.00     0.065 C 
HETATM   17  C17 UNL     1       2.651  -0.686   1.752  1.00  0.00     0.008 C 
HETATM   18  O1  UNL     1       3.864   0.962  -1.188  1.00  0.00    -0.296 OA
HETATM   19  C18 UNL     1       2.925   2.363   1.527  1.00  0.00     0.007 C 
HETATM   20  C19 UNL     1      -2.128   0.200  -2.325  1.00  0.00     0.004 C 
HETATM   21  O2  UNL     1      -5.001  -2.389   0.386  1.00  0.00    -0.291 OA
ENDROOT
TORSDOF 0
