REMARK  1 active torsions:
REMARK  status: ('A' for Active; 'I' for Inactive)
REMARK    1  A    between atoms: C8_9  and  C12_13 
ROOT
HETATM    1  C1  UNL     1      -4.886  -1.208   1.190  1.00  0.00     0.045 A 
HETATM    2  C2  UNL     1      -5.000  -2.181   0.268  1.00  0.00     0.045 A 
HETATM    3  C3  UNL     1      -3.852  -2.607  -0.566  1.00  0.00     0.196 A 
HETATM    4  C4  UNL     1      -2.568  -1.889  -0.362  1.00  0.00     0.044 A 
HETATM    5  C5  UNL     1      -2.437  -0.866   0.600  1.00  0.00     0.067 A 
HETATM    6  C6  UNL     1      -3.609  -0.495   1.440  1.00  0.00     0.198 A 
HETATM    7  O1  UNL     1      -3.571   0.359   2.318  1.00  0.00    -0.286 OA
HETATM    8  C7  UNL     1      -1.204  -0.214   0.766  1.00  0.00     0.134 A 
HETATM    9  C8  UNL     1      -0.140  -0.565  -0.087  1.00  0.00     0.021 A 
HETATM   10  C9  UNL     1      -0.248  -1.585  -1.036  1.00  0.00    -0.020 A 
HETATM   11  C10 UNL     1      -1.477  -2.243  -1.159  1.00  0.00    -0.001 A 
HETATM   12  C11 UNL     1       0.887  -1.954  -1.961  1.00  0.00     0.031 C 
HETATM   13  O5  UNL     1      -1.016   0.809   1.647  1.00  0.00    -0.190 OA
HETATM   14  O6  UNL     1      -3.990  -3.513  -1.383  1.00  0.00    -0.287 OA
ENDROOT
BRANCH   9  15
HETATM   15  C12 UNL     1       1.132   0.229   0.045  1.00  0.00     0.001 A 
HETATM   16  C13 UNL     1       1.214   1.541  -0.448  1.00  0.00     0.044 A 
HETATM   17  C14 UNL     1       2.392   2.295  -0.253  1.00  0.00     0.067 A 
HETATM   18  C22 UNL     1       0.050   2.141  -1.161  1.00  0.00     0.196 A 
HETATM   19  C15 UNL     1       3.498   1.727   0.396  1.00  0.00     0.134 A 
HETATM   20  C19 UNL     1       2.480   3.703  -0.730  1.00  0.00     0.198 A 
HETATM   21  C16 UNL     1       3.388   0.409   0.856  1.00  0.00     0.023 A 
HETATM   22  O2  UNL     1       4.665   2.394   0.605  1.00  0.00    -0.190 OA
HETATM   23  C17 UNL     1       2.229  -0.350   0.704  1.00  0.00    -0.020 A 
HETATM   24  C18 UNL     1       2.203  -1.745   1.284  1.00  0.00     0.031 C 
HETATM   25  C20 UNL     1       1.280   4.278  -1.383  1.00  0.00     0.045 A 
HETATM   26  O4  UNL     1       3.475   4.411  -0.608  1.00  0.00    -0.286 OA
HETATM   27  C21 UNL     1       0.163   3.557  -1.584  1.00  0.00     0.045 A 
HETATM   28  O3  UNL     1      -0.983   1.539  -1.438  1.00  0.00    -0.287 OA
ENDBRANCH   9  15
TORSDOF 1
