REMARK  4 active torsions:
REMARK  status: ('A' for Active; 'I' for Inactive)
REMARK    1  A    between atoms: C4_4  and  C20_26 
REMARK    2  A    between atoms: C5_5  and  C17_21 
REMARK    3  A    between atoms: C17_21  and  O5_22 
REMARK    4  A    between atoms: O5_22  and  C18_23 
ROOT
HETATM    1  C1  UNL     1      -0.661   3.045  -0.370  1.00  0.00     0.030 C 
HETATM    2  C2  UNL     1      -2.000   2.844   0.344  1.00  0.00     0.003 C 
HETATM    3  C3  UNL     1      -1.894   1.881   1.533  1.00  0.00     0.007 C 
HETATM    4  C4  UNL     1      -1.321   0.506   1.059  1.00  0.00     0.070 C 
HETATM    5  C5  UNL     1      -0.363   0.469  -0.189  1.00  0.00     0.064 C 
HETATM    6  C6  UNL     1       0.307   1.853  -0.316  1.00  0.00     0.127 C 
HETATM    7  O1  UNL     1       1.125   1.987  -1.440  1.00  0.00    -0.304 OA
HETATM    8  C7  UNL     1       1.822   0.944  -1.937  1.00  0.00     0.278 C 
HETATM    9  C8  UNL     1       1.994  -0.223  -0.981  1.00  0.00     0.136 C 
HETATM   10  C9  UNL     1       0.793  -0.596  -0.071  1.00  0.00     0.051 C 
HETATM   11  C10 UNL     1       1.306  -1.032   1.325  1.00  0.00     0.153 C 
HETATM   12  C11 UNL     1       2.666  -1.762   1.362  1.00  0.00     0.037 C 
HETATM   13  C12 UNL     1       3.684  -1.315   0.306  1.00  0.00     0.029 C 
HETATM   14  C13 UNL     1       3.280   0.080  -0.176  1.00  0.00     0.021 C 
HETATM   15  C14 UNL     1       3.489  -2.101  -0.965  1.00  0.00     0.013 C 
HETATM   16  C15 UNL     1       2.385  -1.503  -1.735  1.00  0.00     0.177 C 
HETATM   17  O2  UNL     1       1.799  -1.972  -2.702  1.00  0.00    -0.291 OA
HETATM   18  C16 UNL     1       4.178  -3.183  -1.366  1.00  0.00    -0.002 C 
HETATM   19  O3  UNL     1       0.409  -1.934   1.945  1.00  0.00    -0.223 OA
HETATM   20  O4  UNL     1       2.402   0.994  -3.001  1.00  0.00    -0.264 OA
HETATM   21  C21 UNL     1      -3.301   1.755   2.171  1.00  0.00     0.000 C 
HETATM   22  C22 UNL     1      -1.012   2.520   2.638  1.00  0.00     0.000 C 
ENDROOT
BRANCH   5  23
HETATM   23  C17 UNL     1      -1.164   0.200  -1.500  1.00  0.00     0.155 C 
BRANCH  23  24
HETATM   24  O5  UNL     1      -1.576  -1.140  -1.603  1.00  0.00    -0.302 OA
BRANCH  24  25
HETATM   25  C18 UNL     1      -2.508  -1.445  -2.545  1.00  0.00     0.272 C 
HETATM   26  C19 UNL     1      -2.794  -2.933  -2.531  1.00  0.00     0.106 C 
HETATM   27  O6  UNL     1      -3.035  -0.642  -3.281  1.00  0.00    -0.264 OA
ENDBRANCH  24  25
ENDBRANCH  23  24
ENDBRANCH   5  23
BRANCH   4  28
HETATM   28  C20 UNL     1      -2.394  -0.574   0.998  1.00  0.00     0.207 C 
HETATM   29  O7  UNL     1      -2.278  -1.602   1.622  1.00  0.00    -0.288 OA
ENDBRANCH   4  28
TORSDOF 4
