REMARK  3 active torsions:
REMARK  status: ('A' for Active; 'I' for Inactive)
REMARK    1  A    between atoms: C2_2  and  O4_24 
REMARK    2  A    between atoms: O4_24  and  C21_25 
REMARK    3  A    between atoms: C22_27  and  C26_34 
ROOT
HETATM    1  C1  UNL     1       0.884  -1.745  -0.882  1.00  0.00     0.030 C 
HETATM    2  C2  UNL     1       1.659  -0.500  -0.422  1.00  0.00     0.118 C 
HETATM    3  C3  UNL     1       0.731   0.725  -0.177  1.00  0.00     0.025 C 
HETATM    4  C4  UNL     1      -0.543   0.271   0.627  1.00  0.00     0.002 C 
HETATM    5  C5  UNL     1      -1.368  -0.940   0.092  1.00  0.00     0.003 C 
HETATM    6  C6  UNL     1      -0.340  -2.097  -0.031  1.00  0.00     0.003 C 
HETATM    7  C7  UNL     1      -2.483  -1.365   1.123  1.00  0.00     0.033 C 
HETATM    8  C8  UNL     1      -3.307  -0.229   1.806  1.00  0.00     0.037 C 
HETATM    9  C9  UNL     1      -2.401   0.940   2.212  1.00  0.00     0.003 C 
HETATM   10  C10 UNL     1      -1.498   1.401   1.063  1.00  0.00     0.000 C 
HETATM   11  C11 UNL     1      -4.480   0.225   0.914  1.00  0.00     0.037 C 
HETATM   12  C12 UNL     1      -5.386  -0.999   0.977  1.00  0.00     0.147 C 
HETATM   13  C13 UNL     1      -4.779  -2.125   0.150  1.00  0.00     0.067 C 
HETATM   14  C14 UNL     1      -3.390  -2.532   0.660  1.00  0.00     0.155 C 
HETATM   15  O1  UNL     1      -3.557  -3.447   1.723  1.00  0.00    -0.223 OA
HETATM   16  C15 UNL     1      -5.352  -1.333   2.442  1.00  0.00     0.013 C 
HETATM   17  C16 UNL     1      -4.084  -0.777   3.030  1.00  0.00     0.173 C 
HETATM   18  O2  UNL     1      -4.453   0.247   3.934  1.00  0.00    -0.219 OA
HETATM   19  C17 UNL     1      -6.275  -2.026   3.118  1.00  0.00    -0.004 C 
HETATM   20  O3  UNL     1      -6.681  -0.681   0.532  1.00  0.00    -0.222 OA
HETATM   21  C18 UNL     1      -1.991  -0.679  -1.296  1.00  0.00     0.000 C 
HETATM   22  C19 UNL     1       1.481   1.762   0.710  1.00  0.00     0.002 C 
HETATM   23  C20 UNL     1       0.381   1.453  -1.493  1.00  0.00     0.002 C 
ENDROOT
BRANCH   2  24
HETATM   24  O4  UNL     1       2.640  -0.343  -1.420  1.00  0.00    -0.332 OA
BRANCH  24  25
HETATM   25  C21 UNL     1       3.802   0.397  -1.110  1.00  0.00     0.270 C 
HETATM   26  O5  UNL     1       3.645   1.603  -1.828  1.00  0.00    -0.326 OA
HETATM   27  C22 UNL     1       4.726   2.483  -1.687  1.00  0.00     0.184 C 
HETATM   28  C23 UNL     1       5.992   1.823  -2.220  1.00  0.00     0.215 C 
HETATM   29  C24 UNL     1       6.236   0.518  -1.490  1.00  0.00     0.220 C 
HETATM   30  O8  UNL     1       7.115   2.646  -2.022  1.00  0.00    -0.218 OA
HETATM   31  C25 UNL     1       5.006  -0.349  -1.643  1.00  0.00     0.241 C 
HETATM   32  O7  UNL     1       7.351  -0.129  -2.047  1.00  0.00    -0.218 OA
HETATM   33  O6  UNL     1       5.187  -1.534  -0.910  1.00  0.00    -0.215 OA
BRANCH  27  34
HETATM   34  C26 UNL     1       4.392   3.760  -2.447  1.00  0.00     0.214 C 
HETATM   35  O9  UNL     1       3.277   4.394  -1.852  1.00  0.00    -0.218 OA
ENDBRANCH  27  34
ENDBRANCH  24  25
ENDBRANCH   2  24
TORSDOF 3
