REMARK  6 active torsions:
REMARK  status: ('A' for Active; 'I' for Inactive)
REMARK    1  A    between atoms: C10_10  and  O1_11 
REMARK    2  A    between atoms: O1_11  and  C11_12 
REMARK    3  A    between atoms: C17_21  and  O5_22 
REMARK    4  A    between atoms: O5_22  and  C18_23 
REMARK    5  A    between atoms: C21_27  and  O7_28 
REMARK    6  A    between atoms: O7_28  and  C22_29 
ROOT
HETATM    1  C1  UNL     1      -3.407   0.774  -1.306  1.00  0.00     0.000 C 
HETATM    2  C2  UNL     1      -3.736   0.122   0.040  1.00  0.00     0.000 C 
HETATM    3  C3  UNL     1      -2.820  -1.083   0.343  1.00  0.00     0.003 C 
HETATM    4  C4  UNL     1      -1.327  -0.641   0.221  1.00  0.00     0.035 C 
HETATM    5  C5  UNL     1      -0.897   0.299  -0.954  1.00  0.00     0.033 C 
HETATM    6  C6  UNL     1      -1.987   1.342  -1.269  1.00  0.00     0.003 C 
HETATM    7  C7  UNL     1       0.421   1.031  -0.520  1.00  0.00     0.038 C 
HETATM    8  C8  UNL     1       1.530  -0.034  -0.291  1.00  0.00     0.084 C 
HETATM    9  C9  UNL     1       0.902  -1.396  -0.574  1.00  0.00     0.247 C 
HETATM   10  C10 UNL     1      -0.304  -1.787   0.264  1.00  0.00     0.178 C 
HETATM   11  O3  UNL     1       1.853  -2.436  -0.535  1.00  0.00    -0.193 OA
HETATM   12  O4  UNL     1       0.523  -1.435  -1.923  1.00  0.00    -0.331 OA
HETATM   13  C13 UNL     1      -0.578  -0.594  -2.165  1.00  0.00     0.145 C 
HETATM   14  C14 UNL     1       2.731   0.262  -1.224  1.00  0.00     0.012 C 
HETATM   15  C15 UNL     1       3.250   1.572  -0.622  1.00  0.00     0.023 C 
HETATM   16  C16 UNL     1       2.288   2.734  -0.920  1.00  0.00     0.034 C 
HETATM   17  C17 UNL     1       0.873   2.278  -1.313  1.00  0.00     0.125 C 
HETATM   18  C20 UNL     1       3.212   1.220   0.846  1.00  0.00    -0.017 C 
HETATM   19  C21 UNL     1       2.224   0.102   1.088  1.00  0.00     0.147 C 
HETATM   20  C24 UNL     1       3.960   1.823   1.779  1.00  0.00    -0.007 C 
HETATM   21  C25 UNL     1      -3.111  -1.527   1.801  1.00  0.00     0.000 C 
HETATM   22  C26 UNL     1      -3.263  -2.272  -0.544  1.00  0.00     0.000 C 
ENDROOT
BRANCH  10  23
HETATM   23  O1  UNL     1       0.055  -2.097   1.581  1.00  0.00    -0.299 OA
BRANCH  23  24
HETATM   24  C11 UNL     1       0.143  -3.407   1.945  1.00  0.00     0.273 C 
HETATM   25  C12 UNL     1       0.456  -3.519   3.423  1.00  0.00     0.106 C 
HETATM   26  O2  UNL     1      -0.037  -4.354   1.212  1.00  0.00    -0.264 OA
ENDBRANCH  23  24
ENDBRANCH  10  23
BRANCH  19  27
HETATM   27  O7  UNL     1       1.317   0.397   2.118  1.00  0.00    -0.300 OA
BRANCH  27  28
HETATM   28  C22 UNL     1       1.598  -0.016   3.382  1.00  0.00     0.273 C 
HETATM   29  C23 UNL     1       0.454   0.347   4.307  1.00  0.00     0.106 C 
HETATM   30  O8  UNL     1       2.598  -0.604   3.724  1.00  0.00    -0.264 OA
ENDBRANCH  27  28
ENDBRANCH  19  27
BRANCH  17  31
HETATM   31  O5  UNL     1       0.805   2.054  -2.690  1.00  0.00    -0.304 OA
BRANCH  31  32
HETATM   32  C18 UNL     1       0.639   3.122  -3.517  1.00  0.00     0.272 C 
HETATM   33  C19 UNL     1       0.514   2.652  -4.952  1.00  0.00     0.106 C 
HETATM   34  O6  UNL     1       0.579   4.278  -3.163  1.00  0.00    -0.264 OA
ENDBRANCH  31  32
ENDBRANCH  17  31
TORSDOF 6
