REMARK  12 active torsions:
REMARK  status: ('A' for Active; 'I' for Inactive)
REMARK    1  A    between atoms: C3_3  and  O4_10 
REMARK    2  A    between atoms: C4_5  and  C6_8 
REMARK    3  A    between atoms: O4_10  and  C7_11 
REMARK    4  A    between atoms: C8_12  and  O17_62 
REMARK    5  A    between atoms: C9_13  and  O8_20 
REMARK    6  A    between atoms: C10_15  and  C12_18 
REMARK    7  A    between atoms: O8_20  and  C13_21 
REMARK    8  A    between atoms: C16_24  and  O11_29 
REMARK    9  A    between atoms: C17_26  and  C18_27 
REMARK   10  A    between atoms: O11_29  and  C19_30 
REMARK   11  A    between atoms: O17_62  and  C46_63 
REMARK   12  A    between atoms: C47_65  and  C51_72 
ROOT
HETATM    1  C13 UNL     1      -4.658  -1.856  -2.116  1.00  0.00     0.181 C 
HETATM    2  C14 UNL     1      -5.014  -0.666  -2.993  1.00  0.00     0.217 C 
HETATM    3  C15 UNL     1      -4.066   0.493  -2.752  1.00  0.00     0.241 C 
HETATM    4  C16 UNL     1      -2.612   0.118  -2.543  1.00  0.00     0.270 C 
HETATM    5  O9  UNL     1      -2.380  -1.113  -1.897  1.00  0.00    -0.326 OA
HETATM    6  C17 UNL     1      -3.182  -2.199  -2.259  1.00  0.00     0.181 C 
HETATM    7  O15 UNL     1      -4.516   1.205  -1.617  1.00  0.00    -0.215 OA
HETATM    8  O16 UNL     1      -4.991  -1.025  -4.353  1.00  0.00    -0.218 OA
ENDROOT
BRANCH   1   9
HETATM    9  O8  UNL     1      -4.909  -1.495  -0.782  1.00  0.00    -0.326 OA
BRANCH   9  10
HETATM   10  C9  UNL     1      -5.252  -2.558   0.084  1.00  0.00     0.267 C 
HETATM   11  C8  UNL     1      -4.754  -2.243   1.485  1.00  0.00     0.204 C 
HETATM   12  C7  UNL     1      -5.464  -3.103   2.533  1.00  0.00     0.183 C 
HETATM   13  C11 UNL     1      -6.971  -3.046   2.321  1.00  0.00     0.211 C 
HETATM   14  C10 UNL     1      -7.274  -3.448   0.878  1.00  0.00     0.184 C 
HETATM   15  O6  UNL     1      -7.629  -3.923   3.206  1.00  0.00    -0.218 OA
HETATM   16  O5  UNL     1      -6.663  -2.531   0.017  1.00  0.00    -0.326 OA
BRANCH  11  17
HETATM   17  O17 UNL     1      -3.385  -2.544   1.608  1.00  0.00    -0.324 OA
BRANCH  17  18
HETATM   18  C46 UNL     1      -2.493  -1.468   1.413  1.00  0.00     0.270 C 
HETATM   19  O18 UNL     1      -1.395  -2.093   0.776  1.00  0.00    -0.326 OA
HETATM   20  C47 UNL     1      -0.338  -1.212   0.495  1.00  0.00     0.184 C 
HETATM   21  C48 UNL     1       0.170  -0.569   1.779  1.00  0.00     0.215 C 
HETATM   22  C49 UNL     1      -0.973   0.112   2.504  1.00  0.00     0.220 C 
HETATM   23  O21 UNL     1       1.144   0.407   1.496  1.00  0.00    -0.218 OA
HETATM   24  C50 UNL     1      -2.059  -0.912   2.751  1.00  0.00     0.241 C 
HETATM   25  O20 UNL     1      -0.510   0.628   3.725  1.00  0.00    -0.218 OA
HETATM   26  O19 UNL     1      -3.139  -0.298   3.408  1.00  0.00    -0.215 OA
BRANCH  20  27
HETATM   27  C51 UNL     1       0.758  -1.991  -0.221  1.00  0.00     0.214 C 
HETATM   28  O22 UNL     1       0.324  -2.346  -1.519  1.00  0.00    -0.218 OA
ENDBRANCH  20  27
ENDBRANCH  17  18
ENDBRANCH  11  17
BRANCH  12  29
HETATM   29  O4  UNL     1      -5.064  -2.610   3.784  1.00  0.00    -0.326 OA
BRANCH  29  30
HETATM   30  C3  UNL     1      -5.266  -3.492   4.865  1.00  0.00     0.270 C 
HETATM   31  C2  UNL     1      -4.066  -3.414   5.778  1.00  0.00     0.241 C 
HETATM   32  C1  UNL     1      -4.340  -4.260   7.003  1.00  0.00     0.220 C 
HETATM   33  O23 UNL     1      -2.940  -3.921   5.107  1.00  0.00    -0.215 OA
HETATM   34  C5  UNL     1      -5.623  -3.778   7.649  1.00  0.00     0.215 C 
HETATM   35  O24 UNL     1      -3.276  -4.138   7.911  1.00  0.00    -0.218 OA
HETATM   36  C4  UNL     1      -6.760  -3.786   6.633  1.00  0.00     0.184 C 
HETATM   37  O2  UNL     1      -5.911  -4.628   8.732  1.00  0.00    -0.218 OA
HETATM   38  O1  UNL     1      -6.408  -2.997   5.528  1.00  0.00    -0.326 OA
BRANCH  36  39
HETATM   39  C6  UNL     1      -8.055  -3.237   7.210  1.00  0.00     0.214 C 
HETATM   40  O3  UNL     1      -9.055  -3.264   6.209  1.00  0.00    -0.218 OA
ENDBRANCH  36  39
ENDBRANCH  29  30
ENDBRANCH  12  29
BRANCH  14  41
HETATM   41  C12 UNL     1      -8.762  -3.470   0.550  1.00  0.00     0.214 C 
HETATM   42  O7  UNL     1      -9.309  -4.743   0.836  1.00  0.00    -0.218 OA
ENDBRANCH  14  41
ENDBRANCH   9  10
ENDBRANCH   1   9
BRANCH   6  43
HETATM   43  C18 UNL     1      -2.745  -2.819  -3.578  1.00  0.00     0.214 C 
HETATM   44  O10 UNL     1      -1.390  -3.209  -3.462  1.00  0.00    -0.218 OA
ENDBRANCH   6  43
BRANCH   4  45
HETATM   45  O11 UNL     1      -1.861   0.099  -3.741  1.00  0.00    -0.332 OA
BRANCH  45  46
HETATM   46  C19 UNL     1      -0.525   0.496  -3.557  1.00  0.00     0.118 C 
HETATM   47  C20 UNL     1       0.372  -0.188  -4.590  1.00  0.00     0.032 C 
HETATM   48  C21 UNL     1       1.858   0.229  -4.463  1.00  0.00     0.033 C 
HETATM   49  C22 UNL     1       2.037   1.780  -4.484  1.00  0.00     0.003 C 
HETATM   50  C28 UNL     1       2.526  -0.469  -3.266  1.00  0.00     0.152 C 
HETATM   51  C23 UNL     1       1.050   2.459  -3.508  1.00  0.00     0.003 C 
HETATM   52  C25 UNL     1       3.513   2.142  -4.140  1.00  0.00     0.000 C 
HETATM   53  C45 UNL     1       1.740   2.288  -5.921  1.00  0.00     0.000 C 
HETATM   54  C24 UNL     1      -0.408   2.015  -3.689  1.00  0.00     0.030 C 
HETATM   55  C26 UNL     1       4.008   1.461  -2.847  1.00  0.00     0.003 C 
HETATM   56  C32 UNL     1       3.889   3.635  -4.080  1.00  0.00     0.000 C 
HETATM   57  C27 UNL     1       3.979  -0.056  -3.033  1.00  0.00     0.033 C 
HETATM   58  C29 UNL     1       5.306   2.092  -2.322  1.00  0.00     0.003 C 
HETATM   59  C30 UNL     1       6.222   2.783  -3.347  1.00  0.00     0.003 C 
HETATM   60  C35 UNL     1       6.253   1.288  -1.431  1.00  0.00     0.030 C 
HETATM   61  C31 UNL     1       5.420   3.841  -4.141  1.00  0.00     0.000 C 
HETATM   62  C33 UNL     1       7.347   3.294  -2.403  1.00  0.00     0.032 C 
HETATM   63  C44 UNL     1       6.879   1.787  -4.336  1.00  0.00     0.000 C 
HETATM   64  C34 UNL     1       7.500   2.186  -1.355  1.00  0.00     0.118 C 
HETATM   65  C37 UNL     1       7.057   4.540  -1.551  1.00  0.00     0.054 C 
HETATM   66  O13 UNL     1       7.615   2.750  -0.087  1.00  0.00    -0.337 OA
HETATM   67  C36 UNL     1       7.319   4.122  -0.100  1.00  0.00     0.187 C 
HETATM   68  C39 UNL     1       6.112   4.402   0.791  1.00  0.00     0.056 C 
HETATM   69  O14 UNL     1       8.459   4.792   0.387  1.00  0.00    -0.335 OA
HETATM   70  C40 UNL     1       6.396   4.076   2.260  1.00  0.00     0.007 C 
HETATM   71  C41 UNL     1       7.659   4.832   2.686  1.00  0.00     0.030 C 
HETATM   72  C42 UNL     1       8.036   4.494   4.137  1.00  0.00     0.003 C 
HETATM   73  C43 UNL     1       8.793   4.490   1.720  1.00  0.00     0.145 C 
HETATM   74  C38 UNL     1       7.849   5.768  -2.030  1.00  0.00     0.005 C 
HETATM   75  O12 UNL     1       2.492  -1.871  -3.421  1.00  0.00    -0.224 OA
ENDBRANCH  45  46
ENDBRANCH   4  45
TORSDOF 12
