REMARK  1 active torsions:
REMARK  status: ('A' for Active; 'I' for Inactive)
REMARK    1  A    between atoms: C11_13  and  O3_16 
ROOT
HETATM    1  C1  UNL     1      -0.446   4.295   0.080  1.00  0.00     0.135 A 
HETATM    2  C2  UNL     1      -0.384   3.973  -1.275  1.00  0.00     0.055 A 
HETATM    3  C3  UNL     1      -0.292   2.656  -1.739  1.00  0.00     0.138 A 
HETATM    4  C4  UNL     1      -0.264   1.621  -0.782  1.00  0.00     0.087 A 
HETATM    5  C5  UNL     1      -0.318   1.897   0.598  1.00  0.00     0.107 A 
HETATM    6  C6  UNL     1      -0.412   3.236   0.988  1.00  0.00     0.052 A 
HETATM    7  O1  UNL     1      -0.290   0.948   1.581  1.00  0.00    -0.307 OA
HETATM    8  C7  UNL     1      -0.185  -0.362   1.223  1.00  0.00     0.103 A 
HETATM    9  C8  UNL     1      -0.126  -0.805  -0.105  1.00  0.00     0.064 A 
HETATM   10  C9  UNL     1      -0.171   0.197  -1.197  1.00  0.00     0.201 A 
HETATM   11  O2  UNL     1      -0.116  -0.159  -2.371  1.00  0.00    -0.286 OA
HETATM   12  C10 UNL     1      -0.047  -2.171  -0.415  1.00  0.00     0.029 A 
HETATM   13  C11 UNL     1       0.047  -3.155   0.577  1.00  0.00     0.094 A 
HETATM   14  C12 UNL     1      -0.074  -2.711   1.898  1.00  0.00     0.026 A 
HETATM   15  C13 UNL     1      -0.163  -1.353   2.210  1.00  0.00     0.027 A 
HETATM   16  O4  UNL     1      -0.241   2.454  -3.085  1.00  0.00    -0.190 OA
HETATM   17  O5  UNL     1      -0.539   5.581   0.510  1.00  0.00    -0.190 OA
ENDROOT
BRANCH  13  18
HETATM   18  O3  UNL     1       0.053  -4.492   0.274  1.00  0.00    -0.328 OA
HETATM   19  C14 UNL     1       1.270  -4.959  -0.260  1.00  0.00     0.181 C 
ENDBRANCH  13  18
TORSDOF 1
