REMARK  6 active torsions:
REMARK  status: ('A' for Active; 'I' for Inactive)
REMARK    1  A    between atoms: C2_2  and  C15_17 
REMARK    2  A    between atoms: C3_4  and  C6_7 
REMARK    3  A    between atoms: C6_7  and  C7_8 
REMARK    4  A    between atoms: C7_8  and  C8_10 
REMARK    5  A    between atoms: C15_17  and  C16_18 
REMARK    6  A    between atoms: C16_18  and  C17_20 
ROOT
HETATM    1  C1  UNL     1      -0.787   2.271   1.272  1.00  0.00     0.002 C 
HETATM    2  C2  UNL     1      -0.869   0.764   1.154  1.00  0.00     0.243 C 
HETATM    3  N1  UNL     1       0.449   0.141   1.366  1.00  0.00     0.140 N 
HETATM    4  C3  UNL     1       1.479   0.790   0.546  1.00  0.00     0.232 C 
HETATM    5  C4  UNL     1       1.674   2.236   1.049  1.00  0.00     0.059 C 
HETATM    6  C5  UNL     1       0.367   2.946   1.220  1.00  0.00    -0.027 C 
HETATM    7  C14 UNL     1       0.391  -1.297   1.145  1.00  0.00     0.286 C 
ENDROOT
BRANCH   4   8
HETATM    8  C6  UNL     1       2.873   0.112   0.553  1.00  0.00     0.103 C 
BRANCH   8   9
HETATM    9  C7  UNL     1       3.040  -1.115  -0.336  1.00  0.00     0.175 C 
HETATM   10  O1  UNL     1       3.449  -2.164   0.151  1.00  0.00    -0.291 OA
BRANCH   9  11
HETATM   11  C8  UNL     1       2.719  -1.043  -1.790  1.00  0.00     0.035 A 
HETATM   12  C9  UNL     1       2.375  -2.220  -2.468  1.00  0.00     0.003 A 
HETATM   13  C10 UNL     1       2.051  -2.186  -3.826  1.00  0.00     0.000 A 
HETATM   14  C11 UNL     1       2.071  -0.975  -4.519  1.00  0.00     0.000 A 
HETATM   15  C12 UNL     1       2.412   0.204  -3.849  1.00  0.00     0.000 A 
HETATM   16  C13 UNL     1       2.730   0.173  -2.491  1.00  0.00     0.003 A 
ENDBRANCH   9  11
ENDBRANCH   8   9
ENDBRANCH   4   8
BRANCH   2  17
HETATM   17  C15 UNL     1      -1.949   0.230   2.129  1.00  0.00     0.071 C 
BRANCH  17  18
HETATM   18  C16 UNL     1      -2.856  -0.868   1.554  1.00  0.00     0.154 C 
HETATM   19  O2  UNL     1      -3.105  -1.822   2.563  1.00  0.00    -0.223 OA
BRANCH  18  20
HETATM   20  C17 UNL     1      -4.209  -0.364   1.042  1.00  0.00     0.033 C 
HETATM   21  C18 UNL     1      -4.101   0.605  -0.142  1.00  0.00     0.003 C 
ENDBRANCH  18  20
ENDBRANCH  17  18
ENDBRANCH   2  17
TORSDOF 6
