REMARK  2 active torsions:
REMARK  status: ('A' for Active; 'I' for Inactive)
REMARK    1  A    between atoms: C2_2  and  C3_3 
REMARK    2  A    between atoms: C3_3  and  C4_4 
ROOT
HETATM    1  C3  UNL     1       0.286   0.954   0.000  1.00  0.00     0.033 C 
ENDROOT
BRANCH   1   2
HETATM    2  C2  UNL     1       0.827  -0.461  -0.000  1.00  0.00    -0.019 C 
HETATM    3  C1  UNL     1       0.132  -1.609  -0.000  1.00  0.00    -0.004 C 
HETATM    4  C6  UNL     1       2.339  -0.552   0.000  1.00  0.00     0.031 C 
ENDBRANCH   1   2
BRANCH   1   5
HETATM    5  C4  UNL     1      -1.184   1.358   0.000  1.00  0.00     0.173 C 
HETATM    6  O1  UNL     1      -1.437   2.545  -0.000  1.00  0.00    -0.291 OA
HETATM    7  C5  UNL     1      -2.348   0.390   0.000  1.00  0.00     0.077 C 
ENDBRANCH   1   5
TORSDOF 2
