REMARK  11 active torsions:
REMARK  status: ('A' for Active; 'I' for Inactive)
REMARK    1  A    between atoms: C23_25  and  O4_29 
REMARK    2  A    between atoms: O4_29  and  C26_30 
REMARK    3  A    between atoms: C27_32  and  C48_70 
REMARK    4  A    between atoms: C28_33  and  O8_38 
REMARK    5  A    between atoms: O8_38  and  C31_39 
REMARK    6  A    between atoms: C32_41  and  C47_68 
REMARK    7  A    between atoms: C34_43  and  O16_57 
REMARK    8  A    between atoms: C35_44  and  O10_45 
REMARK    9  A    between atoms: O10_45  and  C36_46 
REMARK   10  A    between atoms: C37_48  and  C41_55 
REMARK   11  A    between atoms: O16_57  and  C42_58 
ROOT
HETATM    1  C26 UNL     1      -1.560  -2.896  -2.181  1.00  0.00     0.270 C 
HETATM    2  O5  UNL     1      -2.802  -3.003  -2.862  1.00  0.00    -0.326 OA
HETATM    3  C27 UNL     1      -3.615  -4.070  -2.437  1.00  0.00     0.181 C 
HETATM    4  C28 UNL     1      -4.030  -3.931  -0.964  1.00  0.00     0.181 C 
HETATM    5  C29 UNL     1      -2.728  -3.946  -0.182  1.00  0.00     0.217 C 
HETATM    6  C30 UNL     1      -1.817  -2.856  -0.689  1.00  0.00     0.241 C 
HETATM    7  O6  UNL     1      -0.660  -2.935   0.103  1.00  0.00    -0.215 OA
HETATM    8  O7  UNL     1      -2.915  -3.730   1.195  1.00  0.00    -0.218 OA
ENDROOT
BRANCH   4   9
HETATM    9  O8  UNL     1      -4.741  -2.734  -0.782  1.00  0.00    -0.326 OA
BRANCH   9  10
HETATM   10  C31 UNL     1      -5.610  -2.693   0.335  1.00  0.00     0.267 C 
HETATM   11  O9  UNL     1      -6.776  -3.316  -0.146  1.00  0.00    -0.326 OA
HETATM   12  C32 UNL     1      -7.699  -3.534   0.878  1.00  0.00     0.184 C 
HETATM   13  C33 UNL     1      -8.157  -2.194   1.435  1.00  0.00     0.211 C 
HETATM   14  C34 UNL     1      -7.007  -1.263   1.840  1.00  0.00     0.183 C 
HETATM   15  O21 UNL     1      -8.973  -2.441   2.556  1.00  0.00    -0.218 OA
HETATM   16  C35 UNL     1      -5.893  -1.253   0.770  1.00  0.00     0.204 C 
BRANCH  12  17
HETATM   17  C47 UNL     1      -8.835  -4.360   0.286  1.00  0.00     0.214 C 
HETATM   18  O22 UNL     1      -9.829  -4.596   1.261  1.00  0.00    -0.218 OA
ENDBRANCH  12  17
BRANCH  14  19
HETATM   19  O16 UNL     1      -7.518   0.038   1.983  1.00  0.00    -0.326 OA
BRANCH  19  20
HETATM   20  C42 UNL     1      -8.117   0.344   3.231  1.00  0.00     0.270 C 
HETATM   21  O17 UNL     1      -9.366   0.879   2.833  1.00  0.00    -0.326 OA
HETATM   22  C43 UNL     1     -10.131   1.342   3.918  1.00  0.00     0.181 C 
HETATM   23  C44 UNL     1      -9.401   2.469   4.627  1.00  0.00     0.215 C 
HETATM   24  C45 UNL     1      -8.082   1.943   5.146  1.00  0.00     0.220 C 
HETATM   25  O20 UNL     1     -10.150   2.943   5.718  1.00  0.00    -0.218 OA
HETATM   26  C46 UNL     1      -7.295   1.371   3.986  1.00  0.00     0.241 C 
HETATM   27  O19 UNL     1      -7.357   2.992   5.736  1.00  0.00    -0.218 OA
HETATM   28  O18 UNL     1      -6.136   0.774   4.517  1.00  0.00    -0.215 OA
ENDBRANCH  19  20
ENDBRANCH  14  19
BRANCH  16  29
HETATM   29  O10 UNL     1      -4.658  -0.755   1.237  1.00  0.00    -0.324 OA
BRANCH  29  30
HETATM   30  C36 UNL     1      -4.554   0.609   1.572  1.00  0.00     0.270 C 
HETATM   31  O11 UNL     1      -4.557   1.434   0.436  1.00  0.00    -0.326 OA
HETATM   32  C37 UNL     1      -3.458   1.325  -0.425  1.00  0.00     0.184 C 
HETATM   33  C38 UNL     1      -2.107   1.138   0.272  1.00  0.00     0.215 C 
HETATM   34  C39 UNL     1      -2.087   0.482   1.646  1.00  0.00     0.220 C 
HETATM   35  O14 UNL     1      -1.537   2.419   0.448  1.00  0.00    -0.218 OA
HETATM   36  C40 UNL     1      -3.328   0.853   2.415  1.00  0.00     0.241 C 
HETATM   37  O13 UNL     1      -1.975  -0.919   1.570  1.00  0.00    -0.218 OA
HETATM   38  O12 UNL     1      -3.267   2.219   2.760  1.00  0.00    -0.215 OA
BRANCH  32  39
HETATM   39  C41 UNL     1      -3.777   0.382  -1.576  1.00  0.00     0.214 C 
HETATM   40  O15 UNL     1      -2.815   0.482  -2.605  1.00  0.00    -0.218 OA
ENDBRANCH  32  39
ENDBRANCH  29  30
ENDBRANCH  16  29
ENDBRANCH   9  10
ENDBRANCH   4   9
BRANCH   3  41
HETATM   41  C48 UNL     1      -4.835  -4.151  -3.346  1.00  0.00     0.214 C 
HETATM   42  O23 UNL     1      -4.444  -4.614  -4.623  1.00  0.00    -0.218 OA
ENDBRANCH   3  41
BRANCH   1  43
HETATM   43  O4  UNL     1      -1.131  -1.621  -2.653  1.00  0.00    -0.329 OA
BRANCH  43  44
HETATM   44  C23 UNL     1       0.218  -1.471  -3.018  1.00  0.00     0.152 C 
HETATM   45  C22 UNL     1       1.134  -1.744  -1.826  1.00  0.00     0.054 C 
HETATM   46  C19 UNL     1       2.474  -1.109  -2.049  1.00  0.00    -0.046 C 
HETATM   47  C18 UNL     1       2.476   0.406  -2.150  1.00  0.00     0.018 C 
HETATM   48  C20 UNL     1       3.532  -1.853  -2.407  1.00  0.00    -0.035 C 
HETATM   49  C15 UNL     1       3.908   0.989  -1.968  1.00  0.00     0.004 C 
HETATM   50  C25 UNL     1       1.803   0.575  -3.533  1.00  0.00     0.039 C 
HETATM   51  C49 UNL     1       1.608   1.093  -1.061  1.00  0.00     0.004 C 
HETATM   52  C14 UNL     1       5.058  -0.038  -1.864  1.00  0.00     0.005 C 
HETATM   53  C16 UNL     1       4.322   2.227  -2.782  1.00  0.00     0.000 C 
HETATM   54  C12 UNL     1       6.415   0.632  -2.111  1.00  0.00     0.003 C 
HETATM   55  C21 UNL     1       4.836  -1.228  -2.798  1.00  0.00     0.025 C 
HETATM   56  C11 UNL     1       6.540   2.008  -1.421  1.00  0.00     0.003 C 
HETATM   57  C13 UNL     1       7.660  -0.154  -1.686  1.00  0.00     0.030 C 
HETATM   58  C8  UNL     1       8.044   2.296  -1.688  1.00  0.00     0.032 C 
HETATM   59  C17 UNL     1       5.546   2.949  -2.150  1.00  0.00     0.000 C 
HETATM   60  C50 UNL     1       6.248   1.957   0.101  1.00  0.00     0.000 C 
HETATM   61  C7  UNL     1       8.725   0.933  -1.534  1.00  0.00     0.118 C 
HETATM   62  C9  UNL     1       8.855   3.175  -0.719  1.00  0.00     0.054 C 
HETATM   63  O2  UNL     1       9.259   0.908  -0.247  1.00  0.00    -0.337 OA
HETATM   64  C3  UNL     1       9.744   2.189   0.055  1.00  0.00     0.187 C 
HETATM   65  C2  UNL     1       9.681   2.421   1.560  1.00  0.00     0.056 C 
HETATM   66  O1  UNL     1      11.076   2.259  -0.395  1.00  0.00    -0.335 OA
HETATM   67  C1  UNL     1      10.594   1.447   2.312  1.00  0.00     0.007 C 
HETATM   68  C5  UNL     1      12.014   1.515   1.736  1.00  0.00     0.030 C 
HETATM   69  C4  UNL     1      11.958   1.348   0.218  1.00  0.00     0.145 C 
HETATM   70  C6  UNL     1      12.748   2.804   2.143  1.00  0.00     0.003 C 
HETATM   71  C10 UNL     1       9.626   4.287  -1.446  1.00  0.00     0.005 C 
HETATM   72  C24 UNL     1       0.389  -0.041  -3.568  1.00  0.00     0.180 C 
HETATM   73  O3  UNL     1      -0.108  -0.006  -4.886  1.00  0.00    -0.221 OA
ENDBRANCH  43  44
ENDBRANCH   1  43
TORSDOF 11
