REMARK  4 active torsions:
REMARK  status: ('A' for Active; 'I' for Inactive)
REMARK    1  A    between atoms: C2_2  and  C4_4 
REMARK    2  A    between atoms: C4_4  and  C5_6 
REMARK    3  A    between atoms: C5_6  and  O2_7 
REMARK    4  A    between atoms: O2_7  and  C6_8 
ROOT
HETATM    1  C6  UNL     1       0.392   0.965   0.546  1.00  0.00     0.098 C 
HETATM    2  C7  UNL     1       1.717   0.825   0.086  1.00  0.00     0.047 A 
HETATM    3  C8  UNL     1       2.424   1.879  -0.489  1.00  0.00     0.104 A 
HETATM    4  C9  UNL     1       1.859   3.160  -0.577  1.00  0.00     0.050 C 
HETATM    5  C10 UNL     1       0.588   3.379  -0.057  1.00  0.00     0.107 A 
HETATM    6  C11 UNL     1      -0.102   2.279   0.539  1.00  0.00     0.045 A 
HETATM    7  C12 UNL     1      -1.401   2.557   1.156  1.00  0.00     0.009 A 
HETATM    8  C13 UNL     1      -1.911   3.805   1.116  1.00  0.00     0.069 A 
HETATM    9  C14 UNL     1      -1.138   4.874   0.450  1.00  0.00     0.300 A 
HETATM   10  O3  UNL     1       0.081   4.650  -0.112  1.00  0.00    -0.273 OA
HETATM   11  O4  UNL     1      -1.635   5.999   0.417  1.00  0.00    -0.259 OA
HETATM   12  O5  UNL     1       3.673   1.470  -0.871  1.00  0.00    -0.305 OA
HETATM   13  C15 UNL     1       3.759   0.145  -0.520  1.00  0.00     0.123 A 
HETATM   14  C16 UNL     1       2.618  -0.303   0.065  1.00  0.00     0.031 A 
ENDROOT
BRANCH   1  15
HETATM   15  O2  UNL     1      -0.240  -0.066   1.189  1.00  0.00    -0.323 OA
BRANCH  15  16
HETATM   16  C5  UNL     1      -1.187  -0.754   0.394  1.00  0.00     0.213 C 
BRANCH  16  17
HETATM   17  C4  UNL     1      -0.537  -1.779  -0.529  1.00  0.00     0.180 C 
HETATM   18  O1  UNL     1       0.065  -1.408  -1.512  1.00  0.00    -0.293 OA
BRANCH  17  19
HETATM   19  C2  UNL     1      -0.688  -3.255  -0.177  1.00  0.00     0.060 C 
HETATM   20  C1  UNL     1      -2.079  -3.755  -0.597  1.00  0.00     0.008 C 
HETATM   21  C3  UNL     1       0.407  -4.123  -0.818  1.00  0.00     0.008 C 
ENDBRANCH  17  19
ENDBRANCH  16  17
ENDBRANCH  15  16
ENDBRANCH   1  15
TORSDOF 4
