REMARK  4 active torsions:
REMARK  status: ('A' for Active; 'I' for Inactive)
REMARK    1  A    between atoms: C6_6  and  C7_7 
REMARK    2  A    between atoms: C7_7  and  C8_8 
REMARK    3  A    between atoms: C8_8  and  C9_9 
REMARK    4  A    between atoms: C12_13  and  C15_17 
ROOT
HETATM    1  C1  UNL     1      -3.035   2.602   0.012  1.00  0.00     0.131 A 
HETATM    2  C2  UNL     1      -2.517   3.897   0.044  1.00  0.00     0.055 A 
HETATM    3  C3  UNL     1      -1.136   4.099   0.066  1.00  0.00     0.138 A 
HETATM    4  C4  UNL     1      -0.261   3.004   0.056  1.00  0.00     0.087 A 
HETATM    5  C5  UNL     1      -0.792   1.708   0.023  1.00  0.00     0.103 A 
HETATM    6  C6  UNL     1      -2.172   1.506   0.002  1.00  0.00     0.026 A 
HETATM    7  O1  UNL     1      -0.002   0.580   0.011  1.00  0.00    -0.307 OA
HETATM    8  C12 UNL     1       1.363   0.749   0.032  1.00  0.00     0.103 A 
HETATM    9  C13 UNL     1       1.991   1.929   0.064  1.00  0.00     0.067 A 
HETATM   10  C14 UNL     1       1.228   3.215   0.079  1.00  0.00     0.202 A 
HETATM   11  O2  UNL     1       1.750   4.304   0.107  1.00  0.00    -0.286 OA
HETATM   12  O5  UNL     1      -0.639   5.359   0.097  1.00  0.00    -0.190 OA
HETATM   13  O6  UNL     1      -4.376   2.409  -0.009  1.00  0.00    -0.190 OA
ENDROOT
BRANCH   8  14
HETATM   14  C15 UNL     1       2.121  -0.353   0.020  1.00  0.00     0.025 A 
HETATM   15  C16 UNL     1       1.522  -1.611  -0.012  1.00  0.00     0.004 A 
HETATM   16  C17 UNL     1       2.313  -2.760  -0.025  1.00  0.00     0.030 A 
HETATM   17  C18 UNL     1       3.703  -2.650  -0.005  1.00  0.00     0.156 A 
HETATM   18  C19 UNL     1       4.303  -1.391   0.028  1.00  0.00     0.156 A 
HETATM   19  O4  UNL     1       4.471  -3.767  -0.017  1.00  0.00    -0.188 OA
HETATM   20  C20 UNL     1       3.512  -0.242   0.040  1.00  0.00     0.032 A 
HETATM   21  O3  UNL     1       5.653  -1.284   0.047  1.00  0.00    -0.188 OA
ENDBRANCH   8  14
BRANCH   6  22
HETATM   22  C7  UNL     1      -2.727   0.116  -0.033  1.00  0.00     0.035 C 
BRANCH  22  23
HETATM   23  C8  UNL     1      -1.581  -0.888  -0.038  1.00  0.00     0.027 C 
BRANCH  23  24
HETATM   24  C9  UNL     1      -2.136  -2.278  -0.072  1.00  0.00    -0.044 C 
HETATM   25  C10 UNL     1      -3.459  -2.470  -0.093  1.00  0.00    -0.009 C 
HETATM   26  C11 UNL     1      -1.209  -3.453  -0.083  1.00  0.00     0.026 C 
ENDBRANCH  23  24
ENDBRANCH  22  23
ENDBRANCH   6  22
TORSDOF 4
