REMARK  2 active torsions:
REMARK  status: ('A' for Active; 'I' for Inactive)
REMARK    1  A    between atoms: C5_6  and  C6_7 
REMARK    2  A    between atoms: C6_7  and  O3_9 
ROOT
HETATM    1  C1  UNL     1      -0.419   1.645   1.017  1.00  0.00     0.059 C 
HETATM    2  C2  UNL     1      -0.419   0.122   1.017  1.00  0.00     0.097 C 
HETATM    3  C3  UNL     1       0.974  -0.385   0.669  1.00  0.00     0.243 C 
HETATM    4  O1  UNL     1       1.503   0.471  -0.307  1.00  0.00    -0.304 OA
HETATM    5  C4  UNL     1       1.941   1.551   0.285  1.00  0.00     0.120 C 
HETATM    6  C5  UNL     1       0.992   2.144   1.017  1.00  0.00     0.069 C 
HETATM    7  O4  UNL     1       0.734  -1.523  -0.115  1.00  0.00    -0.326 OA
HETATM    8  C8  UNL     1      -0.393  -1.242  -0.958  1.00  0.00     0.174 A 
HETATM    9  C9  UNL     1      -1.260  -0.246  -0.198  1.00  0.00     0.154 A 
HETATM   10  C10 UNL     1      -1.352   1.030  -0.975  1.00  0.00    -0.001 C 
HETATM   11  C11 UNL     1      -1.076   2.007  -0.279  1.00  0.00    -0.024 C 
HETATM   12  O5  UNL     1      -2.534  -0.606   0.264  1.00  0.00    -0.296 OA
HETATM   13  C12 UNL     1      -2.689  -1.865  -0.162  1.00  0.00     0.294 A 
HETATM   14  C13 UNL     1      -1.253  -2.462  -1.067  1.00  0.00     0.066 A 
HETATM   15  C14 UNL     1      -1.024  -3.639  -1.657  1.00  0.00    -0.022 C 
HETATM   16  C15 UNL     1      -2.115  -4.660  -1.740  1.00  0.00     0.031 C 
HETATM   17  O6  UNL     1      -3.680  -2.525   0.038  1.00  0.00    -0.259 OA
ENDROOT
BRANCH   6  18
HETATM   18  C6  UNL     1       1.314   3.217   1.773  1.00  0.00     0.294 C 
HETATM   19  O2  UNL     1       0.467   3.762   2.439  1.00  0.00    -0.259 OA
BRANCH  18  20
HETATM   20  O3  UNL     1       2.572   3.674   1.783  1.00  0.00    -0.296 OA
HETATM   21  C7  UNL     1       3.555   3.041   1.010  1.00  0.00     0.185 C 
ENDBRANCH  18  20
ENDBRANCH   6  18
TORSDOF 2
