REMARK  1 active torsions:
REMARK  status: ('A' for Active; 'I' for Inactive)
REMARK    1  A    between atoms: C1_1  and  C8_8 
ROOT
HETATM    1  C1  UNL     1       0.541   0.170  -0.044  1.00  0.00    -0.004 A 
HETATM    2  C2  UNL     1       1.076  -1.074   0.288  1.00  0.00    -0.000 A 
HETATM    3  C3  UNL     1       0.228  -2.145   0.572  1.00  0.00    -0.000 A 
HETATM    4  C4  UNL     1      -1.155  -1.970   0.523  1.00  0.00    -0.004 A 
HETATM    5  C5  UNL     1      -1.690  -0.726   0.191  1.00  0.00    -0.022 A 
HETATM    6  C6  UNL     1      -0.842   0.345  -0.093  1.00  0.00    -0.004 A 
HETATM    7  C7  UNL     1      -3.175  -0.538   0.139  1.00  0.00     0.031 C 
ENDROOT
BRANCH   1   8
HETATM    8  C8  UNL     1       1.354   1.196  -0.317  1.00  0.00    -0.022 C 
HETATM    9  C9  UNL     1       0.842   2.389  -0.635  1.00  0.00    -0.004 C 
HETATM   10  C10 UNL     1       2.839   1.009  -0.265  1.00  0.00     0.031 C 
ENDBRANCH   1   8
TORSDOF 1
