REMARK  1 active torsions:
REMARK  status: ('A' for Active; 'I' for Inactive)
REMARK    1  A    between atoms: C1_1  and  N1_2 
ROOT
HETATM    1  N1  UNL     1       1.166   0.728   0.383  1.00  0.00    -0.260 NA
HETATM    2  C2  UNL     1       2.247   0.104   0.383  1.00  0.00     0.158 C 
HETATM    3  S1  UNL     1       3.580  -0.665   0.383  1.00  0.00    -0.055 SA
ENDROOT
BRANCH   1   4
HETATM    4  C1  UNL     1      -0.107  -0.007   0.383  1.00  0.00     0.104 C 
HETATM    5  C3  UNL     1      -1.266   0.982   0.383  1.00  0.00     0.026 C 
HETATM    6  C4  UNL     1      -0.188  -0.881  -0.861  1.00  0.00     0.026 C 
ENDBRANCH   1   4
TORSDOF 1
