REMARK  0 active torsions:
REMARK  status: ('A' for Active; 'I' for Inactive)
ROOT
HETATM    1  C1  UNL     1      -1.421   0.528  -0.191  1.00  0.00     0.071 A 
HETATM    2  C2  UNL     1      -0.596   1.539   0.160  1.00  0.00     0.300 A 
HETATM    3  O1  UNL     1       0.688   0.977   0.341  1.00  0.00    -0.273 OA
HETATM    4  C3  UNL     1       0.581  -0.227   0.097  1.00  0.00     0.104 A 
HETATM    5  C4  UNL     1      -0.673  -0.582  -0.230  1.00  0.00     0.030 A 
HETATM    6  C5  UNL     1       1.624  -1.067   0.153  1.00  0.00     0.027 C 
HETATM    7  O2  UNL     1      -0.875   2.707   0.291  1.00  0.00    -0.259 OA
ENDROOT
TORSDOF 0
