REMARK  1 active torsions:
REMARK  status: ('A' for Active; 'I' for Inactive)
REMARK    1  A    between atoms: C3_3  and  C8_9 
ROOT
HETATM    1  C1  UNL     1       0.372  -0.610   1.312  1.00  0.00     0.001 C 
HETATM    2  C2  UNL     1      -0.857   0.276   1.496  1.00  0.00     0.011 C 
HETATM    3  C3  UNL     1      -1.333   0.861   0.169  1.00  0.00     0.076 C 
HETATM    4  C4  UNL     1      -1.576  -0.229  -0.872  1.00  0.00     0.154 C 
HETATM    5  C5  UNL     1      -0.346  -1.114  -1.056  1.00  0.00     0.065 C 
HETATM    6  C6  UNL     1       0.130  -1.699   0.271  1.00  0.00     0.007 C 
HETATM    7  C7  UNL     1       1.430  -2.457   0.038  1.00  0.00     0.000 C 
HETATM    8  O1  UNL     1      -2.612  -0.372  -1.475  1.00  0.00    -0.296 OA
ENDROOT
BRANCH   3   9
HETATM    9  C8  UNL     1      -0.290   1.803  -0.348  1.00  0.00    -0.037 C 
HETATM   10  C9  UNL     1      -0.587   3.093  -0.533  1.00  0.00    -0.009 C 
HETATM   11  C10 UNL     1       1.085   1.299  -0.658  1.00  0.00     0.027 C 
ENDBRANCH   3   9
TORSDOF 1
