REMARK  7 active torsions:
REMARK  status: ('A' for Active; 'I' for Inactive)
REMARK    1  A    between atoms: C5_5  and  O2_7 
REMARK    2  A    between atoms: O2_7  and  C6_8 
REMARK    3  A    between atoms: C7_9  and  O6_17 
REMARK    4  A    between atoms: O6_17  and  C12_18 
REMARK    5  A    between atoms: C13_19  and  C40_48 
REMARK    6  A    between atoms: C27_33  and  C30_36 
REMARK    7  A    between atoms: C33_41  and  C34_42 
ROOT
HETATM    1  C12 UNL     1      -2.374  -1.597   0.216  1.00  0.00     0.120 C 
HETATM    2  C13 UNL     1      -1.518  -2.337  -0.844  1.00  0.00     0.056 C 
HETATM    3  C14 UNL     1      -0.033  -1.856  -0.690  1.00  0.00     0.005 C 
HETATM    4  C15 UNL     1       0.273  -0.336  -0.682  1.00  0.00     0.000 C 
HETATM    5  C16 UNL     1      -0.684   0.306   0.355  1.00  0.00     0.003 C 
HETATM    6  C17 UNL     1      -2.156  -0.080   0.185  1.00  0.00     0.030 C 
HETATM    7  C18 UNL     1       1.783  -0.025  -0.331  1.00  0.00     0.000 C 
HETATM    8  C19 UNL     1       2.853  -1.146  -0.478  1.00  0.00     0.000 C 
HETATM    9  C20 UNL     1       2.380  -2.030  -1.657  1.00  0.00     0.000 C 
HETATM   10  C21 UNL     1       1.002  -2.689  -1.475  1.00  0.00     0.000 C 
HETATM   11  C22 UNL     1       4.284  -0.465  -0.741  1.00  0.00     0.000 C 
HETATM   12  C23 UNL     1       4.374   0.972  -0.110  1.00  0.00     0.001 C 
HETATM   13  C24 UNL     1       3.558   1.071   1.184  1.00  0.00     0.000 C 
HETATM   14  C25 UNL     1       2.062   0.794   0.947  1.00  0.00     0.000 C 
HETATM   15  C26 UNL     1       5.818   1.507  -0.021  1.00  0.00     0.013 C 
HETATM   16  C27 UNL     1       6.845   0.575   0.641  1.00  0.00     0.079 C 
HETATM   17  C28 UNL     1       6.861  -0.717  -0.192  1.00  0.00     0.010 C 
HETATM   18  C29 UNL     1       5.455  -1.349  -0.211  1.00  0.00     0.001 C 
HETATM   19  C31 UNL     1       8.113   1.446   0.539  1.00  0.00     0.011 C 
HETATM   20  C32 UNL     1       7.626   2.874   0.861  1.00  0.00     0.005 C 
HETATM   21  C33 UNL     1       6.118   2.921   0.510  1.00  0.00     0.019 C 
HETATM   22  C37 UNL     1       4.533  -0.290  -2.268  1.00  0.00     0.000 C 
HETATM   23  C38 UNL     1       2.884  -2.073   0.769  1.00  0.00     0.000 C 
HETATM   24  C39 UNL     1      -0.031   0.312  -2.060  1.00  0.00     0.000 C 
HETATM   25  C41 UNL     1      -1.561  -3.855  -0.502  1.00  0.00     0.005 C 
ENDROOT
BRANCH   1  26
HETATM   26  O6  UNL     1      -3.739  -1.869   0.029  1.00  0.00    -0.332 OA
BRANCH  26  27
HETATM   27  C7  UNL     1      -4.516  -1.731   1.208  1.00  0.00     0.266 C 
HETATM   28  C6  UNL     1      -5.848  -1.077   0.892  1.00  0.00     0.207 C 
HETATM   29  C10 UNL     1      -6.697  -1.081   2.158  1.00  0.00     0.217 C 
HETATM   30  C9  UNL     1      -6.747  -2.463   2.787  1.00  0.00     0.212 C 
HETATM   31  O4  UNL     1      -6.151  -0.163   3.076  1.00  0.00    -0.218 OA
HETATM   32  C8  UNL     1      -5.396  -3.170   2.846  1.00  0.00     0.151 C 
HETATM   33  O5  UNL     1      -7.649  -3.246   2.038  1.00  0.00    -0.218 OA
HETATM   34  O3  UNL     1      -4.694  -3.062   1.638  1.00  0.00    -0.329 OA
HETATM   35  C11 UNL     1      -4.523  -2.782   4.043  1.00  0.00     0.035 C 
BRANCH  28  36
HETATM   36  O2  UNL     1      -5.597   0.248   0.508  1.00  0.00    -0.324 OA
BRANCH  36  37
HETATM   37  C5  UNL     1      -6.609   0.865  -0.256  1.00  0.00     0.270 C 
HETATM   38  C4  UNL     1      -6.523   2.371  -0.107  1.00  0.00     0.241 C 
HETATM   39  C3  UNL     1      -5.291   2.962  -0.767  1.00  0.00     0.220 C 
HETATM   40  O10 UNL     1      -7.666   2.960  -0.686  1.00  0.00    -0.215 OA
HETATM   41  C2  UNL     1      -5.138   2.406  -2.168  1.00  0.00     0.215 C 
HETATM   42  O11 UNL     1      -4.138   2.647  -0.024  1.00  0.00    -0.218 OA
HETATM   43  C1  UNL     1      -5.291   0.897  -2.219  1.00  0.00     0.181 C 
HETATM   44  O12 UNL     1      -3.855   2.758  -2.634  1.00  0.00    -0.218 OA
HETATM   45  O1  UNL     1      -6.474   0.459  -1.600  1.00  0.00    -0.326 OA
ENDBRANCH  36  37
ENDBRANCH  28  36
ENDBRANCH  26  27
ENDBRANCH   1  26
BRANCH   2  46
HETATM   46  C40 UNL     1      -2.099  -2.143  -2.260  1.00  0.00     0.184 C 
HETATM   47  O9  UNL     1      -3.106  -3.090  -2.563  1.00  0.00    -0.221 OA
ENDBRANCH   2  46
BRANCH  16  48
HETATM   48  C30 UNL     1       6.611   0.342   2.133  1.00  0.00     0.184 C 
HETATM   49  O7  UNL     1       7.112  -0.832   2.562  1.00  0.00    -0.647 OA
HETATM   50  O8  UNL     1       6.119   1.107   2.928  1.00  0.00    -0.647 OA
ENDBRANCH  16  48
BRANCH  21  51
HETATM   51  C34 UNL     1       5.721   4.002  -0.476  1.00  0.00    -0.044 C 
HETATM   52  C35 UNL     1       4.447   4.754  -0.173  1.00  0.00     0.026 C 
HETATM   53  C36 UNL     1       6.424   4.250  -1.593  1.00  0.00    -0.009 C 
ENDBRANCH  21  51
TORSDOF 7
