REMARK  1 active torsions:
REMARK  status: ('A' for Active; 'I' for Inactive)
REMARK    1  A    between atoms: C13_16  and  C16_21 
ROOT
HETATM    1  C1  UNL     1      -3.506  -0.169   0.356  1.00  0.00     0.001 C 
HETATM    2  C2  UNL     1      -3.253  -1.163   1.396  1.00  0.00     0.000 C 
HETATM    3  C3  UNL     1      -2.381  -2.183   0.675  1.00  0.00     0.003 C 
HETATM    4  C4  UNL     1      -0.997  -1.592   0.441  1.00  0.00     0.043 C 
HETATM    5  C5  UNL     1      -1.125  -0.298  -0.350  1.00  0.00     0.101 C 
HETATM    6  C6  UNL     1      -2.186   0.587   0.291  1.00  0.00     0.014 C 
HETATM    7  C7  UNL     1       0.189   0.419  -0.350  1.00  0.00     0.012 A 
HETATM    8  C8  UNL     1       1.347  -0.249  -0.350  1.00  0.00     0.015 A 
HETATM    9  C9  UNL     1       1.384  -1.746  -0.350  1.00  0.00     0.351 C 
HETATM   10  C10 UNL     1      -0.203  -2.510  -0.479  1.00  0.00     0.166 C 
HETATM   11  O1  UNL     1      -0.705  -2.226  -1.757  1.00  0.00    -0.301 OA
HETATM   12  C11 UNL     1      -1.647  -0.742  -1.695  1.00  0.00     0.275 C 
HETATM   13  O2  UNL     1      -2.437  -0.248  -2.463  1.00  0.00    -0.264 OA
HETATM   14  N1  UNL     1       1.995  -2.182   0.876  1.00  0.00     0.623 N 
HETATM   15  C12 UNL     1       2.505   0.419  -0.362  1.00  0.00    -0.005 A 
HETATM   16  C13 UNL     1       2.505   1.756  -0.362  1.00  0.00     0.005 A 
HETATM   17  C14 UNL     1       1.347   2.425  -0.339  1.00  0.00     0.152 A 
HETATM   18  C15 UNL     1       0.189   1.756  -0.339  1.00  0.00     0.152 A 
HETATM   19  O3  UNL     1      -0.984   2.433  -0.328  1.00  0.00    -0.188 OA
HETATM   20  O4  UNL     1       1.347   3.779  -0.315  1.00  0.00    -0.188 OA
HETATM   21  C19 UNL     1      -2.259  -3.439   1.529  1.00  0.00     0.000 C 
HETATM   22  C20 UNL     1      -3.016  -2.537  -0.663  1.00  0.00     0.000 C 
ENDROOT
BRANCH  16  23
HETATM   23  C16 UNL     1       3.801   2.505  -0.389  1.00  0.00     0.024 C 
HETATM   24  C17 UNL     1       3.856   3.380  -1.634  1.00  0.00     0.005 C 
HETATM   25  C18 UNL     1       3.906   3.380   0.853  1.00  0.00     0.005 C 
ENDBRANCH  16  23
TORSDOF 1
