REMARK  2 active torsions:
REMARK  status: ('A' for Active; 'I' for Inactive)
REMARK    1  A    between atoms: C2_2  and  C29_35 
REMARK    2  A    between atoms: C11_13  and  C12_14 
ROOT
HETATM    1  C1  UNL     1       1.477   4.545  -1.346  1.00  0.00     0.128 A 
HETATM    2  C2  UNL     1       2.012   3.301  -1.014  1.00  0.00     0.042 A 
HETATM    3  C3  UNL     1       1.163   2.231  -0.730  1.00  0.00     0.056 A 
HETATM    4  C4  UNL     1      -0.220   2.405  -0.778  1.00  0.00    -0.010 A 
HETATM    5  C5  UNL     1      -0.754   3.650  -1.111  1.00  0.00     0.122 A 
HETATM    6  C6  UNL     1       0.094   4.720  -1.395  1.00  0.00     0.028 A 
HETATM    7  C7  UNL     1      -0.480   6.056  -1.752  1.00  0.00     0.035 C 
HETATM    8  O1  UNL     1      -2.098   3.819  -1.158  1.00  0.00    -0.191 OA
HETATM    9  C8  UNL     1      -1.130   1.256  -0.474  1.00  0.00     0.049 A 
HETATM   10  C9  UNL     1      -0.314   0.044  -0.150  1.00  0.00    -0.013 A 
HETATM   11  C10 UNL     1      -0.948  -1.156   0.169  1.00  0.00     0.092 A 
HETATM   12  O2  UNL     1      -2.318  -1.125   0.151  1.00  0.00    -0.329 OA
HETATM   13  C11 UNL     1      -2.941  -2.412   0.130  1.00  0.00     0.151 C 
HETATM   14  C18 UNL     1      -2.358  -3.336   1.183  1.00  0.00     0.104 C 
HETATM   15  C19 UNL     1      -0.889  -3.576   0.869  1.00  0.00     0.180 C 
HETATM   16  C20 UNL     1      -0.198  -2.289   0.509  1.00  0.00     0.078 A 
HETATM   17  C21 UNL     1       1.206  -2.210   0.483  1.00  0.00     0.095 A 
HETATM   18  C22 UNL     1       1.845  -1.009   0.143  1.00  0.00     0.004 A 
HETATM   19  C23 UNL     1       1.079   0.118  -0.167  1.00  0.00     0.053 A 
HETATM   20  O3  UNL     1       1.690   1.285  -0.486  1.00  0.00     0.000 OA
HETATM   21  C24 UNL     1       3.298  -0.942   0.100  1.00  0.00    -0.004 C 
HETATM   22  C25 UNL     1       3.981  -2.018   0.498  1.00  0.00     0.001 C 
HETATM   23  C26 UNL     1       3.310  -3.269   0.972  1.00  0.00     0.117 C 
HETATM   24  O4  UNL     1       1.895  -3.359   0.773  1.00  0.00    -0.332 OA
HETATM   25  C27 UNL     1       3.953  -4.441   0.242  1.00  0.00     0.035 C 
HETATM   26  C28 UNL     1       3.502  -3.276   2.483  1.00  0.00     0.035 C 
HETATM   27  O5  UNL     1      -0.350  -4.657   0.902  1.00  0.00    -0.291 OA
HETATM   28  O6  UNL     1       1.683   1.021  -0.407  1.00  0.00     0.000 OA
HETATM   29  O8  UNL     1       2.301   5.585  -1.622  1.00  0.00    -0.191 OA
ENDROOT
BRANCH  13  30
HETATM   30  C12 UNL     1      -4.406  -2.246   0.388  1.00  0.00     0.005 A 
HETATM   31  C13 UNL     1      -5.333  -2.647  -0.574  1.00  0.00    -0.002 A 
HETATM   32  C14 UNL     1      -6.699  -2.492  -0.333  1.00  0.00    -0.000 A 
HETATM   33  C15 UNL     1      -7.136  -1.936   0.869  1.00  0.00    -0.000 A 
HETATM   34  C16 UNL     1      -6.209  -1.535   1.830  1.00  0.00    -0.000 A 
HETATM   35  C17 UNL     1      -4.844  -1.690   1.590  1.00  0.00    -0.002 A 
ENDBRANCH  13  30
BRANCH   2  36
HETATM   36  C29 UNL     1       3.352   3.132  -0.966  1.00  0.00     0.172 C 
HETATM   37  O7  UNL     1       3.821   2.019  -0.998  1.00  0.00    -0.292 OA
HETATM   38  C30 UNL     1       4.261   4.333  -0.874  1.00  0.00     0.077 C 
ENDBRANCH   2  36
TORSDOF 2
