REMARK  2 active torsions:
REMARK  status: ('A' for Active; 'I' for Inactive)
REMARK    1  A    between atoms: C10_10  and  C12_12 
REMARK    2  A    between atoms: C12_12  and  C13_13 
ROOT
HETATM    1  C1  UNL     1      -3.112   0.646   0.216  1.00  0.00     0.070 C 
HETATM    2  C2  UNL     1      -3.179  -0.704   0.888  1.00  0.00     0.172 C 
HETATM    3  C3  UNL     1      -2.021  -1.399   0.888  1.00  0.00     0.029 C 
HETATM    4  C4  UNL     1      -0.880  -0.703   0.888  1.00  0.00    -0.041 C 
HETATM    5  C5  UNL     1      -0.880   0.794   0.888  1.00  0.00     0.019 C 
HETATM    6  C6  UNL     1      -2.287   1.302   1.174  1.00  0.00     0.012 C 
HETATM    7  C7  UNL     1      -0.424   1.302  -0.474  1.00  0.00     0.004 C 
HETATM    8  C8  UNL     1       1.045   1.696  -0.403  1.00  0.00     0.001 C 
HETATM    9  C9  UNL     1       1.842   0.586   0.274  1.00  0.00     0.005 C 
HETATM   10  C10 UNL     1       1.331  -0.767  -0.203  1.00  0.00     0.032 C 
HETATM   11  C11 UNL     1       0.452  -1.387   0.875  1.00  0.00     0.027 C 
HETATM   12  C15 UNL     1      -1.256   2.515  -0.867  1.00  0.00     0.000 C 
HETATM   13  O3  UNL     1      -4.192  -1.130   1.389  1.00  0.00    -0.291 OA
ENDROOT
BRANCH  10  14
HETATM   14  C12 UNL     1       2.493  -1.670  -0.479  1.00  0.00     0.042 C 
HETATM   15  C14 UNL     1       3.349  -1.975   0.501  1.00  0.00     0.002 C 
BRANCH  14  16
HETATM   16  C13 UNL     1       2.675  -2.176  -1.718  1.00  0.00     0.207 C 
HETATM   17  O1  UNL     1       1.818  -1.871  -2.699  1.00  0.00    -0.644 OA
HETATM   18  O2  UNL     1       3.613  -2.905  -1.940  1.00  0.00    -0.644 OA
ENDBRANCH  14  16
ENDBRANCH  10  14
TORSDOF 2
