REMARK  2 active torsions:
REMARK  status: ('A' for Active; 'I' for Inactive)
REMARK    1  A    between atoms: C16_18  and  C18_21 
REMARK    2  A    between atoms: C18_21  and  O2_22 
ROOT
HETATM    1  C1  UNL     1       6.360   0.987   0.049  1.00  0.00     0.000 A 
HETATM    2  C2  UNL     1       6.264  -0.367   0.364  1.00  0.00     0.002 A 
HETATM    3  C3  UNL     1       5.024  -0.964   0.609  1.00  0.00     0.019 A 
HETATM    4  C4  UNL     1       3.885  -0.154   0.526  1.00  0.00     0.081 A 
HETATM    5  C5  UNL     1       3.951   1.207   0.213  1.00  0.00     0.015 A 
HETATM    6  C6  UNL     1       5.213   1.785  -0.030  1.00  0.00     0.001 A 
HETATM    7  C7  UNL     1       2.619   1.695   0.223  1.00  0.00    -0.003 A 
HETATM    8  C8  UNL     1       1.780   0.641   0.523  1.00  0.00     0.086 A 
HETATM    9  N1  UNL     1       2.556  -0.470   0.714  1.00  0.00    -0.248 NA
HETATM   10  C9  UNL     1       0.291   0.727   0.681  1.00  0.00     0.259 C 
HETATM   11  N2  UNL     1      -0.198   1.969   0.024  1.00  0.00     0.145 N 
HETATM   12  C10 UNL     1       0.599   3.149   0.433  1.00  0.00     0.256 C 
HETATM   13  C11 UNL     1       2.072   3.055  -0.041  1.00  0.00     0.063 C 
HETATM   14  C12 UNL     1      -1.626   2.166   0.283  1.00  0.00     0.273 C 
HETATM   15  C13 UNL     1      -2.436   1.002  -0.289  1.00  0.00    -0.013 C 
HETATM   16  C14 UNL     1      -1.951  -0.342   0.246  1.00  0.00     0.034 C 
HETATM   17  C15 UNL     1      -0.439  -0.483   0.082  1.00  0.00     0.044 C 
HETATM   18  C16 UNL     1      -2.642  -1.462  -0.521  1.00  0.00     0.120 C 
HETATM   19  C17 UNL     1      -4.150  -1.339  -0.349  1.00  0.00     0.153 C 
HETATM   20  O1  UNL     1      -4.578  -0.100  -0.846  1.00  0.00    -0.349 OA
HETATM   21  C20 UNL     1      -3.446   1.144  -1.154  1.00  0.00    -0.001 C 
HETATM   22  C21 UNL     1      -4.177  -0.062  -1.656  1.00  0.00     0.168 C 
ENDROOT
BRANCH  18  23
HETATM   23  C18 UNL     1      -2.181  -2.795   0.014  1.00  0.00     0.274 C 
HETATM   24  O3  UNL     1      -2.982  -3.567   0.484  1.00  0.00    -0.264 OA
BRANCH  23  25
HETATM   25  O2  UNL     1      -0.884  -3.123  -0.033  1.00  0.00    -0.299 OA
HETATM   26  C19 UNL     1      -0.456  -4.362   0.464  1.00  0.00     0.184 C 
ENDBRANCH  23  25
ENDBRANCH  18  23
TORSDOF 2
