REMARK  2 active torsions:
REMARK  status: ('A' for Active; 'I' for Inactive)
REMARK    1  A    between atoms: C1_1  and  O3_10 
REMARK    2  A    between atoms: C4_4  and  C7_7 
ROOT
HETATM    1  C1  UNL     1       0.666   0.647  -0.168  1.00  0.00     0.119 A 
HETATM    2  C2  UNL     1       1.201  -0.598   0.165  1.00  0.00     0.153 A 
HETATM    3  C3  UNL     1       0.352  -1.668   0.449  1.00  0.00     0.033 A 
HETATM    4  C4  UNL     1      -1.031  -1.494   0.400  1.00  0.00     0.044 A 
HETATM    5  C5  UNL     1      -1.565  -0.249   0.068  1.00  0.00     0.005 A 
HETATM    6  C6  UNL     1      -0.717   0.821  -0.216  1.00  0.00     0.026 A 
HETATM    7  O2  UNL     1       2.544  -0.767   0.212  1.00  0.00    -0.188 OA
ENDROOT
BRANCH   1   8
HETATM    8  O3  UNL     1       1.490   1.686  -0.444  1.00  0.00    -0.326 OA
HETATM    9  C8  UNL     1       0.953   2.937  -0.778  1.00  0.00     0.181 C 
ENDBRANCH   1   8
BRANCH   4  10
HETATM   10  C7  UNL     1      -1.852  -2.530   0.675  1.00  0.00     0.234 C 
HETATM   11  O1  UNL     1      -1.718  -3.579   0.090  1.00  0.00    -0.283 OA
ENDBRANCH   4  10
TORSDOF 2
