REMARK  14 active torsions:
REMARK  status: ('A' for Active; 'I' for Inactive)
REMARK    1  A    between atoms: C1_1  and  O1_3 
REMARK    2  A    between atoms: O1_3  and  C3_4 
REMARK    3  A    between atoms: C5_6  and  O18_58 
REMARK    4  A    between atoms: O2_10  and  C9_11 
REMARK    5  A    between atoms: C14_17  and  C25_33 
REMARK    6  A    between atoms: O4_18  and  C18_25 
REMARK    7  A    between atoms: O4_18  and  C19_26 
REMARK    8  A    between atoms: C15_19  and  C25_33 
REMARK    9  A    between atoms: O11_41  and  C30_42 
REMARK   10  A    between atoms: C30_42  and  C31_44 
REMARK   11  A    between atoms: O14_49  and  C35_50 
REMARK   12  A    between atoms: C37_53  and  O16_54 
REMARK   13  A    between atoms: O16_54  and  C38_55 
REMARK   14  A    between atoms: O18_58  and  C40_59 
ROOT
HETATM    1  C3  UNL     1      -0.937  -2.506  -1.238  1.00  0.00     0.122 A 
HETATM    2  C4  UNL     1      -0.404  -1.519  -2.268  1.00  0.00     0.055 C 
HETATM    3  C5  UNL     1       0.928  -0.956  -1.791  1.00  0.00     0.127 C 
HETATM    4  C6  UNL     1       0.538   0.067  -0.733  1.00  0.00     0.036 A 
HETATM    5  C7  UNL     1       0.104  -0.655   0.536  1.00  0.00     0.046 A 
HETATM    6  C8  UNL     1      -0.967  -1.682   0.195  1.00  0.00     0.052 A 
HETATM    7  O2  UNL     1      -2.194  -1.005   0.238  1.00  0.00     0.000 OA
HETATM    8  C11 UNL     1      -0.458   0.355   1.528  1.00  0.00     0.007 C 
HETATM    9  C12 UNL     1       0.451   1.563   1.620  1.00  0.00     0.030 C 
HETATM   10  C13 UNL     1       1.824   1.186   1.078  1.00  0.00     0.127 C 
HETATM   11  C14 UNL     1       1.732   0.961  -0.425  1.00  0.00     0.050 A 
HETATM   12  O4  UNL     1       1.572   2.193  -1.073  1.00  0.00     0.000 OA
HETATM   13  C15 UNL     1       3.008   0.290  -0.917  1.00  0.00     0.010 A 
HETATM   14  O5  UNL     1       2.675   2.280   1.289  1.00  0.00    -0.302 OA
HETATM   15  C16 UNL     1       3.024   2.819   0.115  1.00  0.00     0.297 C 
HETATM   16  O6  UNL     1       3.994   3.506  -0.099  1.00  0.00    -0.262 OA
HETATM   17  C17 UNL     1       1.978   2.405  -0.891  1.00  0.00     0.176 A 
HETATM   18  O7  UNL     1       1.615   3.506  -1.680  1.00  0.00    -0.219 OA
HETATM   19  C18 UNL     1       2.522   1.316  -1.807  1.00  0.00     0.040 A 
HETATM   20  C19 UNL     1       0.766   1.897  -0.121  1.00  0.00     0.037 A 
HETATM   21  C20 UNL     1      -0.506   2.405  -0.787  1.00  0.00     0.003 C 
HETATM   22  C21 UNL     1       0.766   0.401  -0.121  1.00  0.00     0.019 A 
HETATM   23  C22 UNL     1      -0.392  -0.268  -0.121  1.00  0.00     0.053 A 
HETATM   24  C23 UNL     1      -0.392  -1.605  -0.121  1.00  0.00     0.092 A 
HETATM   25  N1  UNL     1       0.700  -2.235  -0.121  1.00  0.00    -0.298 NA
HETATM   26  C24 UNL     1       1.924  -1.605  -0.107  1.00  0.00     0.126 C 
HETATM   27  C25 UNL     1       1.924  -0.268  -0.110  1.00  0.00     0.029 A 
HETATM   28  C26 UNL     1      -1.562   0.407  -0.133  1.00  0.00     0.184 A 
HETATM   29  O8  UNL     1      -1.541   1.577   0.169  1.00  0.00    -0.221 OA
HETATM   30  O9  UNL     1      -2.741  -0.134  -0.458  1.00  0.00     0.000 OA
HETATM   31  C27 UNL     1      -2.683  -0.665  -1.754  1.00  0.00     0.000 C 
HETATM   32  C28 UNL     1      -1.318  -0.302  -2.326  1.00  0.00     0.005 C 
HETATM   33  O10 UNL     1      -0.596   0.694  -1.269  1.00  0.00     0.000 OA
HETATM   34  C29 UNL     1      -1.516   0.255  -3.729  1.00  0.00     0.000 C 
HETATM   35  O11 UNL     1      -0.083   2.612   0.859  1.00  0.00     0.000 OA
HETATM   36  O14 UNL     1      -1.729   0.764   1.101  1.00  0.00     0.000 OA
HETATM   37  C37 UNL     1       1.305  -1.360   1.155  1.00  0.00     0.148 C 
ENDROOT
BRANCH  35  38
HETATM   38  C30 UNL     1      -0.394   3.774   1.447  1.00  0.00     0.236 C 
HETATM   39  O12 UNL     1      -0.854   4.678   0.791  1.00  0.00    -0.283 OA
BRANCH  38  40
HETATM   40  C31 UNL     1      -0.192   3.935   2.773  1.00  0.00     0.069 A 
HETATM   41  C32 UNL     1       0.321   3.007   3.650  1.00  0.00     0.126 A 
HETATM   42  O13 UNL     1       0.379   3.522   4.905  1.00  0.00    -0.303 OA
HETATM   43  C33 UNL     1      -0.101   4.791   4.832  1.00  0.00     0.123 A 
HETATM   44  C34 UNL     1      -0.465   5.093   3.540  1.00  0.00     0.032 A 
ENDBRANCH  38  40
ENDBRANCH  35  38
BRANCH  36  45
HETATM   45  C35 UNL     1      -2.796   0.553   1.880  1.00  0.00     0.208 C 
HETATM   46  C36 UNL     1      -4.164   0.994   1.421  1.00  0.00     0.081 C 
HETATM   47  O15 UNL     1      -2.664   0.011   2.951  1.00  0.00    -0.288 OA
ENDBRANCH  36  45
BRANCH  37  48
HETATM   48  O16 UNL     1       0.906  -2.025   2.323  1.00  0.00    -0.302 OA
BRANCH  48  49
HETATM   49  C38 UNL     1       1.802  -2.717   3.037  1.00  0.00     0.272 C 
HETATM   50  C39 UNL     1       1.373  -3.432   4.295  1.00  0.00     0.106 C 
HETATM   51  O17 UNL     1       2.953  -2.768   2.676  1.00  0.00    -0.264 OA
ENDBRANCH  48  49
ENDBRANCH  37  48
BRANCH   3  52
HETATM   52  O18 UNL     1       1.617  -0.343  -2.846  1.00  0.00    -0.304 OA
BRANCH  52  53
HETATM   53  C40 UNL     1       2.847  -0.756  -3.173  1.00  0.00     0.272 C 
HETATM   54  C41 UNL     1       3.588  -0.096  -4.310  1.00  0.00     0.106 C 
HETATM   55  O19 UNL     1       3.364  -1.659  -2.559  1.00  0.00    -0.264 OA
ENDBRANCH  52  53
ENDBRANCH   3  52
BRANCH   1  56
HETATM   56  O1  UNL     1      -2.227  -2.928  -1.588  1.00  0.00    -0.305 OA
BRANCH  56  57
HETATM   57  C1  UNL     1      -2.479  -4.229  -1.774  1.00  0.00     0.272 C 
HETATM   58  C2  UNL     1      -3.868  -4.682  -2.150  1.00  0.00     0.106 C 
HETATM   59  O20 UNL     1      -1.594  -5.040  -1.642  1.00  0.00    -0.264 OA
ENDBRANCH  56  57
ENDBRANCH   1  56
BRANCH   7  60
HETATM   60  C9  UNL     1      -3.106  -1.331   1.161  1.00  0.00     0.208 C 
HETATM   61  O3  UNL     1      -4.163  -0.748   1.198  1.00  0.00    -0.288 OA
HETATM   62  C10 UNL     1      -2.814  -2.427   2.156  1.00  0.00     0.081 C 
ENDBRANCH   7  60
TORSDOF 14
