REMARK  0 active torsions:
REMARK  status: ('A' for Active; 'I' for Inactive)
ROOT
HETATM    1  C1  UNL     1      -0.150   1.983  -1.156  1.00  0.00     0.022 C 
HETATM    2  C2  UNL     1       0.682   1.944   0.109  1.00  0.00    -0.044 C 
HETATM    3  C3  UNL     1       1.414   0.664   0.486  1.00  0.00     0.027 C 
HETATM    4  C4  UNL     1       0.555  -0.599   0.728  1.00  0.00     0.053 C 
HETATM    5  C5  UNL     1      -0.660  -0.760  -0.205  1.00  0.00     0.133 C 
HETATM    6  C6  UNL     1      -1.725   0.338   0.012  1.00  0.00     0.056 C 
HETATM    7  C7  UNL     1      -1.604   1.522  -0.955  1.00  0.00     0.011 C 
HETATM    8  C8  UNL     1      -2.979  -0.471  -0.119  1.00  0.00     0.043 C 
HETATM    9  C9  UNL     1      -2.623  -1.879  -0.065  1.00  0.00     0.292 C 
HETATM   10  O1  UNL     1      -1.303  -2.027   0.019  1.00  0.00    -0.301 OA
HETATM   11  O2  UNL     1      -3.432  -2.777  -0.082  1.00  0.00    -0.260 OA
HETATM   12  C10 UNL     1      -4.217   0.037  -0.264  1.00  0.00     0.001 C 
HETATM   13  C11 UNL     1       1.557  -1.711   0.549  1.00  0.00    -0.012 C 
HETATM   14  C12 UNL     1       2.824  -1.217  -0.086  1.00  0.00     0.171 C 
HETATM   15  C13 UNL     1       2.465   0.201  -0.539  1.00  0.00     0.042 C 
HETATM   16  O3  UNL     1       3.865  -1.172   0.869  1.00  0.00    -0.219 OA
HETATM   17  C14 UNL     1       1.348  -2.988   0.914  1.00  0.00    -0.007 C 
HETATM   18  C15 UNL     1       0.769   3.037   0.887  1.00  0.00    -0.009 C 
ENDROOT
TORSDOF 0
