REMARK  0 active torsions:
REMARK  status: ('A' for Active; 'I' for Inactive)
ROOT
HETATM    1  C1  UNL     1       3.231  -1.307   0.107  1.00  0.00     0.065 C 
HETATM    2  C2  UNL     1       3.190   0.229   0.078  1.00  0.00     0.008 C 
HETATM    3  C3  UNL     1       1.932   0.773  -0.629  1.00  0.00     0.001 C 
HETATM    4  C4  UNL     1       0.627   0.195  -0.018  1.00  0.00     0.011 C 
HETATM    5  C5  UNL     1       0.686  -1.365  -0.078  1.00  0.00     0.063 C 
HETATM    6  C6  UNL     1       1.932  -1.877   0.613  1.00  0.00     0.150 C 
HETATM    7  O1  UNL     1       1.895  -2.684   1.514  1.00  0.00    -0.296 OA
HETATM    8  C7  UNL     1      -0.607  -2.049   0.443  1.00  0.00     0.071 C 
HETATM    9  C8  UNL     1      -1.812  -1.555  -0.363  1.00  0.00     0.242 C 
HETATM   10  C9  UNL     1      -1.830  -0.055  -0.394  1.00  0.00     0.011 C 
HETATM   11  C10 UNL     1      -0.603   0.725  -0.797  1.00  0.00     0.027 C 
HETATM   12  C11 UNL     1      -3.021   0.381   0.014  1.00  0.00     0.038 C 
HETATM   13  C12 UNL     1      -3.801  -0.785   0.402  1.00  0.00     0.293 C 
HETATM   14  O2  UNL     1      -3.066  -1.900   0.256  1.00  0.00    -0.271 OA
HETATM   15  O3  UNL     1      -4.937  -0.730   0.809  1.00  0.00    -0.259 OA
HETATM   16  C13 UNL     1      -3.477   1.815   0.078  1.00  0.00     0.036 C 
HETATM   17  O4  UNL     1      -1.775  -2.074  -1.682  1.00  0.00    -0.191 OA
HETATM   18  C14 UNL     1       0.504   0.647   1.449  1.00  0.00     0.001 C 
HETATM   19  C15 UNL     1       1.942   2.309  -0.635  1.00  0.00     0.000 C 
ENDROOT
TORSDOF 0
