REMARK  0 active torsions:
REMARK  status: ('A' for Active; 'I' for Inactive)
ROOT
HETATM    1  C1  UNL     1      -4.039   0.326   1.148  1.00  0.00     0.117 C 
HETATM    2  C2  UNL     1      -4.240  -0.760   0.107  1.00  0.00     0.001 C 
HETATM    3  C3  UNL     1      -3.201  -1.238  -0.600  1.00  0.00     0.002 C 
HETATM    4  C4  UNL     1      -1.828  -0.762  -0.303  1.00  0.00     0.048 A 
HETATM    5  C5  UNL     1      -1.635   0.076   0.820  1.00  0.00     0.098 A 
HETATM    6  O1  UNL     1      -2.676   0.438   1.602  1.00  0.00    -0.331 OA
HETATM    7  C6  UNL     1      -0.334   0.529   1.139  1.00  0.00     0.049 A 
HETATM    8  C7  UNL     1       0.769   0.152   0.336  1.00  0.00     0.107 A 
HETATM    9  C8  UNL     1       0.574  -0.689  -0.797  1.00  0.00     0.087 A 
HETATM   10  C9  UNL     1      -0.734  -1.148  -1.117  1.00  0.00     0.138 A 
HETATM   11  O2  UNL     1      -0.940  -1.941  -2.178  1.00  0.00    -0.190 OA
HETATM   12  C10 UNL     1       1.752  -1.088  -1.643  1.00  0.00     0.201 A 
HETATM   13  C11 UNL     1       3.066  -0.529  -1.178  1.00  0.00     0.064 A 
HETATM   14  C12 UNL     1       3.121   0.307  -0.027  1.00  0.00     0.130 A 
HETATM   15  O3  UNL     1       2.000   0.604   0.662  1.00  0.00    -0.305 OA
HETATM   16  C13 UNL     1       4.363   0.832   0.402  1.00  0.00     0.179 A 
HETATM   17  C14 UNL     1       5.549   0.523  -0.309  1.00  0.00     0.158 A 
HETATM   18  C15 UNL     1       5.494  -0.309  -1.449  1.00  0.00     0.030 A 
HETATM   19  C16 UNL     1       4.256  -0.834  -1.885  1.00  0.00     0.007 A 
HETATM   20  O4  UNL     1       6.725   1.021   0.100  1.00  0.00    -0.188 OA
HETATM   21  O5  UNL     1       4.418   1.623   1.484  1.00  0.00    -0.186 OA
HETATM   22  O6  UNL     1       1.656  -1.799  -2.619  1.00  0.00    -0.286 OA
HETATM   23  C17 UNL     1      -4.910   0.043   2.375  1.00  0.00     0.035 C 
HETATM   24  C18 UNL     1      -4.434   1.670   0.531  1.00  0.00     0.035 C 
ENDROOT
TORSDOF 0
