REMARK  4 active torsions:
REMARK  status: ('A' for Active; 'I' for Inactive)
REMARK    1  A    between atoms: C11_12  and  O2_14 
REMARK    2  A    between atoms: O2_14  and  C13_15 
REMARK    3  A    between atoms: C13_15  and  C14_17 
REMARK    4  A    between atoms: C15_18  and  S1_19 
ROOT
HETATM    1  C1  UNL     1       4.764  -2.037   0.475  1.00  0.00     0.026 C 
HETATM    2  C2  UNL     1       3.277  -2.213   0.318  1.00  0.00    -0.045 C 
HETATM    3  C3  UNL     1       2.346  -1.297   0.652  1.00  0.00     0.005 C 
HETATM    4  C4  UNL     1       2.723   0.074   1.041  1.00  0.00     0.169 C 
HETATM    5  O1  UNL     1       3.813   0.517   0.758  1.00  0.00    -0.292 OA
HETATM    6  C5  UNL     1       1.736   0.924   1.803  1.00  0.00     0.069 C 
HETATM    7  C6  UNL     1       0.248   0.580   1.584  1.00  0.00     0.010 C 
HETATM    8  C7  UNL     1      -0.043  -0.947   1.609  1.00  0.00     0.005 C 
HETATM    9  C8  UNL     1       0.887  -1.695   0.617  1.00  0.00     0.029 C 
HETATM   10  C9  UNL     1      -1.527  -1.240   1.201  1.00  0.00     0.003 C 
HETATM   11  C10 UNL     1      -2.424   0.006   1.262  1.00  0.00     0.030 C 
HETATM   12  C11 UNL     1      -1.899   1.129   0.342  1.00  0.00     0.125 C 
HETATM   13  C12 UNL     1      -0.359   1.236   0.334  1.00  0.00     0.031 C 
HETATM   14  C17 UNL     1      -2.152  -2.416   1.965  1.00  0.00     0.000 C 
HETATM   15  C18 UNL     1       0.246  -1.449   3.035  1.00  0.00     0.000 C 
HETATM   16  C19 UNL     1       2.820  -3.526  -0.262  1.00  0.00     0.026 C 
ENDROOT
BRANCH  12  17
HETATM   17  O2  UNL     1      -2.352   0.896  -0.986  1.00  0.00    -0.301 OA
BRANCH  17  18
HETATM   18  C13 UNL     1      -2.211   1.967  -1.762  1.00  0.00     0.296 C 
HETATM   19  O3  UNL     1      -1.807   3.035  -1.369  1.00  0.00    -0.259 OA
BRANCH  18  20
HETATM   20  C14 UNL     1      -2.584   1.785  -3.172  1.00  0.00     0.075 C 
HETATM   21  C15 UNL     1      -2.481   2.803  -4.043  1.00  0.00     0.036 C 
BRANCH  21  22
HETATM   22  S1  UNL     1      -1.928   4.334  -3.600  1.00  0.00    -0.112 SA
HETATM   23  C16 UNL     1      -2.008   5.219  -5.107  1.00  0.00     0.074 C 
ENDBRANCH  21  22
ENDBRANCH  18  20
ENDBRANCH  17  18
ENDBRANCH  12  17
TORSDOF 4
