REMARK  0 active torsions:
REMARK  status: ('A' for Active; 'I' for Inactive)
ROOT
HETATM    1  C1  UNL     1       3.020  -0.662   0.371  1.00  0.00     0.044 C 
HETATM    2  C2  UNL     1       3.323   0.469   1.380  1.00  0.00     0.025 C 
HETATM    3  C3  UNL     1       2.648   1.637   0.709  1.00  0.00    -0.028 C 
HETATM    4  C4  UNL     1       1.768   1.247  -0.216  1.00  0.00     0.005 C 
HETATM    5  C5  UNL     1       1.667  -0.255  -0.241  1.00  0.00     0.171 A 
HETATM    6  C6  UNL     1       1.337  -0.898  -1.572  1.00  0.00     0.199 A 
HETATM    7  C7  UNL     1       0.119  -1.698  -1.332  1.00  0.00     0.034 A 
HETATM    8  C8  UNL     1      -0.229  -1.555  -0.034  1.00  0.00     0.071 A 
HETATM    9  C9  UNL     1      -1.397  -2.149   0.704  1.00  0.00     0.055 C 
HETATM   10  C10 UNL     1      -2.606  -1.187   0.814  1.00  0.00     0.025 C 
HETATM   11  C11 UNL     1      -2.072   0.202   1.134  1.00  0.00    -0.023 C 
HETATM   12  C12 UNL     1      -1.614   1.036   0.181  1.00  0.00     0.037 C 
HETATM   13  C13 UNL     1      -0.888   2.301   0.453  1.00  0.00     0.191 C 
HETATM   14  C14 UNL     1      -0.148   2.778  -0.790  1.00  0.00     0.017 C 
HETATM   15  C15 UNL     1       1.033   2.231  -1.093  1.00  0.00    -0.003 C 
HETATM   16  C16 UNL     1      -0.830   3.803  -1.656  1.00  0.00     0.034 C 
HETATM   17  O1  UNL     1      -0.898   2.916   1.503  1.00  0.00    -0.287 OA
HETATM   18  C17 UNL     1      -3.514  -1.658   1.969  1.00  0.00     0.005 C 
HETATM   19  C18 UNL     1      -3.447  -1.235  -0.480  1.00  0.00     0.005 C 
HETATM   20  O2  UNL     1       0.642  -0.716   0.631  1.00  0.00    -0.329 OA
HETATM   21  C19 UNL     1      -0.572  -2.504  -2.390  1.00  0.00     0.036 C 
HETATM   22  O3  UNL     1       1.959  -0.799  -2.621  1.00  0.00    -0.289 OA
HETATM   23  C20 UNL     1       4.818   0.688   1.622  1.00  0.00     0.005 C 
ENDROOT
TORSDOF 0
