REMARK  1 active torsions:
REMARK  status: ('A' for Active; 'I' for Inactive)
REMARK    1  A    between atoms: C4_4  and  C9_9 
ROOT
HETATM    1  C1  UNL     1      -0.397  -1.016   0.068  1.00  0.00     0.000 C 
HETATM    2  C2  UNL     1      -0.707   0.291  -0.709  1.00  0.00     0.000 C 
HETATM    3  C3  UNL     1       0.076   1.535  -0.225  1.00  0.00     0.003 C 
HETATM    4  C4  UNL     1       1.539   1.119   0.090  1.00  0.00     0.033 C 
HETATM    5  C5  UNL     1       1.652  -0.215   0.881  1.00  0.00     0.003 C 
HETATM    6  C6  UNL     1       0.305  -0.727   1.404  1.00  0.00     0.000 C 
HETATM    7  C7  UNL     1       2.000  -1.455   0.049  1.00  0.00     0.000 C 
HETATM    8  C8  UNL     1       0.686  -1.865  -0.619  1.00  0.00     0.000 C 
HETATM    9  C10 UNL     1      -0.574   2.162   1.019  1.00  0.00     0.000 C 
HETATM   10  C11 UNL     1       0.002   2.572  -1.356  1.00  0.00     0.000 C 
HETATM   11  C12 UNL     1      -2.236   0.443  -0.641  1.00  0.00     0.000 C 
HETATM   12  C13 UNL     1      -2.686  -0.539   0.434  1.00  0.00     0.000 C 
HETATM   13  C14 UNL     1      -1.758  -1.713   0.164  1.00  0.00     0.000 C 
HETATM   14  C15 UNL     1      -1.871  -2.773   1.254  1.00  0.00     0.000 C 
ENDROOT
BRANCH   4  15
HETATM   15  C9  UNL     1       2.424   1.094  -1.166  1.00  0.00     0.182 C 
HETATM   16  O1  UNL     1       3.760   0.895  -0.762  1.00  0.00    -0.221 OA
ENDBRANCH   4  15
TORSDOF 1
