REMARK  2 active torsions:
REMARK  status: ('A' for Active; 'I' for Inactive)
REMARK    1  A    between atoms: C7_7  and  O3_12 
REMARK    2  A    between atoms: C8_9  and  O2_10 
ROOT
HETATM    1  C1  UNL     1      -1.721   1.980   0.002  1.00  0.00     0.155 C 
HETATM    2  C2  UNL     1      -2.762   0.859   0.090  1.00  0.00     0.064 C 
HETATM    3  C3  UNL     1      -2.025  -0.305   0.787  1.00  0.00     0.134 C 
HETATM    4  C4  UNL     1      -0.555   0.164   0.891  1.00  0.00     0.087 C 
HETATM    5  C5  UNL     1      -0.438   1.189  -0.234  1.00  0.00     0.043 C 
HETATM    6  C6  UNL     1       0.883   1.939  -0.039  1.00  0.00     0.064 C 
HETATM    7  C7  UNL     1       2.070   0.949  -0.010  1.00  0.00     0.237 C 
HETATM    8  O1  UNL     1       1.855  -0.098   0.941  1.00  0.00    -0.306 OA
HETATM    9  C8  UNL     1       0.627  -0.824   0.840  1.00  0.00     0.240 C 
HETATM   10  O4  UNL     1      -2.555  -0.502   2.086  1.00  0.00    -0.226 OA
HETATM   11  C11 UNL     1      -2.264  -1.602   0.016  1.00  0.00     0.033 C 
HETATM   12  O5  UNL     1      -1.994   2.850  -1.078  1.00  0.00    -0.223 OA
ENDROOT
BRANCH   9  13
HETATM   13  O2  UNL     1       0.594  -1.647  -0.311  1.00  0.00    -0.328 OA
HETATM   14  C9  UNL     1       1.402  -2.795  -0.199  1.00  0.00     0.177 C 
ENDBRANCH   9  13
BRANCH   7  15
HETATM   15  O3  UNL     1       2.334   0.465  -1.313  1.00  0.00    -0.328 OA
HETATM   16  C10 UNL     1       3.598  -0.150  -1.432  1.00  0.00     0.177 C 
ENDBRANCH   7  15
TORSDOF 2
