REMARK  0 active torsions:
REMARK  status: ('A' for Active; 'I' for Inactive)
ROOT
HETATM    1  C1  UNL     1       0.891  -1.982  -0.457  1.00  0.00     0.004 C 
HETATM    2  C2  UNL     1      -0.293  -1.920  -1.428  1.00  0.00     0.022 C 
HETATM    3  C3  UNL     1      -1.172  -0.758  -1.041  1.00  0.00    -0.045 C 
HETATM    4  C4  UNL     1      -0.482   0.604  -1.021  1.00  0.00     0.021 C 
HETATM    5  C5  UNL     1       0.723   0.574  -0.031  1.00  0.00     0.004 C 
HETATM    6  C6  UNL     1       1.654  -0.639  -0.348  1.00  0.00     0.001 C 
HETATM    7  C7  UNL     1       2.895  -0.736   0.602  1.00  0.00     0.000 C 
HETATM    8  C8  UNL     1       3.352   0.658   1.088  1.00  0.00     0.000 C 
HETATM    9  C9  UNL     1       3.047   1.750   0.065  1.00  0.00     0.000 C 
HETATM   10  C10 UNL     1       1.533   1.897  -0.168  1.00  0.00     0.000 C 
HETATM   11  C11 UNL     1       4.043  -1.406  -0.164  1.00  0.00     0.000 C 
HETATM   12  C12 UNL     1       2.602  -1.598   1.840  1.00  0.00     0.000 C 
HETATM   13  C13 UNL     1       0.207   0.439   1.410  1.00  0.00     0.000 C 
HETATM   14  C14 UNL     1      -1.451   1.820  -0.851  1.00  0.00     0.039 C 
HETATM   15  C15 UNL     1      -2.568   1.498   0.137  1.00  0.00     0.147 C 
HETATM   16  C16 UNL     1      -3.252   0.238  -0.299  1.00  0.00     0.006 C 
HETATM   17  C17 UNL     1      -2.473  -0.926  -0.721  1.00  0.00    -0.011 C 
HETATM   18  C18 UNL     1      -4.570   0.422  -0.254  1.00  0.00     0.040 C 
HETATM   19  C19 UNL     1      -4.799   1.826   0.063  1.00  0.00     0.292 C 
HETATM   20  O1  UNL     1      -3.625   2.475   0.160  1.00  0.00    -0.297 OA
HETATM   21  O2  UNL     1      -5.897   2.313   0.203  1.00  0.00    -0.260 OA
HETATM   22  C20 UNL     1      -5.629  -0.619  -0.510  1.00  0.00     0.036 C 
ENDROOT
TORSDOF 0
