REMARK  6 active torsions:
REMARK  status: ('A' for Active; 'I' for Inactive)
REMARK    1  A    between atoms: C2_2  and  O5_35 
REMARK    2  A    between atoms: C21_24  and  C23_26 
REMARK    3  A    between atoms: O5_35  and  C31_36 
REMARK    4  A    between atoms: C32_38  and  C42_55 
REMARK    5  A    between atoms: C35_41  and  O7_42 
REMARK    6  A    between atoms: O7_42  and  C36_43 
ROOT
HETATM    1  C1  UNL     1      -2.045   0.371  -1.705  1.00  0.00     0.030 C 
HETATM    2  C2  UNL     1      -2.547   0.551  -0.268  1.00  0.00     0.118 C 
HETATM    3  C3  UNL     1      -1.688  -0.223   0.764  1.00  0.00     0.025 C 
HETATM    4  C4  UNL     1      -0.197   0.195   0.592  1.00  0.00     0.002 C 
HETATM    5  C5  UNL     1       0.357   0.033  -0.859  1.00  0.00     0.000 C 
HETATM    6  C6  UNL     1      -0.574   0.791  -1.834  1.00  0.00     0.003 C 
HETATM    7  C7  UNL     1       1.811   0.611  -0.922  1.00  0.00     0.000 C 
HETATM    8  C8  UNL     1       2.754  -0.021   0.148  1.00  0.00     0.002 C 
HETATM    9  C9  UNL     1       2.145   0.133   1.557  1.00  0.00     0.000 C 
HETATM   10  C10 UNL     1       0.734  -0.461   1.631  1.00  0.00     0.000 C 
HETATM   11  C11 UNL     1       4.135   0.680   0.047  1.00  0.00     0.033 C 
HETATM   12  C12 UNL     1       4.723   0.492  -1.377  1.00  0.00     0.010 C 
HETATM   13  C13 UNL     1       3.842   1.180  -2.418  1.00  0.00     0.000 C 
HETATM   14  C14 UNL     1       2.434   0.564  -2.344  1.00  0.00     0.000 C 
HETATM   15  C15 UNL     1       6.170   1.014  -1.244  1.00  0.00     0.079 C 
HETATM   16  C16 UNL     1       6.229   1.215   0.271  1.00  0.00     0.189 C 
HETATM   17  O1  UNL     1       5.565   2.406   0.609  1.00  0.00    -0.335 OA
HETATM   18  C17 UNL     1       4.184   2.168   0.494  1.00  0.00     0.145 C 
HETATM   19  C18 UNL     1       5.315   0.137   0.865  1.00  0.00     0.059 C 
HETATM   20  O2  UNL     1       7.584   1.131   0.643  1.00  0.00    -0.335 OA
HETATM   21  C19 UNL     1       8.283   0.258  -0.221  1.00  0.00     0.145 C 
HETATM   22  C20 UNL     1       7.404   0.109  -1.475  1.00  0.00     0.122 C 
HETATM   23  O3  UNL     1       7.090  -1.270  -1.500  1.00  0.00    -0.356 OA
HETATM   24  C21 UNL     1       8.090  -2.014  -0.848  1.00  0.00     0.145 C 
HETATM   25  C22 UNL     1       8.402  -1.154   0.373  1.00  0.00     0.064 C 
HETATM   26  C26 UNL     1       8.149   0.449  -2.762  1.00  0.00     0.032 C 
HETATM   27  C27 UNL     1       3.004  -1.518  -0.113  1.00  0.00     0.000 C 
HETATM   28  C28 UNL     1       0.371  -1.447  -1.277  1.00  0.00     0.000 C 
HETATM   29  C29 UNL     1      -1.848  -1.740   0.592  1.00  0.00     0.002 C 
HETATM   30  C30 UNL     1      -2.162   0.137   2.178  1.00  0.00     0.002 C 
ENDROOT
BRANCH   2  31
HETATM   31  O5  UNL     1      -3.904   0.145  -0.199  1.00  0.00    -0.332 OA
BRANCH  31  32
HETATM   32  C31 UNL     1      -4.766   0.949  -0.981  1.00  0.00     0.267 C 
HETATM   33  O6  UNL     1      -4.977   0.301  -2.229  1.00  0.00    -0.326 OA
HETATM   34  C32 UNL     1      -5.789   1.018  -3.149  1.00  0.00     0.184 C 
HETATM   35  C33 UNL     1      -7.197   1.209  -2.545  1.00  0.00     0.215 C 
HETATM   36  C34 UNL     1      -7.129   1.895  -1.162  1.00  0.00     0.217 C 
HETATM   37  O13 UNL     1      -7.969   1.998  -3.434  1.00  0.00    -0.218 OA
HETATM   38  C35 UNL     1      -6.121   1.152  -0.256  1.00  0.00     0.207 C 
HETATM   39  O12 UNL     1      -8.412   1.891  -0.559  1.00  0.00    -0.218 OA
BRANCH  34  40
HETATM   40  C42 UNL     1      -5.801   0.207  -4.449  1.00  0.00     0.214 C 
HETATM   41  O14 UNL     1      -4.506   0.246  -5.004  1.00  0.00    -0.218 OA
ENDBRANCH  34  40
BRANCH  38  42
HETATM   42  O7  UNL     1      -5.910   1.906   0.928  1.00  0.00    -0.324 OA
BRANCH  42  43
HETATM   43  C36 UNL     1      -6.680   1.449   2.023  1.00  0.00     0.270 C 
HETATM   44  O8  UNL     1      -6.108   0.240   2.500  1.00  0.00    -0.329 OA
HETATM   45  C37 UNL     1      -6.805  -0.373   3.576  1.00  0.00     0.151 C 
HETATM   46  C38 UNL     1      -6.811   0.584   4.791  1.00  0.00     0.212 C 
HETATM   47  C41 UNL     1      -6.096  -1.699   3.865  1.00  0.00     0.035 C 
HETATM   48  C39 UNL     1      -7.399   1.963   4.418  1.00  0.00     0.220 C 
HETATM   49  O11 UNL     1      -7.582  -0.002   5.826  1.00  0.00    -0.218 OA
HETATM   50  C40 UNL     1      -6.695   2.510   3.154  1.00  0.00     0.241 C 
HETATM   51  O10 UNL     1      -7.223   2.867   5.496  1.00  0.00    -0.218 OA
HETATM   52  O9  UNL     1      -7.377   3.670   2.703  1.00  0.00    -0.215 OA
ENDBRANCH  42  43
ENDBRANCH  38  42
ENDBRANCH  31  32
ENDBRANCH   2  31
BRANCH  24  53
HETATM   53  C23 UNL     1       7.549  -3.397  -0.512  1.00  0.00     0.152 C 
HETATM   54  C24 UNL     1       7.223  -4.145  -1.805  1.00  0.00     0.035 C 
HETATM   55  O4  UNL     1       6.356  -3.246   0.225  1.00  0.00    -0.224 OA
HETATM   56  C25 UNL     1       8.559  -4.141   0.361  1.00  0.00     0.035 C 
ENDBRANCH  24  53
TORSDOF 6
