REMARK  10 active torsions:
REMARK  status: ('A' for Active; 'I' for Inactive)
REMARK    1  A    between atoms: C16_16  and  C36_41 
REMARK    2  A    between atoms: C20_21  and  O2_26 
REMARK    3  A    between atoms: O2_26  and  C25_27 
REMARK    4  A    between atoms: C25_27  and  C26_29 
REMARK    5  A    between atoms: C26_29  and  C35_39 
REMARK    6  A    between atoms: C27_30  and  C28_31 
REMARK    7  A    between atoms: C28_31  and  C29_32 
REMARK    8  A    between atoms: C29_32  and  C30_33 
REMARK    9  A    between atoms: C30_33  and  O4_35 
REMARK   10  A    between atoms: C30_33  and  C33_37 
ROOT
HETATM    1  C1  UNL     1      -8.059  -0.967  -1.686  1.00  0.00     0.033 C 
HETATM    2  C2  UNL     1      -8.785  -0.551  -0.381  1.00  0.00     0.152 C 
HETATM    3  C3  UNL     1      -8.024   0.523   0.436  1.00  0.00     0.028 C 
HETATM    4  C4  UNL     1      -6.514   0.158   0.676  1.00  0.00     0.002 C 
HETATM    5  C5  UNL     1      -5.924  -0.939  -0.250  1.00  0.00     0.001 C 
HETATM    6  C6  UNL     1      -6.526  -0.775  -1.658  1.00  0.00     0.003 C 
HETATM    7  C7  UNL     1      -4.358  -0.873  -0.223  1.00  0.00     0.005 C 
HETATM    8  C8  UNL     1      -3.748  -0.295   1.090  1.00  0.00     0.004 C 
HETATM    9  C9  UNL     1      -4.660  -0.672   2.283  1.00  0.00     0.000 C 
HETATM   10  C10 UNL     1      -6.098  -0.111   2.145  1.00  0.00     0.000 C 
HETATM   11  C11 UNL     1      -2.285  -0.842   1.213  1.00  0.00     0.017 C 
HETATM   12  C12 UNL     1      -1.512  -0.633  -0.100  1.00  0.00    -0.049 C 
HETATM   13  C13 UNL     1      -2.141  -0.309  -1.264  1.00  0.00    -0.035 C 
HETATM   14  C14 UNL     1      -3.647  -0.209  -1.412  1.00  0.00     0.025 C 
HETATM   15  C15 UNL     1       0.004  -0.838  -0.045  1.00  0.00     0.030 C 
HETATM   16  C16 UNL     1       0.666  -0.057   1.121  1.00  0.00     0.112 C 
HETATM   17  C17 UNL     1      -0.029  -0.404   2.465  1.00  0.00     0.162 C 
HETATM   18  C18 UNL     1      -1.551  -0.168   2.410  1.00  0.00     0.037 C 
HETATM   19  O1  UNL     1       0.215  -1.750   2.836  1.00  0.00    -0.223 OA
HETATM   20  C19 UNL     1       2.184  -0.359   1.188  1.00  0.00     0.043 C 
HETATM   21  C20 UNL     1       2.900  -0.125  -0.152  1.00  0.00     0.125 C 
HETATM   22  C21 UNL     1       2.266  -0.934  -1.299  1.00  0.00     0.026 C 
HETATM   23  C22 UNL     1       0.760  -0.611  -1.381  1.00  0.00     0.007 C 
HETATM   24  C23 UNL     1       2.936  -0.562  -2.627  1.00  0.00     0.002 C 
HETATM   25  C24 UNL     1       2.463  -2.438  -1.070  1.00  0.00     0.002 C 
HETATM   26  C37 UNL     1      -2.320  -2.361   1.455  1.00  0.00     0.004 C 
HETATM   27  C38 UNL     1      -3.684   1.248   1.029  1.00  0.00     0.000 C 
HETATM   28  C39 UNL     1      -6.313  -2.340   0.266  1.00  0.00     0.000 C 
HETATM   29  C40 UNL     1      -8.754   0.820   1.756  1.00  0.00     0.003 C 
HETATM   30  C41 UNL     1      -8.104   1.824  -0.383  1.00  0.00     0.003 C 
HETATM   31  O8  UNL     1      -9.045  -1.691   0.420  1.00  0.00    -0.224 OA
ENDROOT
BRANCH  21  32
HETATM   32  O2  UNL     1       4.271  -0.478  -0.016  1.00  0.00    -0.301 OA
BRANCH  32  33
HETATM   33  C25 UNL     1       4.947   0.397   0.725  1.00  0.00     0.294 C 
HETATM   34  O3  UNL     1       4.504   1.461   1.084  1.00  0.00    -0.259 OA
BRANCH  33  35
HETATM   35  C26 UNL     1       6.309  -0.006   1.098  1.00  0.00     0.070 C 
HETATM   36  C27 UNL     1       7.266  -0.277   0.195  1.00  0.00    -0.022 C 
BRANCH  36  37
HETATM   37  C28 UNL     1       6.926  -0.164  -1.268  1.00  0.00     0.029 C 
BRANCH  37  38
HETATM   38  C29 UNL     1       8.160   0.094  -2.133  1.00  0.00     0.036 C 
BRANCH  38  39
HETATM   39  C30 UNL     1       8.584   1.565  -2.133  1.00  0.00     0.112 C 
HETATM   40  C31 UNL     1       9.854   1.813  -2.947  1.00  0.00     0.034 C 
BRANCH  39  41
HETATM   41  O4  UNL     1       7.541   2.324  -2.699  1.00  0.00    -0.352 OA
HETATM   42  C32 UNL     1       7.898   3.668  -2.936  1.00  0.00     0.175 C 
ENDBRANCH  39  41
BRANCH  39  43
HETATM   43  C33 UNL     1       8.672   2.135  -0.744  1.00  0.00     0.000 C 
HETATM   44  C34 UNL     1       9.879   2.223  -0.162  1.00  0.00    -0.003 C 
ENDBRANCH  39  43
ENDBRANCH  38  39
ENDBRANCH  37  38
ENDBRANCH  36  37
BRANCH  35  45
HETATM   45  C35 UNL     1       6.648  -0.117   2.561  1.00  0.00     0.214 C 
HETATM   46  O5  UNL     1       6.518  -1.459   2.971  1.00  0.00    -0.215 OA
ENDBRANCH  35  45
ENDBRANCH  33  35
ENDBRANCH  32  33
ENDBRANCH  21  32
BRANCH  16  47
HETATM   47  C36 UNL     1       0.502   1.432   0.885  1.00  0.00     0.187 C 
HETATM   48  O6  UNL     1       1.090   2.217   1.783  1.00  0.00    -0.647 OA
HETATM   49  O7  UNL     1      -0.125   1.846  -0.064  1.00  0.00    -0.647 OA
ENDBRANCH  16  47
TORSDOF 10
