REMARK  32 active torsions:
REMARK  status: ('A' for Active; 'I' for Inactive)
REMARK    1  A    between atoms: C2_2  and  C27_30 
REMARK    2  A    between atoms: C5_6  and  C6_7 
REMARK    3  A    between atoms: C6_7  and  C7_8 
REMARK    4  A    between atoms: C7_8  and  C8_9 
REMARK    5  A    between atoms: C8_9  and  C9_10 
REMARK    6  A    between atoms: C9_10  and  C10_11 
REMARK    7  A    between atoms: C10_11  and  C11_12 
REMARK    8  A    between atoms: C11_12  and  C12_13 
REMARK    9  A    between atoms: C12_13  and  C13_14 
REMARK   10  A    between atoms: C13_14  and  C14_15 
REMARK   11  A    between atoms: C14_15  and  C15_16 
REMARK   12  A    between atoms: C15_16  and  C16_17 
REMARK   13  A    between atoms: C16_17  and  C17_18 
REMARK   14  A    between atoms: C17_18  and  C18_19 
REMARK   15  A    between atoms: C27_30  and  C28_31 
REMARK   16  A    between atoms: C28_31  and  C29_32 
REMARK   17  A    between atoms: C29_32  and  C30_33 
REMARK   18  A    between atoms: C30_33  and  C31_34 
REMARK   19  A    between atoms: C31_34  and  C32_35 
REMARK   20  A    between atoms: C32_35  and  C33_36 
REMARK   21  A    between atoms: C33_36  and  C34_37 
REMARK   22  A    between atoms: C34_37  and  C35_38 
REMARK   23  A    between atoms: C35_38  and  C36_39 
REMARK   24  A    between atoms: C36_39  and  C37_40 
REMARK   25  A    between atoms: C37_40  and  C38_41 
REMARK   26  A    between atoms: C38_41  and  C39_42 
REMARK   27  A    between atoms: C39_42  and  C40_43 
REMARK   28  A    between atoms: C40_43  and  C41_44 
REMARK   29  A    between atoms: C41_44  and  C42_45 
REMARK   30  A    between atoms: C42_45  and  C43_46 
REMARK   31  A    between atoms: C43_46  and  C44_47 
REMARK   32  A    between atoms: C44_47  and  C45_48 
ROOT
HETATM    1  C1  UNL     1      -8.453   1.998   3.000  1.00  0.00    -0.031 C 
HETATM    2  C2  UNL     1      -8.574   3.316   3.230  1.00  0.00    -0.015 C 
HETATM    3  C3  UNL     1      -9.959   3.922   3.281  1.00  0.00     0.272 C 
HETATM    4  N1  UNL     1     -10.901   3.076   4.047  1.00  0.00     0.139 N 
HETATM    5  C4  UNL     1     -10.758   1.609   3.900  1.00  0.00     0.224 C 
HETATM    6  C5  UNL     1      -9.721   1.195   2.834  1.00  0.00     0.053 C 
HETATM    7  C24 UNL     1     -12.156   1.064   3.574  1.00  0.00     0.036 C 
HETATM    8  C25 UNL     1     -12.836   2.258   2.914  1.00  0.00     0.037 C 
HETATM    9  C26 UNL     1     -12.305   3.387   3.787  1.00  0.00     0.251 C 
ENDROOT
BRANCH   2  10
HETATM   10  C27 UNL     1      -7.367   4.197   3.434  1.00  0.00     0.024 C 
BRANCH  10  11
HETATM   11  C28 UNL     1      -6.080   3.549   2.922  1.00  0.00     0.004 C 
BRANCH  11  12
HETATM   12  C29 UNL     1      -4.898   4.520   2.904  1.00  0.00     0.000 C 
BRANCH  12  13
HETATM   13  C30 UNL     1      -3.609   3.869   2.404  1.00  0.00     0.000 C 
BRANCH  13  14
HETATM   14  C31 UNL     1      -2.428   4.840   2.385  1.00  0.00     0.000 C 
BRANCH  14  15
HETATM   15  C32 UNL     1      -1.137   4.189   1.885  1.00  0.00     0.000 C 
BRANCH  15  16
HETATM   16  C33 UNL     1       0.043   5.160   1.865  1.00  0.00     0.000 C 
BRANCH  16  17
HETATM   17  C34 UNL     1       1.334   4.508   1.365  1.00  0.00     0.000 C 
BRANCH  17  18
HETATM   18  C35 UNL     1       2.516   5.479   1.346  1.00  0.00     0.000 C 
BRANCH  18  19
HETATM   19  C36 UNL     1       3.805   4.828   0.848  1.00  0.00     0.000 C 
BRANCH  19  20
HETATM   20  C37 UNL     1       4.986   5.799   0.828  1.00  0.00     0.000 C 
BRANCH  20  21
HETATM   21  C38 UNL     1       6.277   5.148   0.328  1.00  0.00     0.000 C 
BRANCH  21  22
HETATM   22  C39 UNL     1       7.459   6.119   0.309  1.00  0.00     0.000 C 
BRANCH  22  23
HETATM   23  C40 UNL     1       8.748   5.469  -0.191  1.00  0.00     0.000 C 
BRANCH  23  24
HETATM   24  C41 UNL     1       9.930   6.438  -0.211  1.00  0.00     0.000 C 
BRANCH  24  25
HETATM   25  C42 UNL     1      11.221   5.787  -0.711  1.00  0.00     0.000 C 
BRANCH  25  26
HETATM   26  C43 UNL     1      12.401   6.758  -0.729  1.00  0.00     0.002 C 
BRANCH  26  27
HETATM   27  C44 UNL     1      13.692   6.109  -1.232  1.00  0.00     0.036 C 
BRANCH  27  28
HETATM   28  C45 UNL     1      14.897   7.049  -1.154  1.00  0.00     0.257 C 
HETATM   29  C46 UNL     1      16.219   6.273  -1.277  1.00  0.00     0.039 C 
HETATM   30  C47 UNL     1      17.426   7.217  -1.277  1.00  0.00     0.037 C 
HETATM   31  C48 UNL     1      17.250   8.303  -2.352  1.00  0.00     0.186 C 
HETATM   32  C49 UNL     1      15.899   9.037  -2.201  1.00  0.00     0.286 C 
HETATM   33  O2  UNL     1      18.313   9.231  -2.238  1.00  0.00    -0.221 OA
HETATM   34  N3  UNL     1      14.795   8.066  -2.209  1.00  0.00     0.337 N 
HETATM   35  C50 UNL     1      15.672  10.063  -3.318  1.00  0.00     0.041 C 
ENDBRANCH  27  28
ENDBRANCH  26  27
ENDBRANCH  25  26
ENDBRANCH  24  25
ENDBRANCH  23  24
ENDBRANCH  22  23
ENDBRANCH  21  22
ENDBRANCH  20  21
ENDBRANCH  19  20
ENDBRANCH  18  19
ENDBRANCH  17  18
ENDBRANCH  16  17
ENDBRANCH  15  16
ENDBRANCH  14  15
ENDBRANCH  13  14
ENDBRANCH  12  13
ENDBRANCH  11  12
ENDBRANCH  10  11
ENDBRANCH   2  10
BRANCH   6  36
HETATM   36  C6  UNL     1      -9.445  -0.309   2.941  1.00  0.00     0.006 C 
BRANCH  36  37
HETATM   37  C7  UNL     1      -8.654  -0.852   1.750  1.00  0.00     0.000 C 
BRANCH  37  38
HETATM   38  C8  UNL     1      -8.410  -2.357   1.840  1.00  0.00     0.000 C 
BRANCH  38  39
HETATM   39  C9  UNL     1      -7.619  -2.899   0.648  1.00  0.00     0.000 C 
BRANCH  39  40
HETATM   40  C10 UNL     1      -7.375  -4.406   0.738  1.00  0.00     0.000 C 
BRANCH  40  41
HETATM   41  C11 UNL     1      -6.584  -4.947  -0.451  1.00  0.00     0.000 C 
BRANCH  41  42
HETATM   42  C12 UNL     1      -6.340  -6.455  -0.363  1.00  0.00     0.000 C 
BRANCH  42  43
HETATM   43  C13 UNL     1      -5.549  -6.996  -1.553  1.00  0.00     0.000 C 
BRANCH  43  44
HETATM   44  C14 UNL     1      -5.305  -8.504  -1.463  1.00  0.00     0.000 C 
BRANCH  44  45
HETATM   45  C15 UNL     1      -4.514  -9.045  -2.654  1.00  0.00     0.000 C 
BRANCH  45  46
HETATM   46  C16 UNL     1      -4.270 -10.551  -2.565  1.00  0.00     0.002 C 
BRANCH  46  47
HETATM   47  C17 UNL     1      -3.475 -11.092  -3.752  1.00  0.00     0.036 C 
BRANCH  47  48
HETATM   48  C18 UNL     1      -3.320 -12.615  -3.717  1.00  0.00     0.257 C 
HETATM   49  C19 UNL     1      -2.885 -13.164  -5.086  1.00  0.00     0.039 C 
HETATM   50  C20 UNL     1      -2.652 -14.680  -5.037  1.00  0.00     0.037 C 
HETATM   51  C21 UNL     1      -1.684 -15.030  -3.897  1.00  0.00     0.186 C 
HETATM   52  C22 UNL     1      -2.150 -14.438  -2.549  1.00  0.00     0.286 C 
HETATM   53  O1  UNL     1      -1.594 -16.438  -3.795  1.00  0.00    -0.221 OA
HETATM   54  N2  UNL     1      -2.350 -12.987  -2.678  1.00  0.00     0.337 N 
HETATM   55  C23 UNL     1      -1.146 -14.705  -1.422  1.00  0.00     0.041 C 
ENDBRANCH  47  48
ENDBRANCH  46  47
ENDBRANCH  45  46
ENDBRANCH  44  45
ENDBRANCH  43  44
ENDBRANCH  42  43
ENDBRANCH  41  42
ENDBRANCH  40  41
ENDBRANCH  39  40
ENDBRANCH  38  39
ENDBRANCH  37  38
ENDBRANCH  36  37
ENDBRANCH   6  36
TORSDOF 32
