REMARK  8 active torsions:
REMARK  status: ('A' for Active; 'I' for Inactive)
REMARK    1  A    between atoms: C3_3  and  C4_4 
REMARK    2  A    between atoms: C4_4  and  C5_5 
REMARK    3  A    between atoms: C5_5  and  C6_6 
REMARK    4  A    between atoms: C7_7  and  C8_8 
REMARK    5  A    between atoms: C8_8  and  C9_9 
REMARK    6  A    between atoms: C9_9  and  C10_10 
REMARK    7  A    between atoms: C11_11  and  C12_12 
REMARK    8  A    between atoms: C12_12  and  O2_14 
ROOT
HETATM    1  C6  UNL     1      -0.816  -1.947   0.783  1.00  0.00    -0.048 C 
HETATM    2  C7  UNL     1      -1.137  -1.242  -0.314  1.00  0.00    -0.034 C 
HETATM    3  C15 UNL     1      -0.801  -1.240   2.111  1.00  0.00     0.026 C 
ENDROOT
BRANCH   2   4
HETATM    4  C8  UNL     1      -1.461   0.219  -0.160  1.00  0.00     0.030 C 
BRANCH   4   5
HETATM    5  C9  UNL     1      -1.408   0.973  -1.490  1.00  0.00     0.027 C 
BRANCH   5   6
HETATM    6  C10 UNL     1      -1.770   2.426  -1.342  1.00  0.00    -0.038 C 
HETATM    7  C11 UNL     1      -2.918   2.984  -1.758  1.00  0.00     0.060 C 
HETATM    8  C14 UNL     1      -0.746   3.301  -0.670  1.00  0.00     0.026 C 
BRANCH   7   9
HETATM    9  C12 UNL     1      -3.166   4.418  -1.561  1.00  0.00     0.295 C 
HETATM   10  O1  UNL     1      -4.113   4.791  -0.910  1.00  0.00    -0.259 OA
BRANCH   9  11
HETATM   11  O2  UNL     1      -2.291   5.240  -2.135  1.00  0.00    -0.296 OA
HETATM   12  C13 UNL     1      -2.596   6.606  -1.895  1.00  0.00     0.185 C 
ENDBRANCH   9  11
ENDBRANCH   7   9
ENDBRANCH   5   6
ENDBRANCH   4   5
ENDBRANCH   2   4
BRANCH   1  13
HETATM   13  C5  UNL     1      -0.469  -3.412   0.803  1.00  0.00     0.024 C 
BRANCH  13  14
HETATM   14  C4  UNL     1       0.943  -3.668   1.330  1.00  0.00     0.036 C 
BRANCH  14  15
HETATM   15  C3  UNL     1       1.961  -3.070   0.367  1.00  0.00     0.140 A 
HETATM   16  C2  UNL     1       3.490  -2.986   0.713  1.00  0.00     0.118 A 
HETATM   17  C1  UNL     1       4.473  -2.457  -0.324  1.00  0.00     0.032 C 
HETATM   18  O3  UNL     1       2.568  -1.984   0.990  1.00  0.00    -0.357 OA
HETATM   19  C16 UNL     1       4.016  -3.527   2.037  1.00  0.00     0.032 C 
ENDBRANCH  14  15
ENDBRANCH  13  14
ENDBRANCH   1  13
TORSDOF 8
