REMARK  2 active torsions:
REMARK  status: ('A' for Active; 'I' for Inactive)
REMARK    1  A    between atoms: C13_13  and  C14_14 
REMARK    2  A    between atoms: C14_14  and  C16_16 
ROOT
HETATM    1  C1  UNL     1      -3.002   0.420  -0.176  1.00  0.00     0.003 A 
HETATM    2  C2  UNL     1      -3.748   1.748   0.131  1.00  0.00     0.026 C 
HETATM    3  C3  UNL     1      -2.822   2.965   0.389  1.00  0.00     0.002 C 
HETATM    4  C4  UNL     1      -1.486   2.625   1.049  1.00  0.00     0.000 C 
HETATM    5  C5  UNL     1      -0.685   1.662   0.160  1.00  0.00     0.000 C 
HETATM    6  C6  UNL     1      -1.463   0.367  -0.162  1.00  0.00     0.000 A 
HETATM    7  C7  UNL     1      -0.687  -0.602  -1.074  1.00  0.00     0.000 C 
HETATM    8  C8  UNL     1       0.717  -0.895  -0.508  1.00  0.00     0.000 C 
HETATM    9  C9  UNL     1       1.465   0.418  -0.240  1.00  0.00     0.000 C 
HETATM   10  C10 UNL     1       0.668   1.262   0.779  1.00  0.00     0.000 C 
HETATM   11  C11 UNL     1       1.668   2.393   1.045  1.00  0.00     0.000 C 
HETATM   12  C12 UNL     1       3.035   1.691   1.064  1.00  0.00     0.000 C 
HETATM   13  C13 UNL     1       2.817   0.287   0.478  1.00  0.00     0.002 C 
HETATM   14  C22 UNL     1       0.477   0.543   2.127  1.00  0.00     0.000 C 
HETATM   15  C23 UNL     1       1.709   1.166  -1.565  1.00  0.00     0.000 C 
HETATM   16  C24 UNL     1      -2.252  -0.287   0.947  1.00  0.00     0.000 A 
HETATM   17  C25 UNL     1      -4.889   1.588   1.182  1.00  0.00     0.101 C 
HETATM   18  O3  UNL     1      -5.793   0.549   0.771  1.00  0.00    -0.307 OA
HETATM   19  C26 UNL     1      -5.383  -0.719   0.894  1.00  0.00     0.272 C 
HETATM   20  C27 UNL     1      -4.760  -1.410  -0.295  1.00  0.00     0.096 C 
HETATM   21  C28 UNL     1      -3.822  -0.500  -1.104  1.00  0.00     0.011 C 
HETATM   22  O4  UNL     1      -5.482  -1.328   1.936  1.00  0.00    -0.264 OA
HETATM   23  C29 UNL     1      -4.367   1.314   2.602  1.00  0.00     0.030 C 
HETATM   24  C30 UNL     1      -5.734   2.865   1.227  1.00  0.00     0.030 C 
ENDROOT
BRANCH  13  25
HETATM   25  C14 UNL     1       3.975  -0.168  -0.408  1.00  0.00     0.028 C 
HETATM   26  C15 UNL     1       5.291   0.002   0.350  1.00  0.00     0.003 C 
BRANCH  25  27
HETATM   27  C16 UNL     1       3.735  -1.609  -0.859  1.00  0.00     0.129 C 
HETATM   28  O1  UNL     1       3.217  -1.592  -2.195  1.00  0.00    -0.301 OA
HETATM   29  C17 UNL     1       3.117  -2.770  -2.842  1.00  0.00     0.291 C 
HETATM   30  C18 UNL     1       3.858  -3.957  -2.354  1.00  0.00     0.037 C 
HETATM   31  O2  UNL     1       2.440  -2.889  -3.834  1.00  0.00    -0.260 OA
HETATM   32  C19 UNL     1       4.764  -3.830  -1.369  1.00  0.00    -0.023 C 
HETATM   33  C21 UNL     1       3.604  -5.313  -2.961  1.00  0.00     0.036 C 
HETATM   34  C20 UNL     1       5.012  -2.465  -0.777  1.00  0.00     0.056 C 
ENDBRANCH  25  27
ENDBRANCH  13  25
TORSDOF 2
