REMARK  6 active torsions:
REMARK  status: ('A' for Active; 'I' for Inactive)
REMARK    1  A    between atoms: C2_2  and  C13_16 
REMARK    2  A    between atoms: C5_5  and  C10_12 
REMARK    3  A    between atoms: C7_7  and  O1_8 
REMARK    4  A    between atoms: C10_12  and  C11_13 
REMARK    5  A    between atoms: C15_18  and  O5_24 
REMARK    6  A    between atoms: C16_19  and  O4_22 
ROOT
HETATM    1  C1  UNL     1      -0.770  -0.920  -0.199  1.00  0.00     0.036 C 
HETATM    2  C2  UNL     1      -0.096   0.416   0.199  1.00  0.00     0.035 C 
HETATM    3  C3  UNL     1      -0.715   1.471  -0.748  1.00  0.00     0.099 C 
HETATM    4  C4  UNL     1      -1.920   2.115  -0.084  1.00  0.00     0.172 C 
HETATM    5  C5  UNL     1      -3.131   1.280   0.045  1.00  0.00     0.015 C 
HETATM    6  C6  UNL     1      -3.137   0.029  -0.463  1.00  0.00     0.002 C 
HETATM    7  C7  UNL     1      -1.893  -0.496  -1.170  1.00  0.00     0.140 C 
HETATM    8  C9  UNL     1      -1.207   0.647  -1.953  1.00  0.00     0.188 C 
HETATM    9  O2  UNL     1      -0.117   0.219  -2.760  1.00  0.00    -0.220 OA
HETATM   10  O3  UNL     1      -1.889   3.256   0.316  1.00  0.00    -0.292 OA
HETATM   11  C21 UNL     1      -1.275  -1.697   1.016  1.00  0.00     0.003 C 
ENDROOT
BRANCH   2  12
HETATM   12  C13 UNL     1       1.395   0.360   0.107  1.00  0.00    -0.020 A 
HETATM   13  C14 UNL     1       2.135  -0.299   1.106  1.00  0.00     0.022 A 
HETATM   14  C15 UNL     1       3.537  -0.355   1.023  1.00  0.00     0.116 A 
HETATM   15  C16 UNL     1       4.201   0.250  -0.061  1.00  0.00     0.116 A 
HETATM   16  C17 UNL     1       3.459   0.908  -1.057  1.00  0.00     0.026 A 
HETATM   17  C18 UNL     1       2.057   0.963  -0.975  1.00  0.00    -0.002 A 
BRANCH  14  18
HETATM   18  O5  UNL     1       4.227  -0.974   1.963  1.00  0.00    -0.326 OA
HETATM   19  C20 UNL     1       5.250  -1.871   1.557  1.00  0.00     0.181 C 
ENDBRANCH  14  18
BRANCH  15  20
HETATM   20  O4  UNL     1       5.516   0.203  -0.144  1.00  0.00    -0.326 OA
HETATM   21  C19 UNL     1       6.133   0.791  -1.279  1.00  0.00     0.181 C 
ENDBRANCH  15  20
ENDBRANCH   2  12
BRANCH   7  22
HETATM   22  O1  UNL     1      -2.254  -1.566  -2.025  1.00  0.00    -0.350 OA
HETATM   23  C8  UNL     1      -2.695  -2.709  -1.328  1.00  0.00     0.175 C 
ENDBRANCH   7  22
BRANCH   5  24
HETATM   24  C10 UNL     1      -4.356   1.819   0.738  1.00  0.00     0.055 C 
BRANCH  24  25
HETATM   25  C11 UNL     1      -4.510   1.190   2.098  1.00  0.00    -0.021 C 
HETATM   26  C12 UNL     1      -5.651   1.401   2.775  1.00  0.00    -0.005 C 
ENDBRANCH  24  25
ENDBRANCH   5  24
TORSDOF 6
