REMARK  8 active torsions:
REMARK  status: ('A' for Active; 'I' for Inactive)
REMARK    1  A    between atoms: C2_2  and  C15_19 
REMARK    2  A    between atoms: C5_5  and  C12_15 
REMARK    3  A    between atoms: C7_7  and  O1_8 
REMARK    4  A    between atoms: C9_10  and  O2_11 
REMARK    5  A    between atoms: O2_11  and  C10_12 
REMARK    6  A    between atoms: C12_15  and  C13_16 
REMARK    7  A    between atoms: C17_21  and  O6_27 
REMARK    8  A    between atoms: C18_22  and  O5_25 
ROOT
HETATM    1  C1  UNL     1      -0.935  -0.875   0.219  1.00  0.00     0.036 C 
HETATM    2  C2  UNL     1      -0.258   0.459   0.617  1.00  0.00     0.035 C 
HETATM    3  C3  UNL     1      -0.891   1.518  -0.313  1.00  0.00     0.096 C 
HETATM    4  C4  UNL     1      -2.096   2.160   0.352  1.00  0.00     0.172 C 
HETATM    5  C5  UNL     1      -3.307   1.324   0.480  1.00  0.00     0.015 C 
HETATM    6  C6  UNL     1      -3.312   0.074  -0.029  1.00  0.00     0.002 C 
HETATM    7  C7  UNL     1      -2.068  -0.449  -0.736  1.00  0.00     0.137 C 
HETATM    8  C9  UNL     1      -1.365   0.680  -1.506  1.00  0.00     0.160 C 
HETATM    9  O4  UNL     1      -2.064   3.299   0.756  1.00  0.00    -0.292 OA
HETATM   10  C23 UNL     1      -1.428  -1.658   1.434  1.00  0.00     0.003 C 
ENDROOT
BRANCH   2  11
HETATM   11  C15 UNL     1       1.231   0.404   0.502  1.00  0.00    -0.020 A 
HETATM   12  C16 UNL     1       1.992  -0.199   1.518  1.00  0.00     0.022 A 
HETATM   13  C17 UNL     1       3.393  -0.252   1.414  1.00  0.00     0.116 A 
HETATM   14  C18 UNL     1       4.035   0.301   0.289  1.00  0.00     0.116 A 
HETATM   15  C19 UNL     1       3.272   0.904  -0.725  1.00  0.00     0.026 A 
HETATM   16  C20 UNL     1       1.871   0.957  -0.619  1.00  0.00    -0.002 A 
BRANCH  13  17
HETATM   17  O6  UNL     1       4.102  -0.820   2.371  1.00  0.00    -0.326 OA
HETATM   18  C22 UNL     1       5.238  -1.584   1.994  1.00  0.00     0.181 C 
ENDBRANCH  13  17
BRANCH  14  19
HETATM   19  O5  UNL     1       5.348   0.254   0.184  1.00  0.00    -0.326 OA
HETATM   20  C21 UNL     1       5.947   0.861  -0.951  1.00  0.00     0.181 C 
ENDBRANCH  14  19
ENDBRANCH   2  11
BRANCH   7  21
HETATM   21  O1  UNL     1      -2.416  -1.506  -1.611  1.00  0.00    -0.350 OA
HETATM   22  C8  UNL     1      -2.838  -2.670  -0.938  1.00  0.00     0.175 C 
ENDBRANCH   7  21
BRANCH   8  23
HETATM   23  O2  UNL     1      -0.256   0.201  -2.264  1.00  0.00    -0.301 OA
BRANCH  23  24
HETATM   24  C10 UNL     1      -0.611  -0.201  -3.483  1.00  0.00     0.272 C 
HETATM   25  C11 UNL     1       0.488  -0.828  -4.295  1.00  0.00     0.106 C 
HETATM   26  O3  UNL     1      -1.728  -0.084  -3.930  1.00  0.00    -0.264 OA
ENDBRANCH  23  24
ENDBRANCH   8  23
BRANCH   5  27
HETATM   27  C12 UNL     1      -4.531   1.861   1.174  1.00  0.00     0.055 C 
BRANCH  27  28
HETATM   28  C13 UNL     1      -4.631   1.311   2.570  1.00  0.00    -0.021 C 
HETATM   29  C14 UNL     1      -3.613   1.527   3.418  1.00  0.00    -0.005 C 
ENDBRANCH  27  28
ENDBRANCH   5  27
TORSDOF 8
