REMARK  10 active torsions:
REMARK  status: ('A' for Active; 'I' for Inactive)
REMARK    1  A    between atoms: C8_9  and  O4_19 
REMARK    2  A    between atoms: C9_10  and  C10_12 
REMARK    3  A    between atoms: O4_19  and  C16_20 
REMARK    4  A    between atoms: C18_23  and  O8_30 
REMARK    5  A    between atoms: C19_24  and  C22_28 
REMARK    6  A    between atoms: C20_25  and  C21_26 
REMARK    7  A    between atoms: O8_30  and  C23_31 
REMARK    8  A    between atoms: C26_34  and  O11_39 
REMARK    9  A    between atoms: C27_36  and  C28_37 
REMARK   10  A    between atoms: O11_39  and  C29_40 
ROOT
HETATM    1  C16 UNL     1      -2.322  -0.660  -2.350  1.00  0.00     0.157 C 
HETATM    2  C17 UNL     1      -0.807  -0.666  -2.623  1.00  0.00     0.146 C 
HETATM    3  O5  UNL     1      -0.127  -0.074  -1.520  1.00  0.00    -0.331 OA
HETATM    4  C18 UNL     1      -0.320  -0.717  -0.264  1.00  0.00     0.243 C 
HETATM    5  C19 UNL     1      -1.822  -0.725   0.119  1.00  0.00     0.131 C 
HETATM    6  C20 UNL     1      -2.676  -1.334  -1.012  1.00  0.00     0.107 C 
HETATM    7  C35 UNL     1      -0.234  -2.066  -2.883  1.00  0.00     0.035 C 
ENDROOT
BRANCH   4   8
HETATM    8  O8  UNL     1       0.426  -0.020   0.715  1.00  0.00    -0.328 OA
BRANCH   8   9
HETATM    9  C23 UNL     1       1.828  -0.141   0.537  1.00  0.00     0.181 C 
HETATM   10  C24 UNL     1       2.437   1.281   0.391  1.00  0.00     0.217 C 
HETATM   11  C25 UNL     1       2.959   1.762   1.762  1.00  0.00     0.241 C 
HETATM   12  O17 UNL     1       3.504   1.221  -0.543  1.00  0.00    -0.218 OA
HETATM   13  C26 UNL     1       3.963   0.760   2.414  1.00  0.00     0.270 C 
HETATM   14  O16 UNL     1       3.549   3.047   1.654  1.00  0.00    -0.215 OA
HETATM   15  O9  UNL     1       3.750  -0.578   1.959  1.00  0.00    -0.326 OA
HETATM   16  C27 UNL     1       2.393  -0.941   1.746  1.00  0.00     0.181 C 
BRANCH  13  17
HETATM   17  O11 UNL     1       3.850   0.818   3.824  1.00  0.00    -0.326 OA
BRANCH  17  18
HETATM   18  C29 UNL     1       5.096   0.984   4.477  1.00  0.00     0.178 C 
HETATM   19  C30 UNL     1       4.893   1.445   5.936  1.00  0.00     0.217 C 
HETATM   20  C31 UNL     1       6.260   1.559   6.662  1.00  0.00     0.244 C 
HETATM   21  O15 UNL     1       4.225   2.693   5.984  1.00  0.00    -0.218 OA
HETATM   22  C32 UNL     1       7.350   0.637   6.021  1.00  0.00     0.303 C 
HETATM   23  O14 UNL     1       6.047   1.264   8.035  1.00  0.00    -0.215 OA
HETATM   24  O12 UNL     1       6.740  -0.543   5.520  1.00  0.00    -0.327 OA
HETATM   25  O13 UNL     1       8.393   0.313   6.922  1.00  0.00    -0.187 OA
HETATM   26  C33 UNL     1       5.887  -0.354   4.393  1.00  0.00     0.148 C 
HETATM   27  C34 UNL     1       6.746  -0.447   3.125  1.00  0.00     0.035 C 
ENDBRANCH  17  18
ENDBRANCH  13  17
BRANCH  16  28
HETATM   28  C28 UNL     1       2.357  -2.453   1.512  1.00  0.00     0.214 C 
HETATM   29  O10 UNL     1       2.773  -3.092   2.697  1.00  0.00    -0.218 OA
ENDBRANCH  16  28
ENDBRANCH   8   9
ENDBRANCH   4   8
BRANCH   5  30
HETATM   30  C22 UNL     1      -2.055  -1.459   1.422  1.00  0.00     0.212 C 
HETATM   31  O7  UNL     1      -2.668  -2.500   1.447  1.00  0.00    -0.288 OA
ENDBRANCH   5  30
BRANCH   6  32
HETATM   32  C21 UNL     1      -4.154  -1.232  -0.727  1.00  0.00     0.210 C 
HETATM   33  O6  UNL     1      -4.754  -0.199  -0.910  1.00  0.00    -0.288 OA
ENDBRANCH   6  32
BRANCH   1  34
HETATM   34  O4  UNL     1      -2.992  -1.324  -3.414  1.00  0.00    -0.325 OA
BRANCH  34  35
HETATM   35  C8  UNL     1      -4.252  -0.908  -3.561  1.00  0.00     0.156 A 
HETATM   36  C7  UNL     1      -5.354  -1.818  -3.170  1.00  0.00     0.224 A 
HETATM   37  C5  UNL     1      -6.733  -1.285  -3.360  1.00  0.00     0.089 A 
HETATM   38  O18 UNL     1      -5.045  -2.904  -2.736  1.00  0.00    -0.284 OA
HETATM   39  C4  UNL     1      -6.885   0.021  -3.889  1.00  0.00     0.107 A 
HETATM   40  C6  UNL     1      -7.871  -2.059  -3.020  1.00  0.00     0.138 A 
HETATM   41  C3  UNL     1      -8.182   0.553  -4.080  1.00  0.00     0.052 A 
HETATM   42  O2  UNL     1      -5.799   0.756  -4.209  1.00  0.00    -0.305 OA
HETATM   43  C2  UNL     1      -9.321  -0.217  -3.744  1.00  0.00     0.135 A 
HETATM   44  C1  UNL     1      -9.166  -1.520  -3.215  1.00  0.00     0.055 A 
HETATM   45  O19 UNL     1     -10.549   0.291  -3.926  1.00  0.00    -0.190 OA
HETATM   46  C9  UNL     1      -4.529   0.324  -4.057  1.00  0.00     0.125 A 
HETATM   47  O1  UNL     1      -7.742  -3.295  -2.516  1.00  0.00    -0.190 OA
BRANCH  46  48
HETATM   48  C10 UNL     1      -3.406   1.232  -4.444  1.00  0.00     0.025 A 
HETATM   49  C11 UNL     1      -2.326   0.734  -5.197  1.00  0.00     0.004 A 
HETATM   50  C12 UNL     1      -1.272   1.588  -5.561  1.00  0.00     0.028 A 
HETATM   51  C13 UNL     1      -1.289   2.941  -5.176  1.00  0.00     0.131 A 
HETATM   52  C14 UNL     1      -2.369   3.436  -4.424  1.00  0.00     0.028 A 
HETATM   53  O3  UNL     1      -0.299   3.740  -5.518  1.00  0.00    -0.190 OA
HETATM   54  C15 UNL     1      -3.426   2.584  -4.057  1.00  0.00     0.004 A 
ENDBRANCH  46  48
ENDBRANCH  34  35
ENDBRANCH   1  34
TORSDOF 10
