REMARK  0 active torsions:
REMARK  status: ('A' for Active; 'I' for Inactive)
ROOT
HETATM    1  C1  UNL     1      -4.527   2.519   1.310  1.00  0.00     0.051 A 
HETATM    2  C2  UNL     1      -5.669   1.819   1.210  1.00  0.00     0.133 A 
HETATM    3  C3  UNL     1      -5.572   0.482   1.142  1.00  0.00     0.027 A 
HETATM    4  C4  UNL     1      -4.372  -0.114   1.167  1.00  0.00    -0.000 A 
HETATM    5  C5  UNL     1      -3.243   0.607   1.263  1.00  0.00     0.003 A 
HETATM    6  C6  UNL     1      -3.307   1.951   1.358  1.00  0.00     0.092 A 
HETATM    7  O1  UNL     1      -2.195   2.750   1.429  1.00  0.00    -0.328 OA
HETATM    8  C7  UNL     1      -1.020   2.208   0.890  1.00  0.00     0.184 C 
HETATM    9  C8  UNL     1      -0.726   0.850   1.491  1.00  0.00     0.177 C 
HETATM   10  C9  UNL     1      -1.911  -0.103   1.283  1.00  0.00     0.063 C 
HETATM   11  C10 UNL     1      -1.604  -0.881  -0.018  1.00  0.00     0.034 C 
HETATM   12  C11 UNL     1      -0.104  -0.798  -0.068  1.00  0.00    -0.021 A 
HETATM   13  C12 UNL     1       0.375   0.140   0.753  1.00  0.00     0.004 A 
HETATM   14  C13 UNL     1       1.691   0.375   0.819  1.00  0.00    -0.000 A 
HETATM   15  C14 UNL     1       2.527  -0.344   0.045  1.00  0.00     0.022 A 
HETATM   16  C15 UNL     1       2.063  -1.329  -0.759  1.00  0.00     0.094 A 
HETATM   17  C16 UNL     1       0.731  -1.529  -0.814  1.00  0.00     0.020 A 
HETATM   18  O2  UNL     1       2.879  -2.096  -1.550  1.00  0.00    -0.332 OA
HETATM   19  C17 UNL     1       4.117  -1.541  -1.901  1.00  0.00     0.117 C 
HETATM   20  C18 UNL     1       4.670  -0.701  -0.777  1.00  0.00     0.001 C 
HETATM   21  C19 UNL     1       3.848  -0.100   0.092  1.00  0.00    -0.000 C 
HETATM   22  C20 UNL     1       5.072  -2.690  -2.235  1.00  0.00     0.035 C 
HETATM   23  C21 UNL     1       3.917  -0.646  -3.131  1.00  0.00     0.035 C 
HETATM   24  O3  UNL     1      -0.400   0.970   2.856  1.00  0.00    -0.218 OA
HETATM   25  O4  UNL     1      -6.883   2.432   1.170  1.00  0.00    -0.190 OA
ENDROOT
TORSDOF 0
