REMARK  0 active torsions:
REMARK  status: ('A' for Active; 'I' for Inactive)
ROOT
HETATM    1  C1  UNL     1      -5.960  -1.366  -1.777  1.00  0.00     0.183 C 
HETATM    2  C2  UNL     1      -5.834  -2.878  -1.818  1.00  0.00     0.186 C 
HETATM    3  C3  UNL     1      -5.012  -3.385  -0.638  1.00  0.00     0.057 C 
HETATM    4  C4  UNL     1      -3.665  -2.700  -0.584  1.00  0.00    -0.046 C 
HETATM    5  C5  UNL     1      -3.673  -1.173  -0.565  1.00  0.00     0.018 C 
HETATM    6  C6  UNL     1      -4.585  -0.698  -1.725  1.00  0.00     0.039 C 
HETATM    7  C7  UNL     1      -2.229  -0.635  -0.805  1.00  0.00     0.011 C 
HETATM    8  C8  UNL     1      -1.208  -1.397   0.055  1.00  0.00     0.005 C 
HETATM    9  C9  UNL     1      -1.151  -2.854  -0.416  1.00  0.00     0.025 C 
HETATM   10  C10 UNL     1      -2.537  -3.429  -0.522  1.00  0.00    -0.035 C 
HETATM   11  C11 UNL     1       0.177  -0.734   0.106  1.00  0.00     0.009 C 
HETATM   12  C12 UNL     1       0.141   0.671   0.756  1.00  0.00     0.054 C 
HETATM   13  C13 UNL     1      -1.240   1.303   0.538  1.00  0.00     0.150 C 
HETATM   14  C14 UNL     1      -2.038   0.889  -0.685  1.00  0.00     0.065 C 
HETATM   15  O1  UNL     1      -1.670   2.157   1.280  1.00  0.00    -0.296 OA
HETATM   16  C15 UNL     1       1.199   1.518  -0.004  1.00  0.00     0.039 C 
HETATM   17  C16 UNL     1       1.890   0.554  -0.964  1.00  0.00     0.118 C 
HETATM   18  C17 UNL     1       0.900  -0.569  -1.238  1.00  0.00     0.030 C 
HETATM   19  O2  UNL     1       2.998   0.073  -0.268  1.00  0.00    -0.337 OA
HETATM   20  C18 UNL     1       3.579   1.169   0.397  1.00  0.00     0.187 C 
HETATM   21  C19 UNL     1       2.410   2.100   0.751  1.00  0.00     0.054 C 
HETATM   22  C20 UNL     1       2.623   3.584   0.401  1.00  0.00     0.005 C 
HETATM   23  C21 UNL     1       4.321   0.629   1.617  1.00  0.00     0.056 C 
HETATM   24  C22 UNL     1       5.314   1.654   2.169  1.00  0.00     0.007 C 
HETATM   25  C23 UNL     1       6.195   2.211   1.036  1.00  0.00     0.030 C 
HETATM   26  C24 UNL     1       5.806   1.583  -0.303  1.00  0.00     0.145 C 
HETATM   27  O3  UNL     1       4.438   1.782  -0.540  1.00  0.00    -0.335 OA
HETATM   28  C25 UNL     1       7.692   2.027   1.325  1.00  0.00     0.003 C 
HETATM   29  C26 UNL     1       0.344   0.548   2.280  1.00  0.00     0.007 C 
HETATM   30  C27 UNL     1      -4.232  -0.688   0.790  1.00  0.00     0.004 C 
HETATM   31  O4  UNL     1      -7.112  -3.470  -1.765  1.00  0.00    -0.220 OA
HETATM   32  O5  UNL     1      -6.627  -0.923  -2.938  1.00  0.00    -0.221 OA
ENDROOT
TORSDOF 0
