REMARK  2 active torsions:
REMARK  status: ('A' for Active; 'I' for Inactive)
REMARK    1  A    between atoms: C9_11  and  C13_17 
REMARK    2  A    between atoms: C10_12  and  O4_15 
ROOT
HETATM    1  C1  UNL     1      -4.001  -0.158   0.256  1.00  0.00     0.102 A 
HETATM    2  C2  UNL     1      -4.024  -1.490   0.147  1.00  0.00     0.025 A 
HETATM    3  C3  UNL     1      -2.845  -2.126   0.031  1.00  0.00     0.007 A 
HETATM    4  C4  UNL     1      -1.674  -1.453   0.020  1.00  0.00     0.064 A 
HETATM    5  C5  UNL     1      -1.645  -0.115   0.136  1.00  0.00     0.105 A 
HETATM    6  C6  UNL     1      -2.833   0.495   0.252  1.00  0.00     0.048 A 
HETATM    7  C7  UNL     1      -3.169   1.784   0.383  1.00  0.00     0.031 A 
HETATM    8  C8  UNL     1      -4.507   1.756   0.448  1.00  0.00     0.123 A 
HETATM    9  O1  UNL     1      -4.954   0.611   0.371  1.00  0.00    -0.305 OA
HETATM   10  O2  UNL     1      -0.491   0.595   0.148  1.00  0.00    -0.305 OA
HETATM   11  C9  UNL     1       0.689  -0.056  -0.113  1.00  0.00     0.125 C 
HETATM   12  C10 UNL     1       0.689  -1.415  -0.173  1.00  0.00     0.156 C 
HETATM   13  C11 UNL     1      -0.491  -2.109  -0.110  1.00  0.00     0.222 C 
HETATM   14  O3  UNL     1      -0.488  -3.319  -0.199  1.00  0.00    -0.284 OA
ENDROOT
BRANCH  11  15
HETATM   15  C13 UNL     1       1.781   0.753  -0.262  1.00  0.00     0.025 A 
HETATM   16  C14 UNL     1       1.609   2.089  -0.109  1.00  0.00     0.002 A 
HETATM   17  C15 UNL     1       2.597   2.991  -0.227  1.00  0.00     0.000 A 
HETATM   18  C16 UNL     1       3.840   2.592  -0.517  1.00  0.00     0.000 A 
HETATM   19  C17 UNL     1       4.058   1.283  -0.681  1.00  0.00     0.000 A 
HETATM   20  C18 UNL     1       3.053   0.400  -0.553  1.00  0.00     0.002 A 
ENDBRANCH  11  15
BRANCH  12  21
HETATM   21  O4  UNL     1       1.778  -2.205  -0.459  1.00  0.00    -0.323 OA
HETATM   22  C12 UNL     1       2.429  -2.725   0.680  1.00  0.00     0.182 C 
ENDBRANCH  12  21
TORSDOF 2
