REMARK  1 active torsions:
REMARK  status: ('A' for Active; 'I' for Inactive)
REMARK    1  A    between atoms: C21_21  and  C24_24 
ROOT
HETATM    1  C1  UNL     1      -4.748  -1.099  -1.770  1.00  0.00     0.033 C 
HETATM    2  C2  UNL     1      -5.195  -2.448  -1.229  1.00  0.00     0.152 C 
HETATM    3  C3  UNL     1      -3.989  -3.367  -0.944  1.00  0.00     0.029 C 
HETATM    4  C4  UNL     1      -2.695  -2.546  -0.639  1.00  0.00     0.010 C 
HETATM    5  C5  UNL     1      -2.859  -1.172   0.053  1.00  0.00     0.019 C 
HETATM    6  C6  UNL     1      -3.868  -0.327  -0.774  1.00  0.00     0.007 C 
HETATM    7  C7  UNL     1      -1.488  -0.468   0.162  1.00  0.00    -0.031 C 
HETATM    8  C8  UNL     1      -0.333  -1.167   0.258  1.00  0.00    -0.031 C 
HETATM    9  C9  UNL     1      -0.370  -2.512   0.267  1.00  0.00    -0.031 C 
HETATM   10  C10 UNL     1      -1.593  -3.354   0.054  1.00  0.00     0.026 C 
HETATM   11  C11 UNL     1       1.012  -0.461   0.526  1.00  0.00     0.019 C 
HETATM   12  C12 UNL     1       0.996   0.951  -0.080  1.00  0.00     0.008 C 
HETATM   13  C13 UNL     1      -0.227   1.724   0.417  1.00  0.00     0.026 C 
HETATM   14  C14 UNL     1      -1.460   0.873   0.303  1.00  0.00    -0.031 C 
HETATM   15  C15 UNL     1       2.336   1.736  -0.042  1.00  0.00     0.001 C 
HETATM   16  C16 UNL     1       3.631   0.890   0.091  1.00  0.00     0.000 C 
HETATM   17  C17 UNL     1       3.368  -0.400  -0.702  1.00  0.00     0.000 C 
HETATM   18  C18 UNL     1       2.201  -1.231  -0.122  1.00  0.00     0.004 C 
HETATM   19  C19 UNL     1       4.762   1.748  -0.534  1.00  0.00     0.000 C 
HETATM   20  C20 UNL     1       4.930   3.080   0.221  1.00  0.00     0.003 C 
HETATM   21  C21 UNL     1       3.633   3.922   0.325  1.00  0.00     0.031 C 
HETATM   22  C22 UNL     1       2.436   3.038   0.768  1.00  0.00     0.003 C 
HETATM   23  C23 UNL     1       3.839   5.027   1.387  1.00  0.00     0.003 C 
HETATM   24  C25 UNL     1       4.127   0.485   1.501  1.00  0.00     0.000 C 
HETATM   25  C26 UNL     1       1.064  -0.390   2.072  1.00  0.00     0.004 C 
HETATM   26  C27 UNL     1      -3.313  -1.285   1.529  1.00  0.00     0.004 C 
HETATM   27  C28 UNL     1      -3.740  -4.198  -2.235  1.00  0.00     0.003 C 
HETATM   28  C29 UNL     1      -4.344  -4.399   0.150  1.00  0.00     0.003 C 
HETATM   29  O2  UNL     1      -5.999  -2.239  -0.092  1.00  0.00    -0.224 OA
ENDROOT
BRANCH  21  30
HETATM   30  C24 UNL     1       3.394   4.608  -1.036  1.00  0.00     0.182 C 
HETATM   31  O1  UNL     1       2.192   5.352  -1.042  1.00  0.00    -0.221 OA
ENDBRANCH  21  30
TORSDOF 1
