REMARK  4 active torsions:
REMARK  status: ('A' for Active; 'I' for Inactive)
REMARK    1  A    between atoms: C2_2  and  O2_30 
REMARK    2  A    between atoms: C21_21  and  C23_23 
REMARK    3  A    between atoms: O2_30  and  C29_31 
REMARK    4  A    between atoms: C29_31  and  C30_33 
ROOT
HETATM    1  C1  UNL     1      -3.955  -1.172  -1.647  1.00  0.00     0.031 C 
HETATM    2  C2  UNL     1      -4.286  -2.558  -1.108  1.00  0.00     0.125 C 
HETATM    3  C3  UNL     1      -3.006  -3.406  -1.155  1.00  0.00     0.031 C 
HETATM    4  C4  UNL     1      -1.720  -2.586  -0.915  1.00  0.00     0.011 C 
HETATM    5  C5  UNL     1      -1.906  -1.343  -0.024  1.00  0.00     0.019 C 
HETATM    6  C6  UNL     1      -2.970  -0.443  -0.714  1.00  0.00     0.007 C 
HETATM    7  C7  UNL     1      -0.559  -0.622   0.141  1.00  0.00    -0.031 C 
HETATM    8  C8  UNL     1       0.616  -1.296   0.128  1.00  0.00    -0.031 C 
HETATM    9  C9  UNL     1       0.618  -2.630  -0.057  1.00  0.00    -0.031 C 
HETATM   10  C10 UNL     1      -0.584  -3.467  -0.392  1.00  0.00     0.026 C 
HETATM   11  C11 UNL     1       1.932  -0.568   0.477  1.00  0.00     0.019 C 
HETATM   12  C12 UNL     1       1.898   0.886  -0.065  1.00  0.00     0.007 C 
HETATM   13  C13 UNL     1       0.661   1.557   0.574  1.00  0.00     0.026 C 
HETATM   14  C14 UNL     1      -0.561   0.696   0.419  1.00  0.00    -0.031 C 
HETATM   15  C15 UNL     1       3.188   1.698   0.309  1.00  0.00     0.001 C 
HETATM   16  C16 UNL     1       4.537   0.912   0.318  1.00  0.00     0.000 C 
HETATM   17  C17 UNL     1       4.402  -0.398  -0.477  1.00  0.00     0.000 C 
HETATM   18  C18 UNL     1       3.189  -1.272  -0.105  1.00  0.00     0.004 C 
HETATM   19  C19 UNL     1       5.665   1.769  -0.320  1.00  0.00     0.000 C 
HETATM   20  C20 UNL     1       5.692   3.190   0.257  1.00  0.00     0.003 C 
HETATM   21  C21 UNL     1       4.418   3.978  -0.115  1.00  0.00     0.031 C 
HETATM   22  C22 UNL     1       3.297   2.994  -0.527  1.00  0.00     0.003 C 
HETATM   23  C24 UNL     1       3.951   4.834   1.082  1.00  0.00     0.003 C 
HETATM   24  C25 UNL     1       5.035   0.537   1.741  1.00  0.00     0.000 C 
HETATM   25  C26 UNL     1       1.640   0.869  -1.600  1.00  0.00     0.001 C 
HETATM   26  C27 UNL     1       1.915  -0.636   2.030  1.00  0.00     0.004 C 
HETATM   27  C28 UNL     1      -2.320  -1.707   1.422  1.00  0.00     0.004 C 
ENDROOT
BRANCH   2  28
HETATM   28  O2  UNL     1      -5.283  -3.170  -1.864  1.00  0.00    -0.301 OA
BRANCH  28  29
HETATM   29  C29 UNL     1      -6.608  -3.277  -1.502  1.00  0.00     0.296 C 
HETATM   30  O3  UNL     1      -7.223  -4.096  -2.160  1.00  0.00    -0.259 OA
BRANCH  29  31
HETATM   31  C30 UNL     1      -7.351  -2.617  -0.552  1.00  0.00     0.063 A 
HETATM   32  C31 UNL     1      -8.627  -3.005  -0.330  1.00  0.00     0.005 A 
HETATM   33  C32 UNL     1      -9.410  -2.422   0.592  1.00  0.00     0.000 A 
HETATM   34  C33 UNL     1      -8.943  -1.406   1.329  1.00  0.00     0.000 A 
HETATM   35  C34 UNL     1      -7.691  -0.981   1.114  1.00  0.00     0.000 A 
HETATM   36  C35 UNL     1      -6.920  -1.575   0.188  1.00  0.00     0.005 A 
ENDBRANCH  29  31
ENDBRANCH  28  29
ENDBRANCH   2  28
BRANCH  21  37
HETATM   37  C23 UNL     1       4.687   4.900  -1.320  1.00  0.00     0.182 C 
HETATM   38  O1  UNL     1       5.607   5.924  -0.998  1.00  0.00    -0.221 OA
ENDBRANCH  21  37
TORSDOF 4
