REMARK  1 active torsions:
REMARK  status: ('A' for Active; 'I' for Inactive)
REMARK    1  A    between atoms: C3_3  and  C19_19 
ROOT
HETATM    1  C1  UNL     1      -2.566   0.144   2.169  1.00  0.00     0.001 C 
HETATM    2  C2  UNL     1      -2.567  -1.382   2.047  1.00  0.00     0.010 C 
HETATM    3  C3  UNL     1      -2.027  -1.906   0.694  1.00  0.00     0.078 C 
HETATM    4  C4  UNL     1      -0.635  -1.255   0.439  1.00  0.00     0.010 C 
HETATM    5  C5  UNL     1      -0.589   0.304   0.487  1.00  0.00     0.001 C 
HETATM    6  C6  UNL     1      -1.178   0.728   1.865  1.00  0.00     0.000 C 
HETATM    7  C7  UNL     1       0.903   0.786   0.393  1.00  0.00     0.000 C 
HETATM    8  C8  UNL     1       1.820   0.108  -0.666  1.00  0.00     0.004 C 
HETATM    9  C9  UNL     1       1.622  -1.413  -0.685  1.00  0.00     0.000 C 
HETATM   10  C10 UNL     1       0.142  -1.800  -0.774  1.00  0.00     0.001 C 
HETATM   11  C11 UNL     1       1.660   0.738  -2.064  1.00  0.00     0.004 C 
HETATM   12  C12 UNL     1       2.281   2.124  -1.853  1.00  0.00     0.018 C 
HETATM   13  C13 UNL     1       1.344   2.963  -0.976  1.00  0.00     0.004 C 
HETATM   14  C14 UNL     1       1.125   2.320   0.406  1.00  0.00     0.000 C 
HETATM   15  C15 UNL     1       3.525   1.762  -1.086  1.00  0.00    -0.045 C 
HETATM   16  C16 UNL     1       3.313   0.442  -0.390  1.00  0.00     0.022 C 
HETATM   17  C17 UNL     1       4.638   2.502  -1.023  1.00  0.00    -0.009 C 
HETATM   18  C18 UNL     1      -1.462   0.962  -0.603  1.00  0.00     0.000 C 
HETATM   19  C20 UNL     1      -1.922  -3.446   0.840  1.00  0.00     0.011 C 
ENDROOT
BRANCH   3  20
HETATM   20  C19 UNL     1      -2.982  -1.710  -0.484  1.00  0.00     0.184 C 
HETATM   21  O1  UNL     1      -2.730  -1.899  -1.650  1.00  0.00    -0.647 OA
HETATM   22  O2  UNL     1      -4.224  -1.342  -0.120  1.00  0.00    -0.647 OA
ENDBRANCH   3  20
TORSDOF 1
