REMARK  7 active torsions:
REMARK  status: ('A' for Active; 'I' for Inactive)
REMARK    1  A    between atoms: C2_2  and  C27_32 
REMARK    2  A    between atoms: C7_8  and  C10_12 
REMARK    3  A    between atoms: C11_13  and  C17_20 
REMARK    4  A    between atoms: C13_15  and  O3_18 
REMARK    5  A    between atoms: C18_21  and  O8_40 
REMARK    6  A    between atoms: C23_27  and  C26_31 
REMARK    7  A    between atoms: C29_34  and  O6_37 
ROOT
HETATM    1  C10 UNL     1       2.457  -1.767  -0.729  1.00  0.00     0.064 C 
HETATM    2  C11 UNL     1       1.833  -2.169   0.631  1.00  0.00    -0.032 C 
HETATM    3  C12 UNL     1       0.454  -2.849   0.528  1.00  0.00     0.052 C 
HETATM    4  C13 UNL     1       0.460  -4.032  -0.451  1.00  0.00     0.119 C 
HETATM    5  C14 UNL     1       1.014  -3.618  -1.818  1.00  0.00     0.031 C 
HETATM    6  C15 UNL     1       2.396  -2.949  -1.715  1.00  0.00     0.013 C 
ENDROOT
BRANCH   4   7
HETATM    7  O3  UNL     1      -0.858  -4.508  -0.535  1.00  0.00    -0.354 OA
HETATM    8  C16 UNL     1      -0.986  -5.744  -1.204  1.00  0.00     0.174 C 
ENDBRANCH   4   7
BRANCH   2   9
HETATM    9  C17 UNL     1       1.907  -1.166   1.805  1.00  0.00     0.038 A 
HETATM   10  C18 UNL     1       2.773  -1.440   2.814  1.00  0.00     0.098 A 
HETATM   11  C19 UNL     1       2.755  -0.649   3.898  1.00  0.00     0.052 A 
HETATM   12  C20 UNL     1       1.991   0.443   4.007  1.00  0.00     0.138 A 
HETATM   13  C21 UNL     1       1.181   0.731   2.970  1.00  0.00     0.087 A 
HETATM   14  O7  UNL     1       2.066   1.177   5.152  1.00  0.00    -0.190 OA
HETATM   15  C22 UNL     1       1.132  -0.046   1.869  1.00  0.00     0.106 A 
HETATM   16  C25 UNL     1       0.384   1.830   3.039  1.00  0.00     0.201 C 
HETATM   17  O4  UNL     1       0.313   0.301   0.827  1.00  0.00    -0.311 OA
HETATM   18  C23 UNL     1      -0.595   1.338   0.904  1.00  0.00     0.086 C 
HETATM   19  C24 UNL     1      -0.467   2.096   2.016  1.00  0.00     0.063 C 
HETATM   20  O5  UNL     1       0.394   2.597   3.978  1.00  0.00    -0.286 OA
BRANCH  10  21
HETATM   21  O8  UNL     1       3.561  -2.566   2.864  1.00  0.00    -0.328 OA
HETATM   22  C33 UNL     1       4.879  -2.357   2.410  1.00  0.00     0.181 C 
ENDBRANCH  10  21
BRANCH  18  23
HETATM   23  C26 UNL     1      -1.434   1.836  -0.113  1.00  0.00     0.087 A 
HETATM   24  C27 UNL     1      -1.667   1.902  -1.947  1.00  0.00     0.065 A 
HETATM   25  C28 UNL     1      -2.909   2.539  -2.442  1.00  0.00     0.001 A 
HETATM   26  C1  UNL     1      -2.586   1.348  -0.949  1.00  0.00     0.129 A 
HETATM   27  C29 UNL     1      -3.851   3.103  -1.551  1.00  0.00     0.090 A 
HETATM   28  C30 UNL     1      -3.719   3.032  -0.144  1.00  0.00     0.020 A 
HETATM   29  C31 UNL     1      -2.643   2.470   0.588  1.00  0.00    -0.016 A 
HETATM   30  C2  UNL     1      -1.768   2.997  -0.986  1.00  0.00     0.085 A 
HETATM   31  C6  UNL     1      -1.635   0.224  -1.175  1.00  0.00     0.081 A 
HETATM   32  O10 UNL     1      -3.887   0.859  -0.785  1.00  0.00    -0.227 OA
HETATM   33  C3  UNL     1      -0.303   3.000  -1.203  1.00  0.00     0.116 A 
HETATM   34  C4  UNL     1       0.372   1.759  -1.387  1.00  0.00     0.079 A 
HETATM   35  O9  UNL     1       0.331   4.206  -1.191  1.00  0.00    -0.195 OA
HETATM   36  C5  UNL     1      -0.252   0.471  -1.404  1.00  0.00     0.084 A 
HETATM   37  C9  UNL     1       1.736   1.808  -1.488  1.00  0.00     0.201 C 
HETATM   38  O1  UNL     1       0.493  -0.640  -1.639  1.00  0.00    -0.315 OA
HETATM   39  C7  UNL     1       1.794  -0.531  -1.287  1.00  0.00     0.084 C 
HETATM   40  C8  UNL     1       2.426   0.649  -1.336  1.00  0.00     0.063 C 
HETATM   41  O2  UNL     1       2.378   2.834  -1.517  1.00  0.00    -0.286 OA
BRANCH  27  42
HETATM   42  O6  UNL     1      -5.003   3.631  -2.079  1.00  0.00    -0.328 OA
HETATM   43  C32 UNL     1      -5.014   5.040  -2.115  1.00  0.00     0.181 C 
ENDBRANCH  27  42
ENDBRANCH  18  23
ENDBRANCH   2   9
TORSDOF 7
