REMARK  0 active torsions:
REMARK  status: ('A' for Active; 'I' for Inactive)
ROOT
HETATM    1  C1  UNL     1      -1.982   0.664   1.587  1.00  0.00     0.154 C 
HETATM    2  C2  UNL     1      -3.088  -0.282   1.107  1.00  0.00     0.033 C 
HETATM    3  C3  UNL     1      -2.392  -1.369   0.256  1.00  0.00     0.003 C 
HETATM    4  C4  UNL     1      -0.918  -0.911   0.183  1.00  0.00     0.005 C 
HETATM    5  C5  UNL     1      -0.958   0.600   0.445  1.00  0.00     0.056 C 
HETATM    6  C6  UNL     1       0.411   1.301   0.588  1.00  0.00     0.098 C 
HETATM    7  C7  UNL     1       0.820   1.921  -0.757  1.00  0.00     0.060 C 
HETATM    8  C8  UNL     1       1.030   0.856  -1.828  1.00  0.00     0.157 C 
HETATM    9  C9  UNL     1       1.231  -0.527  -1.191  1.00  0.00     0.056 C 
HETATM   10  C10 UNL     1      -0.076  -1.334  -1.023  1.00  0.00     0.005 C 
HETATM   11  C11 UNL     1       2.049  -0.380   0.108  1.00  0.00     0.095 C 
HETATM   12  O1  UNL     1       1.398   0.424   1.058  1.00  0.00    -0.364 OA
HETATM   13  C12 UNL     1       3.449   0.210  -0.170  1.00  0.00     0.030 C 
HETATM   14  C13 UNL     1       2.344  -1.746   0.760  1.00  0.00     0.030 C 
HETATM   15  O2  UNL     1      -0.050   0.868  -2.732  1.00  0.00    -0.223 OA
HETATM   16  C14 UNL     1       0.336   2.459   1.599  1.00  0.00     0.030 C 
HETATM   17  C15 UNL     1      -3.095  -1.552  -1.097  1.00  0.00     0.000 C 
HETATM   18  O3  UNL     1      -1.451   0.171   2.796  1.00  0.00    -0.223 OA
ENDROOT
TORSDOF 0
