REMARK  4 active torsions:
REMARK  status: ('A' for Active; 'I' for Inactive)
REMARK    1  A    between atoms: C1_1  and  O3_21 
REMARK    2  A    between atoms: C8_8  and  O2_15 
REMARK    3  A    between atoms: O2_15  and  C14_16 
REMARK    4  A    between atoms: O3_21  and  C19_22 
ROOT
HETATM    1  C1  UNL     1      -1.653   0.581   1.679  1.00  0.00     0.127 C 
HETATM    2  C2  UNL     1      -2.784  -0.424   1.417  1.00  0.00     0.030 C 
HETATM    3  C3  UNL     1      -2.152  -1.616   0.661  1.00  0.00     0.003 C 
HETATM    4  C4  UNL     1      -0.675  -1.202   0.476  1.00  0.00     0.005 C 
HETATM    5  C5  UNL     1      -0.693   0.331   0.505  1.00  0.00     0.053 C 
HETATM    6  C6  UNL     1       0.687   1.028   0.475  1.00  0.00     0.097 C 
HETATM    7  C7  UNL     1       1.038   1.417  -0.970  1.00  0.00     0.058 C 
HETATM    8  C8  UNL     1       1.189   0.201  -1.885  1.00  0.00     0.126 C 
HETATM    9  C9  UNL     1       1.417  -1.061  -1.027  1.00  0.00     0.053 C 
HETATM   10  C10 UNL     1       0.117  -1.822  -0.677  1.00  0.00     0.005 C 
HETATM   11  C11 UNL     1       2.290  -0.724   0.198  1.00  0.00     0.095 C 
HETATM   12  O1  UNL     1       1.680   0.218   1.040  1.00  0.00    -0.364 OA
HETATM   13  C12 UNL     1       3.679  -0.195  -0.222  1.00  0.00     0.030 C 
HETATM   14  C13 UNL     1       2.606  -1.978   1.039  1.00  0.00     0.030 C 
HETATM   15  C17 UNL     1       0.674   2.341   1.280  1.00  0.00     0.030 C 
HETATM   16  C18 UNL     1      -2.917  -1.919  -0.636  1.00  0.00     0.000 C 
ENDROOT
BRANCH   1  17
HETATM   17  O3  UNL     1      -1.027   0.294   2.896  1.00  0.00    -0.304 OA
BRANCH  17  18
HETATM   18  C19 UNL     1      -1.596   0.801   4.023  1.00  0.00     0.272 C 
HETATM   19  C20 UNL     1      -0.725   0.511   5.227  1.00  0.00     0.106 C 
HETATM   20  O4  UNL     1      -2.635   1.421   4.061  1.00  0.00    -0.264 OA
ENDBRANCH  17  18
ENDBRANCH   1  17
BRANCH   8  21
HETATM   21  O2  UNL     1       0.062   0.039  -2.699  1.00  0.00    -0.337 OA
BRANCH  21  22
HETATM   22  C14 UNL     1      -0.202   0.938  -3.699  1.00  0.00     0.072 C 
HETATM   23  C15 UNL     1      -1.529   0.695  -4.387  1.00  0.00     0.058 C 
HETATM   24  C16 UNL     1       0.567   1.969  -4.090  1.00  0.00     0.021 C 
ENDBRANCH  21  22
ENDBRANCH   8  21
TORSDOF 4
