REMARK  5 active torsions:
REMARK  status: ('A' for Active; 'I' for Inactive)
REMARK       I    between atoms: C1_2  and  N2_3 
REMARK    1  A    between atoms: N2_3  and  C2_4 
REMARK    2  A    between atoms: C2_4  and  C3_5 
REMARK    3  A    between atoms: C3_5  and  C4_6 
REMARK    4  A    between atoms: C4_6  and  C5_7 
REMARK    5  A    between atoms: C5_7  and  C6_8 
ROOT
HETATM    1  C3  UNL     1      -0.304  -0.446  -0.008  1.00  0.00     0.035 C 
ENDROOT
BRANCH   1   2
HETATM    2  C2  UNL     1       0.041   1.052  -0.004  1.00  0.00     0.146 C 
BRANCH   2   3
HETATM    3  N2  UNL     1      -1.193   1.869  -0.007  1.00  0.00    -0.085 NA
HETATM    4  C1  UNL     1      -1.228   3.136   0.059  1.00  0.00     0.756 C 
HETATM    5  N1  UNL     1      -2.389   3.647   0.046  1.00  0.00     0.061 N 
HETATM    6  N3  UNL     1      -0.210   3.883   0.133  1.00  0.00    -0.113 NA
HETATM    7  H1  UNL     1       0.657   3.346   0.131  1.00  0.00     0.206 HD
ENDBRANCH   2   3
ENDBRANCH   1   2
BRANCH   1   8
HETATM    8  C4  UNL     1       0.960  -1.322  -0.004  1.00  0.00     0.078 C 
BRANCH   8   9
HETATM    9  C5  UNL     1       0.678  -2.821   0.003  1.00  0.00     0.237 C 
HETATM   10  O3  UNL     1      -0.458  -3.244   0.011  1.00  0.00    -0.285 OA
BRANCH   9  11
HETATM   11  C6  UNL     1       1.728  -3.672   0.002  1.00  0.00     0.247 C 
HETATM   12  O1  UNL     1       1.587  -5.016   0.009  1.00  0.00    -0.642 OA
HETATM   13  O2  UNL     1       2.862  -3.246  -0.006  1.00  0.00    -0.642 OA
ENDBRANCH   9  11
ENDBRANCH   8   9
ENDBRANCH   1   8
TORSDOF 5
