REMARK  2 active torsions:
REMARK  status: ('A' for Active; 'I' for Inactive)
REMARK    1  A    between atoms: C3_3  and  C19_20 
REMARK    2  A    between atoms: C12_13  and  C15_16 
ROOT
HETATM    1  C1  UNL     1      -3.493  -0.235  -0.349  1.00  0.00     0.001 C 
HETATM    2  C2  UNL     1      -3.294  -1.662  -0.863  1.00  0.00     0.010 C 
HETATM    3  C3  UNL     1      -2.202  -2.390  -0.050  1.00  0.00     0.079 C 
HETATM    4  C4  UNL     1      -1.045  -1.422   0.351  1.00  0.00     0.018 C 
HETATM    5  C5  UNL     1      -0.878  -0.114  -0.468  1.00  0.00     0.005 C 
HETATM    6  C6  UNL     1      -2.241   0.627  -0.570  1.00  0.00     0.000 C 
HETATM    7  C7  UNL     1       0.137   0.779   0.311  1.00  0.00     0.025 C 
HETATM    8  C8  UNL     1       1.437   0.088   0.675  1.00  0.00     0.008 C 
HETATM    9  C9  UNL     1       1.509  -1.262   0.829  1.00  0.00     0.169 C 
HETATM   10  C10 UNL     1       0.297  -2.138   0.558  1.00  0.00     0.069 C 
HETATM   11  O1  UNL     1       2.527  -1.836   1.150  1.00  0.00    -0.292 OA
HETATM   12  C11 UNL     1       2.557   0.806   0.895  1.00  0.00    -0.024 C 
HETATM   13  C12 UNL     1       2.696   2.308   0.748  1.00  0.00     0.037 C 
HETATM   14  C13 UNL     1       1.323   2.983   0.585  1.00  0.00     0.008 C 
HETATM   15  C14 UNL     1       0.410   2.155  -0.329  1.00  0.00     0.005 C 
HETATM   16  C17 UNL     1       3.381   2.859   2.015  1.00  0.00     0.009 C 
HETATM   17  C18 UNL     1      -0.329  -0.380  -1.887  1.00  0.00     0.000 C 
HETATM   18  C20 UNL     1      -2.855  -2.939   1.251  1.00  0.00     0.011 C 
ENDROOT
BRANCH   3  19
HETATM   19  C19 UNL     1      -1.724  -3.638  -0.803  1.00  0.00     0.184 C 
HETATM   20  O2  UNL     1      -1.662  -4.763  -0.366  1.00  0.00    -0.647 OA
HETATM   21  O3  UNL     1      -1.326  -3.393  -2.064  1.00  0.00    -0.647 OA
ENDBRANCH   3  19
BRANCH  13  22
HETATM   22  C15 UNL     1       3.520   2.529  -0.511  1.00  0.00    -0.023 C 
HETATM   23  C16 UNL     1       4.492   3.439  -0.671  1.00  0.00    -0.005 C 
ENDBRANCH  13  22
TORSDOF 2
