REMARK  3 active torsions:
REMARK  status: ('A' for Active; 'I' for Inactive)
REMARK    1  A    between atoms: C4_6  and  N3_7 
REMARK    2  A    between atoms: N3_7  and  C5_8 
REMARK    3  A    between atoms: C5_8  and  C6_9 
ROOT
HETATM    1  N1  UNL     1       0.283  -2.607   0.465  1.00  0.00    -0.204 NA
HETATM    2  C1  UNL     1      -0.484  -3.614   0.545  1.00  0.00     0.202 A 
HETATM    3  N2  UNL     1      -1.740  -3.652   0.384  1.00  0.00    -0.203 NA
HETATM    4  C2  UNL     1      -2.276  -2.542   0.111  1.00  0.00     0.186 A 
HETATM    5  C3  UNL     1      -1.535  -1.425   0.006  1.00  0.00     0.154 A 
HETATM    6  C4  UNL     1      -0.204  -1.464   0.192  1.00  0.00     0.181 A 
HETATM    7  N4  UNL     1      -2.368  -0.512  -0.272  1.00  0.00    -0.218 NA
HETATM    8  C10 UNL     1      -3.522  -1.032  -0.330  1.00  0.00     0.201 A 
HETATM    9  N5  UNL     1      -3.496  -2.275  -0.099  1.00  0.00    -0.203 NA
ENDROOT
BRANCH   6  10
HETATM   10  N3  UNL     1       0.575  -0.463   0.113  1.00  0.00    -0.244 NA
BRANCH  10  11
HETATM   11  C5  UNL     1       0.223   0.933  -0.198  1.00  0.00     0.178 C 
BRANCH  11  12
HETATM   12  C6  UNL     1       1.474   1.768  -0.151  1.00  0.00     0.102 A 
HETATM   13  C7  UNL     1       1.663   2.848   0.623  1.00  0.00     0.024 A 
HETATM   14  C8  UNL     1       2.905   3.259   0.337  1.00  0.00     0.029 A 
HETATM   15  C9  UNL     1       3.329   2.382  -0.580  1.00  0.00     0.122 A 
HETATM   16  O1  UNL     1       2.473   1.538  -0.836  1.00  0.00    -0.307 OA
ENDBRANCH  11  12
ENDBRANCH  10  11
ENDBRANCH   6  10
TORSDOF 3
