REMARK  0 active torsions:
REMARK  status: ('A' for Active; 'I' for Inactive)
ROOT
HETATM    1  C1  UNL     1       5.064  -0.213  -0.005  1.00  0.00     0.131 A 
HETATM    2  C2  UNL     1       5.061   1.134  -0.061  1.00  0.00     0.029 A 
HETATM    3  C3  UNL     1       3.925   1.852  -0.068  1.00  0.00     0.021 A 
HETATM    4  C4  UNL     1       2.770   1.182  -0.016  1.00  0.00     0.082 A 
HETATM    5  C5  UNL     1       2.751  -0.157   0.039  1.00  0.00     0.021 A 
HETATM    6  C6  UNL     1       3.886  -0.864   0.045  1.00  0.00     0.029 A 
HETATM    7  C7  UNL     1       1.458  -0.502   0.081  1.00  0.00     0.019 A 
HETATM    8  C8  UNL     1       0.749   0.634   0.054  1.00  0.00     0.083 A 
HETATM    9  N1  UNL     1       1.572   1.600  -0.006  1.00  0.00    -0.245 NA
HETATM   10  C9  UNL     1      -0.591   0.624   0.090  1.00  0.00     0.039 A 
HETATM   11  C10 UNL     1      -1.235  -0.561   0.176  1.00  0.00     0.092 A 
HETATM   12  C11 UNL     1      -0.506  -1.705   0.185  1.00  0.00     0.001 A 
HETATM   13  C12 UNL     1       0.840  -1.684   0.140  1.00  0.00    -0.001 A 
HETATM   14  C13 UNL     1      -1.219  -3.039   0.265  1.00  0.00     0.033 C 
HETATM   15  O1  UNL     1      -2.602  -0.664   0.241  1.00  0.00    -0.332 OA
HETATM   16  C14 UNL     1      -3.388   0.463  -0.045  1.00  0.00     0.117 C 
HETATM   17  C15 UNL     1      -2.615   1.753   0.044  1.00  0.00     0.001 C 
HETATM   18  C16 UNL     1      -1.278   1.776   0.069  1.00  0.00     0.001 C 
HETATM   19  C17 UNL     1      -4.542   0.488   0.964  1.00  0.00     0.035 C 
HETATM   20  C18 UNL     1      -3.937   0.318  -1.469  1.00  0.00     0.035 C 
HETATM   21  O2  UNL     1       6.233  -0.910   0.003  1.00  0.00    -0.190 OA
ENDROOT
TORSDOF 0
