REMARK  0 active torsions:
REMARK  status: ('A' for Active; 'I' for Inactive)
ROOT
HETATM    1  C1  UNL     1      -3.670  -1.822  -2.077  1.00  0.00     0.213 C 
HETATM    2  C2  UNL     1      -4.535  -2.826  -1.357  1.00  0.00     0.187 C 
HETATM    3  C3  UNL     1      -3.698  -3.798  -0.524  1.00  0.00     0.066 C 
HETATM    4  C4  UNL     1      -2.305  -3.262  -0.120  1.00  0.00     0.132 C 
HETATM    5  C5  UNL     1      -2.307  -1.734   0.153  1.00  0.00     0.057 C 
HETATM    6  C6  UNL     1      -2.822  -0.997  -1.123  1.00  0.00     0.187 C 
HETATM    7  O1  UNL     1      -3.561   0.155  -0.782  1.00  0.00    -0.221 OA
HETATM    8  C7  UNL     1      -0.871  -1.204   0.499  1.00  0.00     0.005 C 
HETATM    9  C8  UNL     1       0.279  -2.118   0.029  1.00  0.00     0.000 C 
HETATM   10  C9  UNL     1      -0.057  -2.763  -1.316  1.00  0.00     0.003 C 
HETATM   11  C10 UNL     1      -1.255  -3.708  -1.161  1.00  0.00     0.031 C 
HETATM   12  C11 UNL     1       1.646  -1.413   0.036  1.00  0.00     0.003 C 
HETATM   13  C12 UNL     1       2.013  -0.686   1.357  1.00  0.00     0.003 C 
HETATM   14  C13 UNL     1       0.779  -0.019   1.995  1.00  0.00     0.000 C 
HETATM   15  C14 UNL     1      -0.529  -0.829   1.955  1.00  0.00     0.000 C 
HETATM   16  C15 UNL     1       3.158   0.276   0.913  1.00  0.00     0.032 C 
HETATM   17  C16 UNL     1       3.287   1.766   1.280  1.00  0.00     0.054 C 
HETATM   18  C17 UNL     1       2.766   2.515   0.056  1.00  0.00     0.187 C 
HETATM   19  O2  UNL     1       3.133   1.693  -1.026  1.00  0.00    -0.337 OA
HETATM   20  C18 UNL     1       3.115   0.355  -0.618  1.00  0.00     0.118 C 
HETATM   21  C19 UNL     1       1.855  -0.374  -1.073  1.00  0.00     0.030 C 
HETATM   22  O3  UNL     1       1.360   2.562   0.077  1.00  0.00    -0.335 OA
HETATM   23  C20 UNL     1       0.815   3.477  -0.836  1.00  0.00     0.145 C 
HETATM   24  C21 UNL     1       1.044   4.904  -0.337  1.00  0.00     0.030 C 
HETATM   25  C22 UNL     1       2.402   5.000   0.382  1.00  0.00     0.007 C 
HETATM   26  C23 UNL     1       3.350   3.915  -0.141  1.00  0.00     0.056 C 
HETATM   27  C24 UNL     1       0.928   5.904  -1.498  1.00  0.00     0.003 C 
HETATM   28  C25 UNL     1       2.824   2.249   2.656  1.00  0.00     0.005 C 
HETATM   29  C26 UNL     1       2.559  -1.712   2.379  1.00  0.00     0.000 C 
HETATM   30  C27 UNL     1      -3.266  -1.448   1.342  1.00  0.00     0.005 C 
HETATM   31  O4  UNL     1      -1.980  -3.915   1.087  1.00  0.00    -0.226 OA
HETATM   32  O5  UNL     1      -5.284  -3.522  -2.325  1.00  0.00    -0.221 OA
HETATM   33  O6  UNL     1      -4.498  -0.968  -2.829  1.00  0.00    -0.218 OA
ENDROOT
TORSDOF 0
