REMARK  1 active torsions:
REMARK  status: ('A' for Active; 'I' for Inactive)
REMARK    1  A    between atoms: C3_4  and  C6_8 
ROOT
HETATM    1  C1  UNL     1      -0.855  -1.734   0.436  1.00  0.00     0.194 A 
HETATM    2  C2  UNL     1      -1.619  -0.632   0.488  1.00  0.00     0.153 A 
HETATM    3  O1  UNL     1      -1.155   0.620   0.215  1.00  0.00    -0.304 OA
HETATM    4  C3  UNL     1       0.164   0.684  -0.122  1.00  0.00     0.114 A 
HETATM    5  C4  UNL     1       0.949  -0.404  -0.182  1.00  0.00     0.067 A 
HETATM    6  C5  UNL     1       0.455  -1.634   0.096  1.00  0.00     0.225 A 
HETATM    7  O2  UNL     1       1.127  -2.639   0.052  1.00  0.00    -0.284 OA
HETATM    8  O4  UNL     1      -1.327  -2.981   0.711  1.00  0.00    -0.185 OA
ENDROOT
BRANCH   4   9
HETATM    9  C6  UNL     1       0.743   2.044  -0.439  1.00  0.00     0.233 C 
HETATM   10  O3  UNL     1      -0.225   3.078  -0.316  1.00  0.00    -0.213 OA
ENDBRANCH   4   9
TORSDOF 1
