REMARK  1 active torsions:
REMARK  status: ('A' for Active; 'I' for Inactive)
REMARK    1  A    between atoms: C7_8  and  O1_9 
ROOT
HETATM    1  C1  UNL     1      -2.555   0.424   0.040  1.00  0.00     0.026 A 
HETATM    2  C2  UNL     1      -1.368   1.052   0.035  1.00  0.00     0.006 A 
HETATM    3  C3  UNL     1      -0.174   0.418  -0.007  1.00  0.00     0.042 A 
HETATM    4  C4  UNL     1      -0.215  -0.943  -0.048  1.00  0.00     0.110 A 
HETATM    5  N1  UNL     1       0.809  -1.690  -0.087  1.00  0.00    -0.220 NA
HETATM    6  C5  UNL     1       1.952  -1.159  -0.092  1.00  0.00     0.184 A 
HETATM    7  C6  UNL     1       2.071   0.173  -0.055  1.00  0.00     0.066 A 
HETATM    8  C7  UNL     1       1.040   1.035  -0.010  1.00  0.00     0.099 A 
HETATM    9  C9  UNL     1       3.392   0.397  -0.073  1.00  0.00     0.032 A 
HETATM   10  C10 UNL     1       3.923  -0.830  -0.118  1.00  0.00     0.125 A 
HETATM   11  O2  UNL     1       3.057  -1.703  -0.128  1.00  0.00    -0.287 OA
HETATM   12  C11 UNL     1      -1.403  -1.579  -0.048  1.00  0.00     0.137 A 
HETATM   13  O3  UNL     1      -1.615  -2.791  -0.082  1.00  0.00    -0.298 OA
HETATM   14  C12 UNL     1      -3.029  -2.993  -0.049  1.00  0.00     0.304 A 
HETATM   15  O4  UNL     1      -3.530  -1.658  -0.005  1.00  0.00    -0.299 OA
HETATM   16  C13 UNL     1      -2.557  -0.909  -0.002  1.00  0.00     0.121 A 
ENDROOT
BRANCH   8  17
HETATM   17  O1  UNL     1       1.409   2.362   0.023  1.00  0.00    -0.328 OA
HETATM   18  C8  UNL     1       0.503   3.433   0.051  1.00  0.00     0.181 C 
ENDBRANCH   8  17
TORSDOF 1
