REMARK  0 active torsions:
REMARK  status: ('A' for Active; 'I' for Inactive)
ROOT
HETATM    1  C1  UNL     1      -5.040  -1.621  -1.754  1.00  0.00     0.033 C 
HETATM    2  C2  UNL     1      -5.924  -2.081  -0.601  1.00  0.00     0.152 C 
HETATM    3  C3  UNL     1      -5.112  -2.802   0.479  1.00  0.00     0.035 C 
HETATM    4  C4  UNL     1      -3.609  -2.459   0.439  1.00  0.00     0.033 C 
HETATM    5  C5  UNL     1      -3.358  -0.959   0.117  1.00  0.00     0.003 C 
HETATM    6  C6  UNL     1      -3.954  -0.637  -1.281  1.00  0.00     0.003 C 
HETATM    7  C7  UNL     1      -1.823  -0.768   0.086  1.00  0.00     0.003 C 
HETATM    8  C8  UNL     1      -1.229   0.628  -0.144  1.00  0.00     0.003 C 
HETATM    9  C9  UNL     1       0.265   0.393   0.153  1.00  0.00     0.030 C 
HETATM   10  C10 UNL     1       0.309  -0.671   1.273  1.00  0.00     0.127 C 
HETATM   11  C11 UNL     1      -1.134  -1.190   1.390  1.00  0.00     0.031 C 
HETATM   12  C12 UNL     1      -1.363  -2.682   1.640  1.00  0.00     0.035 C 
HETATM   13  C13 UNL     1      -2.868  -2.960   1.690  1.00  0.00     0.152 C 
HETATM   14  O1  UNL     1      -3.055  -4.350   1.828  1.00  0.00    -0.224 OA
HETATM   15  C14 UNL     1       0.823  -0.115   2.605  1.00  0.00     0.030 C 
HETATM   16  C15 UNL     1       2.178   0.610   2.505  1.00  0.00     0.003 C 
HETATM   17  C16 UNL     1       2.404   1.236   1.118  1.00  0.00     0.004 C 
HETATM   18  C17 UNL     1       1.055   1.661   0.515  1.00  0.00     0.036 C 
HETATM   19  C18 UNL     1       1.226   2.701  -0.610  1.00  0.00     0.250 C 
HETATM   20  N1  UNL     1       2.489   2.646  -1.330  1.00  0.00     0.135 N 
HETATM   21  C19 UNL     1       3.645   2.789  -0.435  1.00  0.00     0.219 C 
HETATM   22  C20 UNL     1       3.367   2.430   1.051  1.00  0.00     0.031 C 
HETATM   23  C21 UNL     1       4.642   2.238   1.889  1.00  0.00     0.002 C 
HETATM   24  C22 UNL     1       4.902   2.108  -1.017  1.00  0.00     0.033 C 
HETATM   25  C23 UNL     1       4.973   2.309  -2.534  1.00  0.00     0.004 C 
HETATM   26  C24 UNL     1       3.751   1.674  -3.217  1.00  0.00     0.033 C 
HETATM   27  C25 UNL     1       2.585   1.502  -2.222  1.00  0.00     0.250 C 
HETATM   28  C26 UNL     1       4.091   0.331  -3.885  1.00  0.00     0.002 C 
HETATM   29  O2  UNL     1       1.152  -1.722   0.882  1.00  0.00    -0.226 OA
HETATM   30  C27 UNL     1      -4.027  -0.040   1.167  1.00  0.00     0.000 C 
HETATM   31  O3  UNL     1      -6.930  -2.939  -1.087  1.00  0.00    -0.224 OA
ENDROOT
TORSDOF 0
