REMARK  0 active torsions:
REMARK  status: ('A' for Active; 'I' for Inactive)
ROOT
HETATM    1  C1  UNL     1      -4.965  -1.906  -1.690  1.00  0.00     0.033 C 
HETATM    2  C2  UNL     1      -5.169  -3.291  -1.094  1.00  0.00     0.152 C 
HETATM    3  C3  UNL     1      -3.879  -4.115  -1.144  1.00  0.00     0.036 C 
HETATM    4  C4  UNL     1      -2.603  -3.247  -1.174  1.00  0.00     0.037 C 
HETATM    5  C5  UNL     1      -2.757  -1.967  -0.319  1.00  0.00     0.017 C 
HETATM    6  C6  UNL     1      -3.889  -1.106  -0.932  1.00  0.00     0.006 C 
HETATM    7  C7  UNL     1      -1.444  -1.215  -0.326  1.00  0.00    -0.052 C 
HETATM    8  C8  UNL     1      -1.286   0.216   0.114  1.00  0.00     0.022 C 
HETATM    9  C9  UNL     1       0.165   0.517  -0.344  1.00  0.00     0.010 C 
HETATM   10  C10 UNL     1       0.899  -0.851  -0.331  1.00  0.00     0.018 C 
HETATM   11  C11 UNL     1      -0.258  -1.792  -0.559  1.00  0.00    -0.050 C 
HETATM   12  C12 UNL     1      -0.070  -3.217  -0.986  1.00  0.00     0.054 C 
HETATM   13  C13 UNL     1      -1.344  -4.043  -0.816  1.00  0.00     0.157 C 
HETATM   14  O1  UNL     1      -1.250  -5.187  -1.632  1.00  0.00    -0.223 OA
HETATM   15  C14 UNL     1       1.594  -1.137   1.015  1.00  0.00     0.004 C 
HETATM   16  C15 UNL     1       2.736  -0.162   1.379  1.00  0.00     0.000 C 
HETATM   17  C16 UNL     1       2.630   1.192   0.631  1.00  0.00     0.004 C 
HETATM   18  C17 UNL     1       0.927   1.580   0.478  1.00  0.00     0.034 C 
HETATM   19  C18 UNL     1       0.359   3.258   0.434  1.00  0.00     0.250 C 
HETATM   20  N1  UNL     1       1.519   4.486   0.698  1.00  0.00     0.135 N 
HETATM   21  C19 UNL     1       3.073   4.080   1.371  1.00  0.00     0.219 C 
HETATM   22  C20 UNL     1       3.771   2.393   1.180  1.00  0.00     0.031 C 
HETATM   23  C21 UNL     1       5.154   2.323   0.483  1.00  0.00     0.002 C 
HETATM   24  C22 UNL     1       2.560   3.936   2.740  1.00  0.00     0.033 C 
HETATM   25  C23 UNL     1       1.910   2.928   1.776  1.00  0.00     0.004 C 
HETATM   26  C24 UNL     1       2.294   3.202  -0.202  1.00  0.00     0.033 C 
HETATM   27  C25 UNL     1       1.996   4.657  -0.598  1.00  0.00     0.250 C 
HETATM   28  C26 UNL     1       1.869   2.543  -1.609  1.00  0.00     0.002 C 
HETATM   29  C27 UNL     1      -3.025  -2.279   1.171  1.00  0.00     0.004 C 
HETATM   30  O2  UNL     1      -6.190  -3.964  -1.794  1.00  0.00    -0.224 OA
ENDROOT
TORSDOF 0
