REMARK  0 active torsions:
REMARK  status: ('A' for Active; 'I' for Inactive)
ROOT
HETATM    1  C1  UNL     1      -3.420  -1.470  -3.397  1.00  0.00     0.033 C 
HETATM    2  C2  UNL     1      -3.245  -2.893  -3.914  1.00  0.00     0.152 C 
HETATM    3  C3  UNL     1      -2.201  -3.628  -3.082  1.00  0.00     0.033 C 
HETATM    4  C4  UNL     1      -2.517  -3.620  -1.572  1.00  0.00     0.006 C 
HETATM    5  C5  UNL     1      -2.743  -2.191  -1.013  1.00  0.00     0.017 C 
HETATM    6  C6  UNL     1      -3.776  -1.469  -1.905  1.00  0.00     0.006 C 
HETATM    7  C7  UNL     1      -1.406  -1.483  -0.900  1.00  0.00    -0.023 A 
HETATM    8  C8  UNL     1      -1.252  -0.003  -0.670  1.00  0.00     0.170 A 
HETATM    9  C9  UNL     1       0.266   0.196  -0.522  1.00  0.00     0.040 A 
HETATM   10  C10 UNL     1       0.933  -1.211  -0.496  1.00  0.00     0.021 A 
HETATM   11  C11 UNL     1      -0.238  -2.128  -0.761  1.00  0.00    -0.050 A 
HETATM   12  C12 UNL     1      -0.069  -3.619  -0.855  1.00  0.00     0.021 C 
HETATM   13  C13 UNL     1      -1.411  -4.361  -0.800  1.00  0.00     0.005 C 
HETATM   14  C14 UNL     1       1.665  -1.565   0.813  1.00  0.00     0.004 C 
HETATM   15  C15 UNL     1       2.737  -0.554   1.267  1.00  0.00     0.000 C 
HETATM   16  C16 UNL     1       2.384   0.924   0.951  1.00  0.00     0.004 C 
HETATM   17  C17 UNL     1       0.664   1.047   0.708  1.00  0.00     0.036 C 
HETATM   18  C18 UNL     1      -0.242   2.503   1.155  1.00  0.00     0.250 C 
HETATM   19  N1  UNL     1       0.606   3.734   1.979  1.00  0.00     0.138 N 
HETATM   20  C19 UNL     1       2.171   3.402   2.666  1.00  0.00     0.249 C 
HETATM   21  C20 UNL     1       3.221   2.054   1.981  1.00  0.00     0.034 C 
HETATM   22  C21 UNL     1       4.610   2.484   1.436  1.00  0.00     0.002 C 
HETATM   23  C22 UNL     1       1.682   2.652   3.820  1.00  0.00     0.183 C 
HETATM   24  C23 UNL     1       1.260   1.996   2.505  1.00  0.00     0.037 C 
HETATM   25  C24 UNL     1       1.688   3.034   0.807  1.00  0.00     0.036 C 
HETATM   26  C25 UNL     1       1.099   4.452   0.895  1.00  0.00     0.250 C 
HETATM   27  C26 UNL     1       1.511   2.855  -0.781  1.00  0.00     0.002 C 
HETATM   28  O1  UNL     1       0.697   3.334   4.555  1.00  0.00    -0.221 OA
HETATM   29  O2  UNL     1      -1.715   0.785  -1.751  1.00  0.00    -0.219 OA
HETATM   30  C27 UNL     1      -3.333  -2.241   0.417  1.00  0.00     0.004 C 
HETATM   31  O3  UNL     1      -4.471  -3.584  -3.860  1.00  0.00    -0.224 OA
ENDROOT
TORSDOF 0
