REMARK  1 active torsions:
REMARK  status: ('A' for Active; 'I' for Inactive)
REMARK    1  A    between atoms: C12_13  and  C19_22 
ROOT
HETATM    1  C1  UNL     1      -3.548  -1.416   1.694  1.00  0.00    -0.000 A 
HETATM    2  C2  UNL     1      -3.568  -2.672   1.216  1.00  0.00     0.002 A 
HETATM    3  C3  UNL     1      -2.531  -3.149   0.507  1.00  0.00     0.019 A 
HETATM    4  C4  UNL     1      -1.475  -2.351   0.295  1.00  0.00     0.077 A 
HETATM    5  C5  UNL     1      -1.458  -1.099   0.768  1.00  0.00     0.000 A 
HETATM    6  C6  UNL     1      -2.491  -0.617   1.474  1.00  0.00    -0.002 A 
HETATM    7  C7  UNL     1      -0.167  -0.421   0.408  1.00  0.00     0.061 A 
HETATM    8  C8  UNL     1       0.359  -1.634  -0.401  1.00  0.00     0.067 A 
HETATM    9  N1  UNL     1      -0.432  -2.623  -0.364  1.00  0.00    -0.252 NA
HETATM   10  C9  UNL     1       1.516  -1.643  -1.419  1.00  0.00     0.151 C 
HETATM   11  C10 UNL     1       1.324  -0.378  -2.247  1.00  0.00     0.036 C 
HETATM   12  C11 UNL     1       1.237   0.756  -1.212  1.00  0.00     0.013 C 
HETATM   13  C12 UNL     1      -0.151   0.825  -0.521  1.00  0.00     0.059 C 
HETATM   14  C13 UNL     1      -0.138   2.120   0.329  1.00  0.00     0.255 C 
HETATM   15  N2  UNL     1       1.125   2.274   1.048  1.00  0.00     0.138 N 
HETATM   16  C14 UNL     1       0.959   3.077   2.248  1.00  0.00     0.285 C 
HETATM   17  C15 UNL     1       1.726   0.968   1.292  1.00  0.00     0.222 C 
HETATM   18  C16 UNL     1       2.261   0.490  -0.084  1.00  0.00     0.061 C 
HETATM   19  C17 UNL     1       3.396  -0.428  -0.538  1.00  0.00     0.145 C 
HETATM   20  O1  UNL     1       2.857  -1.701  -0.924  1.00  0.00    -0.351 OA
HETATM   21  C18 UNL     1       0.596  -0.038   1.715  1.00  0.00     0.043 C 
ENDROOT
BRANCH  13  22
HETATM   22  C19 UNL     1      -1.315   0.866  -1.489  1.00  0.00    -0.024 C 
HETATM   23  C20 UNL     1      -1.387   1.686  -2.548  1.00  0.00    -0.005 C 
ENDBRANCH  13  22
TORSDOF 1
