REMARK  7 active torsions:
REMARK  status: ('A' for Active; 'I' for Inactive)
REMARK    1  A    between atoms: C4_4  and  O3_9 
REMARK    2  A    between atoms: C5_6  and  C6_7 
REMARK    3  A    between atoms: O3_9  and  C7_10 
REMARK    4  A    between atoms: C10_15  and  O11_28 
REMARK    5  A    between atoms: C11_16  and  O6_17 
REMARK    6  A    between atoms: O6_17  and  C12_18 
REMARK    7  A    between atoms: O11_28  and  C18_29 
ROOT
HETATM    1  C18 UNL     1       1.225  -1.505  -0.176  1.00  0.00     0.118 C 
HETATM    2  C19 UNL     1       2.275  -3.119   0.288  1.00  0.00     0.025 C 
HETATM    3  C20 UNL     1       1.123  -4.317   0.890  1.00  0.00     0.002 C 
HETATM    4  C21 UNL     1      -0.107  -3.851   1.836  1.00  0.00     0.000 C 
HETATM    5  C22 UNL     1      -1.258  -3.006   1.072  1.00  0.00     0.003 C 
HETATM    6  C23 UNL     1      -0.662  -1.616   0.220  1.00  0.00     0.030 C 
HETATM    7  C24 UNL     1       0.224  -2.638   2.671  1.00  0.00     0.003 C 
HETATM    8  C25 UNL     1       0.971  -2.014   1.513  1.00  0.00     0.003 C 
HETATM    9  C26 UNL     1       0.492  -3.099  -0.164  1.00  0.00     0.000 C 
HETATM   10  C27 UNL     1       0.379  -4.618  -0.352  1.00  0.00     0.000 C 
HETATM   11  C28 UNL     1       0.800  -0.192   2.025  1.00  0.00     0.017 C 
HETATM   12  C29 UNL     1       1.061   0.040   3.561  1.00  0.00    -0.020 C 
HETATM   13  C30 UNL     1       0.867  -1.176   4.494  1.00  0.00     0.170 C 
HETATM   14  C31 UNL     1       0.816  -2.640   4.037  1.00  0.00     0.037 C 
HETATM   15  O12 UNL     1       1.955  -1.263   5.366  1.00  0.00    -0.219 OA
HETATM   16  C32 UNL     1       1.513   1.263   3.999  1.00  0.00    -0.012 C 
HETATM   17  C33 UNL     1       1.693   2.563   3.166  1.00  0.00     0.095 C 
HETATM   18  C34 UNL     1       1.556   2.393   1.655  1.00  0.00     0.014 C 
HETATM   19  C35 UNL     1       1.950   0.931   1.565  1.00  0.00     0.005 C 
HETATM   20  C36 UNL     1       3.075   3.164   3.474  1.00  0.00     0.274 C 
HETATM   21  O13 UNL     1       3.200   3.493   4.778  1.00  0.00    -0.304 OA
HETATM   22  C37 UNL     1       2.098   3.135   5.550  1.00  0.00     0.130 C 
HETATM   23  C38 UNL     1       1.930   1.604   5.426  1.00  0.00     0.165 C 
HETATM   24  C39 UNL     1       3.269   1.008   5.953  1.00  0.00     0.040 C 
HETATM   25  O14 UNL     1       0.822   1.243   6.214  1.00  0.00    -0.219 OA
HETATM   26  C40 UNL     1       0.899   3.939   5.025  1.00  0.00     0.032 C 
HETATM   27  C41 UNL     1       0.670   3.634   3.551  1.00  0.00     0.016 C 
HETATM   28  C42 UNL     1       2.336   3.571   6.999  1.00  0.00     0.033 C 
HETATM   29  O15 UNL     1       3.975   3.351   2.685  1.00  0.00    -0.264 OA
HETATM   30  C43 UNL     1      -0.570   0.518   1.876  1.00  0.00     0.004 C 
HETATM   31  C44 UNL     1       2.559  -1.625   2.003  1.00  0.00     0.000 C 
HETATM   32  C45 UNL     1      -0.465  -5.040   2.736  1.00  0.00     0.000 C 
HETATM   33  C46 UNL     1       3.216  -3.726   1.454  1.00  0.00     0.002 C 
HETATM   34  C47 UNL     1       3.256  -3.467  -0.891  1.00  0.00     0.002 C 
ENDROOT
BRANCH   1  35
HETATM   35  O11 UNL     1       1.431  -1.061  -1.488  1.00  0.00    -0.332 OA
BRANCH  35  36
HETATM   36  C10 UNL     1       2.099   0.173  -1.571  1.00  0.00     0.266 C 
HETATM   37  O5  UNL     1       1.234   1.192  -1.084  1.00  0.00    -0.326 OA
HETATM   38  C9  UNL     1       0.055   1.296  -1.810  1.00  0.00     0.180 C 
HETATM   39  C8  UNL     1       0.485   1.612  -3.220  1.00  0.00     0.211 C 
HETATM   40  C7  UNL     1       1.333   0.481  -3.866  1.00  0.00     0.183 C 
HETATM   41  O4  UNL     1      -0.611   2.102  -3.925  1.00  0.00    -0.218 OA
HETATM   42  C11 UNL     1       2.574   0.468  -2.961  1.00  0.00     0.204 C 
BRANCH  40  43
HETATM   43  O3  UNL     1       0.815  -0.843  -3.790  1.00  0.00    -0.326 OA
BRANCH  43  44
HETATM   44  C4  UNL     1       0.514  -1.534  -4.982  1.00  0.00     0.270 C 
HETATM   45  C3  UNL     1       0.028  -2.960  -4.745  1.00  0.00     0.241 C 
HETATM   46  C2  UNL     1      -1.415  -3.047  -4.297  1.00  0.00     0.220 C 
HETATM   47  O16 UNL     1       0.113  -3.704  -5.939  1.00  0.00    -0.215 OA
HETATM   48  C1  UNL     1      -2.307  -2.226  -5.206  1.00  0.00     0.215 C 
HETATM   49  O17 UNL     1      -1.466  -2.592  -2.969  1.00  0.00    -0.218 OA
HETATM   50  C5  UNL     1      -1.764  -0.825  -5.374  1.00  0.00     0.184 C 
HETATM   51  O18 UNL     1      -2.474  -2.800  -6.474  1.00  0.00    -0.218 OA
HETATM   52  O1  UNL     1      -0.398  -0.771  -5.732  1.00  0.00    -0.326 OA
BRANCH  50  53
HETATM   53  C6  UNL     1      -2.168  -0.118  -4.096  1.00  0.00     0.214 C 
HETATM   54  O2  UNL     1      -2.831   1.106  -4.333  1.00  0.00    -0.218 OA
ENDBRANCH  50  53
ENDBRANCH  43  44
ENDBRANCH  40  43
BRANCH  42  55
HETATM   55  O6  UNL     1       3.188   1.719  -3.008  1.00  0.00    -0.324 OA
BRANCH  55  56
HETATM   56  C12 UNL     1       4.333   1.928  -2.217  1.00  0.00     0.270 C 
HETATM   57  O7  UNL     1       4.022   2.985  -1.324  1.00  0.00    -0.329 OA
HETATM   58  C13 UNL     1       3.686   4.194  -1.958  1.00  0.00     0.151 C 
HETATM   59  C14 UNL     1       4.779   4.633  -2.922  1.00  0.00     0.212 C 
HETATM   60  C17 UNL     1       3.386   5.268  -0.899  1.00  0.00     0.035 C 
HETATM   61  C15 UNL     1       5.173   3.527  -3.880  1.00  0.00     0.220 C 
HETATM   62  O10 UNL     1       4.312   5.724  -3.682  1.00  0.00    -0.218 OA
HETATM   63  C16 UNL     1       5.483   2.254  -3.128  1.00  0.00     0.241 C 
HETATM   64  O9  UNL     1       6.301   3.901  -4.627  1.00  0.00    -0.218 OA
HETATM   65  O8  UNL     1       6.656   2.385  -2.365  1.00  0.00    -0.215 OA
ENDBRANCH  55  56
ENDBRANCH  42  55
ENDBRANCH  35  36
ENDBRANCH   1  35
TORSDOF 7
