REMARK  3 active torsions:
REMARK  status: ('A' for Active; 'I' for Inactive)
REMARK    1  A    between atoms: O1_2  and  C2_3 
REMARK    2  A    between atoms: C8_10  and  C12_16 
REMARK    3  A    between atoms: C9_11  and  O4_14 
ROOT
HETATM    1  C2  UNL     1      -3.969  -0.598   0.125  1.00  0.00     0.098 A 
HETATM    2  C3  UNL     1      -3.814  -1.901   0.654  1.00  0.00     0.052 A 
HETATM    3  C4  UNL     1      -2.521  -2.440   0.850  1.00  0.00     0.138 A 
HETATM    4  C5  UNL     1      -1.381  -1.666   0.510  1.00  0.00     0.089 A 
HETATM    5  C6  UNL     1      -1.535  -0.359  -0.020  1.00  0.00     0.107 A 
HETATM    6  C7  UNL     1      -2.832   0.172  -0.213  1.00  0.00     0.049 A 
HETATM    7  O2  UNL     1      -0.449   0.377  -0.340  1.00  0.00    -0.305 OA
HETATM    8  C8  UNL     1       0.821  -0.057  -0.188  1.00  0.00     0.125 A 
HETATM    9  C9  UNL     1       1.100  -1.287   0.309  1.00  0.00     0.156 A 
HETATM   10  C10 UNL     1      -0.004  -2.197   0.697  1.00  0.00     0.224 A 
HETATM   11  O3  UNL     1       0.307  -3.285   1.131  1.00  0.00    -0.284 OA
HETATM   12  O6  UNL     1      -2.390  -3.676   1.352  1.00  0.00    -0.190 OA
ENDROOT
BRANCH   8  13
HETATM   13  C12 UNL     1       1.944   0.850  -0.574  1.00  0.00     0.025 A 
HETATM   14  C13 UNL     1       3.078   0.328  -1.221  1.00  0.00     0.004 A 
HETATM   15  C14 UNL     1       4.135   1.182  -1.584  1.00  0.00     0.028 A 
HETATM   16  C15 UNL     1       4.059   2.559  -1.307  1.00  0.00     0.131 A 
HETATM   17  C16 UNL     1       2.922   3.078  -0.662  1.00  0.00     0.028 A 
HETATM   18  O5  UNL     1       5.049   3.357  -1.648  1.00  0.00    -0.190 OA
HETATM   19  C17 UNL     1       1.865   2.226  -0.297  1.00  0.00     0.004 A 
ENDBRANCH   8  13
BRANCH   9  20
HETATM   20  O4  UNL     1       2.360  -1.705   0.455  1.00  0.00    -0.323 OA
HETATM   21  C11 UNL     1       2.807  -1.613   1.799  1.00  0.00     0.182 C 
ENDBRANCH   9  20
BRANCH   1  22
HETATM   22  O1  UNL     1      -5.197  -0.090  -0.057  1.00  0.00    -0.328 OA
HETATM   23  C1  UNL     1      -5.305   1.221  -0.594  1.00  0.00     0.181 C 
ENDBRANCH   1  22
TORSDOF 3
