REMARK  3 active torsions:
REMARK  status: ('A' for Active; 'I' for Inactive)
REMARK    1  A    between atoms: C1_1  and  O1_2 
REMARK    2  A    between atoms: C4_6  and  C5_7 
REMARK    3  A    between atoms: C7_10  and  O2_11 
ROOT
HETATM    1  C5  UNL     1       1.348   0.652  -0.713  1.00  0.00     0.127 C 
HETATM    2  N2  UNL     1      -0.098   0.803  -1.092  1.00  0.00    -0.323 N 
HETATM    3  C6  UNL     1      -1.021  -0.252  -0.813  1.00  0.00     0.101 A 
HETATM    4  C7  UNL     1      -2.404  -0.164  -1.129  1.00  0.00     0.113 A 
HETATM    5  C9  UNL     1      -2.826   1.035  -1.754  1.00  0.00     0.044 A 
HETATM    6  C10 UNL     1      -1.953   2.074  -2.059  1.00  0.00     0.095 A 
HETATM    7  C11 UNL     1      -0.572   1.982  -1.752  1.00  0.00     0.055 A 
HETATM    8  C12 UNL     1       0.344   3.096  -2.117  1.00  0.00     0.045 C 
HETATM    9  C13 UNL     1       1.813   2.662  -2.201  1.00  0.00     0.009 C 
HETATM   10  C14 UNL     1       2.205   1.924  -0.924  1.00  0.00     0.029 C 
HETATM   11  N3  UNL     1      -2.687   3.113  -2.672  1.00  0.00    -0.244 NA
HETATM   12  C15 UNL     1      -4.016   2.654  -2.721  1.00  0.00     0.082 A 
HETATM   13  C16 UNL     1      -4.068   1.387  -2.152  1.00  0.00     0.021 A 
HETATM   14  C17 UNL     1      -5.283   0.664  -2.057  1.00  0.00     0.002 A 
HETATM   15  C18 UNL     1      -6.463   1.272  -2.561  1.00  0.00     0.000 A 
HETATM   16  C19 UNL     1      -6.414   2.566  -3.143  1.00  0.00     0.002 A 
HETATM   17  C20 UNL     1      -5.184   3.270  -3.227  1.00  0.00     0.019 A 
ENDROOT
BRANCH   1  18
HETATM   18  C4  UNL     1       1.498   0.180   0.672  1.00  0.00     0.097 A 
HETATM   19  N1  UNL     1       0.889   0.914   1.666  1.00  0.00    -0.243 NA
HETATM   20  C3  UNL     1       1.031   0.471   2.975  1.00  0.00     0.123 A 
HETATM   21  C1  UNL     1       1.772  -0.701   3.328  1.00  0.00     0.115 A 
HETATM   22  C22 UNL     1       2.373  -1.406   2.242  1.00  0.00     0.044 A 
HETATM   23  C21 UNL     1       2.250  -0.986   0.920  1.00  0.00     0.099 A 
HETATM   24  C23 UNL     1       3.123  -2.529   2.262  1.00  0.00     0.021 A 
HETATM   25  N4  UNL     1       2.947  -1.881   0.084  1.00  0.00    -0.244 NA
HETATM   26  C24 UNL     1       3.490  -2.848   0.957  1.00  0.00     0.082 A 
HETATM   27  C25 UNL     1       4.285  -3.988   0.689  1.00  0.00     0.019 A 
HETATM   28  C26 UNL     1       4.697  -4.799   1.779  1.00  0.00     0.002 A 
HETATM   29  C27 UNL     1       4.319  -4.469   3.107  1.00  0.00     0.000 A 
HETATM   30  C28 UNL     1       3.524  -3.322   3.363  1.00  0.00     0.002 A 
BRANCH  21  31
HETATM   31  O1  UNL     1       1.805  -0.982   4.639  1.00  0.00    -0.327 OA
HETATM   32  C2  UNL     1       1.777   0.104   5.555  1.00  0.00     0.181 C 
ENDBRANCH  21  31
ENDBRANCH   1  18
BRANCH   4  33
HETATM   33  O2  UNL     1      -3.133  -1.238  -0.791  1.00  0.00    -0.327 OA
HETATM   34  C8  UNL     1      -2.498  -2.508  -0.817  1.00  0.00     0.181 C 
ENDBRANCH   4  33
TORSDOF 3
