REMARK  10 active torsions:
REMARK  status: ('A' for Active; 'I' for Inactive)
REMARK    1  A    between atoms: C2_2  and  C3_3 
REMARK    2  A    between atoms: C3_3  and  C4_4 
REMARK    3  A    between atoms: C3_3  and  C9_10 
REMARK    4  A    between atoms: C4_4  and  C5_5 
REMARK    5  A    between atoms: C5_5  and  C6_6 
REMARK    6  A    between atoms: C9_10  and  C10_11 
REMARK    7  A    between atoms: C13_15  and  O7_31 
REMARK    8  A    between atoms: C14_16  and  C16_19 
REMARK    9  A    between atoms: C16_19  and  C17_20 
REMARK   10  A    between atoms: C18_21  and  C19_22 
ROOT
HETATM    1  C10 UNL     1      -0.242  -2.621   0.578  1.00  0.00     0.029 A 
HETATM    2  C11 UNL     1       0.174  -2.461   1.914  1.00  0.00     0.131 A 
HETATM    3  O2  UNL     1      -0.627  -2.789   2.908  1.00  0.00    -0.190 OA
HETATM    4  C12 UNL     1       1.451  -1.949   2.187  1.00  0.00     0.051 A 
HETATM    5  C13 UNL     1       2.318  -1.594   1.139  1.00  0.00     0.101 A 
HETATM    6  C14 UNL     1       1.900  -1.756  -0.197  1.00  0.00     0.086 A 
HETATM    7  C15 UNL     1       0.619  -2.270  -0.479  1.00  0.00     0.134 A 
HETATM    8  O3  UNL     1       0.225  -2.422  -1.729  1.00  0.00    -0.190 OA
ENDROOT
BRANCH   6   9
HETATM    9  C16 UNL     1       2.816  -1.379  -1.317  1.00  0.00     0.200 C 
HETATM   10  O6  UNL     1       3.033  -2.145  -2.227  1.00  0.00    -0.286 OA
BRANCH   9  11
HETATM   11  C17 UNL     1       3.455  -0.059  -1.291  1.00  0.00     0.042 C 
HETATM   12  C18 UNL     1       2.857   0.978  -0.680  1.00  0.00     0.005 C 
BRANCH  12  13
HETATM   13  C19 UNL     1       3.547   2.305  -0.680  1.00  0.00     0.026 A 
HETATM   14  C20 UNL     1       2.797   3.498  -0.680  1.00  0.00     0.133 A 
HETATM   15  O4  UNL     1       1.479   3.465  -0.680  1.00  0.00    -0.190 OA
HETATM   16  C21 UNL     1       3.463   4.738  -0.680  1.00  0.00     0.055 A 
HETATM   17  C22 UNL     1       4.867   4.793  -0.680  1.00  0.00     0.133 A 
HETATM   18  C23 UNL     1       5.609   3.600  -0.680  1.00  0.00     0.028 A 
HETATM   19  O5  UNL     1       5.484   5.957  -0.680  1.00  0.00    -0.190 OA
HETATM   20  C24 UNL     1       4.953   2.359  -0.680  1.00  0.00     0.004 A 
ENDBRANCH  12  13
ENDBRANCH   9  11
ENDBRANCH   6   9
BRANCH   5  21
HETATM   21  O7  UNL     1       3.514  -1.113   1.416  1.00  0.00    -0.328 OA
HETATM   22  C25 UNL     1       3.805  -0.785   2.768  1.00  0.00     0.181 C 
ENDBRANCH   5  21
BRANCH   1  23
HETATM   23  C9  UNL     1      -1.598  -3.166   0.283  1.00  0.00     0.035 C 
BRANCH  23  24
HETATM   24  C3  UNL     1      -2.688  -2.119   0.519  1.00  0.00     0.023 C 
BRANCH  24  25
HETATM   25  C2  UNL     1      -4.070  -2.711   0.475  1.00  0.00    -0.044 C 
HETATM   26  C1  UNL     1      -4.623  -3.590   1.562  1.00  0.00     0.026 C 
HETATM   27  C26 UNL     1      -4.848  -2.444  -0.588  1.00  0.00    -0.009 C 
ENDBRANCH  24  25
BRANCH  24  28
HETATM   28  C4  UNL     1      -2.543  -0.901  -0.393  1.00  0.00     0.007 C 
BRANCH  28  29
HETATM   29  C5  UNL     1      -3.402   0.281   0.062  1.00  0.00     0.031 C 
BRANCH  29  30
HETATM   30  C6  UNL     1      -3.227   1.514  -0.826  1.00  0.00     0.127 C 
HETATM   31  O1  UNL     1      -4.109   2.426  -0.215  1.00  0.00    -0.226 OA
HETATM   32  C7  UNL     1      -1.813   2.094  -0.756  1.00  0.00     0.033 C 
HETATM   33  C8  UNL     1      -3.697   1.279  -2.260  1.00  0.00     0.033 C 
ENDBRANCH  29  30
ENDBRANCH  28  29
ENDBRANCH  24  28
ENDBRANCH  23  24
ENDBRANCH   1  23
TORSDOF 10
