REMARK  7 active torsions:
REMARK  status: ('A' for Active; 'I' for Inactive)
REMARK    1  A    between atoms: C4_4  and  C5_5 
REMARK    2  A    between atoms: C5_5  and  C6_6 
REMARK    3  A    between atoms: C6_6  and  C7_7 
REMARK    4  A    between atoms: C6_6  and  C24_30 
REMARK    5  A    between atoms: C7_7  and  C8_8 
REMARK    6  A    between atoms: C11_12  and  O6_28 
REMARK    7  A    between atoms: C14_16  and  C15_17 
ROOT
HETATM    1  C8  UNL     1      -1.135   0.041   0.535  1.00  0.00     0.026 A 
HETATM    2  C9  UNL     1      -2.268   0.834   0.842  1.00  0.00     0.131 A 
HETATM    3  O1  UNL     1      -3.504   0.350   0.656  1.00  0.00    -0.190 OA
HETATM    4  C10 UNL     1      -2.102   2.143   1.348  1.00  0.00     0.051 A 
HETATM    5  C11 UNL     1      -0.805   2.676   1.533  1.00  0.00     0.101 A 
HETATM    6  C12 UNL     1       0.334   1.891   1.211  1.00  0.00     0.079 A 
HETATM    7  C13 UNL     1       0.170   0.557   0.740  1.00  0.00     0.097 A 
HETATM    8  O2  UNL     1       1.236  -0.232   0.482  1.00  0.00    -0.329 OA
HETATM    9  C14 UNL     1       2.529   0.076   1.023  1.00  0.00     0.153 C 
HETATM   10  C21 UNL     1       2.836   1.576   0.857  1.00  0.00     0.104 C 
HETATM   11  C22 UNL     1       1.707   2.455   1.354  1.00  0.00     0.180 C 
HETATM   12  O5  UNL     1       2.004   3.533   1.813  1.00  0.00    -0.291 OA
ENDROOT
BRANCH   1  13
HETATM   13  C7  UNL     1      -1.312  -1.322   0.008  1.00  0.00     0.035 C 
BRANCH  13  14
HETATM   14  C6  UNL     1      -1.723  -1.307  -1.467  1.00  0.00     0.027 C 
BRANCH  14  15
HETATM   15  C5  UNL     1      -0.623  -0.758  -2.377  1.00  0.00     0.030 C 
BRANCH  15  16
HETATM   16  C4  UNL     1      -1.076  -0.627  -3.807  1.00  0.00    -0.034 C 
HETATM   17  C2  UNL     1      -0.416   0.221  -4.613  1.00  0.00    -0.048 C 
HETATM   18  C1  UNL     1      -0.787   0.529  -6.039  1.00  0.00     0.026 C 
HETATM   19  C3  UNL     1       0.797   0.930  -4.072  1.00  0.00     0.026 C 
ENDBRANCH  15  16
ENDBRANCH  14  15
BRANCH  14  20
HETATM   20  C24 UNL     1      -2.240  -2.641  -1.932  1.00  0.00    -0.044 C 
HETATM   21  C25 UNL     1      -1.420  -3.902  -1.883  1.00  0.00     0.026 C 
HETATM   22  C26 UNL     1      -3.492  -2.709  -2.414  1.00  0.00    -0.009 C 
ENDBRANCH  14  20
ENDBRANCH  13  14
ENDBRANCH   1  13
BRANCH   5  23
HETATM   23  O6  UNL     1      -0.672   3.926   2.006  1.00  0.00    -0.328 OA
HETATM   24  C23 UNL     1      -1.850   4.631   2.369  1.00  0.00     0.181 C 
ENDBRANCH   5  23
BRANCH   9  25
HETATM   25  C15 UNL     1       2.606  -0.369   2.445  1.00  0.00     0.031 A 
HETATM   26  C16 UNL     1       2.424  -1.725   2.779  1.00  0.00     0.131 A 
HETATM   27  O3  UNL     1       2.186  -2.619   1.840  1.00  0.00    -0.190 OA
HETATM   28  C17 UNL     1       2.498  -2.127   4.125  1.00  0.00     0.054 A 
HETATM   29  C18 UNL     1       2.752  -1.184   5.137  1.00  0.00     0.133 A 
HETATM   30  C19 UNL     1       2.934   0.168   4.799  1.00  0.00     0.027 A 
HETATM   31  O4  UNL     1       2.820  -1.566   6.397  1.00  0.00    -0.190 OA
HETATM   32  C20 UNL     1       2.859   0.576   3.457  1.00  0.00     0.002 A 
ENDBRANCH   9  25
TORSDOF 7
