REMARK  2 active torsions:
REMARK  status: ('A' for Active; 'I' for Inactive)
REMARK    1  A    between atoms: N1_2  and  C2_3 
REMARK    2  A    between atoms: C18_20  and  C19_21 
ROOT
HETATM    1  C2  UNL     1       4.068  -0.283   0.045  1.00  0.00     0.253 C 
HETATM    2  C3  UNL     1       3.605   0.834   1.020  1.00  0.00     0.184 C 
HETATM    3  O1  UNL     1       4.266   0.738   2.272  1.00  0.00    -0.221 OA
HETATM    4  C4  UNL     1       2.076   0.828   1.285  1.00  0.00     0.039 C 
HETATM    5  C5  UNL     1       1.234   0.123   0.195  1.00  0.00     0.017 C 
HETATM    6  C6  UNL     1       1.744  -1.313   0.064  1.00  0.00    -0.047 C 
HETATM    7  C7  UNL     1       3.234  -1.565   0.197  1.00  0.00     0.058 C 
HETATM    8  C8  UNL     1       0.922  -2.360  -0.160  1.00  0.00    -0.035 C 
HETATM    9  C9  UNL     1      -0.580  -2.231  -0.236  1.00  0.00     0.025 C 
HETATM   10  C10 UNL     1      -1.076  -0.779  -0.371  1.00  0.00     0.005 C 
HETATM   11  C11 UNL     1      -0.279   0.156   0.563  1.00  0.00     0.004 C 
HETATM   12  C12 UNL     1      -0.873   1.582   0.555  1.00  0.00     0.000 C 
HETATM   13  C13 UNL     1      -2.375   1.598   0.861  1.00  0.00     0.000 C 
HETATM   14  C14 UNL     1      -3.149   0.721  -0.143  1.00  0.00     0.006 C 
HETATM   15  C15 UNL     1      -2.602  -0.715  -0.152  1.00  0.00     0.001 C 
HETATM   16  C16 UNL     1      -3.129  -1.281   1.172  1.00  0.00     0.001 C 
HETATM   17  C17 UNL     1      -4.445  -0.553   1.439  1.00  0.00     0.007 C 
HETATM   18  C18 UNL     1      -4.596   0.498   0.334  1.00  0.00     0.058 C 
HETATM   19  C21 UNL     1      -3.098   1.322  -1.549  1.00  0.00     0.000 C 
HETATM   20  C22 UNL     1       1.445   0.816  -1.160  1.00  0.00     0.004 C 
ENDROOT
BRANCH   1  21
HETATM   21  N1  UNL     1       5.496  -0.580   0.148  1.00  0.00     0.142 N 
HETATM   22  C1  UNL     1       5.857  -1.658  -0.756  1.00  0.00     0.285 C 
HETATM   23  C23 UNL     1       6.285   0.607  -0.137  1.00  0.00     0.285 C 
ENDBRANCH   1  21
BRANCH  18  24
HETATM   24  C19 UNL     1      -5.531   0.017  -0.754  1.00  0.00     0.151 C 
HETATM   25  O2  UNL     1      -5.598  -1.154  -1.045  1.00  0.00    -0.296 OA
HETATM   26  C20 UNL     1      -6.379   1.041  -1.463  1.00  0.00     0.072 C 
ENDBRANCH  18  24
TORSDOF 2
