REMARK  1 active torsions:
REMARK  status: ('A' for Active; 'I' for Inactive)
REMARK    1  A    between atoms: C13_16  and  O5_20 
ROOT
HETATM    1  C1  UNL     1       0.170  -4.723   0.858  1.00  0.00     0.027 A 
HETATM    2  C2  UNL     1       1.584  -4.740   0.861  1.00  0.00     0.133 A 
HETATM    3  O1  UNL     1       2.240  -5.909   0.861  1.00  0.00    -0.190 OA
HETATM    4  C3  UNL     1       2.306  -3.524   0.859  1.00  0.00     0.051 A 
HETATM    5  C4  UNL     1       1.618  -2.288   0.853  1.00  0.00     0.094 A 
HETATM    6  C5  UNL     1       0.196  -2.269   0.892  1.00  0.00     0.028 A 
HETATM    7  C6  UNL     1      -0.522  -3.491   0.876  1.00  0.00     0.002 A 
HETATM    8  C7  UNL     1      -0.532  -0.980   0.972  1.00  0.00     0.152 C 
HETATM    9  O2  UNL     1      -1.488  -0.824  -0.092  1.00  0.00    -0.329 OA
HETATM   10  C8  UNL     1      -1.508   0.440  -0.514  1.00  0.00     0.093 A 
HETATM   11  C9  UNL     1      -0.482   1.206   0.062  1.00  0.00     0.007 A 
HETATM   12  C10 UNL     1       0.358   0.309   0.943  1.00  0.00     0.086 C 
HETATM   13  C11 UNL     1       1.729   0.049   0.299  1.00  0.00     0.156 C 
HETATM   14  O3  UNL     1       2.327  -1.143   0.814  1.00  0.00    -0.331 OA
HETATM   15  C12 UNL     1      -0.366   2.588  -0.238  1.00  0.00     0.024 A 
HETATM   16  C13 UNL     1      -1.259   3.211  -1.134  1.00  0.00     0.119 A 
HETATM   17  C14 UNL     1      -2.276   2.446  -1.740  1.00  0.00     0.155 A 
HETATM   18  C15 UNL     1      -2.390   1.074  -1.428  1.00  0.00     0.053 A 
HETATM   19  O4  UNL     1      -3.129   3.013  -2.604  1.00  0.00    -0.188 OA
ENDROOT
BRANCH  16  20
HETATM   20  O5  UNL     1      -1.137   4.518  -1.406  1.00  0.00    -0.326 OA
HETATM   21  C16 UNL     1      -0.122   5.247  -0.731  1.00  0.00     0.181 C 
ENDBRANCH  16  20
TORSDOF 1
