REMARK  10 active torsions:
REMARK  status: ('A' for Active; 'I' for Inactive)
REMARK    1  A    between atoms: C4_4  and  C5_5 
REMARK    2  A    between atoms: C5_5  and  C6_6 
REMARK    3  A    between atoms: C6_6  and  C7_7 
REMARK    4  A    between atoms: C6_6  and  C25_31 
REMARK    5  A    between atoms: C7_7  and  C8_8 
REMARK    6  A    between atoms: C11_12  and  O6_29 
REMARK    7  A    between atoms: C12_13  and  C14_16 
REMARK    8  A    between atoms: C14_16  and  C15_17 
REMARK    9  A    between atoms: C16_18  and  C17_19 
REMARK   10  A    between atoms: C18_20  and  O3_21 
ROOT
HETATM    1  C8  UNL     1      -0.758   1.695  -0.440  1.00  0.00     0.029 A 
HETATM    2  C9  UNL     1      -0.942   1.275  -1.770  1.00  0.00     0.131 A 
HETATM    3  O1  UNL     1      -1.303   2.137  -2.699  1.00  0.00    -0.190 OA
HETATM    4  C10 UNL     1      -0.738  -0.072  -2.109  1.00  0.00     0.051 A 
HETATM    5  C11 UNL     1      -0.354  -1.004  -1.131  1.00  0.00     0.101 A 
HETATM    6  C12 UNL     1      -0.170  -0.582   0.201  1.00  0.00     0.086 A 
HETATM    7  C13 UNL     1      -0.373   0.768   0.549  1.00  0.00     0.134 A 
HETATM    8  O2  UNL     1      -0.201   1.166   1.795  1.00  0.00    -0.190 OA
ENDROOT
BRANCH   6   9
HETATM    9  C14 UNL     1       0.240  -1.570   1.248  1.00  0.00     0.200 C 
HETATM   10  O5  UNL     1       1.100  -1.301   2.055  1.00  0.00    -0.286 OA
BRANCH   9  11
HETATM   11  C15 UNL     1      -0.422  -2.879   1.277  1.00  0.00     0.042 C 
HETATM   12  C16 UNL     1       0.094  -3.891   1.996  1.00  0.00     0.005 C 
BRANCH  12  13
HETATM   13  C17 UNL     1      -0.617  -5.205   1.996  1.00  0.00     0.022 A 
HETATM   14  C18 UNL     1      -2.026  -5.256   1.996  1.00  0.00     0.096 A 
HETATM   15  C20 UNL     1      -2.678  -6.502   1.996  1.00  0.00     0.052 A 
HETATM   16  C21 UNL     1      -1.934  -7.695   1.996  1.00  0.00     0.133 A 
HETATM   17  C22 UNL     1      -0.529  -7.641   1.996  1.00  0.00     0.028 A 
HETATM   18  O4  UNL     1      -2.551  -8.859   1.996  1.00  0.00    -0.190 OA
HETATM   19  C23 UNL     1       0.127  -6.399   1.996  1.00  0.00     0.004 A 
BRANCH  14  20
HETATM   20  O3  UNL     1      -2.738  -4.147   1.996  1.00  0.00    -0.328 OA
HETATM   21  C19 UNL     1      -4.152  -4.262   1.984  1.00  0.00     0.181 C 
ENDBRANCH  14  20
ENDBRANCH  12  13
ENDBRANCH   9  11
ENDBRANCH   6   9
BRANCH   5  22
HETATM   22  O6  UNL     1      -0.166  -2.266  -1.469  1.00  0.00    -0.328 OA
HETATM   23  C24 UNL     1      -0.219  -2.602  -2.848  1.00  0.00     0.181 C 
ENDBRANCH   5  22
BRANCH   1  24
HETATM   24  C7  UNL     1      -0.973   3.121  -0.074  1.00  0.00     0.035 C 
BRANCH  24  25
HETATM   25  C6  UNL     1       0.350   3.879   0.039  1.00  0.00     0.027 C 
BRANCH  25  26
HETATM   26  C5  UNL     1       1.096   3.969  -1.293  1.00  0.00     0.030 C 
BRANCH  26  27
HETATM   27  C4  UNL     1       2.434   4.641  -1.158  1.00  0.00    -0.034 C 
HETATM   28  C2  UNL     1       3.439   4.233  -1.949  1.00  0.00    -0.048 C 
HETATM   29  C1  UNL     1       3.332   3.176  -3.016  1.00  0.00     0.026 C 
HETATM   30  C3  UNL     1       4.795   4.863  -1.774  1.00  0.00     0.026 C 
ENDBRANCH  26  27
ENDBRANCH  25  26
BRANCH  25  31
HETATM   31  C25 UNL     1       0.187   5.223   0.697  1.00  0.00    -0.044 C 
HETATM   32  C26 UNL     1       0.199   6.320  -0.076  1.00  0.00    -0.009 C 
HETATM   33  C27 UNL     1       0.014   5.393   2.182  1.00  0.00     0.026 C 
ENDBRANCH  25  31
ENDBRANCH  24  25
ENDBRANCH   1  24
TORSDOF 10
