REMARK  5 active torsions:
REMARK  status: ('A' for Active; 'I' for Inactive)
REMARK    1  A    between atoms: C3_3  and  C4_4 
REMARK    2  A    between atoms: C4_4  and  C5_5 
REMARK    3  A    between atoms: C7_8  and  C20_26 
REMARK    4  A    between atoms: C13_15  and  C14_17 
REMARK    5  A    between atoms: C20_26  and  C21_27 
ROOT
HETATM    1  C5  UNL     1      -1.953   1.738   1.248  1.00  0.00     0.033 A 
HETATM    2  C6  UNL     1      -2.068   0.445   0.682  1.00  0.00     0.128 A 
HETATM    3  O1  UNL     1      -3.277  -0.109   0.518  1.00  0.00    -0.191 OA
HETATM    4  C7  UNL     1      -0.906  -0.264   0.291  1.00  0.00     0.030 A 
HETATM    5  C8  UNL     1       0.375   0.316   0.467  1.00  0.00     0.097 A 
HETATM    6  C9  UNL     1       0.486   1.631   1.002  1.00  0.00     0.082 A 
HETATM    7  C10 UNL     1      -0.678   2.332   1.410  1.00  0.00     0.134 A 
HETATM    8  O2  UNL     1      -0.582   3.561   1.942  1.00  0.00    -0.190 OA
HETATM    9  C11 UNL     1       1.832   2.262   1.117  1.00  0.00     0.180 C 
HETATM   10  C12 UNL     1       2.986   1.482   0.525  1.00  0.00     0.104 C 
HETATM   11  C13 UNL     1       2.760  -0.037   0.639  1.00  0.00     0.153 C 
HETATM   12  O3  UNL     1       1.473  -0.391   0.119  1.00  0.00    -0.329 OA
HETATM   13  O6  UNL     1       2.094   3.328   1.629  1.00  0.00    -0.291 OA
ENDROOT
BRANCH  11  14
HETATM   14  C14 UNL     1       3.803  -0.822  -0.072  1.00  0.00     0.031 A 
HETATM   15  C15 UNL     1       3.809  -0.887  -1.480  1.00  0.00     0.131 A 
HETATM   16  O4  UNL     1       2.891  -0.254  -2.184  1.00  0.00    -0.190 OA
HETATM   17  C16 UNL     1       4.803  -1.633  -2.139  1.00  0.00     0.054 A 
HETATM   18  C17 UNL     1       5.789  -2.311  -1.400  1.00  0.00     0.133 A 
HETATM   19  C18 UNL     1       5.779  -2.244   0.002  1.00  0.00     0.027 A 
HETATM   20  O5  UNL     1       6.719  -3.008  -2.023  1.00  0.00    -0.190 OA
HETATM   21  C19 UNL     1       4.789  -1.500   0.666  1.00  0.00     0.002 A 
ENDBRANCH  11  14
BRANCH   4  22
HETATM   22  C20 UNL     1      -1.027  -1.609  -0.295  1.00  0.00     0.056 C 
BRANCH  22  23
HETATM   23  C21 UNL     1      -1.361  -2.650   0.740  1.00  0.00    -0.030 C 
HETATM   24  C22 UNL     1      -1.736  -3.871   0.326  1.00  0.00    -0.048 C 
HETATM   25  C23 UNL     1      -2.119  -5.016   1.225  1.00  0.00     0.026 C 
HETATM   26  C24 UNL     1      -1.789  -4.141  -1.154  1.00  0.00     0.026 C 
ENDBRANCH  22  23
ENDBRANCH   4  22
BRANCH   1  27
HETATM   27  C4  UNL     1      -3.164   2.467   1.668  1.00  0.00     0.056 C 
BRANCH  27  28
HETATM   28  C3  UNL     1      -3.248   3.834   1.043  1.00  0.00    -0.030 C 
HETATM   29  C2  UNL     1      -3.520   3.924  -0.269  1.00  0.00    -0.048 C 
HETATM   30  C1  UNL     1      -3.762   2.654  -1.041  1.00  0.00     0.026 C 
HETATM   31  C25 UNL     1      -3.566   5.289  -0.900  1.00  0.00     0.026 C 
ENDBRANCH  27  28
ENDBRANCH   1  27
TORSDOF 5
