REMARK  7 active torsions:
REMARK  status: ('A' for Active; 'I' for Inactive)
REMARK    1  A    between atoms: C5_5  and  O2_7 
REMARK    2  A    between atoms: O2_7  and  C6_8 
REMARK    3  A    between atoms: C6_8  and  C7_9 
REMARK    4  A    between atoms: C11_14  and  O5_16 
REMARK    5  A    between atoms: O5_16  and  C12_17 
REMARK    6  A    between atoms: C18_24  and  C21_29 
REMARK    7  A    between atoms: C24_32  and  O9_35 
ROOT
HETATM    1  O5  UNL     1       3.783   0.617  -2.658  1.00  0.00    -0.304 OA
ENDROOT
BRANCH   1   2
HETATM    2  C11 UNL     1       3.932  -0.418  -1.695  1.00  0.00     0.274 C 
HETATM    3  C10 UNL     1       5.420  -0.805  -1.559  1.00  0.00     0.241 C 
HETATM    4  C9  UNL     1       5.629  -1.830  -0.424  1.00  0.00     0.220 C 
HETATM    5  O10 UNL     1       5.861  -1.348  -2.791  1.00  0.00    -0.215 OA
HETATM    6  C8  UNL     1       4.949  -1.324   0.867  1.00  0.00     0.215 C 
HETATM    7  O11 UNL     1       7.018  -2.019  -0.195  1.00  0.00    -0.218 OA
HETATM    8  C7  UNL     1       3.483  -0.910   0.605  1.00  0.00     0.180 C 
HETATM    9  O3  UNL     1       4.965  -2.344   1.850  1.00  0.00    -0.218 OA
HETATM   10  O4  UNL     1       3.440   0.045  -0.447  1.00  0.00    -0.326 OA
BRANCH   8  11
HETATM   11  C6  UNL     1       2.818  -0.258   1.822  1.00  0.00     0.177 C 
BRANCH  11  12
HETATM   12  O2  UNL     1       1.434  -0.164   1.574  1.00  0.00    -0.326 OA
BRANCH  12  13
HETATM   13  C5  UNL     1       0.719   0.445   2.629  1.00  0.00     0.270 C 
HETATM   14  C4  UNL     1      -0.758   0.684   2.217  1.00  0.00     0.241 C 
HETATM   15  C3  UNL     1      -1.594   1.205   3.410  1.00  0.00     0.220 C 
HETATM   16  O12 UNL     1      -0.807   1.629   1.160  1.00  0.00    -0.215 OA
HETATM   17  C2  UNL     1      -1.373   0.295   4.639  1.00  0.00     0.215 C 
HETATM   18  O13 UNL     1      -2.971   1.217   3.066  1.00  0.00    -0.218 OA
HETATM   19  C1  UNL     1       0.129   0.096   4.924  1.00  0.00     0.181 C 
HETATM   20  O14 UNL     1      -1.969   0.869   5.787  1.00  0.00    -0.218 OA
HETATM   21  O1  UNL     1       0.772  -0.410   3.762  1.00  0.00    -0.326 OA
ENDBRANCH  12  13
ENDBRANCH  11  12
ENDBRANCH   8  11
ENDBRANCH   1   2
BRANCH   1  22
HETATM   22  C12 UNL     1       2.547   1.067  -2.914  1.00  0.00     0.099 A 
HETATM   23  C13 UNL     1       2.365   2.240  -3.680  1.00  0.00     0.025 A 
HETATM   24  C14 UNL     1       1.063   2.725  -3.938  1.00  0.00     0.007 A 
HETATM   25  C15 UNL     1      -0.062   2.033  -3.426  1.00  0.00     0.060 A 
HETATM   26  C16 UNL     1       0.115   0.830  -2.690  1.00  0.00     0.099 A 
HETATM   27  C20 UNL     1      -1.436   2.570  -3.649  1.00  0.00     0.208 C 
HETATM   28  C17 UNL     1       1.424   0.363  -2.420  1.00  0.00     0.049 A 
HETATM   29  O6  UNL     1      -0.939   0.123  -2.235  1.00  0.00    -0.326 OA
HETATM   30  C18 UNL     1      -2.236   0.297  -2.819  1.00  0.00     0.181 C 
HETATM   31  C19 UNL     1      -2.566   1.805  -2.975  1.00  0.00     0.245 C 
HETATM   32  O8  UNL     1      -3.770   1.942  -3.715  1.00  0.00    -0.212 OA
HETATM   33  O7  UNL     1      -1.713   3.553  -4.301  1.00  0.00    -0.288 OA
BRANCH  30  34
HETATM   34  C21 UNL     1      -3.223  -0.437  -1.985  1.00  0.00     0.008 A 
HETATM   35  C22 UNL     1      -3.295  -1.840  -2.051  1.00  0.00     0.000 A 
HETATM   36  C23 UNL     1      -4.227  -2.533  -1.262  1.00  0.00     0.024 A 
HETATM   37  C24 UNL     1      -5.092  -1.828  -0.404  1.00  0.00     0.094 A 
HETATM   38  C25 UNL     1      -5.016  -0.426  -0.340  1.00  0.00     0.024 A 
HETATM   39  C26 UNL     1      -4.084   0.270  -1.129  1.00  0.00     0.000 A 
BRANCH  37  40
HETATM   40  O9  UNL     1      -5.967  -2.480   0.336  1.00  0.00    -0.328 OA
HETATM   41  C27 UNL     1      -6.770  -1.728   1.234  1.00  0.00     0.181 C 
ENDBRANCH  37  40
ENDBRANCH  30  34
ENDBRANCH   1  22
TORSDOF 7
