REMARK  1 active torsions:
REMARK  status: ('A' for Active; 'I' for Inactive)
REMARK    1  A    between atoms: C18_22  and  C19_23 
ROOT
HETATM    1  C1  UNL     1      -2.979   1.238  -0.269  1.00  0.00     0.015 A 
HETATM    2  C2  UNL     1      -4.085   1.985  -0.365  1.00  0.00     0.001 A 
HETATM    3  C3  UNL     1      -5.270   1.356  -0.276  1.00  0.00     0.000 A 
HETATM    4  C4  UNL     1      -5.337   0.025  -0.090  1.00  0.00     0.002 A 
HETATM    5  C5  UNL     1      -4.220  -0.717   0.018  1.00  0.00     0.019 A 
HETATM    6  C6  UNL     1      -3.045  -0.085  -0.074  1.00  0.00     0.081 A 
HETATM    7  N1  UNL     1      -1.861  -0.532  -0.003  1.00  0.00    -0.244 NA
HETATM    8  C7  UNL     1      -0.999   0.392  -0.152  1.00  0.00     0.093 A 
HETATM    9  C8  UNL     1      -1.674   1.538  -0.312  1.00  0.00     0.000 A 
HETATM   10  C9  UNL     1      -1.005   2.865  -0.430  1.00  0.00     0.053 C 
HETATM   11  C10 UNL     1       0.444   2.664  -0.895  1.00  0.00     0.114 C 
HETATM   12  N2  UNL     1       1.078   1.419  -0.428  1.00  0.00    -0.294 N 
HETATM   13  C11 UNL     1       0.341   0.323  -0.136  1.00  0.00     0.080 A 
HETATM   14  C12 UNL     1       0.980  -0.820   0.164  1.00  0.00     0.019 A 
HETATM   15  C13 UNL     1       2.323  -0.922   0.205  1.00  0.00     0.009 A 
HETATM   16  C14 UNL     1       3.039   0.184  -0.097  1.00  0.00     0.075 A 
HETATM   17  C15 UNL     1       2.448   1.365  -0.429  1.00  0.00     0.262 A 
HETATM   18  O1  UNL     1       3.111   2.335  -0.722  1.00  0.00    -0.267 OA
HETATM   19  C16 UNL     1       4.382   0.111  -0.074  1.00  0.00     0.104 A 
HETATM   20  N3  UNL     1       5.021  -0.936   0.218  1.00  0.00    -0.242 NA
HETATM   21  C17 UNL     1       4.348  -1.966   0.505  1.00  0.00     0.099 A 
HETATM   22  C18 UNL     1       3.001  -2.056   0.526  1.00  0.00     0.019 A 
ENDROOT
BRANCH  22  23
HETATM   23  C19 UNL     1       2.410  -3.228   0.857  1.00  0.00     0.002 C 
HETATM   24  C20 UNL     1       2.987  -4.395   1.189  1.00  0.00     0.000 C 
ENDBRANCH  22  23
TORSDOF 1
