REMARK  9 active torsions:
REMARK  status: ('A' for Active; 'I' for Inactive)
REMARK    1  A    between atoms: C1_1  and  C21_27 
REMARK    2  A    between atoms: C7_8  and  C15_17 
REMARK    3  A    between atoms: C8_9  and  C10_12 
REMARK    4  A    between atoms: C10_12  and  C11_13 
REMARK    5  A    between atoms: C22_28  and  C34_42 
REMARK    6  A    between atoms: C23_29  and  C28_34 
REMARK    7  A    between atoms: C34_42  and  C35_43 
REMARK    8  A    between atoms: C39_47  and  C41_50 
REMARK    9  A    between atoms: C41_50  and  C42_51 
ROOT
HETATM    1  C21 UNL     1      -2.178   1.123   2.184  1.00  0.00     0.055 C 
HETATM    2  C22 UNL     1      -1.879   1.164   0.662  1.00  0.00     0.075 C 
HETATM    3  C23 UNL     1      -1.799   2.627   0.172  1.00  0.00     0.036 C 
HETATM    4  C24 UNL     1      -0.691   3.383   0.930  1.00  0.00     0.027 C 
HETATM    5  C25 UNL     1      -0.717   3.162   2.426  1.00  0.00    -0.048 C 
HETATM    6  C26 UNL     1      -1.381   2.131   2.990  1.00  0.00    -0.030 C 
HETATM    7  C27 UNL     1       0.033   4.141   3.293  1.00  0.00     0.026 C 
ENDROOT
BRANCH   1   8
HETATM    8  C1  UNL     1      -2.006  -0.232   2.734  1.00  0.00     0.030 A 
HETATM    9  C2  UNL     1      -3.141  -1.010   3.074  1.00  0.00     0.131 A 
HETATM   10  C3  UNL     1      -2.977  -2.313   3.604  1.00  0.00     0.055 A 
HETATM   11  O6  UNL     1      -4.375  -0.518   2.897  1.00  0.00    -0.190 OA
HETATM   12  C4  UNL     1      -1.682  -2.846   3.795  1.00  0.00     0.138 A 
HETATM   13  C5  UNL     1      -0.545  -2.068   3.455  1.00  0.00     0.087 A 
HETATM   14  O5  UNL     1      -1.549  -4.082   4.297  1.00  0.00    -0.190 OA
HETATM   15  C6  UNL     1      -0.705  -0.762   2.924  1.00  0.00     0.103 A 
HETATM   16  C9  UNL     1       0.834  -2.596   3.641  1.00  0.00     0.198 A 
HETATM   17  O1  UNL     1       0.381  -0.023   2.604  1.00  0.00    -0.307 OA
HETATM   18  C7  UNL     1       1.652  -0.447   2.752  1.00  0.00     0.101 A 
HETATM   19  C8  UNL     1       1.932  -1.680   3.248  1.00  0.00     0.044 A 
HETATM   20  O2  UNL     1       1.145  -3.684   4.074  1.00  0.00    -0.287 OA
BRANCH  18  21
HETATM   21  C15 UNL     1       2.766   0.473   2.359  1.00  0.00     0.048 A 
HETATM   22  C16 UNL     1       3.567   1.086   3.342  1.00  0.00     0.135 A 
HETATM   23  O3  UNL     1       3.350   0.859   4.623  1.00  0.00    -0.190 OA
HETATM   24  C17 UNL     1       4.610   1.945   2.955  1.00  0.00     0.055 A 
HETATM   25  C18 UNL     1       4.856   2.199   1.594  1.00  0.00     0.133 A 
HETATM   26  C19 UNL     1       4.053   1.586   0.615  1.00  0.00     0.028 A 
HETATM   27  O4  UNL     1       5.834   3.008   1.236  1.00  0.00    -0.190 OA
HETATM   28  C20 UNL     1       3.012   0.725   0.996  1.00  0.00     0.006 A 
ENDBRANCH  18  21
BRANCH  19  29
HETATM   29  C10 UNL     1       3.361  -2.146   3.412  1.00  0.00     0.057 C 
BRANCH  29  30
HETATM   30  C11 UNL     1       3.908  -2.641   2.100  1.00  0.00    -0.030 C 
HETATM   31  C12 UNL     1       5.219  -2.918   2.016  1.00  0.00    -0.048 C 
HETATM   32  C13 UNL     1       5.774  -3.369   0.691  1.00  0.00     0.026 C 
HETATM   33  C14 UNL     1       6.067  -2.762   3.250  1.00  0.00     0.026 C 
ENDBRANCH  29  30
ENDBRANCH  19  29
ENDBRANCH   1   8
BRANCH   2  34
HETATM   34  C34 UNL     1      -2.908   0.361  -0.107  1.00  0.00     0.175 C 
HETATM   35  O11 UNL     1      -4.088   0.600  -0.002  1.00  0.00    -0.291 OA
BRANCH  34  36
HETATM   36  C35 UNL     1      -2.422  -0.732  -1.002  1.00  0.00     0.060 A 
HETATM   37  C36 UNL     1      -1.328  -1.520  -0.604  1.00  0.00     0.007 A 
HETATM   38  C37 UNL     1      -0.861  -2.551  -1.436  1.00  0.00     0.027 A 
HETATM   39  C38 UNL     1      -1.486  -2.801  -2.670  1.00  0.00     0.129 A 
HETATM   40  C39 UNL     1      -2.584  -2.012  -3.070  1.00  0.00     0.033 A 
HETATM   41  O10 UNL     1      -1.041  -3.772  -3.443  1.00  0.00    -0.190 OA
HETATM   42  C40 UNL     1      -3.055  -0.977  -2.236  1.00  0.00     0.132 A 
HETATM   43  O9  UNL     1      -4.082  -0.240  -2.615  1.00  0.00    -0.190 OA
BRANCH  40  44
HETATM   44  C41 UNL     1      -3.248  -2.275  -4.375  1.00  0.00     0.056 C 
BRANCH  44  45
HETATM   45  C42 UNL     1      -2.320  -2.049  -5.539  1.00  0.00    -0.030 C 
HETATM   46  C43 UNL     1      -2.256  -0.820  -6.078  1.00  0.00    -0.048 C 
HETATM   47  C44 UNL     1      -1.461  -0.449  -7.301  1.00  0.00     0.026 C 
HETATM   48  C45 UNL     1      -3.031   0.293  -5.426  1.00  0.00     0.026 C 
ENDBRANCH  44  45
ENDBRANCH  40  44
ENDBRANCH  34  36
ENDBRANCH   2  34
BRANCH   3  49
HETATM   49  C28 UNL     1      -1.588   2.731  -1.303  1.00  0.00     0.004 A 
HETATM   50  C29 UNL     1      -2.621   3.190  -2.141  1.00  0.00     0.129 A 
HETATM   51  O7  UNL     1      -3.791   3.531  -1.635  1.00  0.00    -0.190 OA
HETATM   52  C30 UNL     1      -2.404   3.285  -3.527  1.00  0.00     0.054 A 
HETATM   53  C31 UNL     1      -1.164   2.926  -4.080  1.00  0.00     0.133 A 
HETATM   54  C32 UNL     1      -0.135   2.467  -3.240  1.00  0.00     0.027 A 
HETATM   55  O8  UNL     1      -0.965   3.018  -5.379  1.00  0.00    -0.190 OA
HETATM   56  C33 UNL     1      -0.346   2.369  -1.854  1.00  0.00    -0.000 A 
ENDBRANCH   3  49
TORSDOF 9
