REMARK  1 active torsions:
REMARK  status: ('A' for Active; 'I' for Inactive)
REMARK    1  A    between atoms: C2_3  and  C3_4 
ROOT
HETATM    1  O1  UNL     1       2.148  -4.399   1.340  1.00  0.00    -0.190 OA
HETATM    2  C1  UNL     1       2.096  -3.691   0.199  1.00  0.00     0.131 A 
HETATM    3  C2  UNL     1       2.115  -2.268   0.221  1.00  0.00     0.029 A 
HETATM    4  C21 UNL     1       2.059  -1.564  -1.022  1.00  0.00     0.021 A 
HETATM    5  C22 UNL     1       1.986  -2.264  -2.229  1.00  0.00     0.082 A 
HETATM    6  C23 UNL     1       1.965  -3.678  -2.260  1.00  0.00     0.021 A 
HETATM    7  C24 UNL     1       2.020  -4.387  -1.035  1.00  0.00     0.029 A 
HETATM    8  N2  UNL     1       1.943  -1.348  -3.293  1.00  0.00    -0.245 NA
HETATM    9  C25 UNL     1       1.994  -0.076  -2.695  1.00  0.00     0.083 A 
HETATM   10  C26 UNL     1       2.063  -0.234  -1.311  1.00  0.00     0.019 A 
HETATM   11  C27 UNL     1       2.123   0.893  -0.447  1.00  0.00    -0.001 A 
HETATM   12  C28 UNL     1       2.115   2.191  -1.018  1.00  0.00     0.001 A 
HETATM   13  C29 UNL     1       2.041   2.359  -2.428  1.00  0.00     0.092 A 
HETATM   14  C30 UNL     1       1.984   1.219  -3.272  1.00  0.00     0.039 A 
HETATM   15  C31 UNL     1       1.932   1.416  -4.740  1.00  0.00     0.001 C 
HETATM   16  C32 UNL     1       1.793   2.660  -5.235  1.00  0.00     0.001 C 
HETATM   17  C33 UNL     1       1.598   3.850  -4.309  1.00  0.00     0.117 C 
HETATM   18  O4  UNL     1       2.041   3.602  -2.961  1.00  0.00    -0.332 OA
HETATM   19  C34 UNL     1       2.377   5.057  -4.834  1.00  0.00     0.035 C 
HETATM   20  C35 UNL     1       0.104   4.180  -4.252  1.00  0.00     0.035 C 
HETATM   21  C36 UNL     1       2.182   3.371  -0.139  1.00  0.00     0.033 C 
ENDROOT
BRANCH   3  22
HETATM   22  C3  UNL     1       2.193  -1.588   1.508  1.00  0.00     0.029 A 
HETATM   23  C4  UNL     1       3.477  -1.281   2.043  1.00  0.00     0.131 A 
HETATM   24  O2  UNL     1       4.598  -1.611   1.383  1.00  0.00    -0.190 OA
HETATM   25  C5  UNL     1       3.592  -0.619   3.295  1.00  0.00     0.029 A 
HETATM   26  C6  UNL     1       2.434  -0.256   4.023  1.00  0.00     0.021 A 
HETATM   27  C7  UNL     1       1.164  -0.564   3.484  1.00  0.00     0.082 A 
HETATM   28  C8  UNL     1       1.035  -1.215   2.256  1.00  0.00     0.021 A 
HETATM   29  N1  UNL     1      -0.115  -0.313   4.012  1.00  0.00    -0.245 NA
HETATM   30  C9  UNL     1      -0.295  -1.371   2.006  1.00  0.00     0.019 A 
HETATM   31  C10 UNL     1      -1.020  -0.828   3.066  1.00  0.00     0.083 A 
HETATM   32  C14 UNL     1      -0.955  -1.967   0.896  1.00  0.00    -0.001 A 
HETATM   33  C11 UNL     1      -2.436  -0.861   3.061  1.00  0.00     0.039 A 
HETATM   34  C12 UNL     1      -3.117  -1.449   1.963  1.00  0.00     0.092 A 
HETATM   35  C18 UNL     1      -3.230  -0.311   4.186  1.00  0.00     0.001 C 
HETATM   36  C13 UNL     1      -2.375  -2.004   0.887  1.00  0.00     0.001 A 
HETATM   37  O3  UNL     1      -4.469  -1.496   1.947  1.00  0.00    -0.332 OA
HETATM   38  C15 UNL     1      -3.076  -2.623  -0.252  1.00  0.00     0.033 C 
HETATM   39  C16 UNL     1      -5.268  -0.645   2.789  1.00  0.00     0.117 C 
HETATM   40  C17 UNL     1      -4.570  -0.244   4.078  1.00  0.00     0.001 C 
HETATM   41  C19 UNL     1      -6.563  -1.395   3.104  1.00  0.00     0.035 C 
HETATM   42  C20 UNL     1      -5.584   0.627   1.996  1.00  0.00     0.035 C 
ENDBRANCH   3  22
TORSDOF 1
