REMARK  7 active torsions:
REMARK  status: ('A' for Active; 'I' for Inactive)
REMARK    1  A    between atoms: C1_1  and  C2_2 
REMARK    2  A    between atoms: C8_10  and  C9_11 
REMARK    3  A    between atoms: C9_11  and  O4_13 
REMARK    4  A    between atoms: O4_13  and  C10_14 
REMARK    5  A    between atoms: C13_18  and  C16_21 
REMARK    6  A    between atoms: C16_21  and  C17_22 
REMARK    7  A    between atoms: C17_22  and  C18_24 
ROOT
HETATM    1  C10 UNL     1      -1.320   1.326  -0.455  1.00  0.00     0.129 A 
HETATM    2  C11 UNL     1      -2.727   1.273  -0.455  1.00  0.00     0.153 A 
HETATM    3  O5  UNL     1      -3.432   2.389  -0.455  1.00  0.00    -0.188 OA
HETATM    4  C12 UNL     1      -3.381   0.029  -0.455  1.00  0.00     0.025 A 
HETATM    5  C13 UNL     1      -2.637  -1.162  -0.455  1.00  0.00    -0.017 A 
HETATM    6  C14 UNL     1      -1.233  -1.109  -0.455  1.00  0.00    -0.002 A 
HETATM    7  C15 UNL     1      -0.576   0.133  -0.455  1.00  0.00     0.027 A 
ENDROOT
BRANCH   1   8
HETATM    8  O4  UNL     1      -0.697   2.488  -0.455  1.00  0.00    -0.271 OA
BRANCH   8   9
HETATM    9  C9  UNL     1       0.355   2.656   0.340  1.00  0.00     0.300 C 
HETATM   10  O3  UNL     1       0.728   1.834   1.144  1.00  0.00    -0.259 OA
BRANCH   9  11
HETATM   11  C8  UNL     1       1.068   3.930   0.195  1.00  0.00     0.069 C 
HETATM   12  C1  UNL     1       2.383   3.951  -0.080  1.00  0.00     0.006 C 
BRANCH  12  13
HETATM   13  C2  UNL     1       3.103   2.652  -0.235  1.00  0.00     0.002 A 
HETATM   14  C3  UNL     1       4.277   2.406   0.500  1.00  0.00     0.029 A 
HETATM   15  C4  UNL     1       4.959   1.186   0.359  1.00  0.00     0.156 A 
HETATM   16  C5  UNL     1       4.465   0.205  -0.522  1.00  0.00     0.156 A 
HETATM   17  O2  UNL     1       6.061   0.963   1.051  1.00  0.00    -0.188 OA
HETATM   18  C6  UNL     1       3.291   0.451  -1.256  1.00  0.00     0.029 A 
HETATM   19  O1  UNL     1       5.098  -0.943  -0.660  1.00  0.00    -0.188 OA
HETATM   20  C7  UNL     1       2.611   1.672  -1.113  1.00  0.00     0.002 A 
ENDBRANCH  12  13
ENDBRANCH   9  11
ENDBRANCH   8   9
ENDBRANCH   1   8
BRANCH   5  21
HETATM   21  C16 UNL     1      -3.334  -2.475  -0.455  1.00  0.00     0.071 C 
BRANCH  21  22
HETATM   22  C17 UNL     1      -3.195  -3.186   0.890  1.00  0.00     0.243 C 
HETATM   23  O6  UNL     1      -3.742  -2.354   1.889  1.00  0.00    -0.211 OA
BRANCH  22  24
HETATM   24  C18 UNL     1      -3.893  -4.520   0.910  1.00  0.00     0.217 C 
HETATM   25  O7  UNL     1      -3.154  -5.539   1.338  1.00  0.00    -0.645 OA
HETATM   26  O8  UNL     1      -5.045  -4.625   0.557  1.00  0.00    -0.645 OA
ENDBRANCH  22  24
ENDBRANCH  21  22
ENDBRANCH   5  21
TORSDOF 7
