REMARK  1 active torsions:
REMARK  status: ('A' for Active; 'I' for Inactive)
REMARK    1  A    between atoms: C22_29  and  C25_32 
ROOT
HETATM    1  C1  UNL     1       6.522   0.063  -0.623  1.00  0.00     0.068 C 
HETATM    2  C2  UNL     1       6.039  -0.021  -2.094  1.00  0.00     0.121 C 
HETATM    3  O1  UNL     1       5.092  -1.068  -2.236  1.00  0.00    -0.330 OA
HETATM    4  C3  UNL     1       3.854  -0.871  -1.553  1.00  0.00     0.295 C 
HETATM    5  C4  UNL     1       4.049  -0.191  -0.139  1.00  0.00     0.299 C 
HETATM    6  C5  UNL     1       5.479  -0.428   0.408  1.00  0.00     0.180 C 
HETATM    7  S1  UNL     1       5.731   0.445   1.977  1.00  0.00    -0.108 SA
HETATM    8  C6  UNL     1       6.703  -0.910   2.666  1.00  0.00     0.106 C 
HETATM    9  C7  UNL     1       6.322  -2.129   1.865  1.00  0.00     0.080 C 
HETATM   10  N1  UNL     1       5.723  -1.838   0.766  1.00  0.00    -0.261 NA
HETATM   11  O2  UNL     1       3.067  -0.623   0.805  1.00  0.00    -0.327 OA
HETATM   12  C8  UNL     1       1.828  -0.973   0.207  1.00  0.00     0.145 C 
HETATM   13  C9  UNL     1       2.051  -2.215  -0.664  1.00  0.00     0.145 C 
HETATM   14  O3  UNL     1       3.248  -2.154  -1.439  1.00  0.00    -0.327 OA
HETATM   15  C10 UNL     1       0.822  -2.408  -1.543  1.00  0.00     0.032 C 
HETATM   16  C11 UNL     1      -0.510  -2.486  -0.736  1.00  0.00     0.005 C 
HETATM   17  C12 UNL     1      -0.609  -1.725   0.658  1.00  0.00     0.007 C 
HETATM   18  C13 UNL     1       0.777  -1.314   1.254  1.00  0.00     0.032 C 
HETATM   19  C14 UNL     1      -1.648  -0.531   0.627  1.00  0.00     0.060 C 
HETATM   20  C15 UNL     1      -1.799   0.293  -0.670  1.00  0.00     0.145 A 
HETATM   21  C16 UNL     1      -1.912  -0.646  -1.922  1.00  0.00     0.142 A 
HETATM   22  C17 UNL     1      -1.689  -2.148  -1.686  1.00  0.00     0.032 C 
HETATM   23  O4  UNL     1      -0.787   0.115  -1.611  1.00  0.00    -0.354 OA
HETATM   24  C18 UNL     1      -2.297   1.768  -0.658  1.00  0.00     0.152 C 
HETATM   25  C19 UNL     1      -3.330   1.975   0.471  1.00  0.00     0.034 C 
HETATM   26  C20 UNL     1      -2.891   1.391   1.832  1.00  0.00     0.036 C 
HETATM   27  C21 UNL     1      -1.635   0.488   1.797  1.00  0.00     0.155 C 
HETATM   28  O5  UNL     1      -1.570  -0.174   3.045  1.00  0.00    -0.223 OA
HETATM   29  C22 UNL     1      -4.529   1.219  -0.147  1.00  0.00     0.023 C 
HETATM   30  C23 UNL     1      -4.482   1.547  -1.647  1.00  0.00     0.007 C 
HETATM   31  C24 UNL     1      -3.111   2.176  -1.895  1.00  0.00     0.033 C 
HETATM   32  C29 UNL     1      -3.728   3.455   0.623  1.00  0.00     0.003 C 
HETATM   33  O8  UNL     1      -1.199   2.656  -0.484  1.00  0.00    -0.224 OA
HETATM   34  C30 UNL     1      -1.193  -2.744   1.660  1.00  0.00     0.000 C 
HETATM   35  O9  UNL     1       3.867   1.207  -0.291  1.00  0.00    -0.187 OA
HETATM   36  C31 UNL     1       7.184  -0.301  -3.068  1.00  0.00     0.032 C 
ENDROOT
BRANCH  29  37
HETATM   37  C25 UNL     1      -5.869   1.510   0.490  1.00  0.00    -0.009 A 
HETATM   38  C26 UNL     1      -6.977   1.889  -0.145  1.00  0.00     0.062 A 
HETATM   39  C27 UNL     1      -8.014   2.053   0.863  1.00  0.00     0.296 A 
HETATM   40  O6  UNL     1      -7.533   1.775   2.084  1.00  0.00    -0.294 OA
HETATM   41  O7  UNL     1      -9.145   2.393   0.605  1.00  0.00    -0.259 OA
HETATM   42  C28 UNL     1      -6.148   1.412   1.967  1.00  0.00     0.175 A 
ENDBRANCH  29  37
TORSDOF 1
