REMARK  4 active torsions:
REMARK  status: ('A' for Active; 'I' for Inactive)
REMARK    1  A    between atoms: C15_15  and  C18_18 
REMARK    2  A    between atoms: C18_18  and  C19_19 
REMARK    3  A    between atoms: C19_19  and  C20_20 
REMARK    4  A    between atoms: C22_22  and  C23_23 
ROOT
HETATM    1  C1  UNL     1       6.317   3.265   2.006  1.00  0.00     0.041 C 
HETATM    2  C2  UNL     1       6.380   3.166   3.525  1.00  0.00     0.213 C 
HETATM    3  C3  UNL     1       5.124   2.664   4.205  1.00  0.00     0.199 C 
HETATM    4  C4  UNL     1       4.259   1.725   3.442  1.00  0.00     0.010 C 
HETATM    5  C5  UNL     1       4.114   1.928   1.944  1.00  0.00     0.021 C 
HETATM    6  C6  UNL     1       5.541   2.096   1.375  1.00  0.00     0.007 C 
HETATM    7  C7  UNL     1       3.309   0.775   1.276  1.00  0.00     0.004 C 
HETATM    8  C8  UNL     1       3.396  -0.563   2.029  1.00  0.00     0.005 C 
HETATM    9  C9  UNL     1       2.891  -0.376   3.466  1.00  0.00     0.026 C 
HETATM   10  C10 UNL     1       3.678   0.721   4.127  1.00  0.00    -0.028 C 
HETATM   11  C11 UNL     1       2.743  -1.705   1.219  1.00  0.00     0.000 C 
HETATM   12  C12 UNL     1       1.747  -1.296   0.100  1.00  0.00     0.000 C 
HETATM   13  C13 UNL     1       2.563  -0.429  -0.888  1.00  0.00     0.000 C 
HETATM   14  C14 UNL     1       3.573   0.532  -0.220  1.00  0.00     0.000 C 
HETATM   15  C15 UNL     1       1.338  -2.708  -0.426  1.00  0.00     0.000 C 
HETATM   16  C16 UNL     1       1.187  -3.530   0.878  1.00  0.00     0.000 C 
HETATM   17  C17 UNL     1       2.035  -2.841   1.964  1.00  0.00     0.000 C 
HETATM   18  C28 UNL     1       0.514  -0.549   0.663  1.00  0.00     0.000 C 
HETATM   19  C29 UNL     1       3.298   3.233   1.751  1.00  0.00     0.004 C 
HETATM   20  O1  UNL     1       4.929   3.043   5.352  1.00  0.00    -0.289 OA
HETATM   21  O2  UNL     1       6.692   4.421   4.103  1.00  0.00    -0.215 OA
ENDROOT
BRANCH  15  22
HETATM   22  C18 UNL     1       0.154  -2.916  -1.410  1.00  0.00     0.000 C 
HETATM   23  C27 UNL     1       0.000  -4.420  -1.735  1.00  0.00     0.000 C 
BRANCH  22  24
HETATM   24  C19 UNL     1       0.278  -2.141  -2.741  1.00  0.00     0.000 C 
BRANCH  24  25
HETATM   25  C20 UNL     1      -0.343  -0.748  -2.757  1.00  0.00     0.000 A 
HETATM   26  C21 UNL     1      -0.388  -0.095  -4.124  1.00  0.00     0.000 A 
HETATM   27  C22 UNL     1      -1.672  -0.518  -3.438  1.00  0.00     0.000 A 
HETATM   28  C26 UNL     1       0.071   1.354  -4.175  1.00  0.00     0.000 C 
BRANCH  27  29
HETATM   29  C23 UNL     1      -2.599   0.527  -2.814  1.00  0.00     0.000 C 
HETATM   30  C24 UNL     1      -3.533   1.151  -3.865  1.00  0.00     0.000 C 
HETATM   31  C25 UNL     1      -3.422  -0.080  -1.664  1.00  0.00     0.000 C 
ENDBRANCH  27  29
ENDBRANCH  24  25
ENDBRANCH  22  24
ENDBRANCH  15  22
TORSDOF 4
