REMARK  0 active torsions:
REMARK  status: ('A' for Active; 'I' for Inactive)
ROOT
HETATM    1  C1  UNL     1       2.139   0.996   0.194  1.00  0.00     0.042 A 
HETATM    2  C2  UNL     1       2.240  -0.344   0.277  1.00  0.00     0.044 A 
HETATM    3  C3  UNL     1       1.127  -1.123   0.334  1.00  0.00     0.217 A 
HETATM    4  C4  UNL     1      -0.099  -0.528   0.309  1.00  0.00     0.132 A 
HETATM    5  C5  UNL     1      -0.188   0.813   0.222  1.00  0.00     0.042 A 
HETATM    6  C6  UNL     1       0.921   1.596   0.164  1.00  0.00     0.194 A 
HETATM    7  O1  UNL     1       0.801   2.800   0.081  1.00  0.00    -0.287 OA
HETATM    8  C7  UNL     1      -1.543   1.484   0.178  1.00  0.00     0.034 C 
HETATM    9  C8  UNL     1      -2.653   0.490   0.529  1.00  0.00     0.033 C 
HETATM   10  C9  UNL     1      -2.400  -0.863  -0.136  1.00  0.00     0.099 C 
HETATM   11  O2  UNL     1      -1.185  -1.371   0.316  1.00  0.00    -0.333 OA
HETATM   12  C10 UNL     1      -3.496  -1.852   0.289  1.00  0.00     0.030 C 
HETATM   13  C11 UNL     1      -2.386  -0.776  -1.668  1.00  0.00     0.030 C 
HETATM   14  O3  UNL     1       1.206  -2.331   0.403  1.00  0.00    -0.284 OA
HETATM   15  C12 UNL     1       3.461  -0.913   0.302  1.00  0.00     0.003 A 
HETATM   16  C13 UNL     1       4.572  -0.162   0.248  1.00  0.00     0.000 A 
HETATM   17  C14 UNL     1       4.470   1.171   0.166  1.00  0.00     0.000 A 
HETATM   18  C15 UNL     1       3.258   1.745   0.138  1.00  0.00     0.003 A 
ENDROOT
TORSDOF 0
