REMARK  2 active torsions:
REMARK  status: ('A' for Active; 'I' for Inactive)
REMARK    1  A    between atoms: C2_2  and  C16_19 
REMARK    2  A    between atoms: C16_19  and  O5_21 
ROOT
HETATM    1  C1  UNL     1      -3.566  -0.539  -0.570  1.00  0.00     0.136 A 
HETATM    2  C2  UNL     1      -2.640   0.442  -0.370  1.00  0.00     0.092 A 
HETATM    3  C3  UNL     1      -1.318   0.077  -0.325  1.00  0.00     0.049 A 
HETATM    4  C4  UNL     1      -0.962  -1.228  -0.333  1.00  0.00     0.042 A 
HETATM    5  C5  UNL     1      -1.906  -2.175  -0.460  1.00  0.00     0.005 A 
HETATM    6  C6  UNL     1      -3.183  -1.823  -0.604  1.00  0.00     0.028 A 
HETATM    7  C7  UNL     1       0.328  -1.661  -0.240  1.00  0.00     0.198 A 
HETATM    8  C8  UNL     1       1.341  -0.756  -0.166  1.00  0.00     0.067 A 
HETATM    9  C9  UNL     1       1.014   0.547  -0.233  1.00  0.00     0.044 A 
HETATM   10  C10 UNL     1      -0.279   0.963  -0.333  1.00  0.00     0.196 A 
HETATM   11  O1  UNL     1      -0.456   2.145  -0.504  1.00  0.00    -0.287 OA
HETATM   12  C11 UNL     1       1.995   1.469  -0.205  1.00  0.00     0.003 A 
HETATM   13  C12 UNL     1       3.276   1.101  -0.100  1.00  0.00    -0.002 A 
HETATM   14  C13 UNL     1       3.603  -0.196  -0.024  1.00  0.00     0.004 A 
HETATM   15  C14 UNL     1       2.639  -1.141  -0.065  1.00  0.00     0.130 A 
HETATM   16  O2  UNL     1       3.053  -2.439   0.035  1.00  0.00    -0.190 OA
HETATM   17  C15 UNL     1       5.059  -0.593   0.099  1.00  0.00     0.033 C 
HETATM   18  O3  UNL     1       0.553  -2.850  -0.237  1.00  0.00    -0.286 OA
HETATM   19  O6  UNL     1      -4.918  -0.349  -0.646  1.00  0.00    -0.190 OA
ENDROOT
BRANCH   2  20
HETATM   20  C16 UNL     1      -3.164   1.711  -0.202  1.00  0.00     0.298 C 
HETATM   21  O4  UNL     1      -4.288   1.906  -0.625  1.00  0.00    -0.259 OA
BRANCH  20  22
HETATM   22  O5  UNL     1      -2.612   2.846   0.351  1.00  0.00    -0.296 OA
HETATM   23  C17 UNL     1      -1.933   2.715   1.586  1.00  0.00     0.185 C 
ENDBRANCH  20  22
ENDBRANCH   2  20
TORSDOF 2
