REMARK  10 active torsions:
REMARK  status: ('A' for Active; 'I' for Inactive)
REMARK    1  A    between atoms: C10_10  and  C21_24 
REMARK    2  A    between atoms: C10_10  and  C46_56 
REMARK    3  A    between atoms: C17_18  and  C18_20 
REMARK    4  A    between atoms: C22_25  and  O7_54 
REMARK    5  A    between atoms: C30_34  and  C43_50 
REMARK    6  A    between atoms: C31_35  and  C41_46 
REMARK    7  A    between atoms: C32_36  and  C39_44 
REMARK    8  A    between atoms: C41_46  and  O3_47 
REMARK    9  A    between atoms: C43_50  and  O5_51 
REMARK   10  A    between atoms: C46_56  and  O8_57 
ROOT
HETATM    1  C21 UNL     1       1.114  -2.095   0.687  1.00  0.00     0.012 A 
HETATM    2  C22 UNL     1       2.468  -2.016   0.794  1.00  0.00     0.092 A 
HETATM    3  C23 UNL     1       3.006  -1.022   1.530  1.00  0.00     0.040 A 
HETATM    4  C24 UNL     1       2.267  -0.091   2.148  1.00  0.00     0.054 A 
HETATM    5  C25 UNL     1       0.934  -0.216   2.067  1.00  0.00    -0.004 A 
HETATM    6  C26 UNL     1       0.369  -1.227   1.398  1.00  0.00    -0.004 A 
HETATM    7  C27 UNL     1       0.225   0.913   2.752  1.00  0.00     0.071 A 
HETATM    8  C28 UNL     1       1.555   1.746   3.372  1.00  0.00     0.097 A 
HETATM    9  N2  UNL     1       2.674   0.919   2.814  1.00  0.00    -0.347 N 
HETATM   10  C29 UNL     1       4.113   1.185   3.003  1.00  0.00     0.126 C 
HETATM   11  C30 UNL     1       1.631   3.446   2.970  1.00  0.00     0.117 C 
HETATM   12  C31 UNL     1       0.382   4.172   1.954  1.00  0.00     0.103 C 
HETATM   13  C32 UNL     1      -1.136   3.324   1.549  1.00  0.00     0.058 C 
HETATM   14  C33 UNL     1      -1.288   1.645   2.246  1.00  0.00     0.229 C 
HETATM   15  N3  UNL     1      -1.685   1.871   3.572  1.00  0.00     0.140 N 
HETATM   16  C34 UNL     1      -0.470   2.624   3.500  1.00  0.00     0.251 C 
HETATM   17  C35 UNL     1       0.400   2.051   1.891  1.00  0.00     0.043 C 
HETATM   18  C36 UNL     1      -2.935   2.548   3.828  1.00  0.00     0.276 C 
HETATM   19  C37 UNL     1      -3.095   3.825   3.060  1.00  0.00     0.004 C 
HETATM   20  C38 UNL     1      -2.284   4.186   2.061  1.00  0.00    -0.027 C 
ENDROOT
BRANCH   1  21
HETATM   21  C10 UNL     1       0.445  -3.187  -0.181  1.00  0.00     0.116 C 
HETATM   22  C8  UNL     1      -1.105  -3.224  -0.257  1.00  0.00    -0.032 A 
HETATM   23  C7  UNL     1      -2.082  -2.321  -0.572  1.00  0.00    -0.027 A 
HETATM   24  C9  UNL     1      -1.688  -4.623  -0.118  1.00  0.00     0.049 A 
HETATM   25  C2  UNL     1      -3.260  -2.980  -0.660  1.00  0.00    -0.008 A 
HETATM   26  C15 UNL     1      -2.066  -0.815  -0.848  1.00  0.00     0.061 C 
HETATM   27  C1  UNL     1      -3.109  -4.287  -0.410  1.00  0.00    -0.018 A 
HETATM   28  C3  UNL     1      -4.490  -2.532  -0.967  1.00  0.00    -0.001 A 
HETATM   29  C6  UNL     1      -4.131  -5.152  -0.435  1.00  0.00    -0.004 A 
HETATM   30  C5  UNL     1      -5.356  -4.689  -0.728  1.00  0.00    -0.000 A 
HETATM   31  C4  UNL     1      -5.529  -3.385  -0.995  1.00  0.00    -0.000 A 
HETATM   32  C14 UNL     1      -1.968  -0.353  -2.326  1.00  0.00     0.255 C 
HETATM   33  N1  UNL     1      -0.606  -0.056  -2.760  1.00  0.00     0.142 N 
HETATM   34  C13 UNL     1       0.388  -0.912  -2.172  1.00  0.00     0.281 C 
HETATM   35  C16 UNL     1      -0.357   0.034  -4.194  1.00  0.00     0.281 C 
HETATM   36  C12 UNL     1       0.359  -2.345  -2.692  1.00  0.00     0.162 C 
HETATM   37  C11 UNL     1       1.010  -3.267  -1.658  1.00  0.00     0.050 C 
HETATM   38  C20 UNL     1       0.959  -2.212  -4.095  1.00  0.00     0.065 C 
HETATM   39  O2  UNL     1      -0.905  -2.898  -2.941  1.00  0.00    -0.224 OA
HETATM   40  C17 UNL     1       0.064  -1.265  -4.931  1.00  0.00     0.161 C 
HETATM   41  O1  UNL     1      -1.122  -1.948  -5.253  1.00  0.00    -0.224 OA
BRANCH  40  42
HETATM   42  C18 UNL     1       0.747  -0.886  -6.258  1.00  0.00     0.033 C 
HETATM   43  C19 UNL     1       1.119  -2.073  -7.157  1.00  0.00     0.003 C 
ENDBRANCH  40  42
BRANCH  21  44
HETATM   44  C46 UNL     1       0.875  -4.428   0.649  1.00  0.00     0.279 C 
HETATM   45  O9  UNL     1       0.758  -4.494   1.854  1.00  0.00    -0.264 OA
BRANCH  44  46
HETATM   46  O8  UNL     1       1.420  -5.423  -0.101  1.00  0.00    -0.299 OA
HETATM   47  C47 UNL     1       1.884  -6.553   0.598  1.00  0.00     0.184 C 
ENDBRANCH  44  46
ENDBRANCH  21  44
ENDBRANCH   1  21
BRANCH   2  48
HETATM   48  O7  UNL     1       3.271  -2.958   0.194  1.00  0.00    -0.328 OA
HETATM   49  C45 UNL     1       4.423  -3.392   0.880  1.00  0.00     0.181 C 
ENDBRANCH   2  48
BRANCH  11  50
HETATM   50  C43 UNL     1       1.944   4.317   4.202  1.00  0.00     0.274 C 
HETATM   51  O6  UNL     1       1.388   4.131   5.263  1.00  0.00    -0.264 OA
BRANCH  50  52
HETATM   52  O5  UNL     1       2.841   5.340   4.068  1.00  0.00    -0.299 OA
HETATM   53  C44 UNL     1       3.639   5.542   2.927  1.00  0.00     0.184 C 
ENDBRANCH  50  52
ENDBRANCH  11  50
BRANCH  13  54
HETATM   54  C39 UNL     1      -1.401   3.342   0.004  1.00  0.00     0.006 C 
HETATM   55  C40 UNL     1      -2.799   2.863  -0.421  1.00  0.00     0.000 C 
ENDBRANCH  13  54
BRANCH  12  56
HETATM   56  C41 UNL     1       1.049   4.717   0.669  1.00  0.00     0.272 C 
HETATM   57  O4  UNL     1       1.729   3.997  -0.032  1.00  0.00    -0.264 OA
BRANCH  56  58
HETATM   58  O3  UNL     1       0.889   6.033   0.339  1.00  0.00    -0.299 OA
HETATM   59  C42 UNL     1       0.177   6.959   1.119  1.00  0.00     0.184 C 
ENDBRANCH  56  58
ENDBRANCH  12  56
TORSDOF 10
