REMARK  10 active torsions:
REMARK  status: ('A' for Active; 'I' for Inactive)
REMARK    1  A    between atoms: C9_10  and  C20_23 
REMARK    2  A    between atoms: C9_10  and  C22_27 
REMARK    3  A    between atoms: C16_18  and  C18_21 
REMARK    4  A    between atoms: C20_23  and  O2_24 
REMARK    5  A    between atoms: C27_32  and  O4_33 
REMARK    6  A    between atoms: C33_40  and  C45_58 
REMARK    7  A    between atoms: C34_41  and  C38_48 
REMARK    8  A    between atoms: C35_42  and  C36_43 
REMARK    9  A    between atoms: C36_43  and  O5_44 
REMARK   10  A    between atoms: C38_48  and  O9_50 
ROOT
HETATM    1  C22 UNL     1      -1.115   0.213  -0.550  1.00  0.00     0.013 A 
HETATM    2  C23 UNL     1       0.212   0.205  -0.307  1.00  0.00    -0.004 A 
HETATM    3  C24 UNL     1       0.733   0.808   0.764  1.00  0.00    -0.004 A 
HETATM    4  C25 UNL     1      -0.029   1.469   1.641  1.00  0.00     0.054 A 
HETATM    5  C26 UNL     1      -1.337   1.546   1.348  1.00  0.00     0.040 A 
HETATM    6  C27 UNL     1      -1.907   0.942   0.281  1.00  0.00     0.092 A 
HETATM    7  N3  UNL     1       0.598   1.917   2.662  1.00  0.00    -0.345 N 
HETATM    8  C29 UNL     1      -0.138   2.715   3.663  1.00  0.00     0.126 C 
HETATM    9  C30 UNL     1       2.071   1.566   2.679  1.00  0.00     0.128 A 
HETATM   10  C31 UNL     1       2.154   0.731   1.212  1.00  0.00     0.074 A 
HETATM   11  C32 UNL     1       3.223  -0.591   0.818  1.00  0.00     0.232 C 
HETATM   12  C33 UNL     1       3.654  -1.699   2.194  1.00  0.00     0.071 C 
HETATM   13  C34 UNL     1       3.364  -0.987   3.812  1.00  0.00     0.062 C 
HETATM   14  C35 UNL     1       2.753   0.688   4.064  1.00  0.00     0.242 C 
HETATM   15  O7  UNL     1       3.871   1.418   4.537  1.00  0.00    -0.209 OA
HETATM   16  C40 UNL     1       5.104  -2.111   1.944  1.00  0.00    -0.023 C 
HETATM   17  C41 UNL     1       5.960  -1.460   1.149  1.00  0.00     0.005 C 
HETATM   18  C42 UNL     1       5.620  -0.205   0.409  1.00  0.00     0.276 C 
HETATM   19  N4  UNL     1       4.306   0.298   0.722  1.00  0.00     0.140 N 
HETATM   20  C43 UNL     1       3.934   0.462   2.095  1.00  0.00     0.251 C 
HETATM   21  C44 UNL     1       2.179  -0.274   2.236  1.00  0.00     0.043 C 
ENDROOT
BRANCH   1  22
HETATM   22  C9  UNL     1      -1.605  -0.710  -1.689  1.00  0.00     0.133 C 
HETATM   23  C8  UNL     1      -3.113  -0.984  -1.861  1.00  0.00     0.067 A 
HETATM   24  C7  UNL     1      -4.191  -0.223  -2.202  1.00  0.00    -0.004 A 
HETATM   25  N1  UNL     1      -3.576  -2.160  -1.679  1.00  0.00    -0.249 NA
HETATM   26  C2  UNL     1      -5.261  -1.041  -2.160  1.00  0.00     0.015 A 
HETATM   27  C14 UNL     1      -4.367   1.247  -2.562  1.00  0.00     0.063 C 
HETATM   28  C1  UNL     1      -4.825  -2.258  -1.830  1.00  0.00     0.081 A 
HETATM   29  C3  UNL     1      -6.571  -0.848  -2.372  1.00  0.00     0.001 A 
HETATM   30  C6  UNL     1      -5.633  -3.315  -1.702  1.00  0.00     0.019 A 
HETATM   31  C5  UNL     1      -6.944  -3.117  -1.916  1.00  0.00     0.002 A 
HETATM   32  C4  UNL     1      -7.404  -1.897  -2.246  1.00  0.00     0.000 A 
HETATM   33  C13 UNL     1      -4.683   1.535  -4.051  1.00  0.00     0.255 C 
HETATM   34  N2  UNL     1      -3.549   1.561  -4.971  1.00  0.00     0.138 N 
HETATM   35  C12 UNL     1      -2.664   0.444  -4.718  1.00  0.00     0.253 C 
HETATM   36  C15 UNL     1      -2.830   2.832  -4.949  1.00  0.00     0.253 C 
HETATM   37  C11 UNL     1      -1.518   0.861  -3.780  1.00  0.00     0.065 C 
HETATM   38  C10 UNL     1      -0.933  -0.354  -3.062  1.00  0.00     0.024 C 
HETATM   39  C17 UNL     1      -0.575   1.700  -4.650  1.00  0.00     0.156 C 
HETATM   40  C16 UNL     1      -1.374   2.739  -5.468  1.00  0.00     0.064 C 
HETATM   41  O1  UNL     1       0.352   2.361  -3.820  1.00  0.00    -0.223 OA
BRANCH  40  42
HETATM   42  C18 UNL     1      -1.329   2.504  -6.994  1.00  0.00     0.004 C 
HETATM   43  C19 UNL     1       0.060   2.732  -7.608  1.00  0.00     0.000 C 
ENDBRANCH  40  42
BRANCH  22  44
HETATM   44  C20 UNL     1      -0.972  -2.104  -1.329  1.00  0.00     0.280 C 
HETATM   45  O3  UNL     1      -0.297  -2.718  -2.132  1.00  0.00    -0.264 OA
BRANCH  44  46
HETATM   46  O2  UNL     1      -1.148  -2.642  -0.082  1.00  0.00    -0.298 OA
HETATM   47  C21 UNL     1      -1.899  -2.089   0.969  1.00  0.00     0.184 C 
ENDBRANCH  44  46
ENDBRANCH  22  44
ENDBRANCH   1  22
BRANCH   6  48
HETATM   48  O4  UNL     1      -3.264   0.954   0.088  1.00  0.00    -0.328 OA
HETATM   49  C28 UNL     1      -4.126   1.517   1.048  1.00  0.00     0.181 C 
ENDBRANCH   6  48
BRANCH  14  50
HETATM   50  C36 UNL     1       1.680   0.610   5.192  1.00  0.00     0.305 C 
HETATM   51  O6  UNL     1       0.913  -0.331   5.235  1.00  0.00    -0.261 OA
BRANCH  50  52
HETATM   52  O5  UNL     1       1.621   1.553   6.180  1.00  0.00    -0.297 OA
HETATM   53  C37 UNL     1       2.389   2.726   6.277  1.00  0.00     0.185 C 
ENDBRANCH  50  52
ENDBRANCH  14  50
BRANCH  12  54
HETATM   54  C45 UNL     1       2.885  -3.067   2.027  1.00  0.00     0.010 C 
HETATM   55  C46 UNL     1       3.180  -4.204   3.024  1.00  0.00     0.001 C 
ENDBRANCH  12  54
BRANCH  13  56
HETATM   56  C38 UNL     1       4.389  -1.256   4.923  1.00  0.00     0.291 C 
HETATM   57  O8  UNL     1       4.443  -0.586   5.930  1.00  0.00    -0.260 OA
BRANCH  56  58
HETATM   58  O9  UNL     1       5.162  -2.343   4.701  1.00  0.00    -0.296 OA
HETATM   59  C39 UNL     1       6.028  -2.732   5.740  1.00  0.00     0.185 C 
ENDBRANCH  56  58
ENDBRANCH  13  56
TORSDOF 10
