REMARK  6 active torsions:
REMARK  status: ('A' for Active; 'I' for Inactive)
REMARK    1  A    between atoms: C3_3  and  C7_8 
REMARK    2  A    between atoms: C7_8  and  C8_9 
REMARK    3  A    between atoms: C9_10  and  C10_11 
REMARK    4  A    between atoms: C11_12  and  O2_13 
REMARK    5  A    between atoms: C13_15  and  C14_16 
REMARK    6  A    between atoms: C14_16  and  C15_17 
ROOT
HETATM    1  C10 UNL     1       0.802  -1.374   0.220  1.00  0.00     0.022 C 
HETATM    2  C11 UNL     1      -0.541  -1.403   0.026  1.00  0.00     0.092 C 
HETATM    3  C13 UNL     1      -1.136  -0.351  -0.591  1.00  0.00     0.030 C 
HETATM    4  C19 UNL     1      -0.414   0.641  -1.152  1.00  0.00     0.129 C 
HETATM    5  C20 UNL     1       0.921   0.579  -1.067  1.00  0.00     0.027 C 
HETATM    6  C21 UNL     1       1.515  -0.410  -0.391  1.00  0.00     0.004 C 
HETATM    7  O3  UNL     1      -0.999   1.679  -1.813  1.00  0.00    -0.190 OA
ENDROOT
BRANCH   1   8
HETATM    8  C9  UNL     1       1.432  -2.345   0.921  1.00  0.00     0.005 C 
HETATM    9  C8  UNL     1       2.673  -2.426   1.443  1.00  0.00     0.042 C 
BRANCH   9  10
HETATM   10  C7  UNL     1       3.628  -1.494   1.732  1.00  0.00     0.196 C 
HETATM   11  O4  UNL     1       4.757  -1.922   1.859  1.00  0.00    -0.287 OA
BRANCH  10  12
HETATM   12  C3  UNL     1       3.404  -0.165   1.963  1.00  0.00     0.041 A 
HETATM   13  C2  UNL     1       4.447   0.688   2.019  1.00  0.00     0.033 A 
HETATM   14  C1  UNL     1       4.303   2.006   2.242  1.00  0.00     0.156 A 
HETATM   15  C6  UNL     1       3.071   2.514   2.423  1.00  0.00     0.156 A 
HETATM   16  O5  UNL     1       5.378   2.840   2.248  1.00  0.00    -0.188 OA
HETATM   17  C5  UNL     1       2.028   1.670   2.431  1.00  0.00     0.030 A 
HETATM   18  O1  UNL     1       2.908   3.843   2.662  1.00  0.00    -0.188 OA
HETATM   19  C4  UNL     1       2.189   0.357   2.216  1.00  0.00     0.005 A 
ENDBRANCH  10  12
ENDBRANCH   9  10
ENDBRANCH   1   8
BRANCH   2  20
HETATM   20  O2  UNL     1      -1.315  -2.370   0.627  1.00  0.00    -0.328 OA
HETATM   21  C12 UNL     1      -1.649  -3.448  -0.222  1.00  0.00     0.181 C 
ENDBRANCH   2  20
BRANCH   3  22
HETATM   22  C14 UNL     1      -2.652  -0.245  -0.690  1.00  0.00     0.056 C 
BRANCH  22  23
HETATM   23  C15 UNL     1      -3.105  -0.366  -2.124  1.00  0.00    -0.030 C 
HETATM   24  C16 UNL     1      -4.130   0.289  -2.695  1.00  0.00    -0.048 C 
HETATM   25  C17 UNL     1      -4.467   0.086  -4.154  1.00  0.00     0.026 C 
HETATM   26  C18 UNL     1      -5.045   1.251  -1.976  1.00  0.00     0.026 C 
ENDBRANCH  22  23
ENDBRANCH   3  22
TORSDOF 6
