REMARK  7 active torsions:
REMARK  status: ('A' for Active; 'I' for Inactive)
REMARK    1  A    between atoms: C5_5  and  C7_7 
REMARK    2  A    between atoms: C7_7  and  C8_8 
REMARK    3  A    between atoms: C12_14  and  C35_43 
REMARK    4  A    between atoms: C29_36  and  C30_37 
REMARK    5  A    between atoms: C30_37  and  C31_38 
REMARK    6  A    between atoms: C39_47  and  C41_49 
REMARK    7  A    between atoms: C41_49  and  C42_50 
ROOT
HETATM    1  C1  UNL     1      -3.220  -0.933  -0.801  1.00  0.00     0.057 A 
HETATM    2  C2  UNL     1      -2.946   0.324  -1.202  1.00  0.00     0.102 A 
HETATM    3  C3  UNL     1      -3.973   1.026  -1.716  1.00  0.00     0.051 A 
HETATM    4  C4  UNL     1      -5.214   0.540  -1.881  1.00  0.00     0.129 A 
HETATM    5  C5  UNL     1      -5.463  -0.728  -1.499  1.00  0.00     0.008 A 
HETATM    6  C6  UNL     1      -4.457  -1.440  -0.959  1.00  0.00     0.003 A 
HETATM    7  O1  UNL     1      -6.189   1.342  -2.393  1.00  0.00    -0.190 OA
HETATM    8  O2  UNL     1      -1.733   0.942  -1.056  1.00  0.00    -0.306 OA
HETATM    9  C12 UNL     1      -0.871   0.465  -0.042  1.00  0.00     0.219 C 
HETATM   10  C13 UNL     1      -0.885  -1.052  -0.033  1.00  0.00     0.125 C 
HETATM   11  C14 UNL     1      -2.242  -1.694  -0.242  1.00  0.00     0.180 C 
HETATM   12  O3  UNL     1      -2.398  -2.843   0.109  1.00  0.00    -0.291 OA
HETATM   13  C15 UNL     1       0.329  -1.481  -0.879  1.00  0.00     0.071 C 
HETATM   14  C16 UNL     1       1.245  -0.278  -0.633  1.00  0.00     0.172 C 
HETATM   15  O4  UNL     1       0.408   0.842  -0.532  1.00  0.00    -0.326 OA
HETATM   16  C17 UNL     1       2.296   0.010  -1.708  1.00  0.00     0.274 C 
HETATM   17  O5  UNL     1       2.462  -1.073  -2.579  1.00  0.00    -0.304 OA
HETATM   18  C18 UNL     1       1.294  -1.506  -3.138  1.00  0.00     0.095 A 
HETATM   19  C19 UNL     1       0.195  -1.702  -2.380  1.00  0.00     0.003 A 
HETATM   20  C20 UNL     1      -0.914  -2.158  -2.988  1.00  0.00    -0.000 A 
HETATM   21  C21 UNL     1      -0.959  -2.374  -4.311  1.00  0.00     0.027 A 
HETATM   22  C22 UNL     1       0.118  -2.160  -5.080  1.00  0.00     0.133 A 
HETATM   23  C23 UNL     1       1.230  -1.733  -4.463  1.00  0.00     0.051 A 
HETATM   24  O6  UNL     1       0.100  -2.385  -6.421  1.00  0.00    -0.190 OA
HETATM   25  O7  UNL     1       3.530   0.261  -1.040  1.00  0.00    -0.304 OA
HETATM   26  C24 UNL     1       3.447   0.016   0.161  1.00  0.00     0.093 A 
HETATM   27  C25 UNL     1       2.211  -0.341   0.533  1.00  0.00     0.029 A 
HETATM   28  C26 UNL     1       1.983  -0.649   1.816  1.00  0.00     0.002 A 
HETATM   29  C27 UNL     1       2.998  -0.579   2.690  1.00  0.00     0.027 A 
HETATM   30  C28 UNL     1       4.238  -0.211   2.322  1.00  0.00     0.129 A 
HETATM   31  C29 UNL     1       4.471   0.100   1.029  1.00  0.00     0.030 A 
HETATM   32  O8  UNL     1       5.221  -0.159   3.263  1.00  0.00    -0.190 OA
ENDROOT
BRANCH   9  33
HETATM   33  C35 UNL     1      -1.188   1.082   1.328  1.00  0.00     0.029 A 
HETATM   34  C36 UNL     1      -2.411   0.973   1.874  1.00  0.00     0.003 A 
HETATM   35  C37 UNL     1      -2.681   1.479   3.085  1.00  0.00     0.027 A 
HETATM   36  C38 UNL     1      -1.746   2.113   3.809  1.00  0.00     0.127 A 
HETATM   37  C39 UNL     1      -0.508   2.239   3.287  1.00  0.00     0.007 A 
HETATM   38  O9  UNL     1      -2.052   2.596   5.044  1.00  0.00    -0.191 OA
HETATM   39  C40 UNL     1      -0.262   1.721   2.069  1.00  0.00    -0.002 A 
BRANCH  37  40
HETATM   40  C41 UNL     1       0.574   2.929   4.103  1.00  0.00     0.054 C 
BRANCH  40  41
HETATM   41  C42 UNL     1       1.858   3.267   3.385  1.00  0.00    -0.030 C 
HETATM   42  C43 UNL     1       3.117   3.070   3.817  1.00  0.00    -0.048 C 
HETATM   43  C44 UNL     1       4.300   3.496   2.976  1.00  0.00     0.026 C 
HETATM   44  C45 UNL     1       3.501   2.462   5.146  1.00  0.00     0.026 C 
ENDBRANCH  40  41
ENDBRANCH  37  40
ENDBRANCH   9  33
BRANCH   5  45
HETATM   45  C7  UNL     1      -6.855  -1.323  -1.631  1.00  0.00     0.054 C 
BRANCH  45  46
HETATM   46  C8  UNL     1      -6.893  -2.805  -1.906  1.00  0.00    -0.030 C 
HETATM   47  C9  UNL     1      -7.849  -3.668  -1.516  1.00  0.00    -0.048 C 
HETATM   48  C10 UNL     1      -7.772  -5.133  -1.880  1.00  0.00     0.026 C 
HETATM   49  C11 UNL     1      -9.076  -3.293  -0.718  1.00  0.00     0.026 C 
ENDBRANCH  45  46
ENDBRANCH   5  45
BRANCH  31  50
HETATM   50  C30 UNL     1       5.850   0.516   0.552  1.00  0.00     0.056 C 
BRANCH  50  51
HETATM   51  C31 UNL     1       5.856   1.831  -0.188  1.00  0.00    -0.030 C 
HETATM   52  C32 UNL     1       6.856   2.282  -0.966  1.00  0.00    -0.048 C 
HETATM   53  C33 UNL     1       6.756   3.604  -1.689  1.00  0.00     0.026 C 
HETATM   54  C34 UNL     1       8.150   1.538  -1.194  1.00  0.00     0.026 C 
ENDBRANCH  50  51
ENDBRANCH  31  50
TORSDOF 7
