REMARK  7 active torsions:
REMARK  status: ('A' for Active; 'I' for Inactive)
REMARK    1  A    between atoms: C2_3  and  O7_13 
REMARK    2  A    between atoms: C3_5  and  C6_10 
REMARK    3  A    between atoms: O7_13  and  C7_14 
REMARK    4  A    between atoms: C8_15  and  O13_25 
REMARK    5  A    between atoms: C9_17  and  C12_22 
REMARK    6  A    between atoms: O13_25  and  C13_26 
REMARK    7  A    between atoms: C33_46  and  C36_49 
ROOT
HETATM    1  C13 UNL     1       2.124   0.686  -1.531  1.00  0.00     0.118 C 
HETATM    2  C14 UNL     1       2.012   1.484  -2.828  1.00  0.00     0.030 C 
HETATM    3  C15 UNL     1       1.070   2.709  -2.720  1.00  0.00     0.002 C 
HETATM    4  C16 UNL     1       1.357   3.554  -1.430  1.00  0.00     0.000 C 
HETATM    5  C17 UNL     1       1.759   2.816  -0.118  1.00  0.00     0.003 C 
HETATM    6  C18 UNL     1       2.691   1.625  -0.475  1.00  0.00     0.030 C 
HETATM    7  C19 UNL     1       0.484   2.343   0.661  1.00  0.00     0.005 C 
HETATM    8  C20 UNL     1      -0.687   3.335   0.915  1.00  0.00     0.004 C 
HETATM    9  C21 UNL     1      -0.918   4.209  -0.341  1.00  0.00     0.000 C 
HETATM   10  C22 UNL     1       0.334   4.663  -1.103  1.00  0.00     0.000 C 
HETATM   11  C23 UNL     1      -2.003   2.518   1.295  1.00  0.00     0.015 C 
HETATM   12  C24 UNL     1      -1.721   1.587   2.480  1.00  0.00    -0.049 C 
HETATM   13  C25 UNL     1      -0.469   1.165   2.727  1.00  0.00    -0.035 C 
HETATM   14  C26 UNL     1       0.761   1.540   1.943  1.00  0.00     0.025 C 
HETATM   15  C27 UNL     1      -2.923   1.023   3.240  1.00  0.00     0.018 C 
HETATM   16  C28 UNL     1      -3.885   2.147   3.682  1.00  0.00     0.004 C 
HETATM   17  C29 UNL     1      -4.340   2.893   2.407  1.00  0.00     0.001 C 
HETATM   18  C30 UNL     1      -3.167   3.493   1.620  1.00  0.00     0.004 C 
HETATM   19  C31 UNL     1      -5.143   1.548   4.356  1.00  0.00     0.001 C 
HETATM   20  C32 UNL     1      -4.832   0.570   5.498  1.00  0.00     0.010 C 
HETATM   21  C33 UNL     1      -3.881  -0.561   5.062  1.00  0.00     0.079 C 
HETATM   22  C34 UNL     1      -2.624   0.046   4.396  1.00  0.00     0.014 C 
HETATM   23  C35 UNL     1      -4.596  -1.540   4.103  1.00  0.00     0.011 C 
HETATM   24  C37 UNL     1      -3.205   3.128   4.662  1.00  0.00     0.000 C 
HETATM   25  C38 UNL     1      -2.521   1.568   0.175  1.00  0.00     0.004 C 
HETATM   26  C39 UNL     1      -0.310   4.287   2.085  1.00  0.00     0.000 C 
HETATM   27  C40 UNL     1       2.697   3.736   0.718  1.00  0.00     0.000 C 
HETATM   28  C41 UNL     1       1.341   3.581  -3.978  1.00  0.00     0.000 C 
HETATM   29  C42 UNL     1      -0.378   2.202  -2.882  1.00  0.00     0.000 C 
ENDROOT
BRANCH   1  30
HETATM   30  O13 UNL     1       3.003  -0.395  -1.723  1.00  0.00    -0.332 OA
BRANCH  30  31
HETATM   31  C8  UNL     1       2.367  -1.652  -1.803  1.00  0.00     0.267 C 
HETATM   32  C7  UNL     1       3.000  -2.560  -2.841  1.00  0.00     0.207 C 
HETATM   33  C11 UNL     1       4.390  -2.999  -2.407  1.00  0.00     0.217 C 
HETATM   34  C10 UNL     1       4.390  -3.510  -0.976  1.00  0.00     0.223 C 
HETATM   35  O9  UNL     1       5.272  -1.908  -2.513  1.00  0.00    -0.218 OA
HETATM   36  C9  UNL     1       3.614  -2.621  -0.009  1.00  0.00     0.237 C 
HETATM   37  O10 UNL     1       3.845  -4.812  -0.950  1.00  0.00    -0.217 OA
HETATM   38  O8  UNL     1       2.358  -2.218  -0.511  1.00  0.00    -0.318 OA
BRANCH  32  39
HETATM   39  O7  UNL     1       2.148  -3.663  -2.980  1.00  0.00    -0.324 OA
BRANCH  39  40
HETATM   40  C2  UNL     1       2.292  -4.414  -4.163  1.00  0.00     0.270 C 
HETATM   41  C1  UNL     1       2.181  -5.887  -3.849  1.00  0.00     0.241 C 
HETATM   42  O1  UNL     1       2.386  -6.634  -5.027  1.00  0.00    -0.215 OA
HETATM   43  C5  UNL     1       0.825  -6.210  -3.256  1.00  0.00     0.221 C 
HETATM   44  C4  UNL     1      -0.265  -5.683  -4.177  1.00  0.00     0.223 C 
HETATM   45  O3  UNL     1       0.708  -5.625  -1.977  1.00  0.00    -0.218 OA
HETATM   46  C3  UNL     1      -0.048  -4.234  -4.610  1.00  0.00     0.237 C 
HETATM   47  O4  UNL     1      -0.281  -6.488  -5.335  1.00  0.00    -0.217 OA
HETATM   48  O2  UNL     1       1.276  -3.994  -5.047  1.00  0.00    -0.318 OA
BRANCH  46  49
HETATM   49  C6  UNL     1      -0.590  -3.170  -3.659  1.00  0.00     0.217 C 
HETATM   50  O5  UNL     1      -0.262  -1.925  -4.057  1.00  0.00    -0.646 OA
HETATM   51  O6  UNL     1      -1.282  -3.346  -2.685  1.00  0.00    -0.646 OA
ENDBRANCH  46  49
ENDBRANCH  39  40
ENDBRANCH  32  39
BRANCH  36  52
HETATM   52  C12 UNL     1       4.417  -1.481   0.613  1.00  0.00     0.217 C 
HETATM   53  O11 UNL     1       3.772  -0.942   1.665  1.00  0.00    -0.646 OA
HETATM   54  O12 UNL     1       5.519  -1.096   0.300  1.00  0.00    -0.646 OA
ENDBRANCH  36  52
ENDBRANCH  30  31
ENDBRANCH   1  30
BRANCH  21  55
HETATM   55  C36 UNL     1      -3.543  -1.368   6.322  1.00  0.00     0.184 C 
HETATM   56  O14 UNL     1      -4.201  -2.267   6.790  1.00  0.00    -0.647 OA
HETATM   57  O15 UNL     1      -2.419  -0.961   6.939  1.00  0.00    -0.647 OA
ENDBRANCH  21  55
TORSDOF 7
