REMARK  7 active torsions:
REMARK  status: ('A' for Active; 'I' for Inactive)
REMARK    1  A    between atoms: C2_3  and  O7_13 
REMARK    2  A    between atoms: C3_5  and  C6_10 
REMARK    3  A    between atoms: O7_13  and  C7_14 
REMARK    4  A    between atoms: C8_15  and  O13_25 
REMARK    5  A    between atoms: C9_17  and  C12_22 
REMARK    6  A    between atoms: O13_25  and  C13_26 
REMARK    7  A    between atoms: C33_46  and  C36_49 
ROOT
HETATM    1  C13 UNL     1      -2.526   0.136  -0.869  1.00  0.00     0.118 C 
HETATM    2  C14 UNL     1      -2.709   0.986  -2.130  1.00  0.00     0.030 C 
HETATM    3  C15 UNL     1      -1.446   1.690  -2.694  1.00  0.00     0.002 C 
HETATM    4  C16 UNL     1      -0.654   2.372  -1.536  1.00  0.00     0.001 C 
HETATM    5  C17 UNL     1      -0.309   1.454  -0.329  1.00  0.00     0.006 C 
HETATM    6  C18 UNL     1      -1.667   0.877   0.159  1.00  0.00     0.030 C 
HETATM    7  C19 UNL     1       0.315   2.336   0.803  1.00  0.00     0.022 C 
HETATM    8  C20 UNL     1       1.544   3.222   0.441  1.00  0.00     0.007 C 
HETATM    9  C21 UNL     1       1.125   4.077  -0.777  1.00  0.00     0.001 C 
HETATM   10  C22 UNL     1       0.541   3.256  -1.948  1.00  0.00     0.000 C 
HETATM   11  C23 UNL     1       1.947   4.074   1.708  1.00  0.00     0.019 C 
HETATM   12  C24 UNL     1       2.421   3.065   2.756  1.00  0.00    -0.031 C 
HETATM   13  C25 UNL     1       1.473   1.966   3.021  1.00  0.00    -0.009 C 
HETATM   14  C26 UNL     1       0.531   1.626   2.123  1.00  0.00    -0.027 C 
HETATM   15  C27 UNL     1       3.588   3.159   3.442  1.00  0.00    -0.048 C 
HETATM   16  C28 UNL     1       4.590   4.277   3.195  1.00  0.00     0.015 C 
HETATM   17  C29 UNL     1       3.830   5.515   2.676  1.00  0.00     0.004 C 
HETATM   18  C30 UNL     1       2.994   5.180   1.431  1.00  0.00     0.004 C 
HETATM   19  C31 UNL     1       5.276   4.602   4.538  1.00  0.00     0.004 C 
HETATM   20  C32 UNL     1       6.080   3.421   5.115  1.00  0.00     0.011 C 
HETATM   21  C33 UNL     1       5.399   2.043   4.954  1.00  0.00     0.082 C 
HETATM   22  C34 UNL     1       3.911   2.224   4.597  1.00  0.00     0.032 C 
HETATM   23  C35 UNL     1       5.491   1.245   6.276  1.00  0.00     0.011 C 
HETATM   24  C37 UNL     1       5.674   3.901   2.160  1.00  0.00     0.004 C 
HETATM   25  C38 UNL     1       0.750   4.825   2.364  1.00  0.00     0.004 C 
HETATM   26  C39 UNL     1       2.786   2.386   0.031  1.00  0.00     0.001 C 
HETATM   27  C40 UNL     1       0.665   0.304  -0.651  1.00  0.00     0.000 C 
HETATM   28  C41 UNL     1      -1.953   2.768  -3.692  1.00  0.00     0.000 C 
HETATM   29  C42 UNL     1      -0.623   0.701  -3.546  1.00  0.00     0.000 C 
ENDROOT
BRANCH   1  30
HETATM   30  O13 UNL     1      -1.980  -1.126  -1.146  1.00  0.00    -0.332 OA
BRANCH  30  31
HETATM   31  C8  UNL     1      -2.913  -2.158  -1.368  1.00  0.00     0.267 C 
HETATM   32  C7  UNL     1      -2.313  -3.260  -2.225  1.00  0.00     0.207 C 
HETATM   33  C11 UNL     1      -1.216  -4.000  -1.477  1.00  0.00     0.217 C 
HETATM   34  C10 UNL     1      -1.671  -4.424  -0.092  1.00  0.00     0.223 C 
HETATM   35  O9  UNL     1      -0.076  -3.178  -1.372  1.00  0.00    -0.218 OA
HETATM   36  C9  UNL     1      -2.385  -3.317   0.672  1.00  0.00     0.237 C 
HETATM   37  O10 UNL     1      -2.547  -5.522  -0.181  1.00  0.00    -0.217 OA
HETATM   38  O8  UNL     1      -3.343  -2.625  -0.106  1.00  0.00    -0.318 OA
BRANCH  32  39
HETATM   39  O7  UNL     1      -3.340  -4.147  -2.576  1.00  0.00    -0.324 OA
BRANCH  39  40
HETATM   40  C2  UNL     1      -3.119  -4.929  -3.729  1.00  0.00     0.270 C 
HETATM   41  C1  UNL     1      -3.202  -6.409  -3.429  1.00  0.00     0.241 C 
HETATM   42  O1  UNL     1      -2.831  -7.122  -4.589  1.00  0.00    -0.215 OA
HETATM   43  C5  UNL     1      -4.590  -6.847  -3.010  1.00  0.00     0.221 C 
HETATM   44  C4  UNL     1      -5.619  -6.301  -3.982  1.00  0.00     0.223 C 
HETATM   45  O3  UNL     1      -4.871  -6.431  -1.693  1.00  0.00    -0.218 OA
HETATM   46  C3  UNL     1      -5.432  -4.814  -4.271  1.00  0.00     0.237 C 
HETATM   47  O4  UNL     1      -5.481  -7.011  -5.194  1.00  0.00    -0.217 OA
HETATM   48  O2  UNL     1      -4.102  -4.529  -4.661  1.00  0.00    -0.318 OA
BRANCH  46  49
HETATM   49  C6  UNL     1      -5.932  -3.899  -3.157  1.00  0.00     0.217 C 
HETATM   50  O5  UNL     1      -5.995  -2.611  -3.539  1.00  0.00    -0.646 OA
HETATM   51  O6  UNL     1      -6.210  -4.245  -2.034  1.00  0.00    -0.646 OA
ENDBRANCH  46  49
ENDBRANCH  39  40
ENDBRANCH  32  39
BRANCH  36  52
HETATM   52  C12 UNL     1      -1.412  -2.403   1.405  1.00  0.00     0.217 C 
HETATM   53  O11 UNL     1      -1.987  -1.741   2.425  1.00  0.00    -0.646 OA
HETATM   54  O12 UNL     1      -0.241  -2.274   1.140  1.00  0.00    -0.646 OA
ENDBRANCH  36  52
ENDBRANCH  30  31
ENDBRANCH   1  30
BRANCH  21  55
HETATM   55  C36 UNL     1       6.051   1.163   3.883  1.00  0.00     0.184 C 
HETATM   56  O14 UNL     1       5.508   0.664   2.925  1.00  0.00    -0.647 OA
HETATM   57  O15 UNL     1       7.359   0.940   4.114  1.00  0.00    -0.647 OA
ENDBRANCH  21  55
TORSDOF 7
