REMARK WARNING: 32 MAX_TORS EXCEEDED!!!
REMARK  41 active torsions:
REMARK  status: ('A' for Active; 'I' for Inactive)
REMARK    1  A    between atoms: C4_4  and  O3_9 
REMARK    2  A    between atoms: C5_6  and  C6_7 
REMARK    3  A    between atoms: O3_9  and  C7_10 
REMARK    4  A    between atoms: C7_10  and  C8_11 
REMARK    5  A    between atoms: C8_11  and  N1_12 
REMARK    6  A    between atoms: C8_11  and  C33_38 
REMARK       I    between atoms: N1_12  and  C9_13 
REMARK    7  A    between atoms: C9_13  and  C10_14 
REMARK    8  A    between atoms: C10_14  and  C11_15 
REMARK    9  A    between atoms: C11_15  and  C12_16 
REMARK   10  A    between atoms: C12_16  and  C13_17 
REMARK   11  A    between atoms: C13_17  and  C14_18 
REMARK   12  A    between atoms: C14_18  and  C15_19 
REMARK   13  A    between atoms: C15_19  and  C16_20 
REMARK   14  A    between atoms: C16_20  and  C17_21 
REMARK   15  A    between atoms: C17_21  and  C18_22 
REMARK   16  A    between atoms: C18_22  and  C19_23 
REMARK   17  A    between atoms: C19_23  and  C20_24 
REMARK   18  A    between atoms: C20_24  and  C21_25 
REMARK   19  A    between atoms: C21_25  and  C22_26 
REMARK   20  A    between atoms: C22_26  and  C23_27 
REMARK   21  A    between atoms: C23_27  and  C24_28 
REMARK   22  A    between atoms: C24_28  and  C25_29 
REMARK   23  A    between atoms: C25_29  and  C26_30 
REMARK   24  A    between atoms: C26_30  and  C27_31 
REMARK   25  A    between atoms: C27_31  and  C28_32 
REMARK   26  A    between atoms: C28_32  and  C29_33 
REMARK   27  A    between atoms: C29_33  and  C30_34 
REMARK   28  A    between atoms: C30_34  and  C31_35 
REMARK   29  A    between atoms: C33_38  and  C34_40 
REMARK   30  A    between atoms: C35_41  and  C36_42 
REMARK   31  A    between atoms: C36_42  and  C37_43 
REMARK   32  A    between atoms: C37_43  and  C38_44 
REMARK   33  A    between atoms: C38_44  and  C39_45 
REMARK   34  A    between atoms: C39_45  and  C40_46 
REMARK   35  A    between atoms: C40_46  and  C41_47 
REMARK   36  A    between atoms: C41_47  and  C42_48 
REMARK   37  A    between atoms: C42_48  and  C43_49 
REMARK   38  A    between atoms: C43_49  and  C44_50 
REMARK   39  A    between atoms: C44_50  and  C45_51 
REMARK   40  A    between atoms: C45_51  and  C46_52 
REMARK   41  A    between atoms: C46_52  and  C47_53 
ROOT
HETATM    1  C8  UNL     1      -1.973   3.675  -1.725  1.00  0.00     0.170 C 
ENDROOT
BRANCH   1   2
HETATM    2  C7  UNL     1      -2.027   3.053  -3.128  1.00  0.00     0.172 C 
BRANCH   2   3
HETATM    3  O3  UNL     1      -3.287   2.458  -3.321  1.00  0.00    -0.327 OA
BRANCH   3   4
HETATM    4  C4  UNL     1      -3.562   2.092  -4.657  1.00  0.00     0.270 C 
HETATM    5  C3  UNL     1      -3.872   0.619  -4.808  1.00  0.00     0.241 C 
HETATM    6  C2  UNL     1      -5.280   0.229  -4.398  1.00  0.00     0.220 C 
HETATM    7  O6  UNL     1      -3.667   0.245  -6.153  1.00  0.00    -0.215 OA
HETATM    8  C1  UNL     1      -6.305   1.245  -4.870  1.00  0.00     0.215 C 
HETATM    9  O7  UNL     1      -5.347   0.090  -2.999  1.00  0.00    -0.218 OA
HETATM   10  C5  UNL     1      -5.878   2.688  -4.639  1.00  0.00     0.184 C 
HETATM   11  O8  UNL     1      -6.551   1.049  -6.244  1.00  0.00    -0.218 OA
HETATM   12  O1  UNL     1      -4.587   2.944  -5.125  1.00  0.00    -0.326 OA
BRANCH  10  13
HETATM   13  C6  UNL     1      -6.105   3.156  -3.205  1.00  0.00     0.214 C 
HETATM   14  O2  UNL     1      -5.741   4.515  -3.062  1.00  0.00    -0.218 OA
ENDBRANCH  10  13
ENDBRANCH   3   4
ENDBRANCH   2   3
ENDBRANCH   1   2
BRANCH   1  15
HETATM   15  N1  UNL     1      -2.781   2.885  -0.785  1.00  0.00    -0.234 NA
HETATM   16  C9  UNL     1      -3.998   3.287  -0.303  1.00  0.00     0.252 C 
HETATM   17  O4  UNL     1      -4.526   4.328  -0.614  1.00  0.00    -0.271 OA
BRANCH  16  18
HETATM   18  C10 UNL     1      -4.607   2.326   0.705  1.00  0.00     0.090 C 
BRANCH  18  19
HETATM   19  C11 UNL     1      -4.791   0.892   0.177  1.00  0.00     0.010 C 
BRANCH  19  20
HETATM   20  C12 UNL     1      -4.487  -0.207   1.210  1.00  0.00     0.001 C 
BRANCH  20  21
HETATM   21  C13 UNL     1      -5.651  -0.712   2.075  1.00  0.00     0.000 C 
BRANCH  21  22
HETATM   22  C14 UNL     1      -6.359   0.287   3.002  1.00  0.00     0.000 C 
BRANCH  22  23
HETATM   23  C15 UNL     1      -5.531   1.087   4.023  1.00  0.00     0.000 C 
BRANCH  23  24
HETATM   24  C16 UNL     1      -4.714   0.315   5.079  1.00  0.00     0.000 C 
BRANCH  24  25
HETATM   25  C17 UNL     1      -3.348  -0.248   4.644  1.00  0.00     0.000 C 
BRANCH  25  26
HETATM   26  C18 UNL     1      -2.344   0.819   4.170  1.00  0.00     0.000 C 
BRANCH  26  27
HETATM   27  C19 UNL     1      -1.239   0.250   3.263  1.00  0.00     0.000 C 
BRANCH  27  28
HETATM   28  C20 UNL     1      -0.672   1.327   2.323  1.00  0.00     0.000 C 
BRANCH  28  29
HETATM   29  C21 UNL     1       0.288   0.769   1.265  1.00  0.00     0.000 C 
BRANCH  29  30
HETATM   30  C22 UNL     1      -0.380  -0.124   0.205  1.00  0.00     0.000 C 
BRANCH  30  31
HETATM   31  C23 UNL     1       0.580  -0.412  -0.960  1.00  0.00     0.000 C 
BRANCH  31  32
HETATM   32  C24 UNL     1       0.131  -1.593  -1.835  1.00  0.00     0.000 C 
BRANCH  32  33
HETATM   33  C25 UNL     1       1.150  -1.861  -2.956  1.00  0.00     0.000 C 
BRANCH  33  34
HETATM   34  C26 UNL     1       1.026  -3.245  -3.614  1.00  0.00     0.000 C 
BRANCH  34  35
HETATM   35  C27 UNL     1       1.397  -4.463  -2.744  1.00  0.00     0.000 C 
BRANCH  35  36
HETATM   36  C28 UNL     1       2.894  -4.812  -2.624  1.00  0.00     0.000 C 
BRANCH  36  37
HETATM   37  C29 UNL     1       3.716  -3.888  -1.713  1.00  0.00     0.000 C 
BRANCH  37  38
HETATM   38  C30 UNL     1       5.155  -4.367  -1.452  1.00  0.00     0.000 C 
BRANCH  38  39
HETATM   39  C31 UNL     1       5.305  -5.668  -0.646  1.00  0.00     0.000 C 
HETATM   40  C32 UNL     1       4.633  -5.619   0.732  1.00  0.00     0.000 C 
ENDBRANCH  38  39
ENDBRANCH  37  38
ENDBRANCH  36  37
ENDBRANCH  35  36
ENDBRANCH  34  35
ENDBRANCH  33  34
ENDBRANCH  32  33
ENDBRANCH  31  32
ENDBRANCH  30  31
ENDBRANCH  29  30
ENDBRANCH  28  29
ENDBRANCH  27  28
ENDBRANCH  26  27
ENDBRANCH  25  26
ENDBRANCH  24  25
ENDBRANCH  23  24
ENDBRANCH  22  23
ENDBRANCH  21  22
ENDBRANCH  20  21
ENDBRANCH  19  20
ENDBRANCH  18  19
ENDBRANCH  16  18
ENDBRANCH   1  15
BRANCH   1  41
HETATM   41  C33 UNL     1      -0.548   3.741  -1.155  1.00  0.00     0.199 C 
HETATM   42  O5  UNL     1      -0.633   4.255   0.163  1.00  0.00    -0.216 OA
BRANCH  41  43
HETATM   43  C34 UNL     1       0.445   4.547  -1.952  1.00  0.00     0.004 C 
HETATM   44  C35 UNL     1       1.688   4.862  -1.548  1.00  0.00    -0.028 C 
BRANCH  44  45
HETATM   45  C36 UNL     1       2.324   4.492  -0.229  1.00  0.00     0.026 C 
BRANCH  45  46
HETATM   46  C37 UNL     1       3.847   4.297  -0.309  1.00  0.00     0.005 C 
BRANCH  46  47
HETATM   47  C38 UNL     1       4.302   3.077  -1.127  1.00  0.00     0.000 C 
BRANCH  47  48
HETATM   48  C39 UNL     1       3.897   1.704  -0.563  1.00  0.00     0.000 C 
BRANCH  48  49
HETATM   49  C40 UNL     1       4.356   1.452   0.884  1.00  0.00     0.000 C 
BRANCH  49  50
HETATM   50  C41 UNL     1       4.199  -0.025   1.279  1.00  0.00     0.000 C 
BRANCH  50  51
HETATM   51  C42 UNL     1       4.482  -0.325   2.760  1.00  0.00     0.000 C 
BRANCH  51  52
HETATM   52  C43 UNL     1       3.514   0.366   3.744  1.00  0.00     0.000 C 
BRANCH  52  53
HETATM   53  C44 UNL     1       3.010  -0.555   4.884  1.00  0.00     0.000 C 
BRANCH  53  54
HETATM   54  C45 UNL     1       1.755  -1.444   4.514  1.00  0.00     0.000 C 
BRANCH  54  55
HETATM   55  C46 UNL     1       1.583  -3.003   4.333  1.00  0.00     0.000 C 
BRANCH  55  56
HETATM   56  C47 UNL     1       0.842  -3.394   3.031  1.00  0.00     0.000 C 
HETATM   57  C48 UNL     1       1.627  -3.145   1.736  1.00  0.00     0.000 C 
ENDBRANCH  55  56
ENDBRANCH  54  55
ENDBRANCH  53  54
ENDBRANCH  52  53
ENDBRANCH  51  52
ENDBRANCH  50  51
ENDBRANCH  49  50
ENDBRANCH  48  49
ENDBRANCH  47  48
ENDBRANCH  46  47
ENDBRANCH  45  46
ENDBRANCH  44  45
ENDBRANCH  41  43
ENDBRANCH   1  41
TORSDOF 41
