REMARK  4 active torsions:
REMARK  status: ('A' for Active; 'I' for Inactive)
REMARK    1  A    between atoms: C3_3  and  O7_27 
REMARK    2  A    between atoms: C5_5  and  O5_21 
REMARK    3  A    between atoms: O5_21  and  C16_22 
REMARK    4  A    between atoms: O7_27  and  C20_28 
ROOT
HETATM    1  C1  UNL     1      -2.233   2.066  -0.792  1.00  0.00     0.294 C 
HETATM    2  C2  UNL     1      -1.091   1.615  -1.674  1.00  0.00     0.064 C 
HETATM    3  C3  UNL     1       0.043   0.701  -1.226  1.00  0.00     0.154 C 
HETATM    4  C4  UNL     1       1.419   1.411  -1.103  1.00  0.00     0.067 C 
HETATM    5  C5  UNL     1       2.575   0.660  -0.359  1.00  0.00     0.181 C 
HETATM    6  C6  UNL     1       2.408   0.863   1.158  1.00  0.00     0.297 C 
HETATM    7  O1  UNL     1       1.461   0.024   1.634  1.00  0.00    -0.295 OA
HETATM    8  C7  UNL     1       0.889   0.270   2.896  1.00  0.00     0.176 C 
HETATM    9  C8  UNL     1      -0.553  -0.194   2.835  1.00  0.00     0.016 C 
HETATM   10  C9  UNL     1      -1.503   0.760   2.135  1.00  0.00     0.200 C 
HETATM   11  C10 UNL     1      -2.429   0.332   0.980  1.00  0.00     0.161 C 
HETATM   12  O2  UNL     1      -2.810   1.511   0.320  1.00  0.00    -0.298 OA
HETATM   13  C11 UNL     1      -3.738  -0.378   1.383  1.00  0.00     0.069 C 
HETATM   14  C12 UNL     1      -3.692  -1.920   1.421  1.00  0.00     0.253 C 
HETATM   15  N1  UNL     1      -2.502  -2.476   2.041  1.00  0.00     0.144 N 
HETATM   16  C13 UNL     1      -2.268  -1.957   3.379  1.00  0.00     0.276 C 
HETATM   17  C14 UNL     1      -0.890  -1.364   3.403  1.00  0.00     0.005 C 
HETATM   18  C15 UNL     1      -2.522  -3.931   2.031  1.00  0.00     0.286 C 
HETATM   19  O3  UNL     1      -2.261   1.410   3.116  1.00  0.00    -0.216 OA
HETATM   20  O4  UNL     1       2.974   1.721   1.798  1.00  0.00    -0.262 OA
HETATM   21  C18 UNL     1       2.639  -0.837  -0.706  1.00  0.00     0.041 C 
HETATM   22  C19 UNL     1       1.240   2.840  -0.540  1.00  0.00     0.006 C 
HETATM   23  C22 UNL     1      -1.111   2.119  -2.936  1.00  0.00    -0.022 C 
HETATM   24  C23 UNL     1      -0.136   1.921  -4.070  1.00  0.00     0.031 C 
HETATM   25  O9  UNL     1      -2.724   3.139  -1.151  1.00  0.00    -0.259 OA
ENDROOT
BRANCH   5  26
HETATM   26  O5  UNL     1       3.764   1.280  -0.807  1.00  0.00    -0.297 OA
BRANCH  26  27
HETATM   27  C16 UNL     1       4.978   0.884  -0.339  1.00  0.00     0.273 C 
HETATM   28  C17 UNL     1       6.078   1.658  -1.038  1.00  0.00     0.106 C 
HETATM   29  O6  UNL     1       5.178   0.033   0.497  1.00  0.00    -0.264 OA
ENDBRANCH  26  27
ENDBRANCH   5  26
BRANCH   3  30
HETATM   30  O7  UNL     1       0.165  -0.425  -2.066  1.00  0.00    -0.299 OA
BRANCH  30  31
HETATM   31  C20 UNL     1      -0.938  -1.109  -2.467  1.00  0.00     0.273 C 
HETATM   32  C21 UNL     1      -0.532  -2.234  -3.398  1.00  0.00     0.106 C 
HETATM   33  O8  UNL     1      -2.083  -0.861  -2.162  1.00  0.00    -0.264 OA
ENDBRANCH  30  31
ENDBRANCH   3  30
TORSDOF 4
