REMARK  7 active torsions:
REMARK  status: ('A' for Active; 'I' for Inactive)
REMARK    1  A    between atoms: C2_2  and  C7_7 
REMARK    2  A    between atoms: C7_7  and  O2_9 
REMARK    3  A    between atoms: O2_9  and  C8_10 
REMARK    4  A    between atoms: C8_10  and  C9_11 
REMARK    5  A    between atoms: C8_10  and  C12_14 
REMARK    6  A    between atoms: C12_14  and  C13_15 
REMARK    7  A    between atoms: C13_15  and  C14_16 
ROOT
HETATM    1  C8  UNL     1       1.513   1.174   1.403  1.00  0.00     0.120 C 
HETATM    2  C11 UNL     1       2.876   1.861   1.186  1.00  0.00     0.035 C 
ENDROOT
BRANCH   1   3
HETATM    3  O2  UNL     1       1.819  -0.117   1.863  1.00  0.00    -0.299 OA
BRANCH   3   4
HETATM    4  C7  UNL     1       0.965  -1.183   1.891  1.00  0.00     0.296 C 
HETATM    5  O1  UNL     1       1.436  -2.280   2.183  1.00  0.00    -0.259 OA
BRANCH   4   6
HETATM    6  C2  UNL     1      -0.512  -1.220   1.613  1.00  0.00     0.063 A 
HETATM    7  C1  UNL     1      -1.408  -0.329   2.214  1.00  0.00     0.005 A 
HETATM    8  C6  UNL     1      -2.776  -0.424   1.950  1.00  0.00     0.000 A 
HETATM    9  C5  UNL     1      -3.260  -1.419   1.099  1.00  0.00     0.000 A 
HETATM   10  C4  UNL     1      -2.374  -2.322   0.509  1.00  0.00     0.000 A 
HETATM   11  C3  UNL     1      -1.006  -2.227   0.774  1.00  0.00     0.005 A 
ENDBRANCH   4   6
ENDBRANCH   3   4
ENDBRANCH   1   3
BRANCH   1  12
HETATM   12  C9  UNL     1       0.831   1.987   2.493  1.00  0.00     0.001 C 
HETATM   13  C10 UNL     1       0.213   3.163   2.313  1.00  0.00    -0.003 C 
ENDBRANCH   1  12
BRANCH   1  14
HETATM   14  C12 UNL     1       0.732   1.173   0.072  1.00  0.00     0.037 C 
BRANCH  14  15
HETATM   15  C13 UNL     1       1.273   0.244  -1.031  1.00  0.00     0.028 C 
BRANCH  15  16
HETATM   16  C14 UNL     1       0.462   0.374  -2.300  1.00  0.00    -0.035 C 
HETATM   17  C15 UNL     1      -0.024  -0.611  -3.079  1.00  0.00    -0.048 C 
HETATM   18  C16 UNL     1      -0.795  -0.288  -4.340  1.00  0.00     0.026 C 
HETATM   19  C17 UNL     1       0.147  -2.090  -2.827  1.00  0.00     0.026 C 
ENDBRANCH  15  16
ENDBRANCH  14  15
ENDBRANCH   1  14
TORSDOF 7
