REMARK  3 active torsions:
REMARK  status: ('A' for Active; 'I' for Inactive)
REMARK    1  A    between atoms: C4_4  and  O3_9 
REMARK    2  A    between atoms: C5_6  and  C6_7 
REMARK    3  A    between atoms: O3_9  and  C7_10 
ROOT
HETATM    1  C7  UNL     1       2.043   0.653   0.788  1.00  0.00     0.173 C 
HETATM    2  C8  UNL     1       1.889   1.461   2.084  1.00  0.00     0.045 C 
HETATM    3  C9  UNL     1       3.164  -0.377   0.978  1.00  0.00     0.045 C 
HETATM    4  C10 UNL     1       2.400   1.609  -0.293  1.00  0.00     0.100 C 
HETATM    5  N1  UNL     1       2.729   2.355  -1.117  1.00  0.00    -0.194 NA
ENDROOT
BRANCH   1   6
HETATM    6  O3  UNL     1       0.813  -0.004   0.586  1.00  0.00    -0.320 OA
BRANCH   6   7
HETATM    7  C4  UNL     1       0.587  -0.548  -0.695  1.00  0.00     0.271 C 
HETATM    8  C3  UNL     1      -0.200  -1.837  -0.603  1.00  0.00     0.241 C 
HETATM    9  C2  UNL     1      -1.656  -1.617  -0.243  1.00  0.00     0.220 C 
HETATM   10  O4  UNL     1      -0.116  -2.530  -1.827  1.00  0.00    -0.215 OA
HETATM   11  C1  UNL     1      -2.265  -0.505  -1.075  1.00  0.00     0.215 C 
HETATM   12  O5  UNL     1      -1.750  -1.291   1.124  1.00  0.00    -0.218 OA
HETATM   13  C5  UNL     1      -1.382   0.729  -1.189  1.00  0.00     0.184 C 
HETATM   14  O6  UNL     1      -2.546  -0.992  -2.368  1.00  0.00    -0.218 OA
HETATM   15  O1  UNL     1      -0.042   0.437  -1.484  1.00  0.00    -0.326 OA
BRANCH  13  16
HETATM   16  C6  UNL     1      -1.524   1.708  -0.030  1.00  0.00     0.214 C 
HETATM   17  O2  UNL     1      -2.812   2.293  -0.061  1.00  0.00    -0.218 OA
ENDBRANCH  13  16
ENDBRANCH   6   7
ENDBRANCH   1   6
TORSDOF 3
