REMARK  6 active torsions:
REMARK  status: ('A' for Active; 'I' for Inactive)
REMARK    1  A    between atoms: C4_4  and  O3_9 
REMARK    2  A    between atoms: C5_6  and  C6_7 
REMARK    3  A    between atoms: O3_9  and  C7_10 
REMARK    4  A    between atoms: C10_13  and  C15_18 
REMARK    5  A    between atoms: C15_18  and  C16_19 
REMARK    6  A    between atoms: C16_19  and  C17_20 
ROOT
HETATM    1  C7  UNL     1       0.928   0.712  -1.485  1.00  0.00     0.122 C 
HETATM    2  C8  UNL     1       2.204   0.469  -0.688  1.00  0.00     0.051 C 
HETATM    3  C9  UNL     1       2.034   0.409   0.818  1.00  0.00    -0.046 C 
HETATM    4  C10 UNL     1       0.961   0.890   1.493  1.00  0.00    -0.035 C 
HETATM    5  C11 UNL     1      -0.257   1.420   0.726  1.00  0.00     0.020 C 
HETATM    6  C12 UNL     1       0.113   1.759  -0.740  1.00  0.00     0.034 C 
HETATM    7  C13 UNL     1      -1.371   0.352   0.777  1.00  0.00     0.004 C 
HETATM    8  C14 UNL     1      -0.830   2.757   1.259  1.00  0.00     0.004 C 
HETATM    9  C19 UNL     1       3.251  -0.228   1.467  1.00  0.00     0.026 C 
ENDROOT
BRANCH   1  10
HETATM   10  O3  UNL     1       0.188  -0.468  -1.642  1.00  0.00    -0.331 OA
BRANCH  10  11
HETATM   11  C4  UNL     1       0.503  -1.208  -2.802  1.00  0.00     0.270 C 
HETATM   12  C3  UNL     1       0.217  -2.680  -2.608  1.00  0.00     0.241 C 
HETATM   13  C2  UNL     1      -1.257  -3.025  -2.688  1.00  0.00     0.220 C 
HETATM   14  O5  UNL     1       0.925  -3.424  -3.575  1.00  0.00    -0.215 OA
HETATM   15  C1  UNL     1      -1.913  -2.355  -3.878  1.00  0.00     0.215 C 
HETATM   16  O6  UNL     1      -1.896  -2.610  -1.505  1.00  0.00    -0.218 OA
HETATM   17  C5  UNL     1      -1.549  -0.883  -4.017  1.00  0.00     0.184 C 
HETATM   18  O7  UNL     1      -1.554  -3.037  -5.058  1.00  0.00    -0.218 OA
HETATM   19  O1  UNL     1      -0.171  -0.639  -3.904  1.00  0.00    -0.326 OA
BRANCH  17  20
HETATM   20  C6  UNL     1      -2.407   0.037  -3.158  1.00  0.00     0.214 C 
HETATM   21  O2  UNL     1      -2.136   1.390  -3.466  1.00  0.00    -0.218 OA
ENDBRANCH  17  20
ENDBRANCH  10  11
ENDBRANCH   1  10
BRANCH   4  22
HETATM   22  C15 UNL     1       0.926   0.704   3.009  1.00  0.00    -0.028 C 
BRANCH  22  23
HETATM   23  C16 UNL     1      -0.064   1.442   3.922  1.00  0.00     0.059 C 
BRANCH  23  24
HETATM   24  C17 UNL     1       0.083   1.142   5.420  1.00  0.00     0.157 C 
HETATM   25  C18 UNL     1       1.400   1.613   6.031  1.00  0.00     0.036 C 
HETATM   26  O4  UNL     1      -0.067  -0.239   5.649  1.00  0.00    -0.223 OA
ENDBRANCH  23  24
ENDBRANCH  22  23
ENDBRANCH   4  22
TORSDOF 6
