REMARK  0 active torsions:
REMARK  status: ('A' for Active; 'I' for Inactive)
ROOT
HETATM    1  C1  UNL     1      -1.357   0.931   0.343  1.00  0.00    -0.004 A 
HETATM    2  C2  UNL     1      -0.938  -0.463   0.175  1.00  0.00    -0.004 A 
HETATM    3  C3  UNL     1       0.293  -0.978  -0.119  1.00  0.00     0.001 A 
HETATM    4  C4  UNL     1       1.498  -0.224  -0.311  1.00  0.00     0.021 A 
HETATM    5  C5  UNL     1       1.687   1.147  -0.249  1.00  0.00     0.099 A 
HETATM    6  C6  UNL     1       0.749   2.212  -0.007  1.00  0.00     0.020 A 
HETATM    7  C7  UNL     1      -0.592   2.159   0.250  1.00  0.00    -0.020 A 
HETATM    8  C8  UNL     1      -1.323   3.473   0.455  1.00  0.00     0.031 C 
HETATM    9  O1  UNL     1       3.004   1.439  -0.483  1.00  0.00    -0.305 OA
HETATM   10  C9  UNL     1       3.650   0.258  -0.697  1.00  0.00     0.118 A 
HETATM   11  C10 UNL     1       2.792  -0.791  -0.611  1.00  0.00     0.005 A 
HETATM   12  C11 UNL     1       3.176  -2.229  -0.800  1.00  0.00     0.033 C 
HETATM   13  C12 UNL     1      -2.111  -1.291   0.383  1.00  0.00    -0.022 A 
HETATM   14  C13 UNL     1      -3.165  -0.466   0.654  1.00  0.00    -0.004 A 
HETATM   15  C14 UNL     1      -2.705   0.889   0.627  1.00  0.00    -0.001 A 
HETATM   16  C15 UNL     1      -2.172  -2.789   0.327  1.00  0.00     0.031 C 
ENDROOT
TORSDOF 0
