REMARK  5 active torsions:
REMARK  status: ('A' for Active; 'I' for Inactive)
REMARK    1  A    between atoms: C1_1  and  C2_2 
REMARK    2  A    between atoms: C2_2  and  C3_3 
REMARK    3  A    between atoms: C2_2  and  C4_5 
REMARK    4  A    between atoms: C4_5  and  C5_7 
REMARK    5  A    between atoms: C5_7  and  C6_8 
ROOT
HETATM    1  C4  UNL     1       1.357  -0.891  -0.716  1.00  0.00     0.157 C 
HETATM    2  O2  UNL     1       2.047  -0.472  -1.620  1.00  0.00    -0.296 OA
ENDROOT
BRANCH   1   3
HETATM    3  C2  UNL     1       1.518  -2.339  -0.251  1.00  0.00     0.113 C 
BRANCH   3   4
HETATM    4  C1  UNL     1       2.484  -2.421   0.921  1.00  0.00    -0.013 A 
HETATM    5  C14 UNL     1       3.765  -2.785   0.725  1.00  0.00    -0.004 A 
HETATM    6  C15 UNL     1       4.633  -2.871   1.745  1.00  0.00    -0.000 A 
HETATM    7  C16 UNL     1       4.231  -2.587   2.993  1.00  0.00    -0.000 A 
HETATM    8  C17 UNL     1       2.959  -2.219   3.207  1.00  0.00    -0.000 A 
HETATM    9  C18 UNL     1       2.099  -2.141   2.180  1.00  0.00    -0.004 A 
ENDBRANCH   3   4
BRANCH   3  10
HETATM   10  C3  UNL     1       0.197  -3.068   0.003  1.00  0.00     0.194 C 
HETATM   11  O1  UNL     1       0.465  -4.421   0.318  1.00  0.00    -0.220 OA
ENDBRANCH   3  10
ENDBRANCH   1   3
BRANCH   1  12
HETATM   12  C5  UNL     1       0.349   0.009  -0.012  1.00  0.00     0.065 C 
BRANCH  12  13
HETATM   13  C6  UNL     1       0.273   1.463  -0.528  1.00  0.00     0.011 C 
HETATM   14  C7  UNL     1      -0.296   1.584  -1.957  1.00  0.00     0.034 C 
HETATM   15  C8  UNL     1      -1.782   1.987  -2.040  1.00  0.00     0.222 C 
HETATM   16  C9  UNL     1      -2.711   0.952  -1.379  1.00  0.00     0.068 C 
HETATM   17  N1  UNL     1      -1.969   3.203  -1.265  1.00  0.00     0.138 N 
HETATM   18  C10 UNL     1      -2.752   1.401   0.084  1.00  0.00     0.185 C 
HETATM   19  C11 UNL     1      -1.930   2.693   0.097  1.00  0.00     0.249 C 
HETATM   20  O3  UNL     1      -4.076   1.650   0.493  1.00  0.00    -0.221 OA
HETATM   21  C12 UNL     1      -0.453   2.418   0.444  1.00  0.00     0.036 C 
HETATM   22  C13 UNL     1      -3.198   3.906  -1.591  1.00  0.00     0.285 C 
ENDBRANCH  12  13
ENDBRANCH   1  12
TORSDOF 5
