REMARK  0 active torsions:
REMARK  status: ('A' for Active; 'I' for Inactive)
ROOT
HETATM    1  C1  UNL     1      -2.890   1.142   1.911  1.00  0.00     0.004 A 
HETATM    2  C2  UNL     1      -3.071   0.643   0.508  1.00  0.00     0.018 A 
HETATM    3  C3  UNL     1      -2.243  -0.552   0.221  1.00  0.00    -0.042 C 
HETATM    4  C4  UNL     1      -0.925  -0.108  -0.339  1.00  0.00     0.053 C 
HETATM    5  C5  UNL     1      -0.624   1.119   0.551  1.00  0.00     0.013 C 
HETATM    6  C6  UNL     1      -2.024   1.708   0.803  1.00  0.00     0.005 A 
HETATM    7  C7  UNL     1       0.337   2.014  -0.266  1.00  0.00     0.052 C 
HETATM    8  C8  UNL     1       1.474   1.169  -0.778  1.00  0.00     0.076 A 
HETATM    9  C9  UNL     1       1.447  -0.196  -0.849  1.00  0.00     0.025 A 
HETATM   10  C10 UNL     1       0.263  -1.048  -0.485  1.00  0.00     0.179 C 
HETATM   11  O1  UNL     1       0.021  -1.980  -1.523  1.00  0.00    -0.218 OA
HETATM   12  C11 UNL     1       2.737  -0.611  -1.311  1.00  0.00     0.003 A 
HETATM   13  C12 UNL     1       3.446   0.541  -1.478  1.00  0.00     0.118 A 
HETATM   14  O2  UNL     1       2.695   1.637  -1.168  1.00  0.00    -0.310 OA
HETATM   15  C13 UNL     1       3.248  -2.005  -1.502  1.00  0.00     0.033 C 
HETATM   16  C14 UNL     1       0.082   0.756   1.879  1.00  0.00     0.001 C 
HETATM   17  C15 UNL     1      -2.645  -1.813   0.421  1.00  0.00    -0.009 C 
ENDROOT
TORSDOF 0
