REMARK  0 active torsions:
REMARK  status: ('A' for Active; 'I' for Inactive)
ROOT
HETATM    1  C1  UNL     1      -4.537  -0.459  -2.681  1.00  0.00     0.065 C 
HETATM    2  C2  UNL     1      -5.410  -1.196  -1.683  1.00  0.00     0.150 C 
HETATM    3  C3  UNL     1      -4.724  -2.171  -0.730  1.00  0.00     0.051 C 
HETATM    4  C4  UNL     1      -3.241  -1.738  -0.517  1.00  0.00     0.007 C 
HETATM    5  C5  UNL     1      -2.957  -0.220  -0.613  1.00  0.00     0.003 C 
HETATM    6  C6  UNL     1      -3.285   0.202  -2.077  1.00  0.00     0.008 C 
HETATM    7  C7  UNL     1      -1.464   0.110  -0.226  1.00  0.00     0.030 C 
HETATM    8  C8  UNL     1      -0.400  -1.019  -0.374  1.00  0.00     0.005 C 
HETATM    9  C9  UNL     1      -0.817  -1.933  -1.542  1.00  0.00     0.000 C 
HETATM   10  C10 UNL     1      -2.237  -2.521  -1.401  1.00  0.00     0.000 C 
HETATM   11  C11 UNL     1       0.996  -0.288  -0.591  1.00  0.00     0.026 C 
HETATM   12  C12 UNL     1       1.372   0.445   0.742  1.00  0.00     0.129 C 
HETATM   13  C13 UNL     1       0.188   1.125   1.456  1.00  0.00     0.168 A 
HETATM   14  C14 UNL     1      -1.137   0.909   1.044  1.00  0.00     0.145 A 
HETATM   15  O1  UNL     1      -0.475   2.249   0.651  1.00  0.00    -0.352 OA
HETATM   16  C15 UNL     1       2.617   1.334   0.544  1.00  0.00     0.037 C 
HETATM   17  C16 UNL     1       3.693   0.240   0.457  1.00  0.00     0.080 C 
HETATM   18  C17 UNL     1       3.550  -0.621  -0.815  1.00  0.00     0.010 C 
HETATM   19  C18 UNL     1       2.151  -1.260  -0.968  1.00  0.00     0.003 C 
HETATM   20  C19 UNL     1       5.127   0.759   0.614  1.00  0.00     0.009 C 
HETATM   21  C20 UNL     1       5.303   1.725   1.791  1.00  0.00     0.001 C 
HETATM   22  C21 UNL     1       4.296   2.892   1.762  1.00  0.00     0.000 C 
HETATM   23  C22 UNL     1       2.872   2.302   1.718  1.00  0.00     0.003 C 
HETATM   24  C23 UNL     1       4.459   3.721   3.058  1.00  0.00     0.000 C 
HETATM   25  C24 UNL     1       4.550   3.832   0.566  1.00  0.00     0.000 C 
HETATM   26  C25 UNL     1       3.224  -0.630   1.603  1.00  0.00     0.271 C 
HETATM   27  O2  UNL     1       1.875  -0.512   1.656  1.00  0.00    -0.304 OA
HETATM   28  O3  UNL     1       3.896  -1.344   2.313  1.00  0.00    -0.264 OA
HETATM   29  C26 UNL     1       0.959   0.696  -1.807  1.00  0.00     0.002 C 
HETATM   30  C27 UNL     1      -0.373  -1.952   0.874  1.00  0.00     0.000 C 
HETATM   31  C28 UNL     1      -3.898   0.632   0.275  1.00  0.00     0.000 C 
HETATM   32  C29 UNL     1      -5.503  -2.215   0.611  1.00  0.00     0.007 C 
HETATM   33  C30 UNL     1      -4.902  -3.584  -1.335  1.00  0.00     0.007 C 
HETATM   34  O4  UNL     1      -6.612  -1.052  -1.693  1.00  0.00    -0.296 OA
ENDROOT
TORSDOF 0
