REMARK  1 active torsions:
REMARK  status: ('A' for Active; 'I' for Inactive)
REMARK    1  A    between atoms: C21_23  and  C24_26 
ROOT
HETATM    1  C1  UNL     1      -5.048  -0.108  -1.616  1.00  0.00     0.033 C 
HETATM    2  C2  UNL     1      -5.037  -1.630  -1.588  1.00  0.00     0.152 C 
HETATM    3  C3  UNL     1      -4.443  -2.217  -0.291  1.00  0.00     0.029 C 
HETATM    4  C4  UNL     1      -3.042  -1.571  -0.056  1.00  0.00     0.006 C 
HETATM    5  C5  UNL     1      -2.940  -0.014  -0.094  1.00  0.00     0.018 C 
HETATM    6  C6  UNL     1      -3.637   0.458  -1.403  1.00  0.00     0.006 C 
HETATM    7  C7  UNL     1      -1.415   0.365  -0.151  1.00  0.00    -0.006 C 
HETATM    8  C8  UNL     1      -0.429  -0.311   0.849  1.00  0.00     0.021 C 
HETATM    9  C9  UNL     1      -0.756  -1.815   1.005  1.00  0.00     0.004 C 
HETATM   10  C10 UNL     1      -2.251  -2.137   1.139  1.00  0.00     0.001 C 
HETATM   11  C11 UNL     1       1.058  -0.102   0.329  1.00  0.00     0.021 C 
HETATM   12  C12 UNL     1       1.326   1.399   0.259  1.00  0.00    -0.042 C 
HETATM   13  C13 UNL     1       0.333   2.259  -0.045  1.00  0.00     0.033 C 
HETATM   14  C14 UNL     1      -1.075   1.849  -0.266  1.00  0.00     0.187 C 
HETATM   15  O1  UNL     1      -1.892   2.717  -0.546  1.00  0.00    -0.287 OA
HETATM   16  C15 UNL     1       2.749   1.929   0.350  1.00  0.00     0.021 C 
HETATM   17  C16 UNL     1       3.525   1.264   1.502  1.00  0.00     0.031 C 
HETATM   18  C17 UNL     1       3.497  -0.245   1.333  1.00  0.00     0.116 C 
HETATM   19  C18 UNL     1       2.089  -0.831   1.234  1.00  0.00     0.034 C 
HETATM   20  O2  UNL     1       4.296  -0.496   0.216  1.00  0.00    -0.359 OA
HETATM   21  C19 UNL     1       5.198   0.577   0.075  1.00  0.00     0.125 C 
HETATM   22  C20 UNL     1       5.025   1.476   1.299  1.00  0.00     0.033 C 
HETATM   23  C21 UNL     1       4.847   1.367  -1.198  1.00  0.00     0.104 C 
HETATM   24  C22 UNL     1       3.419   1.950  -1.052  1.00  0.00     0.017 C 
HETATM   25  C23 UNL     1       4.968   0.441  -2.432  1.00  0.00     0.013 C 
HETATM   26  C25 UNL     1       3.060   1.739   2.886  1.00  0.00     0.003 C 
HETATM   27  C26 UNL     1       1.277  -0.657  -1.108  1.00  0.00     0.004 C 
HETATM   28  C27 UNL     1      -0.615   0.334   2.253  1.00  0.00     0.004 C 
HETATM   29  C28 UNL     1      -3.643   0.694   1.089  1.00  0.00     0.004 C 
HETATM   30  C29 UNL     1      -4.299  -3.747  -0.522  1.00  0.00     0.003 C 
HETATM   31  C30 UNL     1      -5.396  -2.048   0.909  1.00  0.00     0.003 C 
HETATM   32  O5  UNL     1      -6.351  -2.091  -1.806  1.00  0.00    -0.224 OA
ENDROOT
BRANCH  23  33
HETATM   33  C24 UNL     1       5.887   2.472  -1.425  1.00  0.00     0.186 C 
HETATM   34  O3  UNL     1       5.611   3.239  -2.498  1.00  0.00    -0.647 OA
HETATM   35  O4  UNL     1       6.894   2.659  -0.786  1.00  0.00    -0.647 OA
ENDBRANCH  23  33
TORSDOF 1
