REMARK  6 active torsions:
REMARK  status: ('A' for Active; 'I' for Inactive)
REMARK    1  A    between atoms: C1_1  and  C15_17 
REMARK    2  A    between atoms: C3_4  and  C6_7 
REMARK    3  A    between atoms: C6_7  and  C7_8 
REMARK    4  A    between atoms: C7_8  and  C8_9 
REMARK    5  A    between atoms: C15_17  and  C16_18 
REMARK    6  A    between atoms: C16_18  and  C17_20 
ROOT
HETATM    1  C1  UNL     1      -0.771   1.375  -0.295  1.00  0.00     0.041 C 
HETATM    2  C2  UNL     1      -0.960  -0.150  -0.207  1.00  0.00     0.251 C 
HETATM    3  N1  UNL     1      -0.078  -0.750   0.791  1.00  0.00     0.138 N 
HETATM    4  C3  UNL     1       1.323  -0.554   0.411  1.00  0.00     0.227 C 
HETATM    5  C4  UNL     1       1.614   0.961   0.393  1.00  0.00     0.034 C 
HETATM    6  C5  UNL     1       0.701   1.683  -0.606  1.00  0.00     0.004 C 
HETATM    7  C14 UNL     1      -0.451  -2.140   1.002  1.00  0.00     0.285 C 
ENDROOT
BRANCH   1   8
HETATM    8  C15 UNL     1      -1.696   2.014  -1.347  1.00  0.00     0.071 C 
BRANCH   8   9
HETATM    9  C16 UNL     1      -3.181   2.020  -1.019  1.00  0.00     0.173 C 
HETATM   10  O2  UNL     1      -4.018   1.722  -1.857  1.00  0.00    -0.291 OA
BRANCH   9  11
HETATM   11  C17 UNL     1      -3.605   2.543   0.343  1.00  0.00     0.035 A 
HETATM   12  C18 UNL     1      -4.004   3.875   0.469  1.00  0.00     0.003 A 
HETATM   13  C19 UNL     1      -4.419   4.357   1.714  1.00  0.00     0.000 A 
HETATM   14  C20 UNL     1      -4.440   3.507   2.822  1.00  0.00     0.000 A 
HETATM   15  C21 UNL     1      -4.071   2.167   2.685  1.00  0.00     0.000 A 
HETATM   16  C22 UNL     1      -3.673   1.679   1.439  1.00  0.00     0.003 A 
ENDBRANCH   9  11
ENDBRANCH   8   9
ENDBRANCH   1   8
BRANCH   4  17
HETATM   17  C6  UNL     1       2.349  -1.275   1.312  1.00  0.00     0.102 C 
BRANCH  17  18
HETATM   18  C7  UNL     1       2.666  -2.713   0.915  1.00  0.00     0.175 C 
HETATM   19  O1  UNL     1       2.628  -3.632   1.713  1.00  0.00    -0.291 OA
BRANCH  18  20
HETATM   20  C8  UNL     1       3.155  -2.936  -0.515  1.00  0.00     0.035 A 
HETATM   21  C9  UNL     1       4.520  -2.877  -0.790  1.00  0.00     0.003 A 
HETATM   22  C10 UNL     1       4.969  -3.083  -2.099  1.00  0.00     0.000 A 
HETATM   23  C11 UNL     1       4.054  -3.347  -3.123  1.00  0.00     0.000 A 
HETATM   24  C12 UNL     1       2.691  -3.439  -2.835  1.00  0.00     0.000 A 
HETATM   25  C13 UNL     1       2.245  -3.254  -1.525  1.00  0.00     0.003 A 
ENDBRANCH  18  20
ENDBRANCH  17  18
ENDBRANCH   4  17
TORSDOF 6
