REMARK  2 active torsions:
REMARK  status: ('A' for Active; 'I' for Inactive)
REMARK    1  A    between atoms: C5_5  and  C7_7 
REMARK    2  A    between atoms: C9_10  and  C12_13 
ROOT
HETATM    1  C1  UNL     1      -3.092  -0.033  -0.358  1.00  0.00     0.153 C 
HETATM    2  C2  UNL     1      -2.088   0.887  -1.080  1.00  0.00     0.033 C 
HETATM    3  C3  UNL     1      -0.883   1.305  -0.213  1.00  0.00     0.003 C 
HETATM    4  C4  UNL     1      -0.215   0.064   0.441  1.00  0.00     0.007 C 
HETATM    5  C5  UNL     1      -1.211  -0.803   1.252  1.00  0.00     0.067 C 
HETATM    6  C6  UNL     1      -2.400  -1.211   0.353  1.00  0.00     0.041 C 
HETATM    7  C8  UNL     1       0.521  -0.799  -0.602  1.00  0.00     0.004 C 
HETATM    8  C9  UNL     1       1.795  -0.031  -0.969  1.00  0.00     0.018 C 
HETATM    9  C10 UNL     1       2.102   0.803   0.279  1.00  0.00     0.004 C 
HETATM   10  C11 UNL     1       1.016   0.430   1.285  1.00  0.00     0.001 C 
HETATM   11  C15 UNL     1      -1.281   2.346   0.842  1.00  0.00     0.000 C 
HETATM   12  O2  UNL     1      -3.844   0.719   0.574  1.00  0.00    -0.223 OA
ENDROOT
BRANCH   5  13
HETATM   13  C7  UNL     1      -1.674  -0.145   2.531  1.00  0.00     0.207 C 
HETATM   14  O1  UNL     1      -2.809  -0.281   2.926  1.00  0.00    -0.288 OA
ENDBRANCH   5  13
BRANCH   8  15
HETATM   15  C12 UNL     1       2.928  -0.934  -1.393  1.00  0.00    -0.044 C 
HETATM   16  C13 UNL     1       3.482  -0.742  -2.600  1.00  0.00    -0.009 C 
HETATM   17  C14 UNL     1       3.463  -2.041  -0.524  1.00  0.00     0.026 C 
ENDBRANCH   8  15
TORSDOF 2
