REMARK  3 active torsions:
REMARK  status: ('A' for Active; 'I' for Inactive)
REMARK    1  A    between atoms: C5_5  and  C6_7 
REMARK    2  A    between atoms: C6_7  and  C7_8 
REMARK    3  A    between atoms: C15_18  and  O3_20 
ROOT
HETATM    1  C1  UNL     1       0.271  -3.517   1.754  1.00  0.00     0.099 A 
HETATM    2  C2  UNL     1       1.374  -3.321   1.023  1.00  0.00     0.021 A 
HETATM    3  C3  UNL     1       1.506  -2.140   0.397  1.00  0.00     0.005 A 
HETATM    4  C4  UNL     1       0.530  -1.221   0.535  1.00  0.00     0.019 A 
HETATM    5  C5  UNL     1      -0.550  -1.528   1.291  1.00  0.00     0.093 A 
HETATM    6  N1  UNL     1      -0.640  -2.652   1.875  1.00  0.00    -0.245 NA
HETATM    7  C13 UNL     1       0.741  -0.063  -0.113  1.00  0.00     0.031 A 
HETATM    8  C14 UNL     1       1.814   0.207  -0.879  1.00  0.00     0.153 A 
HETATM    9  C15 UNL     1       2.791  -0.718  -1.002  1.00  0.00     0.119 A 
HETATM   10  C16 UNL     1       2.590  -1.880  -0.351  1.00  0.00     0.026 A 
HETATM   11  O4  UNL     1       1.861   1.427  -1.483  1.00  0.00    -0.188 OA
ENDROOT
BRANCH   5  12
HETATM   12  C6  UNL     1      -1.780  -0.685   1.617  1.00  0.00     0.214 C 
HETATM   13  O2  UNL     1      -2.945  -1.509   1.531  1.00  0.00    -0.212 OA
BRANCH  12  14
HETATM   14  C7  UNL     1      -2.055   0.585   0.845  1.00  0.00     0.014 A 
HETATM   15  C8  UNL     1      -1.860   1.792   1.408  1.00  0.00     0.001 A 
HETATM   16  C9  UNL     1      -2.095   2.920   0.722  1.00  0.00     0.027 A 
HETATM   17  C10 UNL     1      -2.536   2.885  -0.547  1.00  0.00     0.131 A 
HETATM   18  C11 UNL     1      -2.736   1.679  -1.104  1.00  0.00     0.027 A 
HETATM   19  O1  UNL     1      -2.773   4.035  -1.232  1.00  0.00    -0.190 OA
HETATM   20  C12 UNL     1      -2.503   0.546  -0.422  1.00  0.00     0.001 A 
ENDBRANCH  12  14
ENDBRANCH   5  12
BRANCH   9  21
HETATM   21  O3  UNL     1       3.940  -0.612  -1.754  1.00  0.00    -0.326 OA
HETATM   22  C17 UNL     1       4.071   0.394  -2.729  1.00  0.00     0.181 C 
ENDBRANCH   9  21
TORSDOF 3
