REMARK  12 active torsions:
REMARK  status: ('A' for Active; 'I' for Inactive)
REMARK    1  A    between atoms: C5_5  and  C7_7 
REMARK    2  A    between atoms: C7_7  and  C8_8 
REMARK    3  A    between atoms: C8_8  and  O1_9 
REMARK    4  A    between atoms: O1_9  and  C9_10 
REMARK    5  A    between atoms: C9_10  and  C10_11 
REMARK    6  A    between atoms: C10_11  and  C11_12 
REMARK    7  A    between atoms: C12_13  and  C24_34 
REMARK    8  A    between atoms: C13_14  and  O5_22 
REMARK    9  A    between atoms: C15_17  and  C16_18 
REMARK   10  A    between atoms: C16_18  and  O3_19 
REMARK   11  A    between atoms: O5_22  and  C18_23 
REMARK   12  A    between atoms: C19_25  and  C23_32 
ROOT
HETATM    1  C11 UNL     1       0.983   0.387  -1.334  1.00  0.00     0.044 C 
HETATM    2  C12 UNL     1       0.488   1.744  -1.867  1.00  0.00     0.062 C 
HETATM    3  C13 UNL     1      -0.893   2.045  -1.256  1.00  0.00     0.242 C 
HETATM    4  O2  UNL     1      -1.828   1.014  -1.590  1.00  0.00    -0.304 OA
HETATM    5  C14 UNL     1      -1.412  -0.264  -1.516  1.00  0.00     0.120 C 
HETATM    6  C15 UNL     1      -0.121  -0.648  -1.393  1.00  0.00     0.066 C 
ENDROOT
BRANCH   1   7
HETATM    7  C10 UNL     1       1.506   0.486   0.104  1.00  0.00     0.101 C 
BRANCH   7   8
HETATM    8  C9  UNL     1       2.160  -0.789   0.566  1.00  0.00     0.272 C 
HETATM    9  O11 UNL     1       3.049  -1.299  -0.076  1.00  0.00    -0.264 OA
BRANCH   8  10
HETATM   10  O1  UNL     1       1.690  -1.285   1.705  1.00  0.00    -0.301 OA
BRANCH  10  11
HETATM   11  C8  UNL     1       2.516  -2.316   2.229  1.00  0.00     0.157 C 
BRANCH  11  12
HETATM   12  C7  UNL     1       2.221  -3.625   1.496  1.00  0.00     0.059 C 
BRANCH  12  13
HETATM   13  C5  UNL     1       3.018  -4.752   2.051  1.00  0.00    -0.017 A 
HETATM   14  C4  UNL     1       2.457  -5.598   3.025  1.00  0.00    -0.002 A 
HETATM   15  C3  UNL     1       3.213  -6.662   3.547  1.00  0.00     0.029 A 
HETATM   16  C2  UNL     1       4.526  -6.885   3.098  1.00  0.00     0.156 A 
HETATM   17  C1  UNL     1       5.086  -6.039   2.121  1.00  0.00     0.156 A 
HETATM   18  O12 UNL     1       5.227  -7.885   3.592  1.00  0.00    -0.188 OA
HETATM   19  C6  UNL     1       4.330  -4.975   1.600  1.00  0.00     0.025 A 
HETATM   20  O13 UNL     1       6.317  -6.242   1.695  1.00  0.00    -0.188 OA
ENDBRANCH  12  13
ENDBRANCH  11  12
ENDBRANCH  10  11
ENDBRANCH   8  10
ENDBRANCH   7   8
ENDBRANCH   1   7
BRANCH   2  21
HETATM   21  C24 UNL     1       1.514   2.861  -1.613  1.00  0.00     0.005 C 
HETATM   22  C25 UNL     1       2.891   2.541  -2.193  1.00  0.00     0.000 C 
ENDBRANCH   2  21
BRANCH   6  23
HETATM   23  C16 UNL     1       0.242  -2.074  -1.318  1.00  0.00     0.294 C 
HETATM   24  O4  UNL     1       1.266  -2.471  -1.822  1.00  0.00    -0.259 OA
BRANCH  23  25
HETATM   25  O3  UNL     1      -0.619  -2.857  -0.676  1.00  0.00    -0.296 OA
HETATM   26  C17 UNL     1      -0.367  -4.236  -0.900  1.00  0.00     0.185 C 
ENDBRANCH  23  25
ENDBRANCH   6  23
BRANCH   3  27
HETATM   27  O5  UNL     1      -1.387   3.279  -1.738  1.00  0.00    -0.304 OA
BRANCH  27  28
HETATM   28  C18 UNL     1      -2.518   3.742  -1.029  1.00  0.00     0.272 C 
HETATM   29  O6  UNL     1      -3.639   2.900  -1.295  1.00  0.00    -0.326 OA
HETATM   30  C19 UNL     1      -4.830   3.221  -0.578  1.00  0.00     0.184 C 
HETATM   31  C20 UNL     1      -5.266   4.668  -0.916  1.00  0.00     0.215 C 
HETATM   32  C21 UNL     1      -4.121   5.674  -0.652  1.00  0.00     0.220 C 
HETATM   33  O9  UNL     1      -6.406   5.000  -0.144  1.00  0.00    -0.218 OA
HETATM   34  C22 UNL     1      -2.836   5.223  -1.383  1.00  0.00     0.241 C 
HETATM   35  O8  UNL     1      -4.494   6.986  -1.041  1.00  0.00    -0.218 OA
HETATM   36  O7  UNL     1      -2.988   5.367  -2.791  1.00  0.00    -0.215 OA
BRANCH  30  37
HETATM   37  C23 UNL     1      -4.592   2.969   0.918  1.00  0.00     0.214 C 
HETATM   38  O10 UNL     1      -4.184   1.629   1.080  1.00  0.00    -0.218 OA
ENDBRANCH  30  37
ENDBRANCH  27  28
ENDBRANCH   3  27
TORSDOF 12
