REMARK  0 active torsions:
REMARK  status: ('A' for Active; 'I' for Inactive)
ROOT
HETATM    1  C1  UNL     1      -2.168   1.326  -0.522  1.00  0.00     0.155 C 
HETATM    2  C2  UNL     1      -3.303   0.412   0.002  1.00  0.00     0.065 C 
HETATM    3  C3  UNL     1      -2.889  -1.041   0.271  1.00  0.00     0.142 A 
HETATM    4  C4  UNL     1      -1.400  -1.506   0.070  1.00  0.00     0.120 A 
HETATM    5  C5  UNL     1      -0.359  -0.479  -0.422  1.00  0.00     0.058 C 
HETATM    6  C6  UNL     1      -0.770   0.957   0.051  1.00  0.00     0.033 C 
HETATM    7  C7  UNL     1       0.297   2.016  -0.361  1.00  0.00     0.003 C 
HETATM    8  C8  UNL     1       1.742   1.658   0.062  1.00  0.00     0.007 C 
HETATM    9  C9  UNL     1       2.010   0.289  -0.557  1.00  0.00     0.056 C 
HETATM   10  C10 UNL     1       1.066  -0.727   0.090  1.00  0.00     0.131 C 
HETATM   11  O1  UNL     1       1.609  -2.018  -0.217  1.00  0.00    -0.301 OA
HETATM   12  C11 UNL     1       2.939  -1.873  -0.268  1.00  0.00     0.292 C 
HETATM   13  C12 UNL     1       3.289  -0.455  -0.346  1.00  0.00     0.043 C 
HETATM   14  C13 UNL     1       4.516   0.090  -0.250  1.00  0.00     0.001 C 
HETATM   15  O2  UNL     1       3.752  -2.768  -0.262  1.00  0.00    -0.260 OA
HETATM   16  C14 UNL     1      -0.871   0.996   1.588  1.00  0.00     0.003 C 
HETATM   17  O3  UNL     1      -2.410  -1.645  -0.885  1.00  0.00    -0.357 OA
HETATM   18  C15 UNL     1      -0.994  -2.904   0.517  1.00  0.00     0.032 C 
HETATM   19  O4  UNL     1      -2.154   1.277  -1.940  1.00  0.00    -0.223 OA
ENDROOT
TORSDOF 0
