REMARK  5 active torsions:
REMARK  status: ('A' for Active; 'I' for Inactive)
REMARK    1  A    between atoms: O1_1  and  C2_3 
REMARK    2  A    between atoms: C3_4  and  O2_5 
REMARK    3  A    between atoms: C5_7  and  O6_28 
REMARK    4  A    between atoms: C11_13  and  N1_24 
REMARK    5  A    between atoms: C17_19  and  O3_21 
REMARK       I    between atoms: N1_24  and  C20_25 
ROOT
HETATM    1  C2  UNL     1       2.607  -1.980  -0.637  1.00  0.00     0.118 A 
HETATM    2  C3  UNL     1       1.363  -2.603  -0.424  1.00  0.00     0.138 A 
HETATM    3  C5  UNL     1       0.209  -1.816  -0.217  1.00  0.00     0.117 A 
HETATM    4  C6  UNL     1       0.277  -0.393  -0.226  1.00  0.00     0.016 A 
HETATM    5  C7  UNL     1       1.539   0.244  -0.484  1.00  0.00    -0.018 A 
HETATM    6  C8  UNL     1       2.689  -0.572  -0.664  1.00  0.00     0.022 A 
HETATM    7  C9  UNL     1       1.772   1.713  -0.615  1.00  0.00     0.029 C 
HETATM    8  C10 UNL     1       0.750   2.678   0.000  1.00  0.00     0.033 C 
HETATM    9  C11 UNL     1       0.074   2.205   1.311  1.00  0.00     0.125 C 
HETATM   10  C12 UNL     1      -1.121   1.516   0.664  1.00  0.00    -0.019 A 
HETATM   11  C13 UNL     1      -1.021   0.336   0.002  1.00  0.00    -0.025 A 
HETATM   12  C14 UNL     1      -2.508   0.244  -0.236  1.00  0.00     0.039 A 
HETATM   13  C15 UNL     1      -2.600   1.639   0.442  1.00  0.00     0.088 A 
HETATM   14  C16 UNL     1      -3.041   2.531  -0.703  1.00  0.00     0.195 A 
HETATM   15  C17 UNL     1      -3.242   1.715  -1.896  1.00  0.00     0.107 A 
HETATM   16  C18 UNL     1      -2.953   0.416  -1.695  1.00  0.00     0.059 A 
HETATM   17  O4  UNL     1      -3.201   3.727  -0.635  1.00  0.00    -0.289 OA
ENDROOT
BRANCH   9  18
HETATM   18  N1  UNL     1       0.955   1.488   2.260  1.00  0.00    -0.236 NA
HETATM   19  C20 UNL     1       0.422   0.535   3.080  1.00  0.00     0.252 C 
HETATM   20  C21 UNL     1       1.334  -0.182   4.039  1.00  0.00     0.100 C 
HETATM   21  O5  UNL     1      -0.758   0.279   3.033  1.00  0.00    -0.271 OA
ENDBRANCH   9  18
BRANCH   3  22
HETATM   22  O6  UNL     1      -0.961  -2.439  -0.006  1.00  0.00    -0.326 OA
HETATM   23  C22 UNL     1      -1.309  -2.768   1.332  1.00  0.00     0.181 C 
ENDBRANCH   3  22
BRANCH  15  24
HETATM   24  O3  UNL     1      -3.660   2.211  -3.060  1.00  0.00    -0.330 OA
HETATM   25  C19 UNL     1      -3.945   3.600  -2.984  1.00  0.00     0.181 C 
ENDBRANCH  15  24
BRANCH   1  26
HETATM   26  O1  UNL     1       3.711  -2.721  -0.818  1.00  0.00    -0.326 OA
HETATM   27  C1  UNL     1       4.941  -2.043  -1.029  1.00  0.00     0.181 C 
ENDBRANCH   1  26
BRANCH   2  28
HETATM   28  O2  UNL     1       1.275  -3.941  -0.416  1.00  0.00    -0.324 OA
HETATM   29  C4  UNL     1       0.230  -4.545  -1.162  1.00  0.00     0.182 C 
ENDBRANCH   2  28
TORSDOF 5
