REMARK  6 active torsions:
REMARK  status: ('A' for Active; 'I' for Inactive)
REMARK    1  A    between atoms: O1_1  and  C1_2 
REMARK    2  A    between atoms: O1_1  and  C25_33 
REMARK    3  A    between atoms: C2_3  and  O2_4 
REMARK    4  A    between atoms: O2_4  and  C3_5 
REMARK    5  A    between atoms: C15_18  and  O5_26 
REMARK    6  A    between atoms: O5_26  and  C22_27 
ROOT
HETATM    1  C1  UNL     1       3.035  -0.207  -0.625  1.00  0.00     0.154 C 
HETATM    2  C2  UNL     1       2.180   1.049  -0.334  1.00  0.00     0.182 C 
HETATM    3  C5  UNL     1       1.273   0.887   0.898  1.00  0.00     0.182 C 
HETATM    4  C6  UNL     1       0.281  -0.332   0.801  1.00  0.00     0.036 C 
HETATM    5  C7  UNL     1       0.807  -1.383  -0.234  1.00  0.00     0.035 C 
HETATM    6  C8  UNL     1       2.352  -1.555  -0.236  1.00  0.00     0.031 C 
HETATM    7  C9  UNL     1       2.770  -2.656  -1.225  1.00  0.00     0.003 C 
HETATM    8  C10 UNL     1       2.840  -1.990   1.152  1.00  0.00     0.003 C 
HETATM    9  C11 UNL     1      -0.047  -2.684  -0.268  1.00  0.00     0.153 C 
HETATM   10  C12 UNL     1      -1.498  -2.488   0.219  1.00  0.00     0.040 C 
HETATM   11  C13 UNL     1      -2.074  -1.084  -0.051  1.00  0.00     0.060 C 
HETATM   12  C14 UNL     1      -1.119   0.121   0.268  1.00  0.00     0.037 C 
HETATM   13  C15 UNL     1      -1.846   1.248   1.062  1.00  0.00     0.125 C 
HETATM   14  C16 UNL     1      -3.305   1.502   0.600  1.00  0.00     0.035 C 
HETATM   15  C17 UNL     1      -4.045   0.242   0.109  1.00  0.00     0.028 C 
HETATM   16  C18 UNL     1      -3.387  -0.978   0.769  1.00  0.00     0.012 C 
HETATM   17  C19 UNL     1      -3.789  -0.047  -1.348  1.00  0.00     0.012 C 
HETATM   18  C20 UNL     1      -2.617  -0.902  -1.447  1.00  0.00     0.168 C 
HETATM   19  O4  UNL     1      -2.156  -1.381  -2.457  1.00  0.00    -0.292 OA
HETATM   20  C21 UNL     1      -4.537   0.408  -2.369  1.00  0.00    -0.002 C 
HETATM   21  O7  UNL     1       0.533  -3.711   0.512  1.00  0.00    -0.223 OA
HETATM   22  C24 UNL     1       0.100  -0.994   2.186  1.00  0.00     0.003 C 
HETATM   23  O8  UNL     1       2.125   0.803   2.029  1.00  0.00    -0.221 OA
ENDROOT
BRANCH   1  24
HETATM   24  O1  UNL     1       3.385  -0.199  -2.004  1.00  0.00    -0.302 OA
BRANCH  24  25
HETATM   25  C25 UNL     1       4.268   0.752  -2.297  1.00  0.00     0.272 C 
HETATM   26  O9  UNL     1       4.801   1.453  -1.469  1.00  0.00    -0.264 OA
HETATM   27  C26 UNL     1       4.578   0.908  -3.762  1.00  0.00     0.106 C 
ENDBRANCH  24  25
ENDBRANCH   1  24
BRANCH   2  28
HETATM   28  O2  UNL     1       1.365   1.350  -1.461  1.00  0.00    -0.299 OA
BRANCH  28  29
HETATM   29  C3  UNL     1       0.916   2.602  -1.440  1.00  0.00     0.273 C 
HETATM   30  O3  UNL     1       1.242   3.420  -0.613  1.00  0.00    -0.264 OA
HETATM   31  C4  UNL     1      -0.049   2.953  -2.541  1.00  0.00     0.106 C 
ENDBRANCH  28  29
ENDBRANCH   2  28
BRANCH  13  32
HETATM   32  O5  UNL     1      -1.850   0.943   2.451  1.00  0.00    -0.304 OA
BRANCH  32  33
HETATM   33  C22 UNL     1      -2.074   2.016   3.205  1.00  0.00     0.272 C 
HETATM   34  C23 UNL     1      -2.117   1.758   4.688  1.00  0.00     0.106 C 
HETATM   35  O6  UNL     1      -2.234   3.129   2.762  1.00  0.00    -0.264 OA
ENDBRANCH  32  33
ENDBRANCH  13  32
TORSDOF 6
