REMARK  8 active torsions:
REMARK  status: ('A' for Active; 'I' for Inactive)
REMARK    1  A    between atoms: C1_2  and  O2_3 
REMARK    2  A    between atoms: O2_3  and  C2_4 
REMARK    3  A    between atoms: C3_5  and  O3_6 
REMARK    4  A    between atoms: O3_6  and  C4_7 
REMARK    5  A    between atoms: C16_20  and  O7_31 
REMARK    6  A    between atoms: C21_25  and  O5_26 
REMARK    7  A    between atoms: O5_26  and  C22_27 
REMARK    8  A    between atoms: O7_31  and  C25_32 
ROOT
HETATM    1  C2  UNL     1       3.160  -0.637   0.881  1.00  0.00     0.155 C 
HETATM    2  C3  UNL     1       2.842   0.527  -0.062  1.00  0.00     0.182 C 
HETATM    3  C6  UNL     1       1.449   1.129   0.248  1.00  0.00     0.182 C 
HETATM    4  C7  UNL     1       0.354   0.088   0.703  1.00  0.00     0.040 C 
HETATM    5  C8  UNL     1       0.777  -1.326   0.199  1.00  0.00     0.062 C 
HETATM    6  C9  UNL     1       2.158  -1.814   0.754  1.00  0.00     0.035 C 
HETATM    7  C10 UNL     1       2.029  -2.459   2.143  1.00  0.00     0.003 C 
HETATM    8  C11 UNL     1       2.703  -2.885  -0.205  1.00  0.00     0.003 C 
HETATM    9  C12 UNL     1      -0.338  -2.346   0.332  1.00  0.00     0.150 C 
HETATM   10  C13 UNL     1      -1.625  -1.982  -0.352  1.00  0.00     0.067 C 
HETATM   11  C14 UNL     1      -2.141  -0.625   0.131  1.00  0.00     0.039 C 
HETATM   12  C15 UNL     1      -1.037   0.486   0.080  1.00  0.00     0.034 C 
HETATM   13  C16 UNL     1      -1.594   1.846   0.602  1.00  0.00     0.125 C 
HETATM   14  C17 UNL     1      -2.563   1.729   1.799  1.00  0.00     0.034 C 
HETATM   15  C18 UNL     1      -3.559   0.578   1.617  1.00  0.00     0.023 C 
HETATM   16  C19 UNL     1      -2.754  -0.721   1.545  1.00  0.00     0.007 C 
HETATM   17  C20 UNL     1      -4.209   0.590   0.266  1.00  0.00    -0.017 C 
HETATM   18  C21 UNL     1      -3.424  -0.281  -0.670  1.00  0.00     0.143 C 
HETATM   19  C24 UNL     1      -5.324   1.270  -0.055  1.00  0.00    -0.007 C 
HETATM   20  O9  UNL     1      -0.225  -3.389   0.936  1.00  0.00    -0.296 OA
HETATM   21  C27 UNL     1       0.252   0.023   2.240  1.00  0.00     0.003 C 
HETATM   22  O10 UNL     1       1.637   2.148   1.219  1.00  0.00    -0.221 OA
ENDROOT
BRANCH   1  23
HETATM   23  O2  UNL     1       4.494  -1.078   0.658  1.00  0.00    -0.302 OA
BRANCH  23  24
HETATM   24  C1  UNL     1       5.100  -1.451   1.781  1.00  0.00     0.272 C 
HETATM   25  O1  UNL     1       4.816  -1.016   2.873  1.00  0.00    -0.264 OA
HETATM   26  C28 UNL     1       6.190  -2.475   1.613  1.00  0.00     0.106 C 
ENDBRANCH  23  24
ENDBRANCH   1  23
BRANCH   2  27
HETATM   27  O3  UNL     1       2.871   0.064  -1.406  1.00  0.00    -0.299 OA
BRANCH  27  28
HETATM   28  C4  UNL     1       4.104   0.039  -1.904  1.00  0.00     0.273 C 
HETATM   29  O4  UNL     1       5.080   0.430  -1.309  1.00  0.00    -0.264 OA
HETATM   30  C5  UNL     1       4.221  -0.520  -3.299  1.00  0.00     0.106 C 
ENDBRANCH  27  28
ENDBRANCH   2  27
BRANCH  13  31
HETATM   31  O7  UNL     1      -2.258   2.518  -0.461  1.00  0.00    -0.304 OA
BRANCH  31  32
HETATM   32  C25 UNL     1      -2.418   3.816  -0.219  1.00  0.00     0.272 C 
HETATM   33  C26 UNL     1      -3.203   4.570  -1.258  1.00  0.00     0.106 C 
HETATM   34  O8  UNL     1      -1.977   4.377   0.758  1.00  0.00    -0.264 OA
ENDBRANCH  31  32
ENDBRANCH  13  31
BRANCH  18  35
HETATM   35  O5  UNL     1      -3.121   0.375  -1.893  1.00  0.00    -0.300 OA
BRANCH  35  36
HETATM   36  C22 UNL     1      -4.084   0.230  -2.799  1.00  0.00     0.273 C 
HETATM   37  C23 UNL     1      -3.920   1.055  -4.047  1.00  0.00     0.106 C 
HETATM   38  O6  UNL     1      -5.033  -0.504  -2.658  1.00  0.00    -0.264 OA
ENDBRANCH  35  36
ENDBRANCH  18  35
TORSDOF 8
