REMARK  5 active torsions:
REMARK  status: ('A' for Active; 'I' for Inactive)
REMARK    1  A    between atoms: C4_4  and  C20_26 
REMARK    2  A    between atoms: C6_6  and  O2_13 
REMARK    3  A    between atoms: O2_13  and  C12_14 
REMARK    4  A    between atoms: C12_14  and  C13_16 
REMARK    5  A    between atoms: C15_18  and  O5_23 
ROOT
HETATM    1  C1  UNL     1      -1.472   2.653   0.687  1.00  0.00     0.023 C 
HETATM    2  C2  UNL     1      -1.638   2.838   2.222  1.00  0.00     0.007 C 
HETATM    3  C3  UNL     1      -1.572   1.425   2.823  1.00  0.00     0.031 C 
HETATM    4  C4  UNL     1      -0.424   0.773   2.026  1.00  0.00     0.129 C 
HETATM    5  C5  UNL     1      -0.793   1.262   0.596  1.00  0.00     0.060 C 
HETATM    6  C6  UNL     1       0.044   0.770  -0.600  1.00  0.00     0.130 C 
HETATM    7  C7  UNL     1       0.927   1.738  -1.397  1.00  0.00     0.065 C 
HETATM    8  C8  UNL     1       0.300   2.959  -2.062  1.00  0.00     0.147 C 
HETATM    9  C9  UNL     1      -0.070   3.996  -1.032  1.00  0.00    -0.001 C 
HETATM   10  C10 UNL     1      -0.760   3.856   0.109  1.00  0.00    -0.029 C 
HETATM   11  O1  UNL     1       1.324   3.529  -2.862  1.00  0.00    -0.221 OA
HETATM   12  C11 UNL     1      -0.835   2.641  -3.032  1.00  0.00     0.038 C 
HETATM   13  O6  UNL     1      -0.581  -0.625   2.062  1.00  0.00    -0.226 OA
HETATM   14  C23 UNL     1      -2.908   2.668   0.102  1.00  0.00     0.004 C 
ENDROOT
BRANCH   6  15
HETATM   15  O2  UNL     1      -0.747   0.060  -1.512  1.00  0.00    -0.301 OA
BRANCH  15  16
HETATM   16  C12 UNL     1      -0.782  -1.289  -1.802  1.00  0.00     0.296 C 
HETATM   17  O3  UNL     1      -1.590  -1.534  -2.681  1.00  0.00    -0.259 OA
BRANCH  16  18
HETATM   18  C13 UNL     1      -0.110  -2.394  -1.330  1.00  0.00     0.065 A 
HETATM   19  C14 UNL     1      -0.372  -3.604  -1.879  1.00  0.00     0.032 A 
HETATM   20  C15 UNL     1       0.202  -4.781  -1.549  1.00  0.00     0.119 A 
HETATM   21  C16 UNL     1       1.147  -4.754  -0.585  1.00  0.00     0.153 A 
HETATM   22  C17 UNL     1       1.421  -3.576  -0.004  1.00  0.00     0.030 A 
HETATM   23  O4  UNL     1       1.826  -5.851  -0.153  1.00  0.00    -0.188 OA
HETATM   24  C18 UNL     1       0.818  -2.432  -0.358  1.00  0.00     0.008 A 
BRANCH  20  25
HETATM   25  O5  UNL     1      -0.202  -5.890  -2.263  1.00  0.00    -0.326 OA
HETATM   26  C19 UNL     1       0.522  -7.095  -2.199  1.00  0.00     0.181 C 
ENDBRANCH  20  25
ENDBRANCH  16  18
ENDBRANCH  15  16
ENDBRANCH   6  15
BRANCH   4  27
HETATM   27  C20 UNL     1       0.908   1.136   2.731  1.00  0.00     0.028 C 
HETATM   28  C21 UNL     1       1.267   0.133   3.850  1.00  0.00     0.003 C 
HETATM   29  C22 UNL     1       2.144   1.345   1.852  1.00  0.00     0.003 C 
ENDBRANCH   4  27
TORSDOF 5
