REMARK  1 active torsions:
REMARK  status: ('A' for Active; 'I' for Inactive)
REMARK    1  A    between atoms: C19_19  and  C22_22 
ROOT
HETATM    1  C1  UNL     1      -2.743  -0.752   2.843  1.00  0.00     0.067 C 
HETATM    2  C2  UNL     1      -2.894  -2.247   2.648  1.00  0.00     0.178 C 
HETATM    3  C3  UNL     1      -2.079  -2.851   1.502  1.00  0.00     0.177 C 
HETATM    4  C4  UNL     1      -0.570  -2.506   1.723  1.00  0.00     0.032 C 
HETATM    5  C5  UNL     1      -0.391  -0.956   1.867  1.00  0.00     0.003 C 
HETATM    6  C6  UNL     1      -1.263  -0.387   3.010  1.00  0.00     0.008 C 
HETATM    7  C7  UNL     1       1.073  -0.376   1.795  1.00  0.00     0.000 C 
HETATM    8  C8  UNL     1       1.722  -0.931   0.484  1.00  0.00     0.000 C 
HETATM    9  C9  UNL     1       1.699  -2.472   0.469  1.00  0.00     0.000 C 
HETATM   10  C10 UNL     1       0.257  -2.999   0.512  1.00  0.00     0.003 C 
HETATM   11  C11 UNL     1       3.046  -0.251   0.004  1.00  0.00     0.000 C 
HETATM   12  C12 UNL     1       2.728   1.271  -0.231  1.00  0.00     0.000 C 
HETATM   13  C13 UNL     1       2.257   1.878   1.114  1.00  0.00     0.000 C 
HETATM   14  C14 UNL     1       1.022   1.181   1.724  1.00  0.00     0.000 C 
HETATM   15  C15 UNL     1       4.030   1.940  -0.735  1.00  0.00     0.000 C 
HETATM   16  C16 UNL     1       4.642   1.433  -2.070  1.00  0.00     0.000 C 
HETATM   17  C17 UNL     1       4.826  -0.092  -1.937  1.00  0.00     0.000 C 
HETATM   18  C18 UNL     1       3.602  -0.827  -1.334  1.00  0.00     0.000 C 
HETATM   19  C19 UNL     1       5.943   2.295  -2.089  1.00  0.00     0.000 C 
HETATM   20  C20 UNL     1       5.460   3.680  -1.588  1.00  0.00     0.000 C 
HETATM   21  C21 UNL     1       4.148   3.466  -0.808  1.00  0.00     0.000 C 
HETATM   22  C25 UNL     1       3.842   1.735  -3.355  1.00  0.00     0.000 C 
HETATM   23  C26 UNL     1       1.574   1.546  -1.235  1.00  0.00     0.000 C 
HETATM   24  C27 UNL     1       4.169  -0.552   1.036  1.00  0.00     0.000 C 
HETATM   25  C28 UNL     1       1.860  -0.701   3.089  1.00  0.00     0.000 C 
HETATM   26  C29 UNL     1      -0.087  -3.277   2.975  1.00  0.00     0.003 C 
HETATM   27  O1  UNL     1      -2.537  -2.262   0.298  1.00  0.00    -0.218 OA
HETATM   28  C30 UNL     1      -2.413  -4.343   1.376  1.00  0.00     0.041 C 
HETATM   29  O2  UNL     1      -3.637  -2.900   3.345  1.00  0.00    -0.293 OA
ENDROOT
BRANCH  19  30
HETATM   30  C22 UNL     1       6.795   2.408  -3.377  1.00  0.00     0.000 C 
HETATM   31  C23 UNL     1       8.015   3.328  -3.159  1.00  0.00     0.000 C 
HETATM   32  C24 UNL     1       7.305   1.049  -3.889  1.00  0.00     0.000 C 
ENDBRANCH  19  30
TORSDOF 1
