REMARK  16 active torsions:
REMARK  status: ('A' for Active; 'I' for Inactive)
REMARK    1  A    between atoms: C1_1  and  O14_44 
REMARK    2  A    between atoms: C3_3  and  O12_40 
REMARK    3  A    between atoms: C5_5  and  C21_29 
REMARK    4  A    between atoms: C6_6  and  O1_7 
REMARK    5  A    between atoms: O1_7  and  C7_8 
REMARK    6  A    between atoms: C7_8  and  C8_10 
REMARK    7  A    between atoms: C12_15  and  O7_25 
REMARK    8  A    between atoms: C13_16  and  O5_21 
REMARK    9  A    between atoms: O5_21  and  C17_22 
REMARK   10  A    between atoms: O7_25  and  C19_26 
REMARK   11  A    between atoms: C21_29  and  O9_30 
REMARK   12  A    between atoms: O9_30  and  C22_31 
REMARK   13  A    between atoms: C22_31  and  C23_33 
REMARK   14  A    between atoms: O12_40  and  C29_41 
REMARK   15  A    between atoms: O14_44  and  C31_45 
REMARK   16  A    between atoms: C31_45  and  C32_47 
ROOT
HETATM    1  C1  UNL     1       3.391  -0.382   0.956  1.00  0.00     0.157 C 
HETATM    2  C2  UNL     1       3.044  -1.884   0.925  1.00  0.00     0.086 C 
HETATM    3  C3  UNL     1       2.308  -2.147  -0.387  1.00  0.00     0.156 C 
HETATM    4  C4  UNL     1       0.943  -1.559   0.007  1.00  0.00     0.150 C 
HETATM    5  C5  UNL     1       1.016   0.024  -0.113  1.00  0.00     0.111 C 
HETATM    6  C6  UNL     1       2.136   0.517   0.870  1.00  0.00     0.159 C 
HETATM    7  C12 UNL     1      -0.374   0.582   0.352  1.00  0.00     0.159 C 
HETATM    8  C13 UNL     1      -1.573   0.021  -0.412  1.00  0.00     0.155 C 
HETATM    9  C14 UNL     1      -1.582  -1.508  -0.327  1.00  0.00     0.066 C 
HETATM   10  C15 UNL     1      -0.270  -2.196  -0.727  1.00  0.00     0.154 C 
HETATM   11  C16 UNL     1      -0.187  -2.339  -2.256  1.00  0.00     0.036 C 
HETATM   12  O4  UNL     1      -0.394  -3.528  -0.274  1.00  0.00    -0.223 OA
HETATM   13  O11 UNL     1       0.790  -1.835   1.391  1.00  0.00    -0.359 OA
HETATM   14  C26 UNL     1       1.980  -2.302   1.948  1.00  0.00     0.098 C 
HETATM   15  C27 UNL     1       1.868  -3.825   2.179  1.00  0.00     0.030 C 
HETATM   16  C28 UNL     1       2.200  -1.733   3.362  1.00  0.00     0.030 C 
ENDROOT
BRANCH   6  17
HETATM   17  O1  UNL     1       2.544   1.832   0.625  1.00  0.00    -0.298 OA
BRANCH  17  18
HETATM   18  C7  UNL     1       2.609   2.819   1.573  1.00  0.00     0.298 C 
HETATM   19  O2  UNL     1       3.165   3.868   1.248  1.00  0.00    -0.259 OA
BRANCH  18  20
HETATM   20  C8  UNL     1       2.146   2.821   2.991  1.00  0.00     0.090 A 
HETATM   21  C9  UNL     1       1.194   2.072   3.627  1.00  0.00     0.128 A 
HETATM   22  O3  UNL     1       1.100   2.418   4.939  1.00  0.00    -0.303 OA
HETATM   23  C10 UNL     1       2.002   3.421   5.141  1.00  0.00     0.123 A 
HETATM   24  C11 UNL     1       2.668   3.711   3.989  1.00  0.00     0.034 A 
ENDBRANCH  18  20
ENDBRANCH  17  18
ENDBRANCH   6  17
BRANCH   1  25
HETATM   25  O14 UNL     1       4.259  -0.100  -0.105  1.00  0.00    -0.299 OA
BRANCH  25  26
HETATM   26  C31 UNL     1       5.442   0.572  -0.018  1.00  0.00     0.288 C 
HETATM   27  O15 UNL     1       5.937   1.072  -1.008  1.00  0.00    -0.260 OA
BRANCH  26  28
HETATM   28  C32 UNL     1       6.226   0.549   1.296  1.00  0.00     0.019 C 
HETATM   29  C33 UNL     1       5.814   1.605   2.335  1.00  0.00     0.032 C 
HETATM   30  C34 UNL     1       6.484  -0.847   1.884  1.00  0.00     0.032 C 
ENDBRANCH  26  28
ENDBRANCH  25  26
ENDBRANCH   1  25
BRANCH   5  31
HETATM   31  C21 UNL     1       1.397   0.492  -1.547  1.00  0.00     0.159 C 
BRANCH  31  32
HETATM   32  O9  UNL     1       1.116   1.845  -1.786  1.00  0.00    -0.301 OA
BRANCH  32  33
HETATM   33  C22 UNL     1       1.511   2.503  -2.917  1.00  0.00     0.271 C 
HETATM   34  O10 UNL     1       1.294   3.687  -3.063  1.00  0.00    -0.264 OA
BRANCH  33  35
HETATM   35  C23 UNL     1       2.171   1.688  -4.032  1.00  0.00     0.086 C 
HETATM   36  C24 UNL     1       1.760   2.233  -5.414  1.00  0.00     0.010 C 
HETATM   37  C25 UNL     1       3.703   1.719  -3.905  1.00  0.00     0.010 C 
ENDBRANCH  33  35
ENDBRANCH  32  33
ENDBRANCH  31  32
ENDBRANCH   5  31
BRANCH   7  38
HETATM   38  O7  UNL     1      -0.358   1.980   0.360  1.00  0.00    -0.301 OA
BRANCH  38  39
HETATM   39  C19 UNL     1      -1.064   2.780   1.213  1.00  0.00     0.272 C 
HETATM   40  O8  UNL     1      -0.836   3.969   1.294  1.00  0.00    -0.264 OA
HETATM   41  C20 UNL     1      -2.172   2.155   2.043  1.00  0.00     0.106 C 
ENDBRANCH  38  39
ENDBRANCH   7  38
BRANCH   3  42
HETATM   42  O12 UNL     1       2.278  -3.505  -0.709  1.00  0.00    -0.302 OA
BRANCH  42  43
HETATM   43  C29 UNL     1       3.400  -4.054  -1.245  1.00  0.00     0.272 C 
HETATM   44  C30 UNL     1       3.166  -5.520  -1.545  1.00  0.00     0.106 C 
HETATM   45  O13 UNL     1       4.433  -3.457  -1.452  1.00  0.00    -0.264 OA
ENDBRANCH  42  43
ENDBRANCH   3  42
BRANCH   8  46
HETATM   46  O5  UNL     1      -1.586   0.440  -1.746  1.00  0.00    -0.302 OA
BRANCH  46  47
HETATM   47  C17 UNL     1      -2.350   1.511  -2.094  1.00  0.00     0.272 C 
HETATM   48  C18 UNL     1      -2.159   1.836  -3.561  1.00  0.00     0.106 C 
HETATM   49  O6  UNL     1      -3.077   2.121  -1.342  1.00  0.00    -0.264 OA
ENDBRANCH  46  47
ENDBRANCH   8  46
TORSDOF 16
