REMARK  0 active torsions:
REMARK  status: ('A' for Active; 'I' for Inactive)
ROOT
HETATM    1  C1  UNL     1       1.832   0.036  -0.328  1.00  0.00    -0.013 A 
HETATM    2  C2  UNL     1       1.828  -1.359  -0.528  1.00  0.00     0.032 A 
HETATM    3  C3  UNL     1       3.150  -2.086  -0.594  1.00  0.00     0.260 C 
HETATM    4  O1  UNL     1       4.104  -1.434  -1.412  1.00  0.00    -0.327 OA
HETATM    5  C4  UNL     1       4.375  -0.120  -0.822  1.00  0.00     0.154 C 
HETATM    6  C5  UNL     1       3.174   0.775  -0.274  1.00  0.00     0.079 C 
HETATM    7  C6  UNL     1       3.340   1.358   1.109  1.00  0.00     0.037 C 
HETATM    8  C7  UNL     1       3.684   0.501   2.277  1.00  0.00     0.044 C 
HETATM    9  C8  UNL     1       4.943  -0.219   1.807  1.00  0.00     0.038 C 
HETATM   10  C9  UNL     1       4.694  -0.928   0.475  1.00  0.00     0.146 C 
HETATM   11  O2  UNL     1       3.807  -1.984   0.643  1.00  0.00    -0.328 OA
HETATM   12  N1  UNL     1       3.181   2.601   1.262  1.00  0.00    -0.279 NA
HETATM   13  C10 UNL     1       2.856   3.230  -0.029  1.00  0.00     0.126 C 
HETATM   14  C11 UNL     1       3.158   2.128  -1.050  1.00  0.00     0.038 C 
HETATM   15  C12 UNL     1       0.634  -2.091  -0.591  1.00  0.00     0.027 A 
HETATM   16  C13 UNL     1      -0.562  -1.397  -0.451  1.00  0.00     0.119 A 
HETATM   17  C14 UNL     1      -0.572  -0.025  -0.242  1.00  0.00     0.119 A 
HETATM   18  C15 UNL     1       0.609   0.708  -0.176  1.00  0.00     0.022 A 
HETATM   19  O3  UNL     1      -1.879   0.404  -0.116  1.00  0.00    -0.300 OA
HETATM   20  C16 UNL     1      -2.726  -0.747  -0.226  1.00  0.00     0.304 A 
HETATM   21  O4  UNL     1      -1.861  -1.867  -0.455  1.00  0.00    -0.300 OA
ENDROOT
TORSDOF 0
