REMARK  3 active torsions:
REMARK  status: ('A' for Active; 'I' for Inactive)
REMARK    1  A    between atoms: C14_15  and  C15_16 
REMARK    2  A    between atoms: C15_16  and  C16_17 
REMARK    3  A    between atoms: C16_17  and  C17_18 
ROOT
HETATM    1  C1  UNL     1      -1.119   0.942   1.176  1.00  0.00     0.004 A 
HETATM    2  C2  UNL     1      -1.119  -0.558   1.176  1.00  0.00     0.021 A 
HETATM    3  C3  UNL     1       0.207  -1.269   1.176  1.00  0.00    -0.035 A 
HETATM    4  C4  UNL     1       0.865  -0.745   1.173  1.00  0.00    -0.044 A 
HETATM    5  C5  UNL     1       1.384   0.687   1.175  1.00  0.00     0.026 A 
HETATM    6  C6  UNL     1       0.207   1.653   1.176  1.00  0.00     0.005 A 
HETATM    7  C7  UNL     1       2.232   0.921  -0.068  1.00  0.00     0.073 C 
HETATM    8  C8  UNL     1       2.397  -0.404  -0.771  1.00  0.00     0.169 C 
HETATM    9  C9  UNL     1       3.047  -1.038   0.063  1.00  0.00     0.009 C 
HETATM   10  C10 UNL     1       2.156  -1.552   1.150  1.00  0.00     0.050 C 
HETATM   11  C11 UNL     1       4.368  -1.238   0.003  1.00  0.00    -0.044 C 
HETATM   12  C12 UNL     1       5.160  -0.675  -1.135  1.00  0.00     0.026 C 
HETATM   13  C13 UNL     1       5.054  -2.026   1.075  1.00  0.00     0.026 C 
HETATM   14  O1  UNL     1       1.998  -0.751  -1.857  1.00  0.00    -0.292 OA
HETATM   15  C14 UNL     1      -1.521   0.192  -0.059  1.00  0.00     0.004 A 
HETATM   16  C19 UNL     1      -1.754   2.007   2.029  1.00  0.00     0.000 C 
ENDROOT
BRANCH  15  17
HETATM   17  C15 UNL     1      -2.959   0.192  -0.504  1.00  0.00     0.003 C 
BRANCH  17  18
HETATM   18  C16 UNL     1      -3.021   0.192  -2.026  1.00  0.00     0.033 C 
BRANCH  18  19
HETATM   19  C17 UNL     1      -4.476   0.192  -2.475  1.00  0.00     0.152 C 
HETATM   20  C18 UNL     1      -5.173   1.436  -1.940  1.00  0.00     0.036 C 
HETATM   21  O2  UNL     1      -5.117  -0.952  -1.981  1.00  0.00    -0.224 OA
ENDBRANCH  18  19
ENDBRANCH  17  18
ENDBRANCH  15  17
TORSDOF 3
