REMARK  0 active torsions:
REMARK  status: ('A' for Active; 'I' for Inactive)
ROOT
HETATM    1  C1  UNL     1      -3.123  -0.724  -1.364  1.00  0.00     0.203 C 
HETATM    2  C2  UNL     1      -3.498  -1.730  -0.482  1.00  0.00     0.035 C 
HETATM    3  C3  UNL     1      -2.399  -2.248   0.076  1.00  0.00    -0.023 C 
HETATM    4  C4  UNL     1      -1.258  -1.551   0.076  1.00  0.00    -0.021 C 
HETATM    5  C5  UNL     1      -1.258  -0.054   0.076  1.00  0.00     0.057 C 
HETATM    6  C6  UNL     1      -2.486   0.454  -0.667  1.00  0.00     0.217 C 
HETATM    7  O1  UNL     1      -3.394   1.016   0.242  1.00  0.00    -0.215 OA
HETATM    8  C7  UNL     1       0.000   0.454  -0.617  1.00  0.00     0.047 C 
HETATM    9  C8  UNL     1       1.205  -0.339  -0.127  1.00  0.00     0.067 C 
HETATM   10  C9  UNL     1       1.086  -1.742  -0.670  1.00  0.00     0.172 C 
HETATM   11  C10 UNL     1      -0.116  -2.248   0.065  1.00  0.00     0.033 C 
HETATM   12  O2  UNL     1       1.777  -2.308  -1.483  1.00  0.00    -0.291 OA
HETATM   13  C11 UNL     1       2.479   0.273  -0.694  1.00  0.00     0.096 C 
HETATM   14  C12 UNL     1       2.931   1.421   0.199  1.00  0.00     0.040 C 
HETATM   15  C13 UNL     1       1.677   2.276  -0.389  1.00  0.00     0.155 C 
HETATM   16  C14 UNL     1       0.198   1.929  -0.294  1.00  0.00     0.180 C 
HETATM   17  O3  UNL     1      -0.260   2.187   1.006  1.00  0.00    -0.221 OA
HETATM   18  O4  UNL     1       1.986   2.440  -1.747  1.00  0.00    -0.302 OA
HETATM   19  C15 UNL     1       2.129   0.941  -2.000  1.00  0.00     0.272 C 
HETATM   20  O5  UNL     1       1.986   0.386  -3.064  1.00  0.00    -0.264 OA
HETATM   21  C16 UNL     1       4.302   1.989  -0.144  1.00  0.00     0.003 C 
HETATM   22  C17 UNL     1       1.253  -0.328   1.395  1.00  0.00     0.008 C 
HETATM   23  C18 UNL     1      -1.286   0.454   1.512  1.00  0.00     0.007 C 
HETATM   24  C19 UNL     1      -2.446  -3.607   0.701  1.00  0.00     0.031 C 
HETATM   25  O6  UNL     1      -3.289  -0.784  -2.559  1.00  0.00    -0.289 OA
ENDROOT
TORSDOF 0
