REMARK  2 active torsions:
REMARK  status: ('A' for Active; 'I' for Inactive)
REMARK    1  A    between atoms: C6_7  and  O5_18 
REMARK    2  A    between atoms: C9_10  and  O2_11 
ROOT
HETATM    1  C1  UNL     1      -2.840   0.423  -0.312  1.00  0.00     0.117 C 
HETATM    2  C2  UNL     1      -2.603  -1.043  -0.537  1.00  0.00     0.001 C 
HETATM    3  C3  UNL     1      -1.387  -1.586  -0.418  1.00  0.00     0.002 C 
HETATM    4  C4  UNL     1      -0.300  -0.832  -0.170  1.00  0.00     0.046 A 
HETATM    5  C5  UNL     1      -0.450   0.508  -0.144  1.00  0.00     0.120 A 
HETATM    6  O1  UNL     1      -1.647   1.155  -0.328  1.00  0.00    -0.330 OA
HETATM    7  C6  UNL     1       0.641   1.283   0.039  1.00  0.00     0.139 A 
HETATM    8  C7  UNL     1       1.853   0.726   0.241  1.00  0.00     0.129 A 
HETATM    9  C8  UNL     1       1.980  -0.615   0.193  1.00  0.00     0.047 A 
HETATM   10  C9  UNL     1       0.904  -1.418   0.031  1.00  0.00     0.098 A 
HETATM   11  C11 UNL     1       3.219  -1.130   0.323  1.00  0.00     0.009 A 
HETATM   12  C12 UNL     1       4.298  -0.355   0.497  1.00  0.00     0.069 A 
HETATM   13  C13 UNL     1       4.144   0.989   0.553  1.00  0.00     0.300 A 
HETATM   14  O3  UNL     1       2.919   1.567   0.441  1.00  0.00    -0.271 OA
HETATM   15  O4  UNL     1       5.130   1.682   0.707  1.00  0.00    -0.259 OA
HETATM   16  C15 UNL     1      -3.742   0.979  -1.419  1.00  0.00     0.035 C 
HETATM   17  C16 UNL     1      -3.505   0.612   1.056  1.00  0.00     0.035 C 
ENDROOT
BRANCH   7  18
HETATM   18  O5  UNL     1       0.506   2.649   0.122  1.00  0.00    -0.324 OA
HETATM   19  C14 UNL     1       0.615   3.313  -1.117  1.00  0.00     0.182 C 
ENDBRANCH   7  18
BRANCH  10  20
HETATM   20  O2  UNL     1       1.053  -2.784  -0.059  1.00  0.00    -0.328 OA
HETATM   21  C10 UNL     1       0.914  -3.459   1.173  1.00  0.00     0.181 C 
ENDBRANCH  10  20
TORSDOF 2
