REMARK  2 active torsions:
REMARK  status: ('A' for Active; 'I' for Inactive)
REMARK    1  A    between atoms: C2_2  and  O3_20 
REMARK    2  A    between atoms: C10_11  and  O1_17 
ROOT
HETATM    1  C1  UNL     1      -3.305   1.405   0.096  1.00  0.00     0.024 A 
HETATM    2  C2  UNL     1      -3.283   0.056   0.035  1.00  0.00     0.096 A 
HETATM    3  C3  UNL     1      -2.070  -0.541  -0.010  1.00  0.00     0.042 A 
HETATM    4  C4  UNL     1      -0.935   0.176   0.005  1.00  0.00     0.069 A 
HETATM    5  C5  UNL     1      -1.020   1.519   0.066  1.00  0.00     0.018 A 
HETATM    6  C6  UNL     1      -2.193   2.155   0.113  1.00  0.00     0.004 A 
HETATM    7  C7  UNL     1       0.230   1.989   0.067  1.00  0.00     0.021 A 
HETATM    8  C8  UNL     1       0.989   0.896   0.007  1.00  0.00     0.085 A 
HETATM    9  N1  UNL     1       0.297  -0.168  -0.029  1.00  0.00    -0.272 N 
HETATM   10  C9  UNL     1       0.888  -1.292  -0.087  1.00  0.00     0.287 A 
HETATM   11  C10 UNL     1       2.258  -1.365  -0.111  1.00  0.00     0.152 A 
HETATM   12  C11 UNL     1       2.954  -0.207  -0.071  1.00  0.00     0.050 A 
HETATM   13  C12 UNL     1       2.321   0.975  -0.011  1.00  0.00     0.100 A 
HETATM   14  N2  UNL     1       2.885   2.111   0.029  1.00  0.00    -0.242 NA
HETATM   15  C13 UNL     1       2.169   3.159   0.087  1.00  0.00     0.099 A 
HETATM   16  C14 UNL     1       0.823   3.185   0.110  1.00  0.00     0.022 A 
HETATM   17  O2  UNL     1       0.253  -2.322  -0.121  1.00  0.00    -0.264 OA
ENDROOT
BRANCH   2  18
HETATM   18  O3  UNL     1      -4.489  -0.604   0.021  1.00  0.00    -0.328 OA
HETATM   19  C16 UNL     1      -4.501  -2.011  -0.051  1.00  0.00     0.181 C 
ENDBRANCH   2  18
BRANCH  11  20
HETATM   20  O1  UNL     1       2.809  -2.625  -0.171  1.00  0.00    -0.323 OA
HETATM   21  C15 UNL     1       4.213  -2.747  -0.176  1.00  0.00     0.182 C 
ENDBRANCH  11  20
TORSDOF 2
