REMARK  3 active torsions:
REMARK  status: ('A' for Active; 'I' for Inactive)
REMARK    1  A    between atoms: C8_10  and  O3_13 
REMARK    2  A    between atoms: C11_16  and  C14_20 
REMARK    3  A    between atoms: C18_24  and  O6_26 
ROOT
HETATM    1  C1  UNL     1      -3.970   0.505  -1.826  1.00  0.00     0.038 A 
HETATM    2  C2  UNL     1      -3.528   0.959  -0.573  1.00  0.00     0.128 A 
HETATM    3  O1  UNL     1      -4.360   1.495   0.376  1.00  0.00    -0.271 OA
HETATM    4  C3  UNL     1      -5.686   1.585   0.088  1.00  0.00     0.300 A 
HETATM    5  C4  UNL     1      -6.241   1.132  -1.203  1.00  0.00     0.069 A 
HETATM    6  C5  UNL     1      -5.402   0.612  -2.124  1.00  0.00     0.008 A 
HETATM    7  O2  UNL     1      -6.466   2.055   0.914  1.00  0.00    -0.259 OA
HETATM    8  C6  UNL     1      -2.158   0.870  -0.273  1.00  0.00     0.141 A 
HETATM    9  C7  UNL     1      -1.244   0.292  -1.173  1.00  0.00     0.141 A 
HETATM   10  C8  UNL     1      -1.675  -0.149  -2.445  1.00  0.00     0.129 A 
HETATM   11  C9  UNL     1      -3.044  -0.032  -2.735  1.00  0.00     0.084 A 
HETATM   12 CL1  UNL     1      -3.594  -0.587  -4.285  1.00  0.00    -0.080 Cl
HETATM   13  O4  UNL     1       0.078   0.225  -0.829  1.00  0.00    -0.322 OA
HETATM   14  C11 UNL     1       0.479   0.974   0.289  1.00  0.00     0.171 C 
HETATM   15  C12 UNL     1      -0.534   0.777   1.404  1.00  0.00     0.153 C 
HETATM   16  O5  UNL     1      -1.762   1.281   0.973  1.00  0.00    -0.326 OA
HETATM   17  C13 UNL     1      -0.144   1.501   2.692  1.00  0.00     0.036 C 
ENDROOT
BRANCH  14  18
HETATM   18  C14 UNL     1       1.882   0.557   0.691  1.00  0.00     0.010 A 
HETATM   19  C15 UNL     1       2.917   1.492   0.760  1.00  0.00     0.000 A 
HETATM   20  C16 UNL     1       4.201   1.086   1.117  1.00  0.00     0.029 A 
HETATM   21  C17 UNL     1       4.482  -0.249   1.420  1.00  0.00     0.153 A 
HETATM   22  C18 UNL     1       3.456  -1.208   1.385  1.00  0.00     0.119 A 
HETATM   23  O7  UNL     1       5.742  -0.633   1.758  1.00  0.00    -0.188 OA
HETATM   24  C19 UNL     1       2.179  -0.776   0.995  1.00  0.00     0.025 A 
BRANCH  22  25
HETATM   25  O6  UNL     1       3.791  -2.508   1.669  1.00  0.00    -0.326 OA
HETATM   26  C20 UNL     1       2.870  -3.524   1.350  1.00  0.00     0.181 C 
ENDBRANCH  22  25
ENDBRANCH  14  18
BRANCH  10  27
HETATM   27  O3  UNL     1      -0.875  -0.706  -3.421  1.00  0.00    -0.325 OA
HETATM   28  C10 UNL     1       0.505  -0.899  -3.232  1.00  0.00     0.181 C 
ENDBRANCH  10  27
TORSDOF 3
