REMARK  3 active torsions:
REMARK  status: ('A' for Active; 'I' for Inactive)
REMARK    1  A    between atoms: C5_5  and  C8_9 
REMARK    2  A    between atoms: C9_10  and  C10_12 
REMARK    3  A    between atoms: C10_12  and  C11_13 
ROOT
HETATM    1  C1  UNL     1      -2.450  -1.825  -0.361  1.00  0.00     0.033 C 
HETATM    2  C2  UNL     1      -2.546  -3.049   0.560  1.00  0.00     0.035 C 
HETATM    3  C3  UNL     1      -1.199  -3.764   0.674  1.00  0.00     0.152 C 
HETATM    4  C4  UNL     1      -0.095  -2.808   1.130  1.00  0.00     0.038 C 
HETATM    5  C5  UNL     1       0.042  -1.560   0.231  1.00  0.00     0.057 C 
HETATM    6  C6  UNL     1      -1.323  -0.896   0.066  1.00  0.00     0.122 A 
HETATM    7  C7  UNL     1      -1.487   0.512  -0.135  1.00  0.00     0.169 A 
HETATM    8  O1  UNL     1      -1.748   0.133   1.200  1.00  0.00    -0.354 OA
HETATM    9  O3  UNL     1      -0.853  -4.331  -0.567  1.00  0.00    -0.224 OA
ENDROOT
BRANCH   5  10
HETATM   10  C8  UNL     1       1.182  -0.630   0.668  1.00  0.00     0.120 A 
HETATM   11  C9  UNL     1       1.788   0.213  -0.331  1.00  0.00     0.144 A 
HETATM   12  O2  UNL     1       2.564  -0.936  -0.083  1.00  0.00    -0.356 OA
HETATM   13  C15 UNL     1       1.404  -0.404   2.157  1.00  0.00     0.032 C 
BRANCH  11  14
HETATM   14  C10 UNL     1       2.527   1.490   0.051  1.00  0.00     0.057 C 
BRANCH  14  15
HETATM   15  C11 UNL     1       3.255   2.106  -1.118  1.00  0.00    -0.032 C 
HETATM   16  C12 UNL     1       3.706   3.373  -1.165  1.00  0.00    -0.048 C 
HETATM   17  C13 UNL     1       4.387   3.923  -2.396  1.00  0.00     0.026 C 
HETATM   18  C14 UNL     1       3.575   4.355  -0.025  1.00  0.00     0.026 C 
ENDBRANCH  14  15
ENDBRANCH  11  14
ENDBRANCH   5  10
TORSDOF 3
