REMARK  10 active torsions:
REMARK  status: ('A' for Active; 'I' for Inactive)
REMARK    1  A    between atoms: C1_1  and  C23_27 
REMARK    2  A    between atoms: C2_2  and  C16_18 
REMARK    3  A    between atoms: C3_3  and  C10_12 
REMARK    4  A    between atoms: C6_6  and  C8_9 
REMARK    5  A    between atoms: C10_12  and  C11_13 
REMARK    6  A    between atoms: C11_13  and  C12_14 
REMARK    7  A    between atoms: C17_19  and  O3_20 
REMARK    8  A    between atoms: O3_20  and  C18_21 
REMARK    9  A    between atoms: C18_21  and  C19_22 
REMARK   10  A    between atoms: C23_27  and  C24_28 
ROOT
HETATM    1  C1  UNL     1       1.893   1.822   0.000  1.00  0.00     0.073 C 
HETATM    2  C2  UNL     1       0.772   0.776  -0.194  1.00  0.00     0.032 C 
HETATM    3  C3  UNL     1       1.176  -0.531  -0.943  1.00  0.00     0.009 C 
HETATM    4  C4  UNL     1       2.283  -0.223  -1.984  1.00  0.00     0.026 C 
HETATM    5  C5  UNL     1       3.690  -0.097  -1.448  1.00  0.00    -0.025 C 
HETATM    6  C6  UNL     1       4.095   0.488  -0.305  1.00  0.00     0.041 C 
HETATM    7  C7  UNL     1       3.154   1.214   0.588  1.00  0.00     0.172 C 
HETATM    8  O1  UNL     1       3.490   1.437   1.744  1.00  0.00    -0.292 OA
HETATM    9  C9  UNL     1       1.658  -1.636   0.025  1.00  0.00     0.001 C 
ENDROOT
BRANCH   2  10
HETATM   10  C16 UNL     1       0.086   0.502   1.128  1.00  0.00     0.001 C 
HETATM   11  C17 UNL     1      -1.218   0.720   1.358  1.00  0.00     0.121 C 
BRANCH  11  12
HETATM   12  O3  UNL     1      -1.764   0.481   2.586  1.00  0.00    -0.271 OA
BRANCH  12  13
HETATM   13  C18 UNL     1      -2.918   1.149   2.901  1.00  0.00     0.300 C 
HETATM   14  O4  UNL     1      -3.152   2.233   2.375  1.00  0.00    -0.259 OA
BRANCH  13  15
HETATM   15  C19 UNL     1      -3.807   0.617   3.967  1.00  0.00     0.060 C 
HETATM   16  C20 UNL     1      -5.066   1.007   4.263  1.00  0.00    -0.038 C 
HETATM   17  C21 UNL     1      -5.810   0.373   5.418  1.00  0.00     0.026 C 
HETATM   18  C22 UNL     1      -5.869   2.060   3.536  1.00  0.00     0.026 C 
ENDBRANCH  13  15
ENDBRANCH  12  13
ENDBRANCH  11  12
ENDBRANCH   2  10
BRANCH   1  19
HETATM   19  C23 UNL     1       1.411   3.059   0.792  1.00  0.00     0.072 C 
BRANCH  19  20
HETATM   20  C24 UNL     1       2.409   4.208   0.877  1.00  0.00     0.151 C 
HETATM   21  C25 UNL     1       3.044   4.701  -0.410  1.00  0.00     0.072 C 
HETATM   22  O5  UNL     1       2.651   4.755   1.931  1.00  0.00    -0.296 OA
ENDBRANCH  19  20
ENDBRANCH   1  19
BRANCH   3  23
HETATM   23  C10 UNL     1      -0.095  -1.050  -1.685  1.00  0.00     0.005 C 
BRANCH  23  24
HETATM   24  C11 UNL     1      -0.036  -2.469  -2.285  1.00  0.00     0.025 C 
BRANCH  24  25
HETATM   25  C12 UNL     1      -1.290  -2.830  -3.045  1.00  0.00    -0.035 C 
HETATM   26  C13 UNL     1      -1.423  -3.879  -3.877  1.00  0.00    -0.048 C 
HETATM   27  C14 UNL     1      -2.723  -4.149  -4.599  1.00  0.00     0.026 C 
HETATM   28  C15 UNL     1      -0.324  -4.873  -4.168  1.00  0.00     0.026 C 
ENDBRANCH  24  25
ENDBRANCH  23  24
ENDBRANCH   3  23
BRANCH   6  29
HETATM   29  C8  UNL     1       5.530   0.407   0.159  1.00  0.00     0.211 C 
HETATM   30  O2  UNL     1       5.562  -0.152   1.466  1.00  0.00    -0.215 OA
ENDBRANCH   6  29
TORSDOF 10
