REMARK  0 active torsions:
REMARK  status: ('A' for Active; 'I' for Inactive)
ROOT
HETATM    1  C1  UNL     1      -2.947   3.505  -1.658  1.00  0.00     0.000 A 
HETATM    2  C2  UNL     1      -3.006   3.808  -0.299  1.00  0.00     0.002 A 
HETATM    3  C3  UNL     1      -2.972   2.778   0.645  1.00  0.00     0.025 A 
HETATM    4  C4  UNL     1      -2.879   1.430   0.278  1.00  0.00     0.103 A 
HETATM    5  C5  UNL     1      -2.821   1.150  -1.098  1.00  0.00     0.062 A 
HETATM    6  C6  UNL     1      -2.854   2.172  -2.058  1.00  0.00     0.005 A 
HETATM    7  C7  UNL     1      -2.724  -0.261  -1.541  1.00  0.00     0.199 A 
HETATM    8  C8  UNL     1      -2.690  -1.268  -0.454  1.00  0.00     0.064 A 
HETATM    9  C9  UNL     1      -2.755  -0.838   0.883  1.00  0.00     0.128 A 
HETATM   10  O1  UNL     1      -2.850   0.474   1.251  1.00  0.00    -0.305 OA
HETATM   11  C10 UNL     1      -2.719  -1.813   1.893  1.00  0.00     0.154 A 
HETATM   12  C11 UNL     1      -2.624  -3.168   1.556  1.00  0.00     0.029 A 
HETATM   13  C12 UNL     1      -2.562  -3.582   0.228  1.00  0.00     0.002 A 
HETATM   14  C13 UNL     1      -2.595  -2.626  -0.785  1.00  0.00     0.005 A 
HETATM   15  O2  UNL     1      -2.778  -1.448   3.202  1.00  0.00    -0.188 OA
HETATM   16  O3  UNL     1      -2.672  -0.574  -2.728  1.00  0.00    -0.286 OA
ENDROOT
TORSDOF 0
