REMARK  1 active torsions:
REMARK  status: ('A' for Active; 'I' for Inactive)
REMARK    1  A    between atoms: C10_10  and  O1_11 
ROOT
HETATM    1  C1  UNL     1      -2.244   1.619  -0.209  1.00  0.00     0.002 A 
HETATM    2  C2  UNL     1      -2.284   0.228  -0.226  1.00  0.00     0.027 A 
HETATM    3  C3  UNL     1      -1.123  -0.549  -0.115  1.00  0.00     0.129 A 
HETATM    4  C4  UNL     1       0.126   0.089   0.009  1.00  0.00     0.033 A 
HETATM    5  C5  UNL     1       0.154   1.497   0.091  1.00  0.00     0.035 A 
HETATM    6  C6  UNL     1      -1.018   2.256  -0.031  1.00  0.00     0.003 A 
HETATM    7  C7  UNL     1       1.420   2.231   0.346  1.00  0.00     0.173 C 
HETATM    8  C8  UNL     1       2.659   1.407   0.622  1.00  0.00     0.072 C 
HETATM    9  C9  UNL     1       2.647   0.127  -0.209  1.00  0.00     0.042 C 
HETATM   10  C10 UNL     1       1.413  -0.727   0.091  1.00  0.00     0.140 C 
HETATM   11  O2  UNL     1       1.482   3.455   0.384  1.00  0.00    -0.291 OA
HETATM   12  O3  UNL     1      -1.259  -1.904  -0.104  1.00  0.00    -0.190 OA
ENDROOT
BRANCH  10  13
HETATM   13  O1  UNL     1       1.386  -1.800  -0.831  1.00  0.00    -0.350 OA
HETATM   14  C11 UNL     1       2.176  -2.904  -0.442  1.00  0.00     0.175 C 
ENDBRANCH  10  13
TORSDOF 1
