REMARK  2 active torsions:
REMARK  status: ('A' for Active; 'I' for Inactive)
REMARK    1  A    between atoms: C1_1  and  O4_20 
REMARK    2  A    between atoms: C8_9  and  C11_13 
ROOT
HETATM    1  C1  UNL     1      -0.285   1.612   0.001  1.00  0.00     0.094 A 
HETATM    2  C2  UNL     1       0.252   2.906   0.026  1.00  0.00     0.051 A 
HETATM    3  C3  UNL     1       1.611   3.218   0.043  1.00  0.00     0.138 A 
HETATM    4  C4  UNL     1       2.499   2.134   0.041  1.00  0.00     0.087 A 
HETATM    5  C5  UNL     1       2.038   0.807   0.013  1.00  0.00     0.103 A 
HETATM    6  C6  UNL     1       0.649   0.550  -0.010  1.00  0.00     0.023 A 
HETATM    7  C7  UNL     1       0.230  -0.909  -0.043  1.00  0.00     0.035 C 
HETATM    8  O1  UNL     1       2.891  -0.263   0.007  1.00  0.00    -0.307 OA
HETATM    9  C8  UNL     1       4.246  -0.095   0.021  1.00  0.00     0.103 A 
HETATM   10  C9  UNL     1       4.802   1.139   0.050  1.00  0.00     0.067 A 
HETATM   11  C10 UNL     1       3.966   2.357   0.064  1.00  0.00     0.202 A 
HETATM   12  O2  UNL     1       4.496   3.464   0.092  1.00  0.00    -0.286 OA
HETATM   13  O3  UNL     1       1.987   4.527   0.069  1.00  0.00    -0.190 OA
ENDROOT
BRANCH   9  14
HETATM   14  C11 UNL     1       5.096  -1.310   0.006  1.00  0.00     0.023 A 
HETATM   15  C12 UNL     1       6.502  -1.308   0.010  1.00  0.00     0.002 A 
HETATM   16  C13 UNL     1       7.235  -2.498  -0.004  1.00  0.00     0.000 A 
HETATM   17  C14 UNL     1       6.583  -3.729  -0.023  1.00  0.00     0.000 A 
HETATM   18  C15 UNL     1       5.188  -3.760  -0.029  1.00  0.00     0.000 A 
HETATM   19  C16 UNL     1       4.463  -2.569  -0.014  1.00  0.00     0.002 A 
ENDBRANCH   9  14
BRANCH   1  20
HETATM   20  O4  UNL     1      -1.662   1.577  -0.013  1.00  0.00    -0.328 OA
HETATM   21  C17 UNL     1      -2.400   0.384  -0.059  1.00  0.00     0.181 C 
ENDBRANCH   1  20
TORSDOF 2
