REMARK  3 active torsions:
REMARK  status: ('A' for Active; 'I' for Inactive)
REMARK    1  A    between atoms: C1_1  and  C13_16 
REMARK    2  A    between atoms: C2_2  and  O3_14 
REMARK    3  A    between atoms: C13_16  and  C14_17 
ROOT
HETATM    1  C1  UNL     1       2.452  -0.898  -0.556  1.00  0.00     0.082 A 
HETATM    2  C2  UNL     1       1.281  -1.637  -0.784  1.00  0.00     0.101 A 
HETATM    3  C3  UNL     1       0.089  -0.910  -0.722  1.00  0.00     0.049 A 
HETATM    4  C4  UNL     1       0.021   0.462  -0.433  1.00  0.00     0.098 A 
HETATM    5  C5  UNL     1       1.224   1.115  -0.142  1.00  0.00     0.048 A 
HETATM    6  C6  UNL     1       2.462   0.460  -0.234  1.00  0.00     0.137 A 
HETATM    7  O1  UNL     1       3.645   1.115  -0.076  1.00  0.00    -0.190 OA
HETATM    8  C7  UNL     1       1.162   2.531   0.208  1.00  0.00     0.002 C 
HETATM    9  C8  UNL     1      -0.047   3.098   0.343  1.00  0.00     0.001 C 
HETATM   10  C9  UNL     1      -1.344   2.347   0.154  1.00  0.00     0.117 C 
HETATM   11  O2  UNL     1      -1.203   1.070  -0.418  1.00  0.00    -0.331 OA
HETATM   12  C10 UNL     1      -2.241   3.164  -0.785  1.00  0.00     0.035 C 
HETATM   13  C11 UNL     1      -2.027   2.183   1.517  1.00  0.00     0.035 C 
ENDROOT
BRANCH   1  14
HETATM   14  C13 UNL     1       3.798  -1.587  -0.732  1.00  0.00     0.176 C 
HETATM   15  O4  UNL     1       4.255  -1.671  -1.862  1.00  0.00    -0.291 OA
BRANCH  14  16
HETATM   16  C14 UNL     1       4.624  -2.022   0.469  1.00  0.00     0.062 C 
HETATM   17  C15 UNL     1       4.048  -1.621   1.833  1.00  0.00     0.008 C 
HETATM   18  C16 UNL     1       6.064  -1.500   0.321  1.00  0.00     0.008 C 
ENDBRANCH  14  16
ENDBRANCH   1  14
BRANCH   2  19
HETATM   19  O3  UNL     1       1.379  -2.970  -1.103  1.00  0.00    -0.328 OA
HETATM   20  C12 UNL     1       0.218  -3.653  -1.517  1.00  0.00     0.181 C 
ENDBRANCH   2  19
TORSDOF 3
