REMARK  0 active torsions:
REMARK  status: ('A' for Active; 'I' for Inactive)
ROOT
HETATM    1  C1  UNL     1      -2.004   1.080  -0.041  1.00  0.00     0.052 A 
HETATM    2  C2  UNL     1      -1.239  -0.037  -0.397  1.00  0.00     0.098 A 
HETATM    3  C3  UNL     1       0.152   0.070  -0.242  1.00  0.00     0.045 A 
HETATM    4  C4  UNL     1       0.787   1.262   0.160  1.00  0.00     0.107 A 
HETATM    5  C5  UNL     1      -0.036   2.359   0.468  1.00  0.00     0.049 A 
HETATM    6  C6  UNL     1      -1.439   2.280   0.384  1.00  0.00     0.135 A 
HETATM    7  O1  UNL     1      -2.241   3.331   0.698  1.00  0.00    -0.190 OA
HETATM    8  C7  UNL     1       0.591   3.612   0.891  1.00  0.00     0.009 A 
HETATM    9  C8  UNL     1       1.937   3.680   0.968  1.00  0.00     0.069 A 
HETATM   10  C9  UNL     1       2.730   2.480   0.626  1.00  0.00     0.300 A 
HETATM   11  O2  UNL     1       2.152   1.307   0.243  1.00  0.00    -0.273 OA
HETATM   12  O3  UNL     1       3.954   2.565   0.699  1.00  0.00    -0.259 OA
HETATM   13  C10 UNL     1       0.943  -1.110  -0.602  1.00  0.00     0.002 C 
HETATM   14  C11 UNL     1       0.299  -2.276  -0.779  1.00  0.00     0.001 C 
HETATM   15  C12 UNL     1      -1.187  -2.397  -0.537  1.00  0.00     0.117 C 
HETATM   16  O4  UNL     1      -1.860  -1.192  -0.789  1.00  0.00    -0.331 OA
HETATM   17  C13 UNL     1      -1.786  -3.454  -1.471  1.00  0.00     0.035 C 
HETATM   18  C14 UNL     1      -1.424  -2.799   0.924  1.00  0.00     0.035 C 
ENDROOT
TORSDOF 0
