REMARK  2 active torsions:
REMARK  status: ('A' for Active; 'I' for Inactive)
REMARK    1  A    between atoms: C2_2  and  O3_20 
REMARK    2  A    between atoms: C10_11  and  C15_17 
ROOT
HETATM    1  C1  UNL     1      -1.073   1.525   0.110  1.00  0.00     0.024 A 
HETATM    2  C2  UNL     1      -1.062   0.111   0.040  1.00  0.00     0.096 A 
HETATM    3  C3  UNL     1       0.186  -0.521   0.000  1.00  0.00     0.042 A 
HETATM    4  C4  UNL     1       1.366   0.239   0.021  1.00  0.00     0.069 A 
HETATM    5  C5  UNL     1       1.310   1.643   0.085  1.00  0.00     0.018 A 
HETATM    6  C6  UNL     1       0.078   2.305   0.135  1.00  0.00     0.004 A 
HETATM    7  C7  UNL     1       2.665   2.146   0.080  1.00  0.00     0.021 A 
HETATM    8  C8  UNL     1       3.481   1.010   0.014  1.00  0.00     0.085 A 
HETATM    9  N1  UNL     1       2.725  -0.158  -0.018  1.00  0.00    -0.274 N 
HETATM   10  C9  UNL     1       3.370  -1.370  -0.079  1.00  0.00     0.263 A 
HETATM   11  C10 UNL     1       4.860  -1.392  -0.110  1.00  0.00     0.069 A 
HETATM   12  C11 UNL     1       5.552  -0.218  -0.082  1.00  0.00     0.024 A 
HETATM   13  C12 UNL     1       4.875   1.070  -0.015  1.00  0.00     0.098 A 
HETATM   14  N2  UNL     1       5.466   2.279   0.019  1.00  0.00    -0.243 NA
HETATM   15  C13 UNL     1       4.689   3.375   0.084  1.00  0.00     0.099 A 
HETATM   16  C14 UNL     1       3.284   3.393   0.120  1.00  0.00     0.022 A 
HETATM   17  O2  UNL     1       2.736  -2.427  -0.104  1.00  0.00    -0.267 OA
ENDROOT
BRANCH   2  18
HETATM   18  O3  UNL     1      -2.269  -0.543   0.014  1.00  0.00    -0.328 OA
HETATM   19  C16 UNL     1      -2.271  -1.950  -0.052  1.00  0.00     0.181 C 
ENDBRANCH   2  18
BRANCH  11  20
HETATM   20  C15 UNL     1       5.537  -2.742  -0.172  1.00  0.00     0.214 C 
HETATM   21  O1  UNL     1       6.956  -2.661  -0.183  1.00  0.00    -0.215 OA
ENDBRANCH  11  20
TORSDOF 2
