REMARK  3 active torsions:
REMARK  status: ('A' for Active; 'I' for Inactive)
REMARK    1  A    between atoms: C2_2  and  O3_12 
REMARK    2  A    between atoms: C4_4  and  C8_9 
REMARK    3  A    between atoms: C6_6  and  O1_7 
ROOT
HETATM    1  C1  UNL     1      -0.836   1.666  -0.020  1.00  0.00     0.175 A 
HETATM    2  C2  UNL     1      -1.496   0.424  -0.020  1.00  0.00     0.121 A 
HETATM    3  C3  UNL     1      -0.746  -0.768  -0.020  1.00  0.00     0.029 A 
HETATM    4  C4  UNL     1       0.658  -0.717  -0.020  1.00  0.00     0.039 A 
HETATM    5  C5  UNL     1       1.314   0.525  -0.020  1.00  0.00     0.029 A 
HETATM    6  C6  UNL     1       0.570   1.717  -0.020  1.00  0.00     0.121 A 
HETATM    7  O4  UNL     1      -1.537   2.783  -0.020  1.00  0.00    -0.186 OA
ENDROOT
BRANCH   4   8
HETATM    8  C8  UNL     1       1.451  -1.983  -0.020  1.00  0.00     0.174 C 
HETATM    9  O2  UNL     1       2.660  -1.959  -0.020  1.00  0.00    -0.291 OA
HETATM   10  C9  UNL     1       0.703  -3.289  -0.020  1.00  0.00     0.077 C 
ENDBRANCH   4   8
BRANCH   2  11
HETATM   11  O3  UNL     1      -2.813   0.371  -0.020  1.00  0.00    -0.326 OA
HETATM   12  C10 UNL     1      -3.428  -0.908  -0.020  1.00  0.00     0.181 C 
ENDBRANCH   2  11
BRANCH   6  13
HETATM   13  O1  UNL     1       1.191   2.881  -0.020  1.00  0.00    -0.326 OA
HETATM   14  C7  UNL     1       2.606   2.881   0.111  1.00  0.00     0.181 C 
ENDBRANCH   6  13
TORSDOF 3
