REMARK  8 active torsions:
REMARK  status: ('A' for Active; 'I' for Inactive)
REMARK    1  A    between atoms: C1_1  and  O8_34 
REMARK    2  A    between atoms: C2_2  and  O6_30 
REMARK    3  A    between atoms: C10_10  and  O1_11 
REMARK    4  A    between atoms: O1_11  and  C11_12 
REMARK    5  A    between atoms: C16_18  and  O3_19 
REMARK    6  A    between atoms: O3_19  and  C17_20 
REMARK    7  A    between atoms: O6_30  and  C25_31 
REMARK    8  A    between atoms: O8_34  and  C27_35 
ROOT
HETATM    1  C1  UNL     1       1.910   1.002   1.404  1.00  0.00     0.152 C 
HETATM    2  C2  UNL     1       2.723   0.350   0.281  1.00  0.00     0.152 C 
HETATM    3  C3  UNL     1       2.072  -0.955  -0.230  1.00  0.00     0.030 C 
HETATM    4  C4  UNL     1       0.586  -0.697  -0.629  1.00  0.00     0.030 C 
HETATM    5  C5  UNL     1      -0.262  -0.021   0.498  1.00  0.00     0.007 C 
HETATM    6  C6  UNL     1       0.461   1.264   0.971  1.00  0.00     0.033 C 
HETATM    7  C7  UNL     1      -1.674   0.307  -0.078  1.00  0.00     0.035 C 
HETATM    8  C8  UNL     1      -2.404  -0.990  -0.566  1.00  0.00     0.060 C 
HETATM    9  C9  UNL     1      -1.508  -2.232  -0.705  1.00  0.00     0.038 C 
HETATM   10  C10 UNL     1      -0.141  -1.898  -1.310  1.00  0.00     0.125 C 
HETATM   11  C13 UNL     1      -3.549  -1.330   0.420  1.00  0.00     0.012 C 
HETATM   12  C14 UNL     1      -4.576  -0.242   0.061  1.00  0.00     0.028 C 
HETATM   13  C15 UNL     1      -4.086   1.100   0.625  1.00  0.00     0.035 C 
HETATM   14  C16 UNL     1      -2.559   1.154   0.889  1.00  0.00     0.125 C 
HETATM   15  C19 UNL     1      -4.504  -0.244  -1.441  1.00  0.00     0.012 C 
HETATM   16  C20 UNL     1      -3.180  -0.691  -1.828  1.00  0.00     0.168 C 
HETATM   17  O5  UNL     1      -2.768  -0.811  -2.959  1.00  0.00    -0.292 OA
HETATM   18  C21 UNL     1      -5.506   0.107  -2.268  1.00  0.00    -0.002 C 
HETATM   19  C22 UNL     1      -0.406  -0.934   1.727  1.00  0.00     0.000 C 
HETATM   20  C23 UNL     1       2.166  -2.020   0.869  1.00  0.00     0.003 C 
HETATM   21  C24 UNL     1       2.873  -1.449  -1.443  1.00  0.00     0.003 C 
ENDROOT
BRANCH   1  22
HETATM   22  O8  UNL     1       2.522   2.231   1.776  1.00  0.00    -0.302 OA
BRANCH  22  23
HETATM   23  C27 UNL     1       3.645   2.051   2.463  1.00  0.00     0.272 C 
HETATM   24  O9  UNL     1       4.039   0.971   2.836  1.00  0.00    -0.264 OA
HETATM   25  C28 UNL     1       4.420   3.305   2.764  1.00  0.00     0.106 C 
ENDBRANCH  22  23
ENDBRANCH   1  22
BRANCH   2  26
HETATM   26  O6  UNL     1       2.844   1.275  -0.791  1.00  0.00    -0.302 OA
BRANCH  26  27
HETATM   27  C25 UNL     1       4.051   1.246  -1.351  1.00  0.00     0.272 C 
HETATM   28  C26 UNL     1       4.151   1.922  -2.693  1.00  0.00     0.106 C 
HETATM   29  O7  UNL     1       5.016   0.723  -0.846  1.00  0.00    -0.264 OA
ENDBRANCH  26  27
ENDBRANCH   2  26
BRANCH  10  30
HETATM   30  O1  UNL     1       0.650  -3.078  -1.267  1.00  0.00    -0.304 OA
BRANCH  30  31
HETATM   31  C11 UNL     1       0.254  -3.986  -2.158  1.00  0.00     0.272 C 
HETATM   32  C12 UNL     1       0.922  -5.330  -2.041  1.00  0.00     0.106 C 
HETATM   33  O2  UNL     1      -0.578  -3.775  -3.008  1.00  0.00    -0.264 OA
ENDBRANCH  30  31
ENDBRANCH  10  30
BRANCH  14  34
HETATM   34  O3  UNL     1      -2.148   2.514   0.856  1.00  0.00    -0.304 OA
BRANCH  34  35
HETATM   35  C17 UNL     1      -2.611   3.209   1.891  1.00  0.00     0.272 C 
HETATM   36  O4  UNL     1      -3.199   2.715   2.824  1.00  0.00    -0.264 OA
HETATM   37  C18 UNL     1      -2.353   4.690   1.834  1.00  0.00     0.106 C 
ENDBRANCH  34  35
ENDBRANCH  14  34
TORSDOF 8
