REMARK  27 active torsions:
REMARK  status: ('A' for Active; 'I' for Inactive)
REMARK    1  A    between atoms: C6_6  and  C7_7 
REMARK    2  A    between atoms: C8_8  and  C9_9 
REMARK    3  A    between atoms: C10_10  and  C11_11 
REMARK    4  A    between atoms: C12_12  and  C13_13 
REMARK    5  A    between atoms: C14_14  and  C15_15 
REMARK    6  A    between atoms: C16_16  and  C17_17 
REMARK    7  A    between atoms: C18_18  and  C19_19 
REMARK    8  A    between atoms: C20_20  and  C21_21 
REMARK    9  A    between atoms: C22_22  and  C23_23 
REMARK   10  A    between atoms: C24_24  and  C25_25 
REMARK   11  A    between atoms: C29_29  and  O1_34 
REMARK   12  A    between atoms: O1_34  and  C34_35 
REMARK   13  A    between atoms: C34_35  and  C35_37 
REMARK   14  A    between atoms: C35_37  and  C36_38 
REMARK   15  A    between atoms: C36_38  and  C37_39 
REMARK   16  A    between atoms: C37_39  and  C38_40 
REMARK   17  A    between atoms: C38_40  and  C39_41 
REMARK   18  A    between atoms: C39_41  and  C40_42 
REMARK   19  A    between atoms: C40_42  and  C41_43 
REMARK   20  A    between atoms: C41_43  and  C42_44 
REMARK   21  A    between atoms: C43_45  and  C44_46 
REMARK   22  A    between atoms: C44_46  and  C45_47 
REMARK   23  A    between atoms: C45_47  and  C46_48 
REMARK   24  A    between atoms: C46_48  and  C47_49 
REMARK   25  A    between atoms: C47_49  and  C48_50 
REMARK   26  A    between atoms: C48_50  and  C49_51 
REMARK   27  A    between atoms: C49_51  and  C50_52 
ROOT
HETATM    1  C23 UNL     1      -4.551   2.578   2.998  1.00  0.00    -0.004 C 
HETATM    2  C24 UNL     1      -3.377   3.121   3.361  1.00  0.00    -0.022 C 
ENDROOT
BRANCH   2   3
HETATM    3  C25 UNL     1      -3.002   3.111   4.826  1.00  0.00     0.040 C 
HETATM    4  C26 UNL     1      -1.740   2.283   4.977  1.00  0.00    -0.042 C 
HETATM    5  C27 UNL     1      -1.867   0.783   4.897  1.00  0.00     0.026 C 
HETATM    6  C28 UNL     1      -0.527   2.844   5.178  1.00  0.00    -0.005 C 
HETATM    7  C29 UNL     1      -0.330   4.338   5.309  1.00  0.00     0.146 C 
HETATM    8  C30 UNL     1      -1.559   5.170   4.902  1.00  0.00     0.035 C 
HETATM    9  C31 UNL     1      -2.867   4.539   5.414  1.00  0.00     0.010 C 
HETATM   10  C32 UNL     1      -4.059   5.416   5.008  1.00  0.00     0.001 C 
HETATM   11  C33 UNL     1      -2.842   4.473   6.947  1.00  0.00     0.001 C 
BRANCH   7  12
HETATM   12  O1  UNL     1       0.783   4.731   4.518  1.00  0.00    -0.300 OA
BRANCH  12  13
HETATM   13  C34 UNL     1       1.941   4.350   5.049  1.00  0.00     0.272 C 
HETATM   14  O2  UNL     1       2.043   3.797   6.117  1.00  0.00    -0.264 OA
BRANCH  13  15
HETATM   15  C35 UNL     1       3.158   4.658   4.217  1.00  0.00     0.096 C 
BRANCH  15  16
HETATM   16  C36 UNL     1       4.422   3.994   4.766  1.00  0.00     0.010 C 
BRANCH  16  17
HETATM   17  C37 UNL     1       5.658   4.283   3.912  1.00  0.00     0.001 C 
BRANCH  17  18
HETATM   18  C38 UNL     1       6.922   3.623   4.463  1.00  0.00     0.000 C 
BRANCH  18  19
HETATM   19  C39 UNL     1       8.158   3.912   3.611  1.00  0.00     0.000 C 
BRANCH  19  20
HETATM   20  C40 UNL     1       9.422   3.252   4.160  1.00  0.00     0.005 C 
BRANCH  20  21
HETATM   21  C41 UNL     1      10.658   3.541   3.307  1.00  0.00     0.026 C 
BRANCH  21  22
HETATM   22  C42 UNL     1      11.899   2.891   3.857  1.00  0.00    -0.031 C 
HETATM   23  C43 UNL     1      12.961   2.748   3.045  1.00  0.00    -0.031 C 
BRANCH  23  24
HETATM   24  C44 UNL     1      12.854   3.244   1.629  1.00  0.00     0.026 C 
BRANCH  24  25
HETATM   25  C45 UNL     1      14.221   3.420   0.969  1.00  0.00     0.005 C 
BRANCH  25  26
HETATM   26  C46 UNL     1      14.119   3.916  -0.475  1.00  0.00     0.000 C 
BRANCH  26  27
HETATM   27  C47 UNL     1      15.486   4.096  -1.135  1.00  0.00     0.000 C 
BRANCH  27  28
HETATM   28  C48 UNL     1      15.385   4.590  -2.578  1.00  0.00     0.000 C 
BRANCH  28  29
HETATM   29  C49 UNL     1      16.752   4.770  -3.238  1.00  0.00     0.000 C 
BRANCH  29  30
HETATM   30  C50 UNL     1      16.651   5.264  -4.682  1.00  0.00     0.000 C 
HETATM   31  C51 UNL     1      18.018   5.443  -5.342  1.00  0.00     0.000 C 
ENDBRANCH  29  30
ENDBRANCH  28  29
ENDBRANCH  27  28
ENDBRANCH  26  27
ENDBRANCH  25  26
ENDBRANCH  24  25
ENDBRANCH  23  24
ENDBRANCH  21  22
ENDBRANCH  20  21
ENDBRANCH  19  20
ENDBRANCH  18  19
ENDBRANCH  17  18
ENDBRANCH  16  17
ENDBRANCH  15  16
ENDBRANCH  13  15
ENDBRANCH  12  13
ENDBRANCH   7  12
ENDBRANCH   2   3
BRANCH   1  32
HETATM   32  C22 UNL     1      -4.961   2.563   1.588  1.00  0.00    -0.000 C 
HETATM   33  C21 UNL     1      -6.252   2.400   1.254  1.00  0.00    -0.000 C 
BRANCH  33  34
HETATM   34  C20 UNL     1      -7.279   2.238   2.289  1.00  0.00    -0.000 C 
HETATM   35  C19 UNL     1      -8.254   1.324   2.148  1.00  0.00    -0.000 C 
BRANCH  35  36
HETATM   36  C18 UNL     1      -8.315   0.471   0.957  1.00  0.00    -0.000 C 
HETATM   37  C17 UNL     1      -9.389  -0.297   0.719  1.00  0.00    -0.000 C 
BRANCH  37  38
HETATM   38  C16 UNL     1      -9.449  -1.152  -0.475  1.00  0.00    -0.000 C 
HETATM   39  C15 UNL     1     -10.524  -1.920  -0.713  1.00  0.00    -0.000 C 
BRANCH  39  40
HETATM   40  C14 UNL     1     -10.584  -2.773  -1.904  1.00  0.00    -0.004 C 
HETATM   41  C13 UNL     1     -11.717  -3.414  -2.232  1.00  0.00    -0.022 C 
HETATM   42  C52 UNL     1     -12.924  -3.236  -1.350  1.00  0.00     0.031 C 
BRANCH  41  43
HETATM   43  C12 UNL     1     -11.834  -4.281  -3.412  1.00  0.00    -0.004 C 
HETATM   44  C11 UNL     1     -11.192  -5.459  -3.461  1.00  0.00    -0.001 C 
BRANCH  44  45
HETATM   45  C10 UNL     1     -10.360  -5.906  -2.338  1.00  0.00    -0.004 C 
HETATM   46  C9  UNL     1      -9.186  -6.520  -2.559  1.00  0.00    -0.022 C 
HETATM   47  C53 UNL     1      -8.371  -6.957  -1.371  1.00  0.00     0.031 C 
BRANCH  46  48
HETATM   48  C8  UNL     1      -8.660  -6.781  -3.902  1.00  0.00    -0.005 C 
HETATM   49  C7  UNL     1      -7.549  -7.516  -4.072  1.00  0.00    -0.005 C 
BRANCH  49  50
HETATM   50  C6  UNL     1      -7.020  -7.779  -5.426  1.00  0.00    -0.030 C 
HETATM   51  C1  UNL     1      -7.125  -9.203  -5.965  1.00  0.00     0.021 C 
HETATM   52  C2  UNL     1      -6.908  -9.281  -7.490  1.00  0.00     0.037 C 
HETATM   53  C55 UNL     1      -8.506  -9.789  -5.639  1.00  0.00     0.004 C 
HETATM   54  C56 UNL     1      -6.057 -10.043  -5.256  1.00  0.00     0.004 C 
HETATM   55  C3  UNL     1      -5.692  -8.449  -7.908  1.00  0.00     0.157 C 
HETATM   56  C4  UNL     1      -5.920  -6.977  -7.551  1.00  0.00     0.055 C 
HETATM   57  O3  UNL     1      -5.488  -8.572  -9.303  1.00  0.00    -0.223 OA
HETATM   58  C5  UNL     1      -6.455  -6.779  -6.147  1.00  0.00    -0.045 C 
HETATM   59  C54 UNL     1      -6.332  -5.387  -5.574  1.00  0.00     0.026 C 
ENDBRANCH  49  50
ENDBRANCH  46  48
ENDBRANCH  44  45
ENDBRANCH  41  43
ENDBRANCH  39  40
ENDBRANCH  37  38
ENDBRANCH  35  36
ENDBRANCH  33  34
ENDBRANCH   1  32
TORSDOF 27
