REMARK  6 active torsions:
REMARK  status: ('A' for Active; 'I' for Inactive)
REMARK    1  A    between atoms: C1_1  and  O7_32 
REMARK    2  A    between atoms: C4_4  and  C24_30 
REMARK    3  A    between atoms: C11_11  and  O2_17 
REMARK    4  A    between atoms: C13_13  and  O1_14 
REMARK    5  A    between atoms: C18_21  and  O4_22 
REMARK    6  A    between atoms: N1_25  and  C22_27 
ROOT
HETATM    1  C1  UNL     1      -2.097   1.456   0.040  1.00  0.00     0.117 C 
HETATM    2  C2  UNL     1      -3.225   1.388   1.063  1.00  0.00     0.030 C 
HETATM    3  C3  UNL     1      -3.677  -0.058   1.234  1.00  0.00     0.007 C 
HETATM    4  C4  UNL     1      -2.516  -1.030   1.597  1.00  0.00     0.065 C 
HETATM    5  C5  UNL     1      -1.162  -0.271   1.747  1.00  0.00     0.038 C 
HETATM    6  C6  UNL     1      -0.892   0.569   0.460  1.00  0.00     0.060 C 
HETATM    7  C7  UNL     1       0.342   1.525   0.551  1.00  0.00     0.009 C 
HETATM    8  C8  UNL     1       1.742   0.936   0.822  1.00  0.00     0.058 C 
HETATM    9  C9  UNL     1       1.885  -0.445   0.182  1.00  0.00     0.161 C 
HETATM   10  C10 UNL     1       2.370  -0.396  -1.287  1.00  0.00     0.063 C 
HETATM   11  C11 UNL     1       2.228   0.930  -2.051  1.00  0.00     0.120 C 
HETATM   12  C12 UNL     1       2.077   2.149  -1.127  1.00  0.00     0.055 C 
HETATM   13  C13 UNL     1       2.730   1.943   0.235  1.00  0.00     0.120 C 
HETATM   14  C15 UNL     1       0.603   2.371  -0.722  1.00  0.00     0.005 C 
HETATM   15  O3  UNL     1       2.904  -1.129   0.873  1.00  0.00    -0.223 OA
HETATM   16  C17 UNL     1       0.593  -1.250   0.383  1.00  0.00     0.206 C 
HETATM   17  C18 UNL     1       0.018  -1.263   1.814  1.00  0.00     0.148 C 
HETATM   18  C20 UNL     1      -0.548  -0.633  -0.456  1.00  0.00     0.254 C 
HETATM   19  N1  UNL     1      -1.734  -1.451  -0.734  1.00  0.00     0.138 N 
HETATM   20  C21 UNL     1      -2.341  -2.052   0.446  1.00  0.00     0.253 C 
HETATM   21  O5  UNL     1       0.899  -2.560  -0.004  1.00  0.00    -0.219 OA
ENDROOT
BRANCH   1  22
HETATM   22  O7  UNL     1      -2.519   1.128  -1.258  1.00  0.00    -0.354 OA
HETATM   23  C25 UNL     1      -3.334   2.096  -1.882  1.00  0.00     0.174 C 
ENDBRANCH   1  22
BRANCH   4  24
HETATM   24  C24 UNL     1      -2.985  -1.735   2.889  1.00  0.00     0.184 C 
HETATM   25  O6  UNL     1      -2.156  -2.799   3.302  1.00  0.00    -0.221 OA
ENDBRANCH   4  24
BRANCH  17  26
HETATM   26  O4  UNL     1       0.939  -0.930   2.812  1.00  0.00    -0.351 OA
HETATM   27  C19 UNL     1       0.563  -1.330   4.111  1.00  0.00     0.174 C 
ENDBRANCH  17  26
BRANCH  19  28
HETATM   28  C22 UNL     1      -1.563  -2.449  -1.787  1.00  0.00     0.250 C 
HETATM   29  C23 UNL     1      -1.118  -1.873  -3.141  1.00  0.00     0.037 C 
ENDBRANCH  19  28
BRANCH  13  30
HETATM   30  O1  UNL     1       4.021   1.409   0.217  1.00  0.00    -0.354 OA
HETATM   31  C14 UNL     1       5.000   2.348  -0.166  1.00  0.00     0.174 C 
ENDBRANCH  13  30
BRANCH  11  32
HETATM   32  O2  UNL     1       3.341   1.162  -2.880  1.00  0.00    -0.354 OA
HETATM   33  C16 UNL     1       3.414   0.302  -3.998  1.00  0.00     0.174 C 
ENDBRANCH  11  32
TORSDOF 6
