REMARK  0 active torsions:
REMARK  status: ('A' for Active; 'I' for Inactive)
ROOT
HETATM    1  C1  UNL     1      -2.679   0.248   1.754  1.00  0.00     0.035 C 
HETATM    2  C2  UNL     1      -2.732  -0.518   0.426  1.00  0.00     0.250 C 
HETATM    3  N1  UNL     1      -1.494  -1.240   0.141  1.00  0.00     0.134 N 
HETATM    4  C3  UNL     1      -0.282  -0.397   0.151  1.00  0.00     0.199 C 
HETATM    5  C4  UNL     1      -0.211   0.414   1.466  1.00  0.00     0.030 C 
HETATM    6  C5  UNL     1      -1.490   1.212   1.760  1.00  0.00     0.004 C 
HETATM    7  C6  UNL     1       1.057   1.283   1.481  1.00  0.00     0.009 C 
HETATM    8  C7  UNL     1       1.115   2.264   0.303  1.00  0.00     0.065 C 
HETATM    9  C8  UNL     1       0.753   1.658  -1.039  1.00  0.00     0.152 C 
HETATM   10  C9  UNL     1      -0.299   0.563  -1.065  1.00  0.00     0.087 C 
HETATM   11  C10 UNL     1      -0.377  -0.204  -2.394  1.00  0.00     0.011 C 
HETATM   12  C11 UNL     1      -1.582  -1.154  -2.377  1.00  0.00     0.036 C 
HETATM   13  C12 UNL     1      -1.624  -2.005  -1.098  1.00  0.00     0.250 C 
HETATM   14  O1  UNL     1       1.213   2.116  -2.061  1.00  0.00    -0.296 OA
HETATM   15  C13 UNL     1       2.296   0.375   1.567  1.00  0.00     0.001 C 
HETATM   16  C14 UNL     1       2.353  -0.741   0.512  1.00  0.00     0.002 C 
HETATM   17  C15 UNL     1       0.968  -1.331   0.173  1.00  0.00     0.032 C 
HETATM   18  C16 UNL     1       3.211  -0.393  -0.717  1.00  0.00     0.000 C 
ENDROOT
TORSDOF 0
