REMARK  17 active torsions:
REMARK  status: ('A' for Active; 'I' for Inactive)
REMARK    1  A    between atoms: C4_4  and  O3_9 
REMARK    2  A    between atoms: C5_6  and  C6_7 
REMARK    3  A    between atoms: O3_9  and  C7_10 
REMARK    4  A    between atoms: C10_13  and  O6_18 
REMARK    5  A    between atoms: C11_15  and  C12_16 
REMARK    6  A    between atoms: O6_18  and  C13_19 
REMARK    7  A    between atoms: C16_22  and  O9_27 
REMARK    8  A    between atoms: C17_24  and  C18_25 
REMARK    9  A    between atoms: O9_27  and  C19_28 
REMARK   10  A    between atoms: C22_31  and  O12_36 
REMARK   11  A    between atoms: C23_33  and  C24_34 
REMARK   12  A    between atoms: O12_36  and  C25_37 
REMARK   13  A    between atoms: C28_40  and  O15_45 
REMARK   14  A    between atoms: C29_42  and  C30_43 
REMARK   15  A    between atoms: O15_45  and  C31_46 
REMARK   16  A    between atoms: C31_46  and  C36_55 
REMARK   17  A    between atoms: C34_49  and  C35_51 
ROOT
HETATM    1  O9  UNL     1      -0.375  -0.371   0.143  1.00  0.00    -0.326 OA
ENDROOT
BRANCH   1   2
HETATM    2  C16 UNL     1      -1.484  -0.011  -0.646  1.00  0.00     0.270 C 
HETATM    3  C15 UNL     1      -1.156  -0.296  -2.093  1.00  0.00     0.241 C 
HETATM    4  C14 UNL     1      -0.134   0.681  -2.631  1.00  0.00     0.217 C 
HETATM    5  O25 UNL     1      -0.624  -1.596  -2.203  1.00  0.00    -0.215 OA
HETATM    6  C13 UNL     1      -0.634   2.103  -2.413  1.00  0.00     0.181 C 
HETATM    7  O26 UNL     1       0.071   0.415  -3.997  1.00  0.00    -0.218 OA
HETATM    8  C17 UNL     1      -0.832   2.265  -0.901  1.00  0.00     0.181 C 
HETATM    9  O7  UNL     1      -1.782   1.350  -0.417  1.00  0.00    -0.326 OA
BRANCH   6  10
HETATM   10  O6  UNL     1      -1.852   2.252  -3.089  1.00  0.00    -0.326 OA
BRANCH  10  11
HETATM   11  C10 UNL     1      -2.090   3.516  -3.663  1.00  0.00     0.270 C 
HETATM   12  C9  UNL     1      -3.582   3.687  -3.828  1.00  0.00     0.241 C 
HETATM   13  C8  UNL     1      -4.118   2.806  -4.934  1.00  0.00     0.217 C 
HETATM   14  O27 UNL     1      -4.229   3.331  -2.628  1.00  0.00    -0.215 OA
HETATM   15  C7  UNL     1      -3.353   3.097  -6.220  1.00  0.00     0.181 C 
HETATM   16  O28 UNL     1      -5.494   3.053  -5.084  1.00  0.00    -0.218 OA
HETATM   17  C11 UNL     1      -1.882   2.782  -5.920  1.00  0.00     0.181 C 
HETATM   18  O4  UNL     1      -1.392   3.600  -4.888  1.00  0.00    -0.326 OA
BRANCH  15  19
HETATM   19  O3  UNL     1      -3.510   4.454  -6.536  1.00  0.00    -0.326 OA
BRANCH  19  20
HETATM   20  C4  UNL     1      -3.610   4.767  -7.904  1.00  0.00     0.270 C 
HETATM   21  C3  UNL     1      -3.239   6.220  -8.085  1.00  0.00     0.241 C 
HETATM   22  C2  UNL     1      -4.257   7.126  -7.430  1.00  0.00     0.220 C 
HETATM   23  O29 UNL     1      -1.991   6.465  -7.479  1.00  0.00    -0.215 OA
HETATM   24  C1  UNL     1      -5.638   6.791  -7.946  1.00  0.00     0.215 C 
HETATM   25  O30 UNL     1      -3.946   8.458  -7.753  1.00  0.00    -0.218 OA
HETATM   26  C5  UNL     1      -5.928   5.302  -7.799  1.00  0.00     0.184 C 
HETATM   27  O31 UNL     1      -5.711   7.189  -9.294  1.00  0.00    -0.218 OA
HETATM   28  O1  UNL     1      -4.920   4.500  -8.356  1.00  0.00    -0.326 OA
BRANCH  26  29
HETATM   29  C6  UNL     1      -7.256   4.934  -8.449  1.00  0.00     0.214 C 
HETATM   30  O2  UNL     1      -7.608   3.604  -8.126  1.00  0.00    -0.218 OA
ENDBRANCH  26  29
ENDBRANCH  19  20
ENDBRANCH  15  19
BRANCH  17  31
HETATM   31  C12 UNL     1      -0.969   2.940  -7.128  1.00  0.00     0.214 C 
HETATM   32  O5  UNL     1       0.314   2.419  -6.842  1.00  0.00    -0.218 OA
ENDBRANCH  17  31
ENDBRANCH  10  11
ENDBRANCH   6  10
BRANCH   8  33
HETATM   33  C18 UNL     1      -1.266   3.665  -0.488  1.00  0.00     0.214 C 
HETATM   34  O8  UNL     1      -1.201   3.803   0.918  1.00  0.00    -0.218 OA
ENDBRANCH   8  33
ENDBRANCH   1   2
BRANCH   1  35
HETATM   35  C19 UNL     1      -0.643  -0.643   1.492  1.00  0.00     0.181 C 
HETATM   36  C20 UNL     1       0.514  -0.121   2.334  1.00  0.00     0.217 C 
HETATM   37  C21 UNL     1       1.793  -0.802   1.898  1.00  0.00     0.241 C 
HETATM   38  O24 UNL     1       0.667   1.268   2.186  1.00  0.00    -0.218 OA
HETATM   39  C22 UNL     1       1.665  -2.308   1.945  1.00  0.00     0.270 C 
HETATM   40  O23 UNL     1       2.827  -0.392   2.763  1.00  0.00    -0.215 OA
HETATM   41  O10 UNL     1       0.489  -2.775   1.316  1.00  0.00    -0.326 OA
HETATM   42  C23 UNL     1      -0.702  -2.156   1.732  1.00  0.00     0.181 C 
BRANCH  39  43
HETATM   43  O12 UNL     1       1.649  -2.715   3.293  1.00  0.00    -0.326 OA
BRANCH  43  44
HETATM   44  C25 UNL     1       2.073  -4.029   3.538  1.00  0.00     0.181 C 
HETATM   45  C26 UNL     1       1.241  -4.611   4.673  1.00  0.00     0.217 C 
HETATM   46  C27 UNL     1       1.442  -3.779   5.919  1.00  0.00     0.241 C 
HETATM   47  O22 UNL     1      -0.129  -4.614   4.354  1.00  0.00    -0.218 OA
HETATM   48  C28 UNL     1       2.906  -3.647   6.279  1.00  0.00     0.272 C 
HETATM   49  O21 UNL     1       0.706  -4.367   6.964  1.00  0.00    -0.215 OA
HETATM   50  O13 UNL     1       3.679  -3.234   5.166  1.00  0.00    -0.326 OA
HETATM   51  C29 UNL     1       3.528  -4.042   4.024  1.00  0.00     0.181 C 
BRANCH  48  52
HETATM   52  O15 UNL     1       3.470  -4.870   6.708  1.00  0.00    -0.304 OA
BRANCH  52  53
HETATM   53  C31 UNL     1       4.182  -4.861   7.924  1.00  0.00     0.252 C 
HETATM   54  C32 UNL     1       5.131  -6.064   7.928  1.00  0.00     0.238 C 
HETATM   55  C33 UNL     1       6.475  -5.447   7.619  1.00  0.00     0.217 C 
HETATM   56  O19 UNL     1       4.814  -7.047   6.974  1.00  0.00    -0.215 OA
HETATM   57  C34 UNL     1       6.302  -4.111   8.299  1.00  0.00     0.184 C 
HETATM   58  O18 UNL     1       7.530  -6.166   8.202  1.00  0.00    -0.218 OA
HETATM   59  O16 UNL     1       5.001  -3.715   7.991  1.00  0.00    -0.328 OA
BRANCH  57  60
HETATM   60  C35 UNL     1       7.320  -3.079   7.860  1.00  0.00     0.214 C 
HETATM   61  O17 UNL     1       8.609  -3.599   8.118  1.00  0.00    -0.218 OA
ENDBRANCH  57  60
BRANCH  53  62
HETATM   62  C36 UNL     1       3.248  -4.936   9.121  1.00  0.00     0.241 C 
HETATM   63  O20 UNL     1       2.401  -3.810   9.211  1.00  0.00    -0.215 OA
ENDBRANCH  53  62
ENDBRANCH  52  53
ENDBRANCH  48  52
BRANCH  51  64
HETATM   64  C30 UNL     1       4.531  -3.589   2.973  1.00  0.00     0.214 C 
HETATM   65  O14 UNL     1       5.849  -3.873   3.405  1.00  0.00    -0.218 OA
ENDBRANCH  51  64
ENDBRANCH  43  44
ENDBRANCH  39  43
BRANCH  42  66
HETATM   66  C24 UNL     1      -1.869  -2.831   1.022  1.00  0.00     0.214 C 
HETATM   67  O11 UNL     1      -2.008  -4.165   1.469  1.00  0.00    -0.218 OA
ENDBRANCH  42  66
ENDBRANCH   1  35
TORSDOF 17
