REMARK  1 active torsions:
REMARK  status: ('A' for Active; 'I' for Inactive)
REMARK    1  A    between atoms: C9_10  and  O2_19 
ROOT
HETATM    1  C1  UNL     1      -2.974  -1.415   1.061  1.00  0.00     0.155 C 
HETATM    2  C2  UNL     1      -2.783  -1.427  -0.449  1.00  0.00     0.063 C 
HETATM    3  C3  UNL     1      -1.401  -0.946  -0.903  1.00  0.00     0.128 C 
HETATM    4  C4  UNL     1      -0.824   0.311  -0.221  1.00  0.00     0.048 C 
HETATM    5  C5  UNL     1      -1.112   0.262   1.297  1.00  0.00     0.009 C 
HETATM    6  C6  UNL     1      -2.573  -0.059   1.631  1.00  0.00     0.033 C 
HETATM    7  C7  UNL     1       0.622  -0.055  -0.474  1.00  0.00     0.002 A 
HETATM    8  C8  UNL     1       0.720  -1.375  -0.695  1.00  0.00     0.112 A 
HETATM    9  O1  UNL     1      -0.377  -1.931  -0.769  1.00  0.00    -0.331 OA
HETATM   10  C9  UNL     1       1.894  -2.017  -0.837  1.00  0.00     0.116 A 
HETATM   11  C10 UNL     1       2.977  -1.215  -0.797  1.00  0.00     0.026 A 
HETATM   12  C11 UNL     1       2.881   0.117  -0.649  1.00  0.00    -0.001 A 
HETATM   13  C12 UNL     1       1.701   0.744  -0.487  1.00  0.00     0.009 A 
HETATM   14  C13 UNL     1       1.657   2.260  -0.373  1.00  0.00     0.277 C 
HETATM   15  N1  UNL     1       0.591   2.740   0.492  1.00  0.00     0.143 N 
HETATM   16  C14 UNL     1      -0.690   2.885  -0.196  1.00  0.00     0.251 C 
HETATM   17  C15 UNL     1      -1.190   1.623  -0.920  1.00  0.00     0.042 C 
HETATM   18  C16 UNL     1       0.955   4.003   1.124  1.00  0.00     0.286 C 
HETATM   19  O3  UNL     1      -2.202  -2.435   1.650  1.00  0.00    -0.223 OA
ENDROOT
BRANCH  10  20
HETATM   20  O2  UNL     1       1.908  -3.377  -1.029  1.00  0.00    -0.326 OA
HETATM   21  C17 UNL     1       3.148  -4.024  -1.197  1.00  0.00     0.181 C 
ENDBRANCH  10  20
TORSDOF 1
