REMARK  0 active torsions:
REMARK  status: ('A' for Active; 'I' for Inactive)
ROOT
HETATM    1  C1  UNL     1      -5.159  -0.924   0.095  1.00  0.00     0.304 A 
HETATM    2  O1  UNL     1      -4.259  -2.027   0.209  1.00  0.00    -0.297 OA
HETATM    3  C2  UNL     1      -3.112  -1.583   0.179  1.00  0.00     0.144 A 
HETATM    4  C3  UNL     1      -3.126  -0.258   0.052  1.00  0.00     0.121 A 
HETATM    5  O2  UNL     1      -4.269   0.187   0.001  1.00  0.00    -0.299 OA
HETATM    6  C4  UNL     1      -1.982   0.428   0.006  1.00  0.00     0.026 A 
HETATM    7  C5  UNL     1      -0.794  -0.212   0.091  1.00  0.00     0.006 A 
HETATM    8  C6  UNL     1      -0.802  -1.572   0.207  1.00  0.00     0.085 A 
HETATM    9  C7  UNL     1      -1.966  -2.277   0.249  1.00  0.00     0.160 A 
HETATM   10  O3  UNL     1      -2.079  -3.630   0.391  1.00  0.00    -0.188 OA
HETATM   11  C8  UNL     1       0.372  -2.269   0.227  1.00  0.00     0.277 C 
HETATM   12  N1  UNL     1       1.548  -1.600   0.235  1.00  0.00    -0.229 NA
HETATM   13  C9  UNL     1       1.650  -0.167   0.399  1.00  0.00     0.162 C 
HETATM   14  C10 UNL     1       0.355   0.508   0.054  1.00  0.00     0.001 C 
HETATM   15  C11 UNL     1       0.455   1.817  -0.259  1.00  0.00     0.006 C 
HETATM   16  C12 UNL     1       1.740   2.602  -0.398  1.00  0.00     0.207 C 
HETATM   17  C13 UNL     1       3.023   1.835  -0.127  1.00  0.00     0.219 C 
HETATM   18  C14 UNL     1       2.832   0.360  -0.401  1.00  0.00     0.212 C 
HETATM   19  O4  UNL     1       3.986  -0.337   0.006  1.00  0.00    -0.218 OA
HETATM   20  O5  UNL     1       3.396   1.985   1.222  1.00  0.00    -0.217 OA
HETATM   21  O6  UNL     1       1.799   3.093  -1.727  1.00  0.00    -0.216 OA
HETATM   22  O7  UNL     1       0.456  -3.472   0.233  1.00  0.00    -0.266 OA
ENDROOT
TORSDOF 0
