REMARK  2 active torsions:
REMARK  status: ('A' for Active; 'I' for Inactive)
REMARK    1  A    between atoms: C10_10  and  O1_11 
REMARK    2  A    between atoms: O1_11  and  C11_12 
ROOT
HETATM    1  C1  UNL     1      -2.472   1.277   1.921  1.00  0.00     0.147 A 
HETATM    2  C2  UNL     1      -3.312   0.167   2.041  1.00  0.00     0.145 A 
HETATM    3  C3  UNL     1      -2.500  -1.110   1.785  1.00  0.00     0.056 C 
HETATM    4  C4  UNL     1      -1.263  -0.578   0.970  1.00  0.00     0.161 C 
HETATM    5  C5  UNL     1      -1.049   0.799   1.634  1.00  0.00     0.088 C 
HETATM    6  C6  UNL     1      -0.098   1.879   1.082  1.00  0.00     0.132 C 
HETATM    7  C7  UNL     1       1.146   1.323   0.350  1.00  0.00     0.031 C 
HETATM    8  C8  UNL     1       0.916   0.591  -1.016  1.00  0.00     0.035 C 
HETATM    9  C9  UNL     1      -0.534   0.289  -1.440  1.00  0.00     0.182 C 
HETATM   10  C10 UNL     1      -1.468  -0.544  -0.551  1.00  0.00     0.182 C 
HETATM   11  O3  UNL     1      -1.195   1.444  -1.915  1.00  0.00    -0.221 OA
HETATM   12  C13 UNL     1       1.587   1.404  -2.157  1.00  0.00     0.005 C 
HETATM   13  C14 UNL     1       3.080   1.195  -1.869  1.00  0.00     0.028 C 
HETATM   14  C15 UNL     1       3.458   2.029  -0.637  1.00  0.00     0.003 C 
HETATM   15  C16 UNL     1       2.247   2.406   0.230  1.00  0.00     0.003 C 
HETATM   16  C17 UNL     1       3.148  -0.328  -1.685  1.00  0.00     0.127 C 
HETATM   17  C18 UNL     1       1.790  -0.701  -1.080  1.00  0.00     0.033 C 
HETATM   18  C19 UNL     1       4.333  -0.875  -0.893  1.00  0.00     0.033 C 
HETATM   19  O4  UNL     1       3.233  -0.904  -2.967  1.00  0.00    -0.226 OA
HETATM   20  C20 UNL     1       0.278   2.783   2.278  1.00  0.00     0.033 C 
HETATM   21  O5  UNL     1      -0.798   2.726   0.215  1.00  0.00    -0.226 OA
HETATM   22  O6  UNL     1      -0.162  -1.401   1.240  1.00  0.00    -0.223 OA
HETATM   23  C21 UNL     1      -3.408  -2.137   1.068  1.00  0.00     0.005 C 
HETATM   24  C22 UNL     1      -2.085  -1.817   3.103  1.00  0.00     0.005 C 
HETATM   25  O7  UNL     1      -2.890   0.870   3.342  1.00  0.00    -0.354 OA
ENDROOT
BRANCH  10  26
HETATM   26  O1  UNL     1      -1.434  -1.872  -1.017  1.00  0.00    -0.299 OA
BRANCH  26  27
HETATM   27  C11 UNL     1      -2.199  -2.216  -2.089  1.00  0.00     0.273 C 
HETATM   28  C12 UNL     1      -1.979  -3.674  -2.436  1.00  0.00     0.106 C 
HETATM   29  O2  UNL     1      -2.950  -1.475  -2.683  1.00  0.00    -0.264 OA
ENDBRANCH  26  27
ENDBRANCH  10  26
TORSDOF 2
