REMARK  1 active torsions:
REMARK  status: ('A' for Active; 'I' for Inactive)
REMARK    1  A    between atoms: C2_2  and  C16_18 
ROOT
HETATM    1  C1  UNL     1      -2.325  -0.366  -1.384  1.00  0.00     0.258 C 
HETATM    2  C2  UNL     1      -2.127  -1.663  -0.583  1.00  0.00     0.088 C 
HETATM    3  C3  UNL     1      -0.702  -1.686  -0.106  1.00  0.00    -0.024 C 
HETATM    4  C4  UNL     1       0.021  -0.566   0.067  1.00  0.00     0.005 C 
HETATM    5  C5  UNL     1      -0.643   0.818  -0.091  1.00  0.00     0.246 C 
HETATM    6  N1  UNL     1      -2.045   0.762  -0.519  1.00  0.00     0.142 N 
HETATM    7  C6  UNL     1      -2.535   2.003  -1.097  1.00  0.00     0.286 C 
HETATM    8  C7  UNL     1       0.263   1.813  -0.847  1.00  0.00     0.066 C 
HETATM    9  C8  UNL     1       1.633   1.659  -0.269  1.00  0.00     0.001 A 
HETATM   10  C9  UNL     1       2.037   0.511   0.276  1.00  0.00     0.015 A 
HETATM   11  C10 UNL     1       1.329  -0.616   0.410  1.00  0.00    -0.001 A 
HETATM   12  C11 UNL     1       2.048  -1.663   0.866  1.00  0.00    -0.000 A 
HETATM   13  C12 UNL     1       3.342  -1.534   1.226  1.00  0.00     0.002 A 
HETATM   14  C13 UNL     1       3.999  -0.365   1.123  1.00  0.00     0.019 A 
HETATM   15  C14 UNL     1       3.319   0.666   0.615  1.00  0.00     0.081 A 
HETATM   16  N2  UNL     1       3.642   1.864   0.345  1.00  0.00    -0.244 NA
HETATM   17  C15 UNL     1       2.674   2.498  -0.185  1.00  0.00     0.095 A 
ENDROOT
BRANCH   2  18
HETATM   18  C16 UNL     1      -3.087  -1.776   0.600  1.00  0.00     0.189 C 
HETATM   19  O1  UNL     1      -2.895  -3.014   1.254  1.00  0.00    -0.220 OA
ENDBRANCH   2  18
TORSDOF 1
