REMARK  0 active torsions:
REMARK  status: ('A' for Active; 'I' for Inactive)
ROOT
HETATM    1  C1  UNL     1      -1.082   1.703  -1.783  1.00  0.00     0.000 C 
HETATM    2  C2  UNL     1      -2.059   1.958  -0.614  1.00  0.00     0.002 C 
HETATM    3  C3  UNL     1      -2.519   0.677   0.132  1.00  0.00     0.027 C 
HETATM    4  C4  UNL     1      -1.434  -0.417   0.192  1.00  0.00     0.093 C 
HETATM    5  C5  UNL     1      -0.110   0.270  -0.041  1.00  0.00     0.027 C 
HETATM    6  C6  UNL     1       0.185   0.893  -1.403  1.00  0.00     0.002 C 
HETATM    7  C7  UNL     1       1.447   1.756  -1.135  1.00  0.00     0.000 C 
HETATM    8  C8  UNL     1       2.596   0.942  -0.491  1.00  0.00     0.000 C 
HETATM    9  C9  UNL     1       2.194   0.169   0.786  1.00  0.00     0.002 C 
HETATM   10  C10 UNL     1       0.924  -0.666   0.552  1.00  0.00     0.027 C 
HETATM   11  C11 UNL     1       0.092  -1.217   1.731  1.00  0.00     0.093 C 
HETATM   12  O1  UNL     1      -1.271  -0.944   1.479  1.00  0.00    -0.364 OA
HETATM   13  C12 UNL     1       0.280  -2.734   1.873  1.00  0.00     0.030 C 
HETATM   14  C13 UNL     1       0.441  -0.572   3.080  1.00  0.00     0.030 C 
HETATM   15  C14 UNL     1       0.519  -0.087  -2.549  1.00  0.00     0.000 C 
HETATM   16  C15 UNL     1      -1.788  -1.567  -0.755  1.00  0.00     0.030 C 
ENDROOT
TORSDOF 0
