REMARK  2 active torsions:
REMARK  status: ('A' for Active; 'I' for Inactive)
REMARK    1  A    between atoms: C21_21  and  C23_23 
REMARK    2  A    between atoms: C23_23  and  C24_24 
ROOT
HETATM    1  C1  UNL     1      -2.856  -0.068   1.994  1.00  0.00     0.003 C 
HETATM    2  C2  UNL     1      -2.664  -0.550   3.436  1.00  0.00     0.033 C 
HETATM    3  C3  UNL     1      -3.326  -1.896   3.671  1.00  0.00     0.152 C 
HETATM    4  C4  UNL     1      -2.683  -3.011   2.830  1.00  0.00     0.028 C 
HETATM    5  C5  UNL     1      -2.797  -2.636   1.318  1.00  0.00     0.003 C 
HETATM    6  C6  UNL     1      -2.950  -1.139   0.871  1.00  0.00     0.004 C 
HETATM    7  C7  UNL     1      -1.984  -0.817  -0.323  1.00  0.00     0.022 C 
HETATM    8  C8  UNL     1      -0.526  -1.327  -0.192  1.00  0.00     0.007 C 
HETATM    9  C9  UNL     1      -0.546  -2.862   0.017  1.00  0.00     0.001 C 
HETATM   10  C10 UNL     1      -1.927  -3.452   0.339  1.00  0.00     0.000 C 
HETATM   11  C11 UNL     1       0.266  -0.875  -1.470  1.00  0.00     0.019 C 
HETATM   12  C12 UNL     1       0.309   0.662  -1.467  1.00  0.00    -0.031 C 
HETATM   13  C13 UNL     1      -0.876   1.267  -1.238  1.00  0.00    -0.009 C 
HETATM   14  C14 UNL     1      -1.960   0.631  -0.760  1.00  0.00    -0.027 C 
HETATM   15  C15 UNL     1       1.444   1.365  -1.712  1.00  0.00    -0.049 C 
HETATM   16  C16 UNL     1       2.808   0.684  -1.815  1.00  0.00     0.017 C 
HETATM   17  C17 UNL     1       2.614  -0.700  -2.460  1.00  0.00     0.004 C 
HETATM   18  C18 UNL     1       1.654  -1.543  -1.610  1.00  0.00     0.004 C 
HETATM   19  C19 UNL     1       3.732   1.555  -2.685  1.00  0.00     0.037 C 
HETATM   20  C20 UNL     1       3.979   2.955  -2.107  1.00  0.00     0.153 C 
HETATM   21  C21 UNL     1       2.724   3.636  -1.511  1.00  0.00     0.042 C 
HETATM   22  C22 UNL     1       1.466   2.869  -1.969  1.00  0.00     0.025 C 
HETATM   23  C25 UNL     1       2.709   3.658   0.040  1.00  0.00     0.003 C 
HETATM   24  O3  UNL     1       4.546   3.720  -3.148  1.00  0.00    -0.223 OA
HETATM   25  C26 UNL     1       3.501   0.460  -0.448  1.00  0.00     0.004 C 
HETATM   26  C27 UNL     1      -0.471  -1.258  -2.793  1.00  0.00     0.004 C 
HETATM   27  C28 UNL     1       0.165  -0.692   1.040  1.00  0.00     0.001 C 
HETATM   28  C29 UNL     1      -4.403  -1.008   0.295  1.00  0.00     0.000 C 
HETATM   29  C30 UNL     1      -3.487  -4.315   3.110  1.00  0.00     0.003 C 
HETATM   30  C31 UNL     1      -1.243  -3.335   3.292  1.00  0.00     0.003 C 
HETATM   31  O4  UNL     1      -3.261  -2.189   5.048  1.00  0.00    -0.224 OA
ENDROOT
BRANCH  21  32
HETATM   32  C23 UNL     1       2.590   5.124  -1.944  1.00  0.00     0.100 C 
BRANCH  32  33
HETATM   33  C24 UNL     1       3.708   6.005  -1.417  1.00  0.00     0.185 C 
HETATM   34  O1  UNL     1       4.888   5.859  -1.628  1.00  0.00    -0.647 OA
HETATM   35  O2  UNL     1       3.253   6.988  -0.619  1.00  0.00    -0.647 OA
ENDBRANCH  32  33
ENDBRANCH  21  32
TORSDOF 2
