REMARK  2 active torsions:
REMARK  status: ('A' for Active; 'I' for Inactive)
REMARK    1  A    between atoms: C14_14  and  C23_24 
REMARK    2  A    between atoms: C23_24  and  O3_26 
ROOT
HETATM    1  C1  UNL     1      -4.234  -0.184  -1.265  1.00  0.00     0.003 C 
HETATM    2  C2  UNL     1      -4.973   0.345  -0.039  1.00  0.00     0.033 C 
HETATM    3  C3  UNL     1      -5.520  -0.843   0.746  1.00  0.00     0.152 C 
HETATM    4  C4  UNL     1      -4.394  -1.704   1.351  1.00  0.00     0.028 C 
HETATM    5  C5  UNL     1      -3.397  -2.139   0.213  1.00  0.00     0.002 C 
HETATM    6  C6  UNL     1      -3.069  -1.166  -0.963  1.00  0.00     0.001 C 
HETATM    7  C7  UNL     1      -1.673  -0.463  -0.839  1.00  0.00     0.005 C 
HETATM    8  C8  UNL     1      -0.531  -1.183  -0.067  1.00  0.00     0.004 C 
HETATM    9  C9  UNL     1      -0.836  -2.694  -0.020  1.00  0.00     0.000 C 
HETATM   10  C10 UNL     1      -2.186  -2.994   0.663  1.00  0.00     0.000 C 
HETATM   11  C11 UNL     1       0.842  -0.789  -0.741  1.00  0.00     0.015 C 
HETATM   12  C12 UNL     1       0.963   0.742  -0.681  1.00  0.00    -0.049 C 
HETATM   13  C13 UNL     1       2.370   1.338  -0.795  1.00  0.00     0.027 C 
HETATM   14  C14 UNL     1       3.346   0.670   0.228  1.00  0.00     0.084 C 
HETATM   15  C15 UNL     1       3.380  -0.811  -0.207  1.00  0.00     0.010 C 
HETATM   16  C16 UNL     1       2.017  -1.484  -0.005  1.00  0.00     0.004 C 
HETATM   17  C17 UNL     1       4.744   1.304   0.055  1.00  0.00     0.043 C 
HETATM   18  C18 UNL     1       4.738   2.826   0.148  1.00  0.00     0.152 C 
HETATM   19  C19 UNL     1       3.865   3.482  -0.930  1.00  0.00     0.029 C 
HETATM   20  C20 UNL     1       2.444   2.883  -0.826  1.00  0.00     0.007 C 
HETATM   21  C21 UNL     1       3.781   5.004  -0.665  1.00  0.00     0.003 C 
HETATM   22  C22 UNL     1       4.430   3.291  -2.355  1.00  0.00     0.003 C 
HETATM   23  O1  UNL     1       6.064   3.295   0.067  1.00  0.00    -0.224 OA
HETATM   24  C25 UNL     1      -0.139   1.517  -0.593  1.00  0.00    -0.035 C 
HETATM   25  C26 UNL     1      -1.575   1.036  -0.525  1.00  0.00     0.025 C 
HETATM   26  C27 UNL     1       0.964  -1.204  -2.233  1.00  0.00     0.004 C 
HETATM   27  C28 UNL     1      -0.482  -0.729   1.419  1.00  0.00     0.000 C 
HETATM   28  C29 UNL     1      -3.045  -2.015  -2.292  1.00  0.00     0.000 C 
HETATM   29  C30 UNL     1      -5.035  -2.983   1.960  1.00  0.00     0.003 C 
HETATM   30  C31 UNL     1      -3.788  -0.948   2.557  1.00  0.00     0.003 C 
HETATM   31  O4  UNL     1      -6.404  -0.362   1.732  1.00  0.00    -0.224 OA
ENDROOT
BRANCH  14  32
HETATM   32  C23 UNL     1       2.834   0.925   1.663  1.00  0.00     0.271 C 
HETATM   33  O2  UNL     1       2.033   1.811   1.875  1.00  0.00    -0.264 OA
BRANCH  32  34
HETATM   34  O3  UNL     1       3.271   0.189   2.729  1.00  0.00    -0.299 OA
HETATM   35  C24 UNL     1       4.222  -0.843   2.726  1.00  0.00     0.184 C 
ENDBRANCH  32  34
ENDBRANCH  14  32
TORSDOF 2
