REMARK  2 active torsions:
REMARK  status: ('A' for Active; 'I' for Inactive)
REMARK    1  A    between atoms: C6_7  and  C17_23 
REMARK    2  A    between atoms: C17_23  and  C18_24 
ROOT
HETATM    1  C1  UNL     1       3.951  -0.259  -0.128  1.00  0.00     0.117 C 
HETATM    2  C2  UNL     1       3.878  -1.310  -1.194  1.00  0.00     0.001 C 
HETATM    3  C3  UNL     1       2.694  -1.799  -1.575  1.00  0.00     0.002 C 
HETATM    4  C4  UNL     1       1.535  -1.297  -1.107  1.00  0.00     0.047 A 
HETATM    5  C5  UNL     1       1.572  -0.166  -0.369  1.00  0.00     0.094 A 
HETATM    6  O1  UNL     1       2.754   0.457  -0.065  1.00  0.00    -0.332 OA
HETATM    7  C6  UNL     1       0.413   0.353   0.101  1.00  0.00     0.026 A 
HETATM    8  C7  UNL     1      -0.761  -0.272  -0.169  1.00  0.00     0.103 A 
HETATM    9  C8  UNL     1      -0.780  -1.385  -0.930  1.00  0.00     0.087 A 
HETATM   10  C9  UNL     1       0.370  -1.905  -1.413  1.00  0.00     0.138 A 
HETATM   11  O2  UNL     1       0.368  -3.043  -2.170  1.00  0.00    -0.190 OA
HETATM   12  C10 UNL     1      -1.975  -1.987  -1.215  1.00  0.00     0.201 A 
HETATM   13  C11 UNL     1      -3.135  -1.447  -0.748  1.00  0.00     0.064 A 
HETATM   14  C12 UNL     1      -3.092  -0.342   0.013  1.00  0.00     0.130 A 
HETATM   15  O3  UNL     1      -1.915   0.249   0.342  1.00  0.00    -0.305 OA
HETATM   16  C13 UNL     1      -4.241   0.205   0.463  1.00  0.00     0.179 A 
HETATM   17  C14 UNL     1      -5.431  -0.344   0.160  1.00  0.00     0.158 A 
HETATM   18  C15 UNL     1      -5.460  -1.452  -0.594  1.00  0.00     0.030 A 
HETATM   19  C16 UNL     1      -4.324  -2.002  -1.044  1.00  0.00     0.007 A 
HETATM   20  O4  UNL     1      -6.582   0.221   0.613  1.00  0.00    -0.188 OA
HETATM   21  O5  UNL     1      -4.217   1.329   1.230  1.00  0.00    -0.186 OA
HETATM   22  O6  UNL     1      -2.057  -2.988  -1.893  1.00  0.00    -0.286 OA
HETATM   23  C22 UNL     1       4.192  -0.935   1.226  1.00  0.00     0.035 C 
HETATM   24  C23 UNL     1       5.076   0.737  -0.430  1.00  0.00     0.035 C 
ENDROOT
BRANCH   7  25
HETATM   25  C17 UNL     1       0.383   1.631   0.985  1.00  0.00     0.041 C 
HETATM   26  C20 UNL     1       0.218   1.165   2.449  1.00  0.00     0.009 C 
HETATM   27  C21 UNL     1       1.593   2.600   0.960  1.00  0.00     0.009 C 
BRANCH  25  28
HETATM   28  C18 UNL     1      -0.763   2.548   0.575  1.00  0.00    -0.023 C 
HETATM   29  C19 UNL     1      -0.948   2.998  -0.675  1.00  0.00    -0.005 C 
ENDBRANCH  25  28
ENDBRANCH   7  25
TORSDOF 2
