REMARK  11 active torsions:
REMARK  status: ('A' for Active; 'I' for Inactive)
REMARK    1  A    between atoms: O1_2  and  C2_3 
REMARK    2  A    between atoms: C2_3  and  C3_4 
REMARK    3  A    between atoms: C5_6  and  O7_24 
REMARK    4  A    between atoms: C7_8  and  O2_10 
REMARK    5  A    between atoms: O2_10  and  C9_11 
REMARK    6  A    between atoms: C9_11  and  C10_12 
REMARK    7  A    between atoms: C10_12  and  C11_13 
REMARK    8  A    between atoms: C11_13  and  C12_14 
REMARK    9  A    between atoms: O7_24  and  C18_25 
REMARK   10  A    between atoms: C18_25  and  C19_27 
REMARK   11  A    between atoms: C20_28  and  C21_29 
ROOT
HETATM    1  C3  UNL     1      -1.609  -1.213  -3.321  1.00  0.00     0.208 C 
HETATM    2  C4  UNL     1      -0.939  -2.568  -3.053  1.00  0.00     0.073 C 
HETATM    3  C5  UNL     1      -0.484  -2.700  -1.591  1.00  0.00     0.160 C 
HETATM    4  C6  UNL     1       0.501  -1.590  -1.230  1.00  0.00     0.207 C 
HETATM    5  C7  UNL     1      -0.084  -0.211  -1.507  1.00  0.00     0.160 C 
HETATM    6  C8  UNL     1      -0.615  -0.102  -2.942  1.00  0.00     0.073 C 
HETATM    7  O6  UNL     1       1.674  -1.734  -1.998  1.00  0.00    -0.218 OA
HETATM    8  O11 UNL     1      -2.737  -1.048  -2.492  1.00  0.00    -0.216 OA
ENDROOT
BRANCH   3   9
HETATM    9  O7  UNL     1       0.095  -3.957  -1.404  1.00  0.00    -0.298 OA
BRANCH   9  10
HETATM   10  C18 UNL     1      -0.122  -4.787  -0.333  1.00  0.00     0.296 C 
HETATM   11  O8  UNL     1       0.284  -5.927  -0.468  1.00  0.00    -0.259 OA
BRANCH  10  12
HETATM   12  C19 UNL     1      -0.727  -4.577   0.877  1.00  0.00     0.068 C 
HETATM   13  C20 UNL     1      -1.206  -3.446   1.425  1.00  0.00     0.005 C 
BRANCH  13  14
HETATM   14  C21 UNL     1      -1.860  -3.316   2.602  1.00  0.00     0.002 A 
HETATM   15  C22 UNL     1      -2.261  -2.089   2.995  1.00  0.00     0.029 A 
HETATM   16  C23 UNL     1      -2.949  -1.868   4.128  1.00  0.00     0.156 A 
HETATM   17  C24 UNL     1      -3.259  -2.905   4.924  1.00  0.00     0.156 A 
HETATM   18  O10 UNL     1      -3.335  -0.611   4.475  1.00  0.00    -0.188 OA
HETATM   19  C25 UNL     1      -2.863  -4.133   4.556  1.00  0.00     0.029 A 
HETATM   20  O9  UNL     1      -3.961  -2.692   6.069  1.00  0.00    -0.188 OA
HETATM   21  C26 UNL     1      -2.178  -4.337   3.421  1.00  0.00     0.002 A 
ENDBRANCH  13  14
ENDBRANCH  10  12
ENDBRANCH   9  10
ENDBRANCH   3   9
BRANCH   1  22
HETATM   22  C2  UNL     1      -1.966  -1.092  -4.816  1.00  0.00     0.300 C 
HETATM   23  O12 UNL     1      -1.189  -0.559  -5.582  1.00  0.00    -0.262 OA
BRANCH  22  24
HETATM   24  O1  UNL     1      -3.153  -1.587  -5.276  1.00  0.00    -0.297 OA
HETATM   25  C1  UNL     1      -4.134  -2.207  -4.483  1.00  0.00     0.185 C 
ENDBRANCH  22  24
ENDBRANCH   1  22
BRANCH   5  26
HETATM   26  O2  UNL     1       0.908   0.765  -1.335  1.00  0.00    -0.301 OA
BRANCH  26  27
HETATM   27  C9  UNL     1       1.034   1.364  -0.119  1.00  0.00     0.272 C 
HETATM   28  O5  UNL     1       0.397   1.065   0.865  1.00  0.00    -0.264 OA
BRANCH  27  29
HETATM   29  C10 UNL     1       2.075   2.471  -0.204  1.00  0.00     0.101 C 
BRANCH  29  30
HETATM   30  C11 UNL     1       2.110   3.390   1.027  1.00  0.00     0.037 C 
BRANCH  30  31
HETATM   31  C12 UNL     1       3.065   4.569   0.967  1.00  0.00    -0.019 A 
HETATM   32  C13 UNL     1       3.037   5.486   1.950  1.00  0.00    -0.002 A 
HETATM   33  C14 UNL     1       3.860   6.544   1.932  1.00  0.00     0.029 A 
HETATM   34  C15 UNL     1       4.737   6.723   0.932  1.00  0.00     0.156 A 
HETATM   35  C16 UNL     1       4.781   5.816  -0.060  1.00  0.00     0.156 A 
HETATM   36  O4  UNL     1       5.570   7.796   0.914  1.00  0.00    -0.188 OA
HETATM   37  C17 UNL     1       3.950   4.760  -0.027  1.00  0.00     0.025 A 
HETATM   38  O3  UNL     1       5.667   5.989  -1.079  1.00  0.00    -0.188 OA
ENDBRANCH  30  31
ENDBRANCH  29  30
ENDBRANCH  27  29
ENDBRANCH  26  27
ENDBRANCH   5  26
TORSDOF 11
