REMARK  6 active torsions:
REMARK  status: ('A' for Active; 'I' for Inactive)
REMARK    1  A    between atoms: C2_2  and  C28_32 
REMARK    2  A    between atoms: C4_4  and  C8_10 
REMARK    3  A    between atoms: C6_6  and  C7_7 
REMARK    4  A    between atoms: C8_10  and  C9_11 
REMARK    5  A    between atoms: C8_10  and  C24_27 
REMARK    6  A    between atoms: C24_27  and  C25_28 
ROOT
HETATM    1  C8  UNL     1      -0.374  -0.683  -1.444  1.00  0.00    -0.041 C 
ENDROOT
BRANCH   1   2
HETATM    2  C4  UNL     1      -1.193  -1.176  -0.233  1.00  0.00     0.043 A 
HETATM    3  C3  UNL     1      -1.238  -2.501   0.038  1.00  0.00     0.138 A 
HETATM    4  C2  UNL     1      -1.929  -2.949   1.109  1.00  0.00     0.093 A 
HETATM    5  O4  UNL     1      -0.593  -3.384  -0.781  1.00  0.00    -0.190 OA
HETATM    6  C1  UNL     1      -2.599  -2.102   1.922  1.00  0.00     0.141 A 
HETATM    7  C6  UNL     1      -2.584  -0.784   1.623  1.00  0.00     0.093 A 
HETATM    8  O6  UNL     1      -3.291  -2.616   2.982  1.00  0.00    -0.190 OA
HETATM    9  C5  UNL     1      -1.901  -0.332   0.547  1.00  0.00     0.138 A 
HETATM   10  O2  UNL     1      -1.891   0.994   0.257  1.00  0.00    -0.190 OA
BRANCH   4  11
HETATM   11  C28 UNL     1      -1.951  -4.286   1.387  1.00  0.00     0.238 C 
HETATM   12  O5  UNL     1      -1.402  -5.166   0.767  1.00  0.00    -0.283 OA
ENDBRANCH   4  11
BRANCH   7  13
HETATM   13  C7  UNL     1      -3.263   0.118   2.388  1.00  0.00     0.238 C 
HETATM   14  O1  UNL     1      -3.903  -0.103   3.386  1.00  0.00    -0.283 OA
ENDBRANCH   7  13
ENDBRANCH   1   2
BRANCH   1  15
HETATM   15  C9  UNL     1       0.591   0.563  -1.429  1.00  0.00     0.015 C 
HETATM   16  C10 UNL     1       1.277   0.860  -0.053  1.00  0.00     0.006 C 
HETATM   17  C11 UNL     1       1.509   2.389  -0.031  1.00  0.00     0.028 C 
HETATM   18  C18 UNL     1       2.545   0.091   0.301  1.00  0.00     0.000 A 
HETATM   19  C12 UNL     1       0.261   2.940  -0.739  1.00  0.00     0.003 C 
HETATM   20  C14 UNL     1       1.854   3.023   1.336  1.00  0.00     0.127 C 
HETATM   21  C13 UNL     1      -0.080   1.907  -1.824  1.00  0.00     0.004 C 
HETATM   22  C15 UNL     1       1.558   2.107   2.535  1.00  0.00     0.030 C 
HETATM   23  C22 UNL     1       1.179   4.384   1.560  1.00  0.00     0.033 C 
HETATM   24  O3  UNL     1       3.235   3.292   1.346  1.00  0.00    -0.226 OA
HETATM   25  C16 UNL     1       2.623   1.029   2.800  1.00  0.00     0.003 C 
HETATM   26  C17 UNL     1       3.211   0.202   1.659  1.00  0.00     0.000 A 
HETATM   27  C19 UNL     1       2.555  -1.099   1.236  1.00  0.00     0.000 A 
HETATM   28  C20 UNL     1       3.479  -2.243   0.829  1.00  0.00     0.000 C 
HETATM   29  C21 UNL     1       1.342  -1.565   2.023  1.00  0.00     0.000 C 
HETATM   30  C23 UNL     1       1.710   0.341  -2.499  1.00  0.00     0.004 C 
ENDBRANCH   1  15
BRANCH   1  31
HETATM   31  C24 UNL     1      -1.196  -0.865  -2.749  1.00  0.00     0.022 C 
BRANCH  31  32
HETATM   32  C25 UNL     1      -2.675  -0.415  -2.749  1.00  0.00     0.004 C 
HETATM   33  C26 UNL     1      -3.071   0.128  -4.136  1.00  0.00     0.000 C 
HETATM   34  C27 UNL     1      -3.646  -1.546  -2.363  1.00  0.00     0.000 C 
ENDBRANCH  31  32
ENDBRANCH   1  31
TORSDOF 6
