REMARK  7 active torsions:
REMARK  status: ('A' for Active; 'I' for Inactive)
REMARK    1  A    between atoms: O1_1  and  C2_3 
REMARK    2  A    between atoms: C3_4  and  O2_5 
REMARK    3  A    between atoms: C5_7  and  O6_28 
REMARK    4  A    between atoms: C7_9  and  C9_11 
REMARK    5  A    between atoms: C12_14  and  C19_23 
REMARK    6  A    between atoms: C14_16  and  O3_19 
REMARK    7  A    between atoms: C19_23  and  C21_25 
ROOT
HETATM    1  C9  UNL     1      -1.476  -0.626  -0.130  1.00  0.00     0.035 C 
HETATM    2  C10 UNL     1      -0.805  -2.009  -0.259  1.00  0.00     0.099 C 
HETATM    3  C11 UNL     1       0.709  -2.054  -0.030  1.00  0.00     0.178 C 
HETATM    4  C12 UNL     1       1.099  -1.767   1.407  1.00  0.00    -0.012 C 
HETATM    5  C13 UNL     1       0.159  -1.689   2.365  1.00  0.00     0.002 C 
HETATM    6  C14 UNL     1      -1.332  -1.733   2.064  1.00  0.00     0.162 C 
HETATM    7  C15 UNL     1      -1.686  -0.387   1.385  1.00  0.00     0.040 C 
HETATM    8  C16 UNL     1      -3.093   0.173   1.660  1.00  0.00     0.004 C 
HETATM    9  C18 UNL     1      -1.437  -2.734   0.917  1.00  0.00     0.181 C 
HETATM   10  O4  UNL     1      -1.873  -3.860   0.915  1.00  0.00    -0.293 OA
HETATM   11  O5  UNL     1       1.163  -3.356  -0.356  1.00  0.00    -0.218 OA
ENDROOT
BRANCH   1  12
HETATM   12  C7  UNL     1      -0.825   0.501  -0.914  1.00  0.00    -0.018 A 
HETATM   13  C6  UNL     1       0.333   1.058  -0.537  1.00  0.00     0.022 A 
HETATM   14  C5  UNL     1       0.973   2.028  -1.214  1.00  0.00     0.118 A 
HETATM   15  C3  UNL     1       0.388   2.480  -2.352  1.00  0.00     0.138 A 
HETATM   16  C2  UNL     1      -0.823   2.001  -2.737  1.00  0.00     0.118 A 
HETATM   17  C8  UNL     1      -1.389   1.012  -2.018  1.00  0.00     0.022 A 
BRANCH  14  18
HETATM   18  O6  UNL     1       2.151   2.463  -0.641  1.00  0.00    -0.326 OA
HETATM   19  C23 UNL     1       2.710   3.717  -0.949  1.00  0.00     0.181 C 
ENDBRANCH  14  18
BRANCH  15  20
HETATM   20  O2  UNL     1       0.942   3.500  -3.088  1.00  0.00    -0.324 OA
HETATM   21  C4  UNL     1       1.667   3.066  -4.218  1.00  0.00     0.182 C 
ENDBRANCH  15  20
BRANCH  16  22
HETATM   22  O1  UNL     1      -1.404   2.547  -3.862  1.00  0.00    -0.326 OA
HETATM   23  C1  UNL     1      -2.696   2.139  -4.247  1.00  0.00     0.181 C 
ENDBRANCH  16  22
ENDBRANCH   1  12
BRANCH   6  24
HETATM   24  O3  UNL     1      -2.053  -1.959   3.260  1.00  0.00    -0.345 OA
HETATM   25  C17 UNL     1      -3.183  -2.795   3.163  1.00  0.00     0.175 C 
ENDBRANCH   6  24
BRANCH   4  26
HETATM   26  C19 UNL     1       2.580  -1.701   1.727  1.00  0.00     0.042 C 
HETATM   27  C20 UNL     1       3.002  -2.929   2.551  1.00  0.00     0.009 C 
BRANCH  26  28
HETATM   28  C21 UNL     1       3.072  -0.433   2.394  1.00  0.00    -0.022 C 
HETATM   29  C22 UNL     1       2.345   0.631   2.761  1.00  0.00    -0.005 C 
ENDBRANCH  26  28
ENDBRANCH   4  26
TORSDOF 7
