REMARK  4 active torsions:
REMARK  status: ('A' for Active; 'I' for Inactive)
REMARK    1  A    between atoms: C4_5  and  C5_6 
REMARK    2  A    between atoms: C5_6  and  O1_7 
REMARK    3  A    between atoms: O1_7  and  C6_8 
REMARK    4  A    between atoms: C6_8  and  C7_10 
ROOT
HETATM    1  C1  UNL     1      -1.614   0.357   1.884  1.00  0.00     0.224 C 
HETATM    2  N1  UNL     1      -2.039  -0.962   2.324  1.00  0.00     0.138 N 
HETATM    3  C2  UNL     1      -1.042  -1.402   3.277  1.00  0.00     0.283 C 
HETATM    4  C3  UNL     1       0.287  -0.930   2.696  1.00  0.00     0.190 C 
HETATM    5  C4  UNL     1      -0.063   0.332   1.890  1.00  0.00     0.094 C 
HETATM    6  O3  UNL     1       1.202  -0.641   3.725  1.00  0.00    -0.221 OA
HETATM    7  C11 UNL     1      -2.123  -1.774   1.124  1.00  0.00     0.250 C 
HETATM    8  C12 UNL     1      -2.737  -0.841   0.071  1.00  0.00     0.037 C 
HETATM    9  C13 UNL     1      -2.382   0.571   0.569  1.00  0.00     0.035 C 
ENDROOT
BRANCH   5  10
HETATM   10  C5  UNL     1       0.652   0.359   0.534  1.00  0.00     0.157 C 
BRANCH  10  11
HETATM   11  O1  UNL     1       0.658   1.669   0.045  1.00  0.00    -0.299 OA
BRANCH  11  12
HETATM   12  C6  UNL     1       1.015   2.058  -1.224  1.00  0.00     0.291 C 
HETATM   13  O2  UNL     1       0.848   3.244  -1.438  1.00  0.00    -0.260 OA
BRANCH  12  14
HETATM   14  C7  UNL     1       1.515   1.363  -2.296  1.00  0.00     0.037 C 
HETATM   15  C8  UNL     1       1.816   0.050  -2.284  1.00  0.00    -0.025 C 
HETATM   16  C9  UNL     1       2.312  -0.788  -3.439  1.00  0.00     0.030 C 
HETATM   17  C10 UNL     1       1.748   2.183  -3.561  1.00  0.00     0.036 C 
ENDBRANCH  12  14
ENDBRANCH  11  12
ENDBRANCH  10  11
ENDBRANCH   5  10
TORSDOF 4
