REMARK  10 active torsions:
REMARK  status: ('A' for Active; 'I' for Inactive)
REMARK    1  A    between atoms: C6_8  and  C8_10 
REMARK    2  A    between atoms: C19_22  and  C27_30 
REMARK    3  A    between atoms: C27_30  and  O4_31 
REMARK    4  A    between atoms: O4_31  and  C28_32 
REMARK    5  A    between atoms: C32_36  and  C33_38 
REMARK    6  A    between atoms: C33_38  and  O6_39 
REMARK    7  A    between atoms: O6_39  and  C34_40 
REMARK    8  A    between atoms: C36_42  and  C46_59 
REMARK    9  A    between atoms: C37_43  and  O9_48 
REMARK   10  A    between atoms: O9_48  and  C40_49 
ROOT
HETATM    1  C27 UNL     1       1.593  -0.132  -1.332  1.00  0.00     0.276 C 
HETATM    2  O17 UNL     1       0.808   0.091  -0.441  1.00  0.00    -0.264 OA
ENDROOT
BRANCH   1   3
HETATM    3  C19 UNL     1       1.704   0.640  -2.653  1.00  0.00     0.093 C 
HETATM    4  C18 UNL     1       1.643  -0.337  -3.856  1.00  0.00     0.013 C 
HETATM    5  C17 UNL     1       0.292  -1.070  -4.011  1.00  0.00     0.005 C 
HETATM    6  C16 UNL     1      -0.846  -0.511  -3.131  1.00  0.00     0.021 C 
HETATM    7  C11 UNL     1      -2.297  -1.092  -3.299  1.00  0.00     0.006 C 
HETATM    8  C15 UNL     1      -0.778   1.004  -3.173  1.00  0.00    -0.034 C 
HETATM    9  C10 UNL     1      -2.254  -2.599  -3.632  1.00  0.00     0.033 C 
HETATM   10  C12 UNL     1      -3.030  -0.320  -4.432  1.00  0.00     0.005 C 
HETATM   11  C47 UNL     1      -2.945  -0.923  -1.895  1.00  0.00     0.000 C 
HETATM   12  C9  UNL     1      -3.517  -3.227  -4.217  1.00  0.00     0.152 C 
HETATM   13  C5  UNL     1      -4.150  -2.458  -5.390  1.00  0.00     0.035 C 
HETATM   14  O18 UNL     1      -4.451  -3.445  -3.186  1.00  0.00    -0.224 OA
HETATM   15  C4  UNL     1      -4.327  -0.938  -5.058  1.00  0.00     0.005 C 
HETATM   16  C6  UNL     1      -3.611  -2.873  -6.810  1.00  0.00     0.064 C 
HETATM   17  C3  UNL     1      -4.803  -0.164  -6.324  1.00  0.00     0.036 C 
HETATM   18  C48 UNL     1      -5.545  -0.747  -4.104  1.00  0.00     0.000 C 
HETATM   19  C2  UNL     1      -4.138  -0.498  -7.649  1.00  0.00     0.182 C 
HETATM   20  C1  UNL     1      -4.231  -1.986  -7.918  1.00  0.00     0.185 C 
HETATM   21  O2  UNL     1      -2.813  -0.035  -7.689  1.00  0.00    -0.221 OA
HETATM   22  O1  UNL     1      -5.595  -2.299  -8.105  1.00  0.00    -0.221 OA
HETATM   23  C7  UNL     1      -4.043  -4.332  -7.148  1.00  0.00     0.005 C 
HETATM   24  C13 UNL     1      -3.142   1.163  -4.030  1.00  0.00     0.026 C 
HETATM   25  C14 UNL     1      -1.829   1.736  -3.578  1.00  0.00    -0.031 C 
HETATM   26  C20 UNL     1       0.565   1.663  -2.893  1.00  0.00    -0.041 C 
HETATM   27  C21 UNL     1       0.571   2.940  -2.018  1.00  0.00     0.018 C 
HETATM   28  C22 UNL     1       1.975   3.581  -1.925  1.00  0.00     0.004 C 
HETATM   29  C26 UNL     1      -0.076   2.798  -0.630  1.00  0.00     0.004 C 
HETATM   30  C23 UNL     1       3.063   2.534  -1.627  1.00  0.00     0.001 C 
HETATM   31  C25 UNL     1       2.316   4.411  -3.180  1.00  0.00     0.000 C 
HETATM   32  C24 UNL     1       3.059   1.382  -2.641  1.00  0.00     0.013 C 
BRANCH  16  33
HETATM   33  C8  UNL     1      -2.077  -2.813  -6.981  1.00  0.00     0.185 C 
HETATM   34  O3  UNL     1      -1.418  -3.956  -6.472  1.00  0.00    -0.221 OA
ENDBRANCH  16  33
ENDBRANCH   1   3
BRANCH   1  35
HETATM   35  O4  UNL     1       2.466  -1.175  -1.300  1.00  0.00    -0.273 OA
BRANCH  35  36
HETATM   36  C28 UNL     1       2.330  -2.099  -0.243  1.00  0.00     0.274 C 
HETATM   37  C29 UNL     1       3.032  -3.386  -0.613  1.00  0.00     0.211 C 
HETATM   38  C30 UNL     1       3.034  -4.330   0.583  1.00  0.00     0.074 C 
HETATM   39  O16 UNL     1       2.358  -3.995  -1.689  1.00  0.00    -0.218 OA
HETATM   40  C31 UNL     1       3.597  -3.597   1.798  1.00  0.00     0.184 C 
HETATM   41  C32 UNL     1       2.866  -2.275   2.022  1.00  0.00     0.178 C 
HETATM   42  O15 UNL     1       3.463  -4.430   2.925  1.00  0.00    -0.221 OA
HETATM   43  O5  UNL     1       2.960  -1.491   0.864  1.00  0.00    -0.326 OA
BRANCH  41  44
HETATM   44  C33 UNL     1       3.468  -1.500   3.189  1.00  0.00     0.174 C 
BRANCH  44  45
HETATM   45  O6  UNL     1       2.690  -0.361   3.480  1.00  0.00    -0.351 OA
BRANCH  45  46
HETATM   46  C34 UNL     1       3.058   0.264   4.682  1.00  0.00     0.148 C 
HETATM   47  C35 UNL     1       2.410  -0.407   5.899  1.00  0.00     0.037 C 
HETATM   48  C36 UNL     1       0.885  -0.220   6.017  1.00  0.00     0.066 C 
HETATM   49  C37 UNL     1       0.516   1.272   5.929  1.00  0.00     0.153 C 
HETATM   50  C38 UNL     1       1.169   1.954   4.728  1.00  0.00     0.212 C 
HETATM   51  C39 UNL     1       2.668   1.735   4.604  1.00  0.00     0.212 C 
HETATM   52  O8  UNL     1       0.560   1.492   3.541  1.00  0.00    -0.218 OA
HETATM   53  O7  UNL     1       3.353   2.452   5.604  1.00  0.00    -0.218 OA
BRANCH  48  54
HETATM   54  C46 UNL     1       0.054  -1.114   5.091  1.00  0.00     0.185 C 
HETATM   55  O14 UNL     1       0.323  -2.475   5.364  1.00  0.00    -0.221 OA
ENDBRANCH  48  54
BRANCH  49  56
HETATM   56  O9  UNL     1       0.906   1.851   7.147  1.00  0.00    -0.329 OA
BRANCH  56  57
HETATM   57  C40 UNL     1       0.369   3.126   7.439  1.00  0.00     0.270 C 
HETATM   58  O10 UNL     1       1.448   4.039   7.477  1.00  0.00    -0.329 OA
HETATM   59  C41 UNL     1       2.372   3.804   8.508  1.00  0.00     0.151 C 
HETATM   60  C42 UNL     1       1.683   3.871   9.861  1.00  0.00     0.212 C 
HETATM   61  C45 UNL     1       3.490   4.840   8.388  1.00  0.00     0.035 C 
HETATM   62  C43 UNL     1       0.541   2.879   9.921  1.00  0.00     0.220 C 
HETATM   63  O13 UNL     1       2.577   3.556  10.902  1.00  0.00    -0.218 OA
HETATM   64  C44 UNL     1      -0.391   3.088   8.748  1.00  0.00     0.241 C 
HETATM   65  O12 UNL     1      -0.168   3.088  11.119  1.00  0.00    -0.218 OA
HETATM   66  O11 UNL     1      -1.074   4.303   8.952  1.00  0.00    -0.215 OA
ENDBRANCH  56  57
ENDBRANCH  49  56
ENDBRANCH  45  46
ENDBRANCH  44  45
ENDBRANCH  41  44
ENDBRANCH  35  36
ENDBRANCH   1  35
TORSDOF 10
