REMARK  17 active torsions:
REMARK  status: ('A' for Active; 'I' for Inactive)
REMARK    1  A    between atoms: C4_4  and  O2_8 
REMARK    2  A    between atoms: O2_8  and  C7_9 
REMARK    3  A    between atoms: C10_13  and  C64_87 
REMARK    4  A    between atoms: C11_15  and  O5_16 
REMARK    5  A    between atoms: O5_16  and  C12_17 
REMARK    6  A    between atoms: C14_20  and  C63_84 
REMARK    7  A    between atoms: C15_22  and  O14_36 
REMARK    8  A    between atoms: C16_23  and  O8_24 
REMARK    9  A    between atoms: O8_24  and  C17_25 
REMARK   10  A    between atoms: C18_27  and  C22_34 
REMARK   11  A    between atoms: O14_36  and  C23_37 
REMARK   12  A    between atoms: C44_60  and  O19_69 
REMARK   13  A    between atoms: C45_61  and  O17_62 
REMARK   14  A    between atoms: O17_62  and  C46_63 
REMARK   15  A    between atoms: C46_63  and  C47_64 
REMARK   16  A    between atoms: O19_69  and  C51_70 
REMARK   17  A    between atoms: C51_70  and  C52_71 
ROOT
HETATM    1  C23 UNL     1      -3.861  -0.516   1.584  1.00  0.00     0.118 C 
HETATM    2  C24 UNL     1      -2.912  -1.524   2.284  1.00  0.00     0.025 C 
HETATM    3  C25 UNL     1      -1.427  -1.012   2.403  1.00  0.00     0.002 C 
HETATM    4  C26 UNL     1      -1.191   0.467   2.831  1.00  0.00     0.000 C 
HETATM    5  C27 UNL     1      -2.093   1.316   1.901  1.00  0.00     0.003 C 
HETATM    6  C28 UNL     1      -3.578   0.942   1.962  1.00  0.00     0.030 C 
HETATM    7  C29 UNL     1       0.306   0.964   2.686  1.00  0.00     0.000 C 
HETATM    8  C30 UNL     1       1.393  -0.101   2.324  1.00  0.00     0.002 C 
HETATM    9  C31 UNL     1       0.828  -0.735   1.029  1.00  0.00     0.000 C 
HETATM   10  C32 UNL     1      -0.562  -1.387   1.176  1.00  0.00     0.000 C 
HETATM   11  C33 UNL     1       2.825   0.585   2.085  1.00  0.00     0.025 C 
HETATM   12  C34 UNL     1       3.245   1.438   3.332  1.00  0.00     0.096 C 
HETATM   13  C35 UNL     1       2.184   2.506   3.601  1.00  0.00     0.027 C 
HETATM   14  C36 UNL     1       0.792   1.903   3.810  1.00  0.00     0.002 C 
HETATM   15  O15 UNL     1       3.305   0.594   4.435  1.00  0.00    -0.334 OA
HETATM   16  C37 UNL     1       4.583   0.006   4.476  1.00  0.00     0.274 C 
HETATM   17  C38 UNL     1       5.484   0.739   3.478  1.00  0.00     0.113 C 
HETATM   18  C39 UNL     1       5.374  -0.054   2.147  1.00  0.00     0.159 C 
HETATM   19  C40 UNL     1       3.939  -0.462   1.770  1.00  0.00     0.035 C 
HETATM   20  O16 UNL     1       5.922   0.663   1.062  1.00  0.00    -0.223 OA
HETATM   21  C41 UNL     1       4.671   2.029   3.288  1.00  0.00     0.035 C 
HETATM   22  C42 UNL     1       4.997   3.096   4.351  1.00  0.00     0.005 C 
HETATM   23  C43 UNL     1       6.503   3.389   4.513  1.00  0.00     0.028 C 
HETATM   24  C44 UNL     1       7.232   2.092   4.925  1.00  0.00     0.152 C 
HETATM   25  C45 UNL     1       6.948   0.917   3.966  1.00  0.00     0.159 C 
HETATM   26  C56 UNL     1       6.688   4.480   5.598  1.00  0.00     0.003 C 
HETATM   27  C57 UNL     1       7.089   3.982   3.211  1.00  0.00     0.003 C 
HETATM   28  O21 UNL     1       4.846   0.248   5.839  1.00  0.00    -0.190 OA
HETATM   29  C58 UNL     1       2.801   1.496   0.818  1.00  0.00     0.002 C 
HETATM   30  C59 UNL     1       1.430  -1.227   3.402  1.00  0.00     0.000 C 
HETATM   31  C60 UNL     1      -1.638   0.676   4.301  1.00  0.00     0.000 C 
HETATM   32  C61 UNL     1      -3.529  -1.880   3.674  1.00  0.00     0.002 C 
HETATM   33  C62 UNL     1      -2.964  -2.900   1.553  1.00  0.00     0.002 C 
ENDROOT
BRANCH   1  34
HETATM   34  O14 UNL     1      -3.865  -0.740   0.197  1.00  0.00    -0.332 OA
BRANCH  34  35
HETATM   35  C15 UNL     1      -4.747   0.023  -0.615  1.00  0.00     0.267 C 
HETATM   36  O7  UNL     1      -5.921   0.151   0.145  1.00  0.00    -0.318 OA
HETATM   37  C14 UNL     1      -6.869   0.957  -0.489  1.00  0.00     0.237 C 
HETATM   38  C13 UNL     1      -7.383   0.183  -1.683  1.00  0.00     0.219 C 
HETATM   39  C12 UNL     1      -6.281  -0.167  -2.687  1.00  0.00     0.183 C 
HETATM   40  O6  UNL     1      -8.385   0.978  -2.270  1.00  0.00    -0.217 OA
HETATM   41  C16 UNL     1      -5.022  -0.692  -1.946  1.00  0.00     0.204 C 
BRANCH  37  42
HETATM   42  C63 UNL     1      -8.001   1.313   0.466  1.00  0.00     0.217 C 
HETATM   43  O22 UNL     1      -7.552   1.747   1.657  1.00  0.00    -0.646 OA
HETATM   44  O23 UNL     1      -9.178   1.238   0.203  1.00  0.00    -0.646 OA
ENDBRANCH  37  42
BRANCH  39  45
HETATM   45  O5  UNL     1      -6.849  -1.144  -3.534  1.00  0.00    -0.326 OA
BRANCH  45  46
HETATM   46  C11 UNL     1      -6.337  -1.274  -4.843  1.00  0.00     0.267 C 
HETATM   47  C7  UNL     1      -6.536  -2.700  -5.351  1.00  0.00     0.207 C 
HETATM   48  C8  UNL     1      -7.998  -2.992  -5.657  1.00  0.00     0.217 C 
HETATM   49  O3  UNL     1      -8.749  -3.066  -4.470  1.00  0.00    -0.218 OA
HETATM   50  C9  UNL     1      -8.545  -1.916  -6.573  1.00  0.00     0.215 C 
HETATM   51  C10 UNL     1      -8.263  -0.506  -6.080  1.00  0.00     0.184 C 
HETATM   52  O25 UNL     1      -7.962  -2.068  -7.849  1.00  0.00    -0.218 OA
HETATM   53  O4  UNL     1      -6.928  -0.309  -5.690  1.00  0.00    -0.326 OA
BRANCH  47  54
HETATM   54  O2  UNL     1      -5.835  -2.973  -6.539  1.00  0.00    -0.324 OA
BRANCH  54  55
HETATM   55  C4  UNL     1      -4.432  -2.934  -6.442  1.00  0.00     0.270 C 
HETATM   56  C3  UNL     1      -3.837  -4.081  -7.233  1.00  0.00     0.241 C 
HETATM   57  C2  UNL     1      -2.352  -3.859  -7.444  1.00  0.00     0.220 C 
HETATM   58  O26 UNL     1      -4.007  -5.273  -6.506  1.00  0.00    -0.215 OA
HETATM   59  C1  UNL     1      -2.095  -2.472  -8.020  1.00  0.00     0.212 C 
HETATM   60  O27 UNL     1      -1.731  -3.987  -6.185  1.00  0.00    -0.218 OA
HETATM   61  C5  UNL     1      -3.386  -1.671  -8.147  1.00  0.00     0.151 C 
HETATM   62  O28 UNL     1      -1.487  -2.588  -9.285  1.00  0.00    -0.218 OA
HETATM   63  O1  UNL     1      -4.039  -1.660  -6.912  1.00  0.00    -0.329 OA
HETATM   64  C6  UNL     1      -3.119  -0.224  -8.567  1.00  0.00     0.035 C 
ENDBRANCH  54  55
ENDBRANCH  47  54
BRANCH  51  65
HETATM   65  C64 UNL     1      -9.262   0.026  -5.065  1.00  0.00     0.214 C 
HETATM   66  O24 UNL     1     -10.560   0.057  -5.623  1.00  0.00    -0.218 OA
ENDBRANCH  51  65
ENDBRANCH  45  46
ENDBRANCH  39  45
BRANCH  41  67
HETATM   67  O8  UNL     1      -3.933  -0.576  -2.833  1.00  0.00    -0.324 OA
BRANCH  67  68
HETATM   68  C17 UNL     1      -2.690  -1.076  -2.392  1.00  0.00     0.270 C 
HETATM   69  O9  UNL     1      -1.970  -0.043  -1.750  1.00  0.00    -0.326 OA
HETATM   70  C18 UNL     1      -1.377   0.937  -2.555  1.00  0.00     0.184 C 
HETATM   71  C19 UNL     1      -0.507   0.312  -3.633  1.00  0.00     0.215 C 
HETATM   72  C20 UNL     1      -1.252  -0.729  -4.441  1.00  0.00     0.220 C 
HETATM   73  O12 UNL     1       0.589  -0.317  -3.003  1.00  0.00    -0.218 OA
HETATM   74  C21 UNL     1      -1.907  -1.726  -3.511  1.00  0.00     0.241 C 
HETATM   75  O11 UNL     1      -2.237  -0.102  -5.221  1.00  0.00    -0.218 OA
HETATM   76  O10 UNL     1      -0.908  -2.548  -2.950  1.00  0.00    -0.215 OA
BRANCH  70  77
HETATM   77  C22 UNL     1      -2.366   2.009  -2.998  1.00  0.00     0.214 C 
HETATM   78  O13 UNL     1      -1.673   3.075  -3.618  1.00  0.00    -0.218 OA
ENDBRANCH  70  77
ENDBRANCH  67  68
ENDBRANCH  41  67
ENDBRANCH  34  35
ENDBRANCH   1  34
BRANCH  25  79
HETATM   79  O17 UNL     1       7.812   1.079   2.872  1.00  0.00    -0.298 OA
BRANCH  79  80
HETATM   80  C46 UNL     1       8.883   0.254   2.658  1.00  0.00     0.291 C 
HETATM   81  O18 UNL     1       8.997  -0.757   3.315  1.00  0.00    -0.260 OA
BRANCH  80  82
HETATM   82  C47 UNL     1       9.816   0.595   1.722  1.00  0.00     0.037 C 
HETATM   83  C48 UNL     1      10.900  -0.158   1.453  1.00  0.00    -0.025 C 
HETATM   84  C49 UNL     1      11.311  -1.462   2.085  1.00  0.00     0.030 C 
HETATM   85  C50 UNL     1       9.598   1.887   0.959  1.00  0.00     0.036 C 
ENDBRANCH  80  82
ENDBRANCH  79  80
ENDBRANCH  25  79
BRANCH  24  86
HETATM   86  O19 UNL     1       6.875   1.731   6.231  1.00  0.00    -0.299 OA
BRANCH  86  87
HETATM   87  C51 UNL     1       7.698   1.901   7.311  1.00  0.00     0.291 C 
HETATM   88  O20 UNL     1       8.865   2.165   7.128  1.00  0.00    -0.260 OA
BRANCH  87  89
HETATM   89  C52 UNL     1       7.169   1.866   8.570  1.00  0.00     0.037 C 
HETATM   90  C53 UNL     1       7.886   2.010   9.702  1.00  0.00    -0.025 C 
HETATM   91  C54 UNL     1       9.368   2.189   9.906  1.00  0.00     0.030 C 
HETATM   92  C55 UNL     1       5.670   1.648   8.687  1.00  0.00     0.036 C 
ENDBRANCH  87  89
ENDBRANCH  86  87
ENDBRANCH  24  86
TORSDOF 17
