REMARK  17 active torsions:
REMARK  status: ('A' for Active; 'I' for Inactive)
REMARK    1  A    between atoms: C6_7  and  C8_10 
REMARK    2  A    between atoms: C8_10  and  C9_11 
REMARK    3  A    between atoms: C9_11  and  C10_12 
REMARK    4  A    between atoms: C10_12  and  C11_13 
REMARK    5  A    between atoms: C11_13  and  C12_14 
REMARK    6  A    between atoms: C12_14  and  C13_15 
REMARK    7  A    between atoms: C13_15  and  C14_16 
REMARK    8  A    between atoms: C14_16  and  C15_17 
REMARK    9  A    between atoms: C15_17  and  C16_18 
REMARK   10  A    between atoms: C16_18  and  C17_19 
REMARK   11  A    between atoms: C17_19  and  C18_20 
REMARK   12  A    between atoms: C18_20  and  C19_21 
REMARK   13  A    between atoms: C19_21  and  C20_22 
REMARK   14  A    between atoms: C20_22  and  C21_23 
REMARK   15  A    between atoms: C22_24  and  C23_25 
REMARK   16  A    between atoms: C23_25  and  C24_26 
REMARK   17  A    between atoms: C24_26  and  C25_27 
ROOT
HETATM    1  C11 UNL     1       0.607   1.043   0.253  1.00  0.00     0.000 C 
ENDROOT
BRANCH   1   2
HETATM    2  C10 UNL     1      -0.166   2.062  -0.601  1.00  0.00     0.000 C 
BRANCH   2   3
HETATM    3  C9  UNL     1       0.538   3.431  -0.611  1.00  0.00     0.005 C 
BRANCH   3   4
HETATM    4  C8  UNL     1      -0.192   4.454  -1.495  1.00  0.00     0.032 C 
BRANCH   4   5
HETATM    5  C6  UNL     1       0.330   5.882  -1.577  1.00  0.00     0.047 A 
HETATM    6  C5  UNL     1      -0.380   6.769  -2.303  1.00  0.00     0.169 A 
HETATM    7  C4  UNL     1       0.019   8.063  -2.427  1.00  0.00     0.219 A 
HETATM    8  O3  UNL     1      -1.527   6.413  -2.952  1.00  0.00    -0.187 OA
HETATM    9  C2  UNL     1       1.156   8.463  -1.802  1.00  0.00     0.048 A 
HETATM   10  O4  UNL     1      -0.628   8.849  -3.084  1.00  0.00    -0.285 OA
HETATM   11  C1  UNL     1       1.869   7.586  -1.077  1.00  0.00     0.169 A 
HETATM   12  C3  UNL     1       1.590   9.906  -1.943  1.00  0.00     0.037 C 
HETATM   13  O1  UNL     1       3.022   7.921  -0.429  1.00  0.00    -0.187 OA
HETATM   14  C7  UNL     1       1.469   6.294  -0.961  1.00  0.00     0.219 A 
HETATM   15  O2  UNL     1       2.182   5.576  -0.298  1.00  0.00    -0.285 OA
ENDBRANCH   4   5
ENDBRANCH   3   4
ENDBRANCH   2   3
ENDBRANCH   1   2
BRANCH   1  16
HETATM   16  C12 UNL     1      -0.107  -0.316   0.323  1.00  0.00     0.000 C 
BRANCH  16  17
HETATM   17  C13 UNL     1       0.735  -1.415   0.993  1.00  0.00     0.000 C 
BRANCH  17  18
HETATM   18  C14 UNL     1       1.067  -1.150   2.474  1.00  0.00     0.000 C 
BRANCH  18  19
HETATM   19  C15 UNL     1       1.866  -2.301   3.116  1.00  0.00     0.000 C 
BRANCH  19  20
HETATM   20  C16 UNL     1       1.000  -3.530   3.441  1.00  0.00     0.000 C 
BRANCH  20  21
HETATM   21  C17 UNL     1       1.815  -4.834   3.508  1.00  0.00     0.000 C 
BRANCH  21  22
HETATM   22  C18 UNL     1       0.948  -6.106   3.492  1.00  0.00     0.000 C 
BRANCH  22  23
HETATM   23  C19 UNL     1       0.663  -6.681   2.088  1.00  0.00     0.005 C 
BRANCH  23  24
HETATM   24  C20 UNL     1      -0.053  -5.702   1.146  1.00  0.00     0.026 C 
BRANCH  24  25
HETATM   25  C21 UNL     1      -0.481  -6.303  -0.168  1.00  0.00    -0.031 C 
HETATM   26  C22 UNL     1      -1.438  -5.792  -0.960  1.00  0.00    -0.031 C 
BRANCH  26  27
HETATM   27  C23 UNL     1      -2.242  -4.546  -0.670  1.00  0.00     0.026 C 
BRANCH  27  28
HETATM   28  C24 UNL     1      -2.460  -3.683  -1.923  1.00  0.00     0.005 C 
BRANCH  28  29
HETATM   29  C25 UNL     1      -3.258  -2.409  -1.600  1.00  0.00     0.000 C 
HETATM   30  C26 UNL     1      -3.523  -1.562  -2.852  1.00  0.00     0.000 C 
ENDBRANCH  28  29
ENDBRANCH  27  28
ENDBRANCH  26  27
ENDBRANCH  24  25
ENDBRANCH  23  24
ENDBRANCH  22  23
ENDBRANCH  21  22
ENDBRANCH  20  21
ENDBRANCH  19  20
ENDBRANCH  18  19
ENDBRANCH  17  18
ENDBRANCH  16  17
ENDBRANCH   1  16
TORSDOF 17
