REMARK  4 active torsions:
REMARK  status: ('A' for Active; 'I' for Inactive)
REMARK    1  A    between atoms: C2_2  and  O3_21 
REMARK    2  A    between atoms: C9_10  and  C10_11 
REMARK    3  A    between atoms: C10_11  and  C11_12 
REMARK    4  A    between atoms: C14_15  and  O1_18 
ROOT
HETATM    1  C1  UNL     1      -2.293  -1.712   2.692  1.00  0.00     0.026 A 
HETATM    2  C2  UNL     1      -1.713  -0.546   2.363  1.00  0.00     0.119 A 
HETATM    3  C3  UNL     1      -0.892  -0.521   1.292  1.00  0.00     0.151 A 
HETATM    4  C4  UNL     1      -0.712  -1.614   0.516  1.00  0.00     0.035 A 
HETATM    5  C5  UNL     1      -1.370  -2.751   0.824  1.00  0.00    -0.020 A 
HETATM    6  C6  UNL     1      -2.142  -2.795   1.922  1.00  0.00    -0.002 A 
HETATM    7  C7  UNL     1      -1.277  -3.989  -0.035  1.00  0.00     0.064 C 
HETATM    8  C8  UNL     1      -0.853  -3.615  -1.454  1.00  0.00     0.295 C 
HETATM    9  N1  UNL     1       0.376  -2.845  -1.346  1.00  0.00     0.342 N 
HETATM   10  C9  UNL     1       0.202  -1.535  -0.708  1.00  0.00     0.285 C 
HETATM   11  O2  UNL     1      -0.275   0.657   1.002  1.00  0.00    -0.188 OA
ENDROOT
BRANCH  10  12
HETATM   12  C10 UNL     1       1.629  -1.004  -0.424  1.00  0.00     0.067 C 
BRANCH  12  13
HETATM   13  C11 UNL     1       1.914   0.415  -0.876  1.00  0.00    -0.020 A 
HETATM   14  C12 UNL     1       2.479   1.310  -0.046  1.00  0.00    -0.002 A 
HETATM   15  C13 UNL     1       2.741   2.562  -0.450  1.00  0.00     0.024 A 
HETATM   16  C14 UNL     1       2.421   2.991  -1.685  1.00  0.00     0.094 A 
HETATM   17  C15 UNL     1       1.931   2.066  -2.532  1.00  0.00     0.024 A 
HETATM   18  C16 UNL     1       1.667   0.812  -2.136  1.00  0.00    -0.002 A 
BRANCH  16  19
HETATM   19  O1  UNL     1       2.736   4.255  -2.113  1.00  0.00    -0.328 OA
HETATM   20  C17 UNL     1       1.766   5.220  -1.773  1.00  0.00     0.181 C 
ENDBRANCH  16  19
ENDBRANCH  12  13
ENDBRANCH  10  12
BRANCH   2  21
HETATM   21  O3  UNL     1      -1.851   0.561   3.161  1.00  0.00    -0.326 OA
HETATM   22  C18 UNL     1      -3.088   1.221   3.016  1.00  0.00     0.181 C 
ENDBRANCH   2  21
TORSDOF 4
