REMARK  0 active torsions:
REMARK  status: ('A' for Active; 'I' for Inactive)
ROOT
HETATM    1  C1  UNL     1      -2.090   1.087   1.016  1.00  0.00     0.007 C 
HETATM    2  C2  UNL     1      -2.303  -0.121   0.128  1.00  0.00     0.276 C 
HETATM    3  N1  UNL     1      -1.149  -1.020   0.085  1.00  0.00     0.140 N 
HETATM    4  C3  UNL     1       0.119  -0.312   0.096  1.00  0.00     0.224 C 
HETATM    5  C4  UNL     1       0.239   0.455   1.415  1.00  0.00     0.173 C 
HETATM    6  C5  UNL     1      -0.911   1.398   1.574  1.00  0.00     0.003 C 
HETATM    7  C6  UNL     1       1.674   0.972   1.313  1.00  0.00     0.045 C 
HETATM    8  C7  UNL     1       1.757   2.108   0.287  1.00  0.00     0.034 C 
HETATM    9  C8  UNL     1       1.531   1.488  -1.093  1.00  0.00     0.126 C 
HETATM   10  C9  UNL     1       0.233   0.666  -1.099  1.00  0.00     0.060 C 
HETATM   11  C10 UNL     1      -0.160   0.015  -2.438  1.00  0.00     0.006 C 
HETATM   12  C11 UNL     1      -0.503  -1.480  -2.336  1.00  0.00     0.035 C 
HETATM   13  C12 UNL     1      -1.224  -1.933  -1.049  1.00  0.00     0.251 C 
HETATM   14  O1  UNL     1       2.646   0.729  -1.447  1.00  0.00    -0.304 OA
HETATM   15  C13 UNL     1       3.332   0.106  -0.451  1.00  0.00     0.271 C 
HETATM   16  C14 UNL     1       2.456  -0.246   0.753  1.00  0.00     0.083 C 
HETATM   17  C15 UNL     1       3.311  -0.918   1.841  1.00  0.00     0.010 C 
HETATM   18  C16 UNL     1       1.372  -1.208   0.207  1.00  0.00     0.044 C 
HETATM   19  O2  UNL     1       4.473  -0.281  -0.588  1.00  0.00    -0.264 OA
HETATM   20  O3  UNL     1       0.116  -0.449   2.493  1.00  0.00    -0.220 OA
ENDROOT
TORSDOF 0
