REMARK  0 active torsions:
REMARK  status: ('A' for Active; 'I' for Inactive)
ROOT
HETATM    1  C1  UNL     1      -0.854   1.032  -0.505  1.00  0.00     0.033 C 
HETATM    2  C2  UNL     1      -0.844  -0.520  -0.433  1.00  0.00     0.059 C 
HETATM    3  C3  UNL     1       0.277  -1.087   0.447  1.00  0.00     0.131 C 
HETATM    4  C4  UNL     1       1.670  -0.850  -0.151  1.00  0.00     0.056 C 
HETATM    5  C5  UNL     1       2.384   0.395   0.371  1.00  0.00     0.009 C 
HETATM    6  C6  UNL     1       1.478   1.631   0.479  1.00  0.00     0.031 C 
HETATM    7  C7  UNL     1       0.449   1.847  -0.642  1.00  0.00     0.127 C 
HETATM    8  C8  UNL     1       0.113   3.347  -0.722  1.00  0.00     0.033 C 
HETATM    9  O1  UNL     1       1.045   1.526  -1.873  1.00  0.00    -0.226 OA
HETATM   10  C9  UNL     1       2.368  -2.154   0.107  1.00  0.00     0.043 C 
HETATM   11  C10 UNL     1       1.408  -3.028   0.483  1.00  0.00     0.292 C 
HETATM   12  O2  UNL     1       0.171  -2.478   0.612  1.00  0.00    -0.301 OA
HETATM   13  O3  UNL     1       1.614  -4.203   0.694  1.00  0.00    -0.260 OA
HETATM   14  C11 UNL     1       3.667  -2.439  -0.053  1.00  0.00     0.001 C 
HETATM   15  C12 UNL     1      -2.287  -0.827   0.024  1.00  0.00     0.129 C 
HETATM   16  C13 UNL     1      -2.600   0.254   1.059  1.00  0.00     0.031 C 
HETATM   17  C14 UNL     1      -1.774   1.482   0.649  1.00  0.00     0.005 C 
HETATM   18  O4  UNL     1      -3.139  -0.627  -1.080  1.00  0.00    -0.226 OA
HETATM   19  C15 UNL     1      -2.608  -2.221   0.556  1.00  0.00     0.033 C 
ENDROOT
TORSDOF 0
