REMARK  0 active torsions:
REMARK  status: ('A' for Active; 'I' for Inactive)
ROOT
HETATM    1  C1  UNL     1      -2.913   1.216   0.490  1.00  0.00     0.038 C 
HETATM    2  C2  UNL     1      -3.002  -0.285   0.210  1.00  0.00     0.024 C 
HETATM    3  C3  UNL     1      -1.673  -1.007   0.268  1.00  0.00    -0.049 C 
HETATM    4  C4  UNL     1      -0.488  -0.362   0.249  1.00  0.00    -0.023 C 
HETATM    5  C5  UNL     1      -0.377   1.171   0.276  1.00  0.00     0.045 C 
HETATM    6  C6  UNL     1      -1.699   1.786  -0.226  1.00  0.00     0.156 C 
HETATM    7  O1  UNL     1      -1.694   3.187  -0.081  1.00  0.00    -0.223 OA
HETATM    8  C7  UNL     1       0.762   1.714  -0.637  1.00  0.00     0.007 C 
HETATM    9  C8  UNL     1       2.095   0.944  -0.581  1.00  0.00     0.008 C 
HETATM   10  C9  UNL     1       1.752  -0.519  -0.828  1.00  0.00     0.059 C 
HETATM   11  C10 UNL     1       0.867  -1.038   0.301  1.00  0.00     0.146 C 
HETATM   12  O2  UNL     1       0.983  -2.442   0.242  1.00  0.00    -0.297 OA
HETATM   13  C11 UNL     1       2.214  -2.680  -0.307  1.00  0.00     0.292 C 
HETATM   14  C12 UNL     1       2.801  -1.589  -0.859  1.00  0.00     0.043 C 
HETATM   15  C13 UNL     1       4.026  -1.532  -1.394  1.00  0.00     0.001 C 
HETATM   16  O3  UNL     1       2.726  -3.779  -0.292  1.00  0.00    -0.259 OA
HETATM   17  C14 UNL     1      -0.086   1.604   1.733  1.00  0.00     0.007 C 
HETATM   18  C15 UNL     1      -1.813  -2.513   0.273  1.00  0.00     0.026 C 
ENDROOT
TORSDOF 0
