REMARK  5 active torsions:
REMARK  status: ('A' for Active; 'I' for Inactive)
REMARK    1  A    between atoms: C3_3  and  C16_18 
REMARK    2  A    between atoms: C8_8  and  C12_13 
REMARK    3  A    between atoms: C12_13  and  C13_14 
REMARK    4  A    between atoms: C16_18  and  C17_19 
REMARK    5  A    between atoms: C17_19  and  C18_20 
ROOT
HETATM    1  C1  UNL     1       2.615   2.084   0.591  1.00  0.00     0.027 A 
HETATM    2  C2  UNL     1       2.992   0.804   0.687  1.00  0.00    -0.002 A 
HETATM    3  C3  UNL     1       2.074  -0.161   0.548  1.00  0.00    -0.019 A 
HETATM    4  C4  UNL     1       0.805   0.208   0.305  1.00  0.00    -0.002 A 
HETATM    5  C5  UNL     1       0.399   1.492   0.182  1.00  0.00     0.027 A 
HETATM    6  C6  UNL     1      -0.914   1.745  -0.062  1.00  0.00     0.027 A 
HETATM    7  C7  UNL     1      -1.850   0.945   0.495  1.00  0.00    -0.002 A 
HETATM    8  C8  UNL     1      -3.173   1.092   0.318  1.00  0.00    -0.018 A 
HETATM    9  C9  UNL     1      -3.591   2.086  -0.477  1.00  0.00    -0.002 A 
HETATM   10  C10 UNL     1      -2.686   2.885  -1.056  1.00  0.00     0.027 A 
HETATM   11  C11 UNL     1      -1.363   2.751  -0.852  1.00  0.00     0.131 A 
HETATM   12  O1  UNL     1      -0.548   3.573  -1.569  1.00  0.00    -0.190 OA
HETATM   13  C15 UNL     1       1.348   2.448   0.323  1.00  0.00     0.131 A 
HETATM   14  O2  UNL     1       1.080   3.784   0.337  1.00  0.00    -0.190 OA
ENDROOT
BRANCH   3  15
HETATM   15  C16 UNL     1       2.461  -1.623   0.627  1.00  0.00     0.062 C 
BRANCH  15  16
HETATM   16  C17 UNL     1       2.720  -2.160  -0.780  1.00  0.00     0.189 C 
HETATM   17  O4  UNL     1       3.686  -1.337  -1.391  1.00  0.00    -0.220 OA
BRANCH  16  18
HETATM   18  C18 UNL     1       3.217  -3.594  -0.793  1.00  0.00     0.215 C 
HETATM   19  O3  UNL     1       2.218  -4.454  -0.284  1.00  0.00    -0.218 OA
ENDBRANCH  16  18
ENDBRANCH  15  16
ENDBRANCH   3  15
BRANCH   8  20
HETATM   20  C12 UNL     1      -4.150   0.155   0.994  1.00  0.00     0.052 C 
BRANCH  20  21
HETATM   21  C13 UNL     1      -4.009  -1.231   0.419  1.00  0.00    -0.021 C 
HETATM   22  C14 UNL     1      -3.566  -2.289   1.113  1.00  0.00    -0.005 C 
ENDBRANCH  20  21
ENDBRANCH   8  20
TORSDOF 5
