REMARK  7 active torsions:
REMARK  status: ('A' for Active; 'I' for Inactive)
REMARK    1  A    between atoms: C3_3  and  C16_18 
REMARK    2  A    between atoms: C5_5  and  C7_8 
REMARK    3  A    between atoms: C9_10  and  C13_15 
REMARK    4  A    between atoms: C13_15  and  C14_16 
REMARK    5  A    between atoms: C16_18  and  C17_19 
REMARK    6  A    between atoms: C16_18  and  O5_23 
REMARK    7  A    between atoms: C17_19  and  C18_20 
ROOT
HETATM    1  C1  UNL     1       2.490   1.185   0.324  1.00  0.00     0.027 A 
HETATM    2  C2  UNL     1       3.014  -0.043   0.383  1.00  0.00     0.000 A 
HETATM    3  C3  UNL     1       2.227  -1.096   0.130  1.00  0.00     0.007 A 
HETATM    4  C4  UNL     1       0.937  -0.861  -0.165  1.00  0.00     0.000 A 
HETATM    5  C5  UNL     1       0.367   0.366  -0.212  1.00  0.00     0.025 A 
HETATM    6  C6  UNL     1       1.200   1.413   0.021  1.00  0.00     0.131 A 
HETATM    7  O1  UNL     1       0.807   2.717   0.072  1.00  0.00    -0.190 OA
ENDROOT
BRANCH   5   8
HETATM    8  C7  UNL     1      -0.966   0.486  -0.465  1.00  0.00     0.002 A 
HETATM    9  C8  UNL     1      -1.556   1.613  -0.918  1.00  0.00    -0.002 A 
HETATM   10  C9  UNL     1      -2.874   1.749  -1.153  1.00  0.00     0.008 A 
HETATM   11  C10 UNL     1      -3.703   0.713  -0.931  1.00  0.00     0.127 A 
HETATM   12  C11 UNL     1      -3.151  -0.425  -0.490  1.00  0.00     0.027 A 
HETATM   13  O2  UNL     1      -5.045   0.796  -1.133  1.00  0.00    -0.191 OA
HETATM   14  C12 UNL     1      -1.832  -0.534  -0.272  1.00  0.00     0.002 A 
BRANCH  10  15
HETATM   15  C13 UNL     1      -3.432   3.064  -1.661  1.00  0.00     0.054 C 
BRANCH  15  16
HETATM   16  C14 UNL     1      -3.967   3.860  -0.498  1.00  0.00    -0.021 C 
HETATM   17  C15 UNL     1      -5.261   4.169  -0.336  1.00  0.00    -0.005 C 
ENDBRANCH  15  16
ENDBRANCH  10  15
ENDBRANCH   5   8
BRANCH   3  18
HETATM   18  C16 UNL     1       2.755  -2.511   0.283  1.00  0.00     0.171 C 
BRANCH  18  19
HETATM   19  C17 UNL     1       2.872  -2.831   1.776  1.00  0.00     0.216 C 
HETATM   20  O4  UNL     1       3.062  -4.220   1.923  1.00  0.00    -0.218 OA
BRANCH  19  21
HETATM   21  C18 UNL     1       1.653  -2.437   2.605  1.00  0.00     0.218 C 
HETATM   22  O3  UNL     1       1.618  -1.039   2.832  1.00  0.00    -0.218 OA
ENDBRANCH  19  21
ENDBRANCH  18  19
BRANCH  18  23
HETATM   23  O5  UNL     1       4.018  -2.689  -0.324  1.00  0.00    -0.347 OA
HETATM   24  C19 UNL     1       3.966  -2.606  -1.732  1.00  0.00     0.175 C 
ENDBRANCH  18  23
ENDBRANCH   3  18
TORSDOF 7
