REMARK  4 active torsions:
REMARK  status: ('A' for Active; 'I' for Inactive)
REMARK    1  A    between atoms: C1_1  and  C16_20 
REMARK    2  A    between atoms: C3_3  and  C7_8 
REMARK    3  A    between atoms: C13_15  and  C15_18 
REMARK    4  A    between atoms: C16_20  and  C17_21 
ROOT
HETATM    1  C7  UNL     1       0.074   0.060  -0.018  1.00  0.00     0.002 A 
HETATM    2  C8  UNL     1       0.933  -0.975  -0.163  1.00  0.00     0.000 A 
HETATM    3  C9  UNL     1       2.254  -0.828  -0.002  1.00  0.00     0.033 A 
HETATM    4  C10 UNL     1       2.788   0.352   0.315  1.00  0.00     0.093 A 
HETATM    5  C11 UNL     1       1.983   1.405   0.480  1.00  0.00     0.024 A 
HETATM    6  C12 UNL     1       0.659   1.241   0.303  1.00  0.00     0.002 A 
HETATM    7  O2  UNL     1       4.013   0.335   0.425  1.00  0.00    -0.328 OA
HETATM    8  C13 UNL     1       4.530  -0.934   0.017  1.00  0.00     0.189 C 
HETATM    9  C14 UNL     1       3.323  -1.870  -0.116  1.00  0.00     0.206 C 
HETATM   10  O3  UNL     1       3.339  -2.535  -1.362  1.00  0.00    -0.216 OA
ENDROOT
BRANCH   1  11
HETATM   11  C3  UNL     1      -1.272  -0.062  -0.196  1.00  0.00     0.025 A 
HETATM   12  C2  UNL     1      -2.018   1.026  -0.503  1.00  0.00    -0.002 A 
HETATM   13  C1  UNL     1      -3.345   1.008  -0.723  1.00  0.00    -0.018 A 
HETATM   14  C6  UNL     1      -3.978  -0.167  -0.615  1.00  0.00    -0.002 A 
HETATM   15  C5  UNL     1      -3.278  -1.258  -0.292  1.00  0.00     0.027 A 
HETATM   16  C4  UNL     1      -1.947  -1.236  -0.098  1.00  0.00     0.131 A 
HETATM   17  O1  UNL     1      -1.385  -2.421   0.272  1.00  0.00    -0.190 OA
BRANCH  13  18
HETATM   18  C16 UNL     1      -4.118   2.254  -1.104  1.00  0.00     0.052 C 
BRANCH  18  19
HETATM   19  C17 UNL     1      -5.052   2.673   0.003  1.00  0.00    -0.021 C 
HETATM   20  C18 UNL     1      -5.013   3.871   0.603  1.00  0.00    -0.005 C 
ENDBRANCH  18  19
ENDBRANCH  13  18
ENDBRANCH   1  11
BRANCH   8  21
HETATM   21  C15 UNL     1       5.596  -1.459   0.967  1.00  0.00     0.215 C 
HETATM   22  O4  UNL     1       6.024  -2.723   0.501  1.00  0.00    -0.218 OA
ENDBRANCH   8  21
TORSDOF 4
