REMARK  4 active torsions:
REMARK  status: ('A' for Active; 'I' for Inactive)
REMARK    1  A    between atoms: C4_4  and  O1_12 
REMARK    2  A    between atoms: C6_6  and  C7_7 
REMARK    3  A    between atoms: C7_7  and  C8_8 
REMARK    4  A    between atoms: C8_8  and  N1_9 
ROOT
HETATM    1  C1  UNL     1       1.619  -0.381   0.555  1.00  0.00    -0.002 A 
HETATM    2  C2  UNL     1       2.208  -1.554   0.824  1.00  0.00     0.029 A 
HETATM    3  C3  UNL     1       1.484  -2.661   1.059  1.00  0.00     0.153 A 
HETATM    4  C4  UNL     1       0.138  -2.583   1.053  1.00  0.00     0.119 A 
HETATM    5  C5  UNL     1      -0.432  -1.407   0.725  1.00  0.00     0.022 A 
HETATM    6  C6  UNL     1       0.280  -0.293   0.487  1.00  0.00    -0.018 A 
HETATM    7  O2  UNL     1       2.088  -3.852   1.319  1.00  0.00    -0.188 OA
ENDROOT
BRANCH   6   8
HETATM    8  C7  UNL     1      -0.396   1.021   0.146  1.00  0.00     0.062 C 
BRANCH   8   9
HETATM    9  C8  UNL     1      -0.008   1.532  -1.255  1.00  0.00     0.255 C 
BRANCH   9  10
HETATM   10  N1  UNL     1      -0.847   2.620  -1.748  1.00  0.00     0.142 N 
HETATM   11  C9  UNL     1      -0.443   3.000  -3.096  1.00  0.00     0.285 C 
HETATM   12  C10 UNL     1      -0.826   3.784  -0.874  1.00  0.00     0.285 C 
ENDBRANCH   9  10
ENDBRANCH   8   9
ENDBRANCH   6   8
BRANCH   4  13
HETATM   13  O1  UNL     1      -0.615  -3.712   1.257  1.00  0.00    -0.326 OA
HETATM   14  C11 UNL     1      -1.232  -3.764   2.524  1.00  0.00     0.181 C 
ENDBRANCH   4  13
TORSDOF 4
