REMARK  6 active torsions:
REMARK  status: ('A' for Active; 'I' for Inactive)
REMARK    1  A    between atoms: C2_2  and  O4_24 
REMARK    2  A    between atoms: C5_5  and  C7_7 
REMARK    3  A    between atoms: C9_10  and  C10_12 
REMARK    4  A    between atoms: C11_13  and  C12_14 
REMARK    5  A    between atoms: C15_17  and  O3_22 
REMARK    6  A    between atoms: C16_18  and  O2_20 
ROOT
HETATM    1  C7  UNL     1       1.062  -0.891  -1.516  1.00  0.00     0.121 A 
HETATM    2  C8  UNL     1       0.078  -1.175  -0.652  1.00  0.00     0.126 A 
HETATM    3  N1  UNL     1       0.406  -0.687   0.464  1.00  0.00    -0.218 NA
HETATM    4  C9  UNL     1       1.526  -0.120   0.291  1.00  0.00     0.183 A 
HETATM    5  O1  UNL     1       1.912  -0.272  -0.874  1.00  0.00    -0.288 OA
ENDROOT
BRANCH   4   6
HETATM    6  C10 UNL     1       2.265   0.534   1.204  1.00  0.00     0.045 C 
HETATM    7  C11 UNL     1       2.016   0.837   2.493  1.00  0.00     0.004 C 
BRANCH   7   8
HETATM    8  C12 UNL     1       0.869   0.928   3.200  1.00  0.00     0.002 A 
HETATM    9  C13 UNL     1       0.927   1.010   4.542  1.00  0.00     0.002 A 
HETATM   10  C14 UNL     1      -0.191   1.113   5.273  1.00  0.00     0.026 A 
HETATM   11  C15 UNL     1      -1.409   1.208   4.712  1.00  0.00     0.116 A 
HETATM   12  C16 UNL     1      -1.506   1.129   3.365  1.00  0.00     0.116 A 
HETATM   13  C17 UNL     1      -0.360   1.026   2.660  1.00  0.00     0.026 A 
BRANCH  11  14
HETATM   14  O3  UNL     1      -2.531   1.265   5.503  1.00  0.00    -0.326 OA
HETATM   15  C19 UNL     1      -3.012   2.573   5.717  1.00  0.00     0.181 C 
ENDBRANCH  11  14
BRANCH  12  16
HETATM   16  O2  UNL     1      -2.760   1.189   2.800  1.00  0.00    -0.326 OA
HETATM   17  C18 UNL     1      -2.906   0.973   1.415  1.00  0.00     0.181 C 
ENDBRANCH  12  16
ENDBRANCH   7   8
ENDBRANCH   4   6
BRANCH   1  18
HETATM   18  C5  UNL     1       1.142  -1.177  -2.830  1.00  0.00     0.025 A 
HETATM   19  C4  UNL     1       0.172  -1.842  -3.484  1.00  0.00     0.004 A 
HETATM   20  C3  UNL     1       0.251  -2.092  -4.801  1.00  0.00     0.024 A 
HETATM   21  C2  UNL     1       1.307  -1.707  -5.543  1.00  0.00     0.094 A 
HETATM   22  C1  UNL     1       2.270  -1.042  -4.878  1.00  0.00     0.024 A 
HETATM   23  C6  UNL     1       2.200  -0.785  -3.563  1.00  0.00     0.004 A 
BRANCH  21  24
HETATM   24  O4  UNL     1       1.447  -1.904  -6.896  1.00  0.00    -0.328 OA
HETATM   25  C20 UNL     1       0.348  -2.403  -7.623  1.00  0.00     0.181 C 
ENDBRANCH  21  24
ENDBRANCH   1  18
TORSDOF 6
