REMARK  2 active torsions:
REMARK  status: ('A' for Active; 'I' for Inactive)
REMARK    1  A    between atoms: C7_8  and  C25_32 
REMARK    2  A    between atoms: C18_21  and  C19_23 
ROOT
HETATM    1  C1  UNL     1      -0.902  -3.329  -1.601  1.00  0.00     0.135 A 
HETATM    2  C2  UNL     1       0.127  -3.290  -0.745  1.00  0.00     0.055 A 
HETATM    3  C3  UNL     1       0.253  -2.330   0.185  1.00  0.00     0.131 A 
HETATM    4  C4  UNL     1      -0.679  -1.356   0.249  1.00  0.00     0.032 A 
HETATM    5  C5  UNL     1      -1.737  -1.364  -0.589  1.00  0.00     0.097 A 
HETATM    6  C6  UNL     1      -1.822  -2.360  -1.488  1.00  0.00     0.051 A 
HETATM    7  O1  UNL     1      -2.748  -0.440  -0.558  1.00  0.00    -0.304 OA
HETATM    8  C7  UNL     1      -2.776   0.527   0.480  1.00  0.00     0.245 C 
HETATM    9  C8  UNL     1      -1.998   0.100   1.703  1.00  0.00     0.216 C 
HETATM   10  C9  UNL     1      -0.582  -0.228   1.258  1.00  0.00     0.088 C 
HETATM   11  C10 UNL     1       0.003   1.000   0.584  1.00  0.00     0.029 A 
HETATM   12  C11 UNL     1       1.334   1.234   0.628  1.00  0.00     0.091 A 
HETATM   13  C12 UNL     1       1.837   2.280  -0.062  1.00  0.00     0.028 A 
HETATM   14  C13 UNL     1       1.025   3.120  -0.729  1.00  0.00     0.131 A 
HETATM   15  C14 UNL     1      -0.293   2.882  -0.701  1.00  0.00     0.051 A 
HETATM   16  C15 UNL     1      -0.837   1.837  -0.056  1.00  0.00     0.097 A 
HETATM   17  O2  UNL     1      -2.197   1.681  -0.105  1.00  0.00    -0.304 OA
HETATM   18  O3  UNL     1       1.508   4.183  -1.428  1.00  0.00    -0.190 OA
HETATM   19  C16 UNL     1       3.328   2.524  -0.115  1.00  0.00     0.066 C 
HETATM   20  C17 UNL     1       4.068   1.692   0.921  1.00  0.00     0.188 C 
HETATM   21  C18 UNL     1       3.497   0.292   0.989  1.00  0.00     0.174 C 
HETATM   22  O4  UNL     1       2.130   0.348   1.302  1.00  0.00    -0.327 OA
HETATM   23  O6  UNL     1       5.434   1.620   0.584  1.00  0.00    -0.220 OA
HETATM   24  O7  UNL     1      -2.577  -1.045   2.284  1.00  0.00    -0.217 OA
HETATM   25  O9  UNL     1       1.325  -2.379   1.020  1.00  0.00    -0.190 OA
HETATM   26  O10 UNL     1      -1.026  -4.314  -2.530  1.00  0.00    -0.190 OA
ENDROOT
BRANCH   8  27
HETATM   27  C25 UNL     1      -4.224   0.826   0.887  1.00  0.00     0.032 A 
HETATM   28  C26 UNL     1      -5.156  -0.145   0.925  1.00  0.00     0.003 A 
HETATM   29  C27 UNL     1      -6.420   0.111   1.297  1.00  0.00     0.027 A 
HETATM   30  C28 UNL     1      -6.808   1.346   1.652  1.00  0.00     0.131 A 
HETATM   31  C29 UNL     1      -5.877   2.313   1.632  1.00  0.00     0.027 A 
HETATM   32  O8  UNL     1      -8.090   1.597   2.031  1.00  0.00    -0.190 OA
HETATM   33  C30 UNL     1      -4.612   2.058   1.264  1.00  0.00     0.003 A 
ENDBRANCH   8  27
BRANCH  21  34
HETATM   34  C19 UNL     1       3.821  -0.552  -0.236  1.00  0.00     0.008 A 
HETATM   35  C20 UNL     1       4.980  -1.233  -0.287  1.00  0.00     0.000 A 
HETATM   36  C21 UNL     1       5.304  -1.986  -1.349  1.00  0.00     0.027 A 
HETATM   37  C22 UNL     1       4.482  -2.092  -2.406  1.00  0.00     0.131 A 
HETATM   38  C23 UNL     1       3.324  -1.415  -2.357  1.00  0.00     0.027 A 
HETATM   39  O5  UNL     1       4.803  -2.853  -3.487  1.00  0.00    -0.190 OA
HETATM   40  C24 UNL     1       2.999  -0.661  -1.296  1.00  0.00     0.000 A 
ENDBRANCH  21  34
TORSDOF 2
