REMARK  2 active torsions:
REMARK  status: ('A' for Active; 'I' for Inactive)
REMARK    1  A    between atoms: C7_8  and  C25_32 
REMARK    2  A    between atoms: C16_19  and  C19_23 
ROOT
HETATM    1  C1  UNL     1      -4.651   0.516   3.934  1.00  0.00     0.135 A 
HETATM    2  C2  UNL     1      -4.279  -0.752   3.707  1.00  0.00     0.055 A 
HETATM    3  C3  UNL     1      -3.013  -1.097   3.417  1.00  0.00     0.131 A 
HETATM    4  C4  UNL     1      -2.071  -0.135   3.344  1.00  0.00     0.032 A 
HETATM    5  C5  UNL     1      -2.417   1.180   3.583  1.00  0.00     0.097 A 
HETATM    6  C6  UNL     1      -3.704   1.461   3.847  1.00  0.00     0.051 A 
HETATM    7  O1  UNL     1      -1.501   2.238   3.436  1.00  0.00    -0.304 OA
HETATM    8  C7  UNL     1      -0.575   1.586   2.622  1.00  0.00     0.245 C 
HETATM    9  C8  UNL     1      -0.031   0.616   3.735  1.00  0.00     0.216 C 
HETATM   10  C9  UNL     1      -0.579  -0.594   3.068  1.00  0.00     0.085 C 
HETATM   11  C10 UNL     1       0.346  -0.444   1.808  1.00  0.00     0.015 C 
HETATM   12  C11 UNL     1       0.748  -1.760   1.180  1.00  0.00     0.179 C 
HETATM   13  C12 UNL     1       1.253  -1.532  -0.237  1.00  0.00     0.082 C 
HETATM   14  C13 UNL     1       2.187  -0.351  -0.299  1.00  0.00     0.076 C 
HETATM   15  C14 UNL     1       1.876   0.716   0.456  1.00  0.00     0.044 C 
HETATM   16  C15 UNL     1       0.945   0.733   1.425  1.00  0.00     0.093 C 
HETATM   17  O2  UNL     1       0.636   1.951   2.050  1.00  0.00    -0.304 OA
HETATM   18  O3  UNL     1       3.196  -0.265  -1.216  1.00  0.00    -0.330 OA
HETATM   19  C16 UNL     1       3.283  -1.171  -2.293  1.00  0.00     0.173 C 
HETATM   20  C17 UNL     1       2.248  -2.284  -2.319  1.00  0.00     0.184 C 
HETATM   21  C18 UNL     1       1.890  -2.748  -0.914  1.00  0.00     0.045 C 
HETATM   22  O4  UNL     1       2.771  -3.350  -3.075  1.00  0.00    -0.220 OA
HETATM   23  O6  UNL     1       1.761  -2.366   1.960  1.00  0.00    -0.218 OA
HETATM   24  O7  UNL     1       1.369   0.559   3.955  1.00  0.00    -0.217 OA
HETATM   25  O9  UNL     1      -2.698  -2.401   3.186  1.00  0.00    -0.190 OA
HETATM   26  O10 UNL     1      -5.941   0.844   4.214  1.00  0.00    -0.190 OA
ENDROOT
BRANCH   8  27
HETATM   27  C25 UNL     1      -1.468   1.475   1.288  1.00  0.00     0.032 A 
HETATM   28  C26 UNL     1      -1.740   2.662   0.701  1.00  0.00     0.003 A 
HETATM   29  C27 UNL     1      -2.483   2.789  -0.407  1.00  0.00     0.027 A 
HETATM   30  C28 UNL     1      -3.005   1.715  -1.016  1.00  0.00     0.131 A 
HETATM   31  C29 UNL     1      -2.739   0.523  -0.462  1.00  0.00     0.027 A 
HETATM   32  O8  UNL     1      -3.766   1.836  -2.137  1.00  0.00    -0.190 OA
HETATM   33  C30 UNL     1      -1.995   0.407   0.649  1.00  0.00     0.003 A 
ENDBRANCH   8  27
BRANCH  19  34
HETATM   34  C19 UNL     1       3.253  -0.428  -3.617  1.00  0.00     0.008 A 
HETATM   35  C20 UNL     1       4.198  -0.609  -4.555  1.00  0.00     0.000 A 
HETATM   36  C21 UNL     1       4.157   0.077  -5.708  1.00  0.00     0.027 A 
HETATM   37  C22 UNL     1       3.174   0.956  -5.968  1.00  0.00     0.131 A 
HETATM   38  C23 UNL     1       2.224   1.121  -5.033  1.00  0.00     0.027 A 
HETATM   39  O5  UNL     1       3.133   1.657  -7.133  1.00  0.00    -0.190 OA
HETATM   40  C24 UNL     1       2.261   0.441  -3.878  1.00  0.00     0.000 A 
ENDBRANCH  19  34
TORSDOF 2
