REMARK  2 active torsions:
REMARK  status: ('A' for Active; 'I' for Inactive)
REMARK    1  A    between atoms: C7_8  and  C25_31 
REMARK    2  A    between atoms: C16_19  and  C19_23 
ROOT
HETATM    1  C1  UNL     1      -3.288   1.711   0.912  1.00  0.00     0.135 A 
HETATM    2  C2  UNL     1      -3.204   0.375   0.828  1.00  0.00     0.055 A 
HETATM    3  C3  UNL     1      -2.029  -0.276   0.858  1.00  0.00     0.131 A 
HETATM    4  C4  UNL     1      -0.898   0.452   0.942  1.00  0.00     0.030 A 
HETATM    5  C5  UNL     1      -0.933   1.795   1.041  1.00  0.00     0.097 A 
HETATM    6  C6  UNL     1      -2.139   2.391   1.036  1.00  0.00     0.051 A 
HETATM    7  O1  UNL     1       0.186   2.564   1.215  1.00  0.00    -0.306 OA
HETATM    8  C7  UNL     1       1.390   1.981   1.704  1.00  0.00     0.217 C 
HETATM    9  C8  UNL     1       1.202   0.531   2.120  1.00  0.00     0.071 C 
HETATM   10  C9  UNL     1       0.476  -0.172   0.973  1.00  0.00     0.058 C 
HETATM   11  C10 UNL     1       1.196   0.104  -0.339  1.00  0.00     0.026 A 
HETATM   12  C11 UNL     1       2.051   1.145  -0.415  1.00  0.00     0.097 A 
HETATM   13  O2  UNL     1       2.296   2.012   0.619  1.00  0.00    -0.306 OA
HETATM   14  C12 UNL     1       2.655   1.364  -1.594  1.00  0.00     0.051 A 
HETATM   15  C13 UNL     1       2.461   0.591  -2.671  1.00  0.00     0.131 A 
HETATM   16  C14 UNL     1       1.606  -0.442  -2.566  1.00  0.00     0.028 A 
HETATM   17  C15 UNL     1       0.960  -0.690  -1.407  1.00  0.00     0.091 A 
HETATM   18  O3  UNL     1       0.084  -1.730  -1.257  1.00  0.00    -0.327 OA
HETATM   19  C16 UNL     1       0.005  -2.705  -2.264  1.00  0.00     0.174 C 
HETATM   20  C17 UNL     1       0.046  -2.065  -3.638  1.00  0.00     0.188 C 
HETATM   21  C18 UNL     1       1.362  -1.313  -3.779  1.00  0.00     0.066 C 
HETATM   22  O4  UNL     1      -1.018  -1.157  -3.793  1.00  0.00    -0.220 OA
HETATM   23  O6  UNL     1       3.117   0.868  -3.831  1.00  0.00    -0.190 OA
HETATM   24  O8  UNL     1      -2.014  -1.633   0.772  1.00  0.00    -0.190 OA
HETATM   25  O9  UNL     1      -4.485   2.355   0.902  1.00  0.00    -0.190 OA
ENDROOT
BRANCH   8  26
HETATM   26  C25 UNL     1       1.969   2.848   2.832  1.00  0.00     0.029 A 
HETATM   27  C26 UNL     1       2.878   2.372   3.703  1.00  0.00     0.003 A 
HETATM   28  C27 UNL     1       3.367   3.129   4.697  1.00  0.00     0.027 A 
HETATM   29  C28 UNL     1       2.979   4.404   4.862  1.00  0.00     0.131 A 
HETATM   30  C29 UNL     1       2.095   4.894   3.979  1.00  0.00     0.027 A 
HETATM   31  O7  UNL     1       3.463   5.176   5.871  1.00  0.00    -0.190 OA
HETATM   32  C30 UNL     1       1.608   4.137   2.984  1.00  0.00     0.003 A 
ENDBRANCH   8  26
BRANCH  19  33
HETATM   33  C19 UNL     1      -1.229  -3.560  -2.037  1.00  0.00     0.008 A 
HETATM   34  C20 UNL     1      -1.153  -4.902  -2.019  1.00  0.00     0.000 A 
HETATM   35  C21 UNL     1      -2.242  -5.653  -1.793  1.00  0.00     0.027 A 
HETATM   36  C22 UNL     1      -3.445  -5.095  -1.576  1.00  0.00     0.131 A 
HETATM   37  C23 UNL     1      -3.519  -3.754  -1.600  1.00  0.00     0.027 A 
HETATM   38  O5  UNL     1      -4.550  -5.850  -1.336  1.00  0.00    -0.190 OA
HETATM   39  C24 UNL     1      -2.434  -3.001  -1.832  1.00  0.00     0.000 A 
ENDBRANCH  19  33
TORSDOF 2
