REMARK  1 active torsions:
REMARK  status: ('A' for Active; 'I' for Inactive)
REMARK    1  A    between atoms: C7_8  and  C10_11 
ROOT
HETATM    1  C1  UNL     1      -0.339   1.941   0.911  1.00  0.00     0.001 A 
HETATM    2  C2  UNL     1      -1.577   1.590   0.124  1.00  0.00     0.117 A 
HETATM    3  O1  UNL     1      -1.515   0.312  -0.456  1.00  0.00    -0.332 OA
HETATM    4  C3  UNL     1      -0.365  -0.423  -0.349  1.00  0.00     0.094 A 
HETATM    5  C4  UNL     1       0.734  -0.039   0.332  1.00  0.00     0.022 A 
HETATM    6  C5  UNL     1       0.733   1.143   0.968  1.00  0.00    -0.000 A 
HETATM    7  C6  UNL     1       1.823  -0.830   0.387  1.00  0.00     0.008 A 
HETATM    8  C7  UNL     1       1.855  -2.024  -0.231  1.00  0.00     0.065 A 
HETATM    9  C8  UNL     1       0.767  -2.414  -0.915  1.00  0.00     0.008 A 
HETATM   10  C9  UNL     1      -0.312  -1.620  -0.965  1.00  0.00     0.024 A 
HETATM   11  C11 UNL     1      -2.772   1.590   1.090  1.00  0.00     0.035 C 
HETATM   12  C12 UNL     1      -1.786   2.631  -0.991  1.00  0.00     0.035 C 
ENDROOT
BRANCH   8  13
HETATM   13  C10 UNL     1       2.953  -2.829  -0.174  1.00  0.00     0.211 C 
HETATM   14  O2  UNL     1       3.017  -4.036  -0.780  1.00  0.00    -0.644 OA
HETATM   15  O3  UNL     1       3.947  -2.499   0.434  1.00  0.00    -0.644 OA
ENDBRANCH   8  13
TORSDOF 1
