REMARK  6 active torsions:
REMARK  status: ('A' for Active; 'I' for Inactive)
REMARK    1  A    between atoms: C3_3  and  O7_26 
REMARK    2  A    between atoms: C4_4  and  C9_11 
REMARK    3  A    between atoms: C6_6  and  C7_7 
REMARK    4  A    between atoms: C9_11  and  C10_12 
REMARK    5  A    between atoms: C12_14  and  C18_22 
REMARK    6  A    between atoms: C15_17  and  O3_18 
ROOT
HETATM    1  C9  UNL     1      -1.467   0.126  -0.085  1.00  0.00     0.061 C 
ENDROOT
BRANCH   1   2
HETATM    2  C4  UNL     1      -0.655   1.415   0.051  1.00  0.00     0.030 C 
HETATM    3  C3  UNL     1       0.302   1.516   0.996  1.00  0.00     0.090 C 
HETATM    4  C2  UNL     1       1.054   2.634   1.004  1.00  0.00     0.026 C 
HETATM    5  C1  UNL     1       0.779   3.684   0.201  1.00  0.00     0.134 C 
HETATM    6  C21 UNL     1       2.245   2.755   1.944  1.00  0.00     0.035 C 
HETATM    7  C6  UNL     1      -0.246   3.610  -0.683  1.00  0.00     0.085 C 
HETATM    8  O8  UNL     1       1.611   4.764   0.310  1.00  0.00    -0.190 OA
HETATM    9  C5  UNL     1      -0.954   2.458  -0.756  1.00  0.00     0.134 C 
HETATM   10  O2  UNL     1      -2.021   2.303  -1.589  1.00  0.00    -0.190 OA
BRANCH   3  11
HETATM   11  O7  UNL     1       0.607   0.455   1.813  1.00  0.00    -0.329 OA
HETATM   12  C20 UNL     1      -0.013   0.515   3.079  1.00  0.00     0.181 C 
ENDBRANCH   3  11
BRANCH   7  13
HETATM   13  C7  UNL     1      -0.523   4.691  -1.481  1.00  0.00     0.177 C 
HETATM   14  O1  UNL     1       0.067   5.745  -1.379  1.00  0.00    -0.291 OA
HETATM   15  C8  UNL     1      -1.570   4.745  -2.589  1.00  0.00     0.077 C 
ENDBRANCH   7  13
ENDBRANCH   1   2
BRANCH   1  16
HETATM   16  C10 UNL     1      -0.709  -1.198   0.026  1.00  0.00     0.030 A 
HETATM   17  C11 UNL     1      -1.053  -2.089   0.983  1.00  0.00     0.134 A 
HETATM   18  C12 UNL     1      -0.400  -3.275   1.073  1.00  0.00     0.085 A 
HETATM   19  O6  UNL     1      -2.103  -1.755   1.792  1.00  0.00    -0.190 OA
HETATM   20  C13 UNL     1       0.573  -3.547   0.172  1.00  0.00     0.134 A 
HETATM   21  C14 UNL     1       0.887  -2.650  -0.786  1.00  0.00     0.026 A 
HETATM   22  O4  UNL     1       1.313  -4.691   0.199  1.00  0.00    -0.190 OA
HETATM   23  C15 UNL     1       0.289  -1.442  -0.848  1.00  0.00     0.090 A 
HETATM   24  C17 UNL     1       1.943  -3.036  -1.810  1.00  0.00     0.035 C 
BRANCH  18  25
HETATM   25  C18 UNL     1      -0.753  -4.165   2.056  1.00  0.00     0.177 C 
HETATM   26  O5  UNL     1      -1.569  -3.908   2.913  1.00  0.00    -0.291 OA
HETATM   27  C19 UNL     1      -0.205  -5.580   2.219  1.00  0.00     0.077 C 
ENDBRANCH  18  25
BRANCH  23  28
HETATM   28  O3  UNL     1       0.585  -0.528  -1.834  1.00  0.00    -0.329 OA
HETATM   29  C16 UNL     1       1.826   0.134  -1.698  1.00  0.00     0.181 C 
ENDBRANCH  23  28
ENDBRANCH   1  16
TORSDOF 6
