REMARK  2 active torsions:
REMARK  status: ('A' for Active; 'I' for Inactive)
REMARK    1  A    between atoms: C1_2  and  C2_4 
REMARK    2  A    between atoms: C2_4  and  C3_5 
ROOT
HETATM    1  C2  UNL     1      -0.429   0.262  -0.003  1.00  0.00     0.195 C 
ENDROOT
BRANCH   1   2
HETATM    2  C1  UNL     1      -0.479  -1.260   0.001  1.00  0.00     0.197 C 
HETATM    3  O1  UNL     1      -1.764  -1.678   0.013  1.00  0.00    -0.647 OA
HETATM    4  O2  UNL     1       0.468  -2.013  -0.004  1.00  0.00    -0.647 OA
ENDBRANCH   1   2
BRANCH   1   5
HETATM    5  C3  UNL     1       0.910   0.985   0.001  1.00  0.00     0.197 C 
HETATM    6  O3  UNL     1       1.034   2.188   0.014  1.00  0.00    -0.647 OA
HETATM    7  O4  UNL     1       1.981   0.177  -0.012  1.00  0.00    -0.647 OA
ENDBRANCH   1   5
TORSDOF 2
