REMARK  6 active torsions:
REMARK  status: ('A' for Active; 'I' for Inactive)
REMARK    1  A    between atoms: C4_4  and  O6_15 
REMARK    2  A    between atoms: C5_6  and  C6_7 
REMARK    3  A    between atoms: C6_7  and  O2_8 
REMARK    4  A    between atoms: O2_8  and  C7_9 
REMARK    5  A    between atoms: C7_9  and  C8_10 
REMARK    6  A    between atoms: C8_10  and  C9_11 
ROOT
HETATM    1  C1  UNL     1      -1.655  -1.429   0.358  1.00  0.00     0.215 C 
HETATM    2  C2  UNL     1      -0.891  -2.723   0.547  1.00  0.00     0.220 C 
HETATM    3  C3  UNL     1       0.239  -2.477   1.520  1.00  0.00     0.241 C 
HETATM    4  C4  UNL     1       1.103  -1.346   1.010  1.00  0.00     0.270 C 
HETATM    5  O1  UNL     1       0.325  -0.177   0.864  1.00  0.00    -0.326 OA
HETATM    6  C5  UNL     1      -0.701  -0.325  -0.083  1.00  0.00     0.181 C 
HETATM    7  O7  UNL     1       1.011  -3.647   1.628  1.00  0.00    -0.215 OA
HETATM    8  O8  UNL     1      -1.753  -3.708   1.057  1.00  0.00    -0.218 OA
HETATM    9  O9  UNL     1      -2.649  -1.652  -0.611  1.00  0.00    -0.218 OA
ENDROOT
BRANCH   6  10
HETATM   10  C6  UNL     1      -1.404   1.020  -0.236  1.00  0.00     0.184 C 
BRANCH  10  11
HETATM   11  O2  UNL     1      -0.475   1.962  -0.704  1.00  0.00    -0.299 OA
BRANCH  11  12
HETATM   12  C7  UNL     1      -0.930   3.218  -0.949  1.00  0.00     0.283 C 
HETATM   13  O5  UNL     1      -2.072   3.589  -0.792  1.00  0.00    -0.264 OA
BRANCH  12  14
HETATM   14  C8  UNL     1       0.208   4.096  -1.447  1.00  0.00     0.193 C 
BRANCH  14  15
HETATM   15  C9  UNL     1       0.887   3.539  -2.685  1.00  0.00     0.196 C 
HETATM   16  O3  UNL     1       0.072   3.582  -3.754  1.00  0.00    -0.647 OA
HETATM   17  O4  UNL     1       2.012   3.103  -2.756  1.00  0.00    -0.647 OA
ENDBRANCH  14  15
ENDBRANCH  12  14
ENDBRANCH  11  12
ENDBRANCH  10  11
ENDBRANCH   6  10
BRANCH   4  18
HETATM   18  O6  UNL     1       2.067  -1.053   1.999  1.00  0.00    -0.326 OA
HETATM   19  C10 UNL     1       3.103  -0.216   1.534  1.00  0.00     0.177 C 
ENDBRANCH   4  18
TORSDOF 6
