REMARK  0 active torsions:
REMARK  status: ('A' for Active; 'I' for Inactive)
ROOT
HETATM    1  C1  UNL     1      -1.992  -0.292   0.534  1.00  0.00     0.122 A 
HETATM    2  C2  UNL     1      -1.200  -1.370   0.469  1.00  0.00     0.029 A 
HETATM    3  C3  UNL     1       0.096  -1.253   0.130  1.00  0.00     0.029 A 
HETATM    4  C4  UNL     1       0.612  -0.038  -0.152  1.00  0.00     0.149 A 
HETATM    5  C5  UNL     1      -0.208   1.032  -0.076  1.00  0.00     0.103 A 
HETATM    6  O1  UNL     1      -1.527   0.956   0.268  1.00  0.00    -0.307 OA
HETATM    7  C6  UNL     1       0.255   2.443  -0.369  1.00  0.00     0.060 C 
HETATM    8  O2  UNL     1       1.922   0.101  -0.498  1.00  0.00    -0.188 OA
HETATM    9  C7  UNL     1       0.861  -2.359   0.078  1.00  0.00     0.002 C 
ENDROOT
TORSDOF 0
