REMARK  1 active torsions:
REMARK  status: ('A' for Active; 'I' for Inactive)
REMARK    1  A    between atoms: C8_9  and  C11_13 
ROOT
HETATM    1  C1  UNL     1      -4.789   2.406  -0.050  1.00  0.00     0.023 A 
HETATM    2  C2  UNL     1      -4.303   3.653   0.018  1.00  0.00    -0.020 A 
HETATM    3  C3  UNL     1      -2.972   3.788   0.072  1.00  0.00    -0.001 A 
HETATM    4  C4  UNL     1      -2.165   2.712   0.051  1.00  0.00     0.044 A 
HETATM    5  C5  UNL     1      -2.660   1.462  -0.029  1.00  0.00     0.067 A 
HETATM    6  C6  UNL     1      -4.010   1.309  -0.083  1.00  0.00     0.134 A 
HETATM    7  O1  UNL     1      -4.675   0.115  -0.122  1.00  0.00    -0.190 OA
HETATM    8  C7  UNL     1      -1.805   0.392  -0.065  1.00  0.00     0.198 A 
HETATM    9  C8  UNL     1      -0.439   0.531   0.001  1.00  0.00     0.045 A 
HETATM   10  C9  UNL     1      -0.032   1.816   0.092  1.00  0.00     0.045 A 
HETATM   11  C10 UNL     1      -0.827   2.914   0.114  1.00  0.00     0.196 A 
HETATM   12  O2  UNL     1      -0.334   4.019   0.201  1.00  0.00    -0.287 OA
HETATM   13  O6  UNL     1      -2.320  -0.689  -0.213  1.00  0.00    -0.286 OA
HETATM   14  C22 UNL     1      -5.203   4.865   0.050  1.00  0.00     0.031 C 
ENDROOT
BRANCH   9  15
HETATM   15  C11 UNL     1       0.430  -0.538   0.000  1.00  0.00     0.045 A 
HETATM   16  C12 UNL     1       0.027  -1.821   0.133  1.00  0.00     0.045 A 
HETATM   17  C13 UNL     1       0.823  -2.917   0.156  1.00  0.00     0.196 A 
HETATM   18  C14 UNL     1       2.159  -2.718   0.049  1.00  0.00     0.044 A 
HETATM   19  O5  UNL     1       0.334  -4.020   0.283  1.00  0.00    -0.287 OA
HETATM   20  C15 UNL     1       2.650  -1.469  -0.076  1.00  0.00     0.067 A 
HETATM   21  C20 UNL     1       2.966  -3.793   0.072  1.00  0.00    -0.001 A 
HETATM   22  C16 UNL     1       1.794  -0.401  -0.111  1.00  0.00     0.198 A 
HETATM   23  C17 UNL     1       3.997  -1.317  -0.175  1.00  0.00     0.134 A 
HETATM   24  O3  UNL     1       2.303   0.676  -0.301  1.00  0.00    -0.286 OA
HETATM   25  C18 UNL     1       4.776  -2.414  -0.138  1.00  0.00     0.023 A 
HETATM   26  O4  UNL     1       4.661  -0.125  -0.262  1.00  0.00    -0.190 OA
HETATM   27  C19 UNL     1       4.296  -3.658  -0.025  1.00  0.00    -0.020 A 
HETATM   28  C21 UNL     1       5.229  -4.845   0.002  1.00  0.00     0.031 C 
ENDBRANCH   9  15
TORSDOF 1
