REMARK  1 active torsions:
REMARK  status: ('A' for Active; 'I' for Inactive)
REMARK    1  A    between atoms: C4_4  and  C7_7 
ROOT
HETATM    1  C7  UNL     1      -1.022  -1.421   0.299  1.00  0.00     0.264 C 
HETATM    2  C8  UNL     1      -1.496  -1.314   1.696  1.00  0.00     0.111 C 
HETATM    3  N1  UNL     1      -1.862  -1.266   2.794  1.00  0.00    -0.193 NA
HETATM    4  O1  UNL     1      -2.131  -1.457  -0.597  1.00  0.00    -0.202 OA
ENDROOT
BRANCH   1   5
HETATM    5  C4  UNL     1      -0.087  -0.275  -0.022  1.00  0.00     0.022 A 
HETATM    6  C3  UNL     1       1.247  -0.445   0.004  1.00  0.00    -0.001 A 
HETATM    7  C2  UNL     1       2.080   0.571  -0.271  1.00  0.00    -0.000 A 
HETATM    8  C1  UNL     1       1.586   1.780  -0.576  1.00  0.00    -0.000 A 
HETATM    9  C6  UNL     1       0.257   1.965  -0.603  1.00  0.00    -0.000 A 
HETATM   10  C5  UNL     1      -0.569   0.944  -0.325  1.00  0.00    -0.001 A 
ENDBRANCH   1   5
TORSDOF 1
