REMARK  15 active torsions:
REMARK  status: ('A' for Active; 'I' for Inactive)
REMARK    1  A    between atoms: C12_13  and  C14_15 
REMARK    2  A    between atoms: C16_17  and  C20_24 
REMARK    3  A    between atoms: C20_24  and  O5_25 
REMARK    4  A    between atoms: O5_25  and  C21_26 
REMARK    5  A    between atoms: C21_26  and  C22_28 
REMARK    6  A    between atoms: C23_29  and  C24_30 
REMARK    7  A    between atoms: C25_31  and  C26_32 
REMARK    8  A    between atoms: C27_33  and  C28_34 
REMARK    9  A    between atoms: C29_35  and  C30_36 
REMARK   10  A    between atoms: C31_37  and  C32_38 
REMARK   11  A    between atoms: C33_39  and  C34_40 
REMARK   12  A    between atoms: C35_41  and  C36_42 
REMARK   13  A    between atoms: C36_42  and  O7_43 
REMARK   14  A    between atoms: O7_43  and  C37_44 
REMARK   15  A    between atoms: C38_46  and  C42_53 
ROOT
HETATM    1  C21 UNL     1      -0.530   4.172   0.792  1.00  0.00     0.292 C 
HETATM    2  O6  UNL     1      -0.528   3.661   1.896  1.00  0.00    -0.260 OA
ENDROOT
BRANCH   1   3
HETATM    3  O5  UNL     1      -1.242   5.355   0.725  1.00  0.00    -0.299 OA
BRANCH   3   4
HETATM    4  C20 UNL     1      -1.597   5.951  -0.489  1.00  0.00     0.155 C 
BRANCH   4   5
HETATM    5  C16 UNL     1      -2.497   7.183  -0.302  1.00  0.00     0.064 C 
HETATM    6  C15 UNL     1      -3.290   7.382  -1.613  1.00  0.00     0.012 C 
HETATM    7  C14 UNL     1      -4.088   8.695  -1.654  1.00  0.00     0.058 C 
HETATM    8  C19 UNL     1      -3.171   9.878  -1.368  1.00  0.00     0.189 C 
HETATM    9  C18 UNL     1      -2.525   9.706  -0.008  1.00  0.00     0.213 C 
HETATM   10  O2  UNL     1      -3.930  11.060  -1.384  1.00  0.00    -0.220 OA
HETATM   11  C17 UNL     1      -1.681   8.445   0.012  1.00  0.00     0.187 C 
HETATM   12  O3  UNL     1      -1.693  10.812   0.241  1.00  0.00    -0.218 OA
HETATM   13  O4  UNL     1      -1.081   8.350   1.281  1.00  0.00    -0.221 OA
BRANCH   7  14
HETATM   14  C12 UNL     1      -4.881   8.854  -2.946  1.00  0.00     0.006 A 
HETATM   15  C11 UNL     1      -4.289   8.940  -4.155  1.00  0.00     0.129 A 
HETATM   16  C10 UNL     1      -5.070   9.018  -5.244  1.00  0.00     0.052 A 
HETATM   17  O14 UNL     1      -2.939   8.920  -4.324  1.00  0.00    -0.190 OA
HETATM   18  C9  UNL     1      -6.413   9.032  -5.204  1.00  0.00     0.105 A 
HETATM   19  C8  UNL     1      -6.995   8.981  -3.993  1.00  0.00     0.062 A 
HETATM   20  O1  UNL     1      -7.120   9.101  -6.366  1.00  0.00    -0.307 OA
HETATM   21  C7  UNL     1      -8.353   8.999  -3.892  1.00  0.00     0.199 A 
HETATM   22  C13 UNL     1      -6.226   8.895  -2.892  1.00  0.00     0.003 A 
HETATM   23  C5  UNL     1      -9.091   9.047  -5.036  1.00  0.00     0.064 A 
HETATM   24  O15 UNL     1      -8.897   8.960  -2.809  1.00  0.00    -0.286 OA
HETATM   25  C4  UNL     1      -8.476   9.088  -6.233  1.00  0.00     0.105 A 
HETATM   26  C6  UNL     1     -10.436   9.048  -4.978  1.00  0.00     0.035 A 
HETATM   27  C3  UNL     1      -9.251   9.114  -7.333  1.00  0.00     0.054 A 
HETATM   28  C2  UNL     1     -10.592   9.107  -7.285  1.00  0.00     0.158 A 
HETATM   29  C1  UNL     1     -11.195   9.080  -6.085  1.00  0.00     0.156 A 
HETATM   30  O16 UNL     1     -11.347   9.130  -8.416  1.00  0.00    -0.188 OA
HETATM   31  O17 UNL     1     -12.552   9.078  -6.005  1.00  0.00    -0.188 OA
ENDBRANCH   7  14
ENDBRANCH   4   5
ENDBRANCH   3   4
ENDBRANCH   1   3
BRANCH   1  32
HETATM   32  C22 UNL     1       0.176   3.517  -0.192  1.00  0.00     0.041 C 
HETATM   33  C23 UNL     1       0.733   2.315   0.104  1.00  0.00     0.001 C 
HETATM   34  C45 UNL     1       0.373   4.124  -1.570  1.00  0.00     0.037 C 
BRANCH  33  35
HETATM   35  C24 UNL     1       1.476   1.542  -0.712  1.00  0.00    -0.000 C 
HETATM   36  C25 UNL     1       1.990   0.342  -0.382  1.00  0.00    -0.000 C 
BRANCH  36  37
HETATM   37  C26 UNL     1       2.746  -0.354  -1.252  1.00  0.00    -0.000 C 
HETATM   38  C27 UNL     1       3.285  -1.559  -0.994  1.00  0.00    -0.000 C 
BRANCH  38  39
HETATM   39  C28 UNL     1       4.061  -2.189  -1.895  1.00  0.00    -0.000 C 
HETATM   40  C29 UNL     1       4.665  -3.387  -1.782  1.00  0.00    -0.000 C 
BRANCH  40  41
HETATM   41  C30 UNL     1       4.580  -4.244  -0.749  1.00  0.00    -0.004 C 
HETATM   42  C31 UNL     1       5.194  -5.443  -0.620  1.00  0.00    -0.022 C 
HETATM   43  C44 UNL     1       6.142  -6.009  -1.661  1.00  0.00     0.031 C 
BRANCH  42  44
HETATM   44  C32 UNL     1       4.936  -6.156   0.501  1.00  0.00    -0.004 C 
HETATM   45  C33 UNL     1       5.464  -7.352   0.820  1.00  0.00    -0.001 C 
BRANCH  45  46
HETATM   46  C34 UNL     1       5.146  -7.999   1.957  1.00  0.00     0.001 C 
HETATM   47  C35 UNL     1       5.654  -9.186   2.351  1.00  0.00     0.041 C 
HETATM   48  C43 UNL     1       6.678  -9.922   1.509  1.00  0.00     0.037 C 
BRANCH  47  49
HETATM   49  C36 UNL     1       5.250  -9.730   3.537  1.00  0.00     0.294 C 
HETATM   50  O13 UNL     1       4.422  -9.156   4.212  1.00  0.00    -0.259 OA
BRANCH  49  51
HETATM   51  O7  UNL     1       5.757 -10.922   3.983  1.00  0.00    -0.270 OA
BRANCH  51  52
HETATM   52  C37 UNL     1       5.263 -11.492   5.179  1.00  0.00     0.277 C 
HETATM   53  O8  UNL     1       4.438 -12.544   4.731  1.00  0.00    -0.326 OA
HETATM   54  C38 UNL     1       3.852 -13.278   5.774  1.00  0.00     0.184 C 
HETATM   55  C39 UNL     1       4.942 -13.885   6.650  1.00  0.00     0.215 C 
HETATM   56  C40 UNL     1       5.937 -12.851   7.141  1.00  0.00     0.220 C 
HETATM   57  O11 UNL     1       4.404 -14.535   7.775  1.00  0.00    -0.218 OA
HETATM   58  C41 UNL     1       6.430 -12.000   5.992  1.00  0.00     0.241 C 
HETATM   59  O10 UNL     1       7.037 -13.519   7.710  1.00  0.00    -0.218 OA
HETATM   60  O9  UNL     1       7.264 -12.790   5.180  1.00  0.00    -0.215 OA
BRANCH  54  61
HETATM   61  C42 UNL     1       2.793 -12.455   6.501  1.00  0.00     0.214 C 
HETATM   62  O12 UNL     1       1.793 -13.303   7.034  1.00  0.00    -0.218 OA
ENDBRANCH  54  61
ENDBRANCH  51  52
ENDBRANCH  49  51
ENDBRANCH  47  49
ENDBRANCH  45  46
ENDBRANCH  42  44
ENDBRANCH  40  41
ENDBRANCH  38  39
ENDBRANCH  36  37
ENDBRANCH  33  35
ENDBRANCH   1  32
TORSDOF 15
