REMARK  0 active torsions:
REMARK  status: ('A' for Active; 'I' for Inactive)
ROOT
HETATM    1  C1  UNL     1      -5.761  -0.375  -0.353  1.00  0.00     0.002 A 
HETATM    2  C2  UNL     1      -5.200   0.835  -0.463  1.00  0.00     0.029 A 
HETATM    3  C3  UNL     1      -3.878   0.976  -0.650  1.00  0.00     0.153 A 
HETATM    4  C4  UNL     1      -3.084  -0.119  -0.724  1.00  0.00     0.121 A 
HETATM    5  C5  UNL     1      -3.656  -1.343  -0.656  1.00  0.00     0.003 A 
HETATM    6  C6  UNL     1      -4.982  -1.458  -0.460  1.00  0.00    -0.002 A 
HETATM    7  C7  UNL     1      -2.844  -2.614  -0.836  1.00  0.00     0.033 C 
HETATM    8  C8  UNL     1      -2.227  -3.167   0.460  1.00  0.00     0.031 C 
HETATM    9  C9  UNL     1      -0.799  -2.717   0.686  1.00  0.00    -0.022 A 
HETATM   10  C10 UNL     1       0.172  -3.082  -0.168  1.00  0.00    -0.002 A 
HETATM   11  C11 UNL     1       1.443  -2.702   0.025  1.00  0.00     0.024 A 
HETATM   12  C12 UNL     1       1.805  -1.943   1.076  1.00  0.00     0.100 A 
HETATM   13  C13 UNL     1       0.826  -1.593   1.932  1.00  0.00     0.024 A 
HETATM   14  C14 UNL     1      -0.448  -1.974   1.748  1.00  0.00    -0.002 A 
HETATM   15  O1  UNL     1       3.106  -1.560   1.274  1.00  0.00    -0.305 OA
HETATM   16  C15 UNL     1       3.513  -0.544   0.449  1.00  0.00     0.127 A 
HETATM   17  C16 UNL     1       4.322  -0.785  -0.605  1.00  0.00     0.179 A 
HETATM   18  C17 UNL     1       4.712   0.222  -1.409  1.00  0.00     0.158 A 
HETATM   19  C18 UNL     1       4.290   1.470  -1.153  1.00  0.00     0.025 A 
HETATM   20  C19 UNL     1       3.494   1.744  -0.108  1.00  0.00    -0.018 A 
HETATM   21  C20 UNL     1       3.034   3.157   0.178  1.00  0.00     0.031 C 
HETATM   22  C21 UNL     1       1.662   3.443  -0.455  1.00  0.00     0.031 C 
HETATM   23  C22 UNL     1       0.561   2.591   0.143  1.00  0.00    -0.020 A 
HETATM   24  C23 UNL     1       0.209   2.743   1.431  1.00  0.00    -0.004 A 
HETATM   25  C24 UNL     1      -0.753   1.979   1.965  1.00  0.00     0.002 A 
HETATM   26  C25 UNL     1      -1.384   1.071   1.207  1.00  0.00     0.025 A 
HETATM   27  C26 UNL     1      -1.079   0.902  -0.095  1.00  0.00     0.100 A 
HETATM   28  O2  UNL     1      -1.727  -0.002  -0.898  1.00  0.00    -0.305 OA
HETATM   29  C27 UNL     1      -0.091   1.671  -0.591  1.00  0.00     0.020 A 
HETATM   30  C28 UNL     1       3.125   0.723   0.679  1.00  0.00     0.023 A 
HETATM   31  O3  UNL     1       5.526  -0.025  -2.472  1.00  0.00    -0.188 OA
HETATM   32  O4  UNL     1       4.753  -2.050  -0.865  1.00  0.00    -0.186 OA
HETATM   33  O5  UNL     1      -3.369   2.235  -0.759  1.00  0.00    -0.188 OA
ENDROOT
TORSDOF 0
