REMARK  0 active torsions:
REMARK  status: ('A' for Active; 'I' for Inactive)
ROOT
HETATM    1  C1  UNL     1      -5.827  -0.462  -0.348  1.00  0.00     0.002 A 
HETATM    2  C2  UNL     1      -5.268   0.748  -0.458  1.00  0.00     0.029 A 
HETATM    3  C3  UNL     1      -3.945   0.889  -0.645  1.00  0.00     0.153 A 
HETATM    4  C4  UNL     1      -3.152  -0.206  -0.720  1.00  0.00     0.121 A 
HETATM    5  C5  UNL     1      -3.724  -1.431  -0.651  1.00  0.00     0.003 A 
HETATM    6  C6  UNL     1      -5.050  -1.546  -0.456  1.00  0.00    -0.002 A 
HETATM    7  C7  UNL     1      -2.909  -2.701  -0.831  1.00  0.00     0.033 C 
HETATM    8  C8  UNL     1      -2.295  -3.251   0.468  1.00  0.00     0.031 C 
HETATM    9  C9  UNL     1      -0.867  -2.803   0.696  1.00  0.00    -0.022 A 
HETATM   10  C10 UNL     1       0.105  -3.167  -0.158  1.00  0.00    -0.002 A 
HETATM   11  C11 UNL     1       1.377  -2.787   0.036  1.00  0.00     0.024 A 
HETATM   12  C12 UNL     1       1.738  -2.027   1.087  1.00  0.00     0.100 A 
HETATM   13  C13 UNL     1       0.759  -1.681   1.944  1.00  0.00     0.024 A 
HETATM   14  C14 UNL     1      -0.515  -2.062   1.759  1.00  0.00    -0.002 A 
HETATM   15  O1  UNL     1       3.038  -1.643   1.287  1.00  0.00    -0.305 OA
HETATM   16  C15 UNL     1       3.450  -0.635   0.453  1.00  0.00     0.127 A 
HETATM   17  C16 UNL     1       4.255  -0.886  -0.600  1.00  0.00     0.179 A 
HETATM   18  C17 UNL     1       4.643   0.113  -1.415  1.00  0.00     0.158 A 
HETATM   19  C18 UNL     1       4.223   1.365  -1.167  1.00  0.00     0.028 A 
HETATM   20  C19 UNL     1       3.439   1.653  -0.117  1.00  0.00     0.012 A 
HETATM   21  C20 UNL     1       2.969   3.065   0.172  1.00  0.00     0.179 C 
HETATM   22  C21 UNL     1       1.604   3.345  -0.462  1.00  0.00     0.064 C 
HETATM   23  C22 UNL     1       0.502   2.497   0.139  1.00  0.00    -0.017 A 
HETATM   24  C23 UNL     1       0.155   2.650   1.429  1.00  0.00    -0.004 A 
HETATM   25  C24 UNL     1      -0.808   1.888   1.965  1.00  0.00     0.002 A 
HETATM   26  C25 UNL     1      -1.443   0.981   1.210  1.00  0.00     0.025 A 
HETATM   27  C26 UNL     1      -1.144   0.813  -0.094  1.00  0.00     0.100 A 
HETATM   28  O2  UNL     1      -1.795  -0.089  -0.896  1.00  0.00    -0.305 OA
HETATM   29  C27 UNL     1      -0.157   1.582  -0.593  1.00  0.00     0.021 A 
HETATM   30  O3  UNL     1       3.893   4.030  -0.302  1.00  0.00    -0.218 OA
HETATM   31  C28 UNL     1       3.068   0.635   0.676  1.00  0.00     0.025 A 
HETATM   32  O4  UNL     1       5.449  -0.146  -2.481  1.00  0.00    -0.188 OA
HETATM   33  O5  UNL     1       4.682  -2.155  -0.853  1.00  0.00    -0.186 OA
HETATM   34  O6  UNL     1      -3.435   2.147  -0.755  1.00  0.00    -0.188 OA
ENDROOT
TORSDOF 0
