REMARK  0 active torsions:
REMARK  status: ('A' for Active; 'I' for Inactive)
ROOT
HETATM    1  C1  UNL     1      -5.724  -0.315  -0.446  1.00  0.00     0.002 A 
HETATM    2  C2  UNL     1      -5.194   0.910  -0.530  1.00  0.00     0.029 A 
HETATM    3  C3  UNL     1      -3.873   1.084  -0.699  1.00  0.00     0.153 A 
HETATM    4  C4  UNL     1      -3.055   0.009  -0.782  1.00  0.00     0.121 A 
HETATM    5  C5  UNL     1      -3.592  -1.232  -0.727  1.00  0.00     0.003 A 
HETATM    6  C6  UNL     1      -4.918  -1.379  -0.552  1.00  0.00    -0.002 A 
HETATM    7  C7  UNL     1      -2.741  -2.480  -0.894  1.00  0.00     0.033 C 
HETATM    8  C8  UNL     1      -2.123  -3.022   0.408  1.00  0.00     0.031 C 
HETATM    9  C9  UNL     1      -0.705  -2.556   0.669  1.00  0.00    -0.022 A 
HETATM   10  C10 UNL     1       0.274  -2.809  -0.216  1.00  0.00    -0.002 A 
HETATM   11  C11 UNL     1       1.531  -2.396  -0.000  1.00  0.00     0.024 A 
HETATM   12  C12 UNL     1       1.875  -1.712   1.107  1.00  0.00     0.100 A 
HETATM   13  C13 UNL     1       0.894  -1.489   2.002  1.00  0.00     0.024 A 
HETATM   14  C14 UNL     1      -0.364  -1.908   1.796  1.00  0.00    -0.002 A 
HETATM   15  O1  UNL     1       3.156  -1.264   1.315  1.00  0.00    -0.305 OA
HETATM   16  C15 UNL     1       3.567  -0.389   0.341  1.00  0.00     0.127 A 
HETATM   17  C16 UNL     1       4.506  -0.743  -0.559  1.00  0.00     0.179 A 
HETATM   18  C17 UNL     1       4.878   0.119  -1.522  1.00  0.00     0.158 A 
HETATM   19  C18 UNL     1       4.274   1.316  -1.605  1.00  0.00     0.033 A 
HETATM   20  C19 UNL     1       3.337   1.706  -0.722  1.00  0.00     0.039 A 
HETATM   21  C20 UNL     1       2.750   2.931  -0.843  1.00  0.00     0.177 C 
HETATM   22  C21 UNL     1       1.717   3.471   0.147  1.00  0.00     0.096 C 
HETATM   23  C22 UNL     1       0.553   2.587   0.542  1.00  0.00    -0.013 A 
HETATM   24  C23 UNL     1       0.139   2.570   1.821  1.00  0.00    -0.004 A 
HETATM   25  C24 UNL     1      -0.865   1.770   2.201  1.00  0.00     0.002 A 
HETATM   26  C25 UNL     1      -1.464   0.983   1.298  1.00  0.00     0.025 A 
HETATM   27  C26 UNL     1      -1.091   0.977   0.003  1.00  0.00     0.100 A 
HETATM   28  O2  UNL     1      -1.701   0.179  -0.934  1.00  0.00    -0.305 OA
HETATM   29  C27 UNL     1      -0.076   1.793  -0.343  1.00  0.00     0.021 A 
HETATM   30  O3  UNL     1       3.048   3.674  -1.755  1.00  0.00    -0.291 OA
HETATM   31  C28 UNL     1       3.027   0.841   0.258  1.00  0.00     0.030 A 
HETATM   32  O4  UNL     1       5.822  -0.248  -2.431  1.00  0.00    -0.188 OA
HETATM   33  O5  UNL     1       5.102  -1.965  -0.491  1.00  0.00    -0.186 OA
HETATM   34  O6  UNL     1      -3.381   2.352  -0.777  1.00  0.00    -0.188 OA
ENDROOT
TORSDOF 0
