REMARK  1 active torsions:
REMARK  status: ('A' for Active; 'I' for Inactive)
REMARK    1  A    between atoms: C20_21  and  O3_30 
ROOT
HETATM    1  C1  UNL     1      -5.905  -0.727  -0.619  1.00  0.00     0.029 A 
HETATM    2  C2  UNL     1      -5.351   0.488  -0.728  1.00  0.00     0.158 A 
HETATM    3  C3  UNL     1      -4.016   0.589  -0.871  1.00  0.00     0.178 A 
HETATM    4  C4  UNL     1      -3.228  -0.511  -0.898  1.00  0.00     0.123 A 
HETATM    5  C5  UNL     1      -3.808  -1.730  -0.823  1.00  0.00     0.003 A 
HETATM    6  C6  UNL     1      -5.140  -1.823  -0.673  1.00  0.00    -0.000 A 
HETATM    7  C7  UNL     1      -2.996  -3.009  -0.945  1.00  0.00     0.033 C 
HETATM    8  C8  UNL     1      -2.357  -3.495   0.367  1.00  0.00     0.031 C 
HETATM    9  C9  UNL     1      -0.936  -3.018   0.590  1.00  0.00    -0.022 A 
HETATM   10  C10 UNL     1       0.029  -3.288  -0.306  1.00  0.00    -0.002 A 
HETATM   11  C11 UNL     1       1.290  -2.875  -0.115  1.00  0.00     0.024 A 
HETATM   12  C12 UNL     1       1.651  -2.173   0.976  1.00  0.00     0.100 A 
HETATM   13  C13 UNL     1       0.683  -1.927   1.878  1.00  0.00     0.024 A 
HETATM   14  C14 UNL     1      -0.580  -2.343   1.696  1.00  0.00    -0.002 A 
HETATM   15  O1  UNL     1       2.940  -1.752   1.171  1.00  0.00    -0.305 OA
HETATM   16  C15 UNL     1       3.325  -0.736   0.334  1.00  0.00     0.127 A 
HETATM   17  C16 UNL     1       4.128  -0.971  -0.725  1.00  0.00     0.179 A 
HETATM   18  C17 UNL     1       4.506   0.038  -1.532  1.00  0.00     0.158 A 
HETATM   19  C18 UNL     1       4.059   1.280  -1.287  1.00  0.00     0.028 A 
HETATM   20  C19 UNL     1       3.266   1.552  -0.239  1.00  0.00     0.009 A 
HETATM   21  C20 UNL     1       2.791   2.971   0.028  1.00  0.00     0.142 C 
HETATM   22  C21 UNL     1       1.361   3.181  -0.489  1.00  0.00     0.061 C 
HETATM   23  C22 UNL     1       0.318   2.251   0.097  1.00  0.00    -0.017 A 
HETATM   24  C23 UNL     1      -0.043   2.346   1.388  1.00  0.00    -0.004 A 
HETATM   25  C24 UNL     1      -0.972   1.525   1.896  1.00  0.00     0.002 A 
HETATM   26  C25 UNL     1      -1.566   0.618   1.108  1.00  0.00     0.025 A 
HETATM   27  C26 UNL     1      -1.250   0.501  -0.196  1.00  0.00     0.100 A 
HETATM   28  O2  UNL     1      -1.865  -0.401  -1.028  1.00  0.00    -0.305 OA
HETATM   29  C27 UNL     1      -0.295   1.327  -0.666  1.00  0.00     0.021 A 
HETATM   30  C29 UNL     1       2.916   0.527   0.555  1.00  0.00     0.025 A 
HETATM   31  O4  UNL     1       5.304  -0.210  -2.605  1.00  0.00    -0.188 OA
HETATM   32  O5  UNL     1       4.595  -2.225  -0.976  1.00  0.00    -0.186 OA
HETATM   33  O6  UNL     1      -3.488   1.840  -0.986  1.00  0.00    -0.186 OA
HETATM   34  O7  UNL     1      -6.124   1.606  -0.693  1.00  0.00    -0.188 OA
ENDROOT
BRANCH  21  35
HETATM   35  O3  UNL     1       2.872   3.331   1.390  1.00  0.00    -0.349 OA
HETATM   36  C28 UNL     1       4.203   3.455   1.847  1.00  0.00     0.175 C 
ENDBRANCH  21  35
TORSDOF 1
