REMARK  9 active torsions:
REMARK  status: ('A' for Active; 'I' for Inactive)
REMARK    1  A    between atoms: C1_1  and  C2_2 
REMARK    2  A    between atoms: C1_1  and  C22_30 
REMARK    3  A    between atoms: C2_2  and  C3_3 
REMARK    4  A    between atoms: C7_8  and  C9_11 
REMARK    5  A    between atoms: C9_11  and  C10_12 
REMARK    6  A    between atoms: C11_13  and  O3_14 
REMARK    7  A    between atoms: C15_18  and  C17_21 
REMARK    8  A    between atoms: C17_21  and  C18_22 
REMARK    9  A    between atoms: C18_22  and  C19_23 
ROOT
HETATM    1  C10 UNL     1      -1.841  -0.346   0.159  1.00  0.00     0.030 A 
HETATM    2  C11 UNL     1      -3.032  -0.802  -0.279  1.00  0.00     0.090 A 
HETATM    3  C13 UNL     1      -3.323  -2.098  -0.055  1.00  0.00     0.026 A 
HETATM    4  C14 UNL     1      -2.514  -2.892   0.676  1.00  0.00     0.134 A 
HETATM    5  C15 UNL     1      -1.342  -2.407   1.158  1.00  0.00     0.085 A 
HETATM    6  C16 UNL     1      -1.012  -1.121   0.889  1.00  0.00     0.134 A 
HETATM    7  O4  UNL     1       0.139  -0.544   1.335  1.00  0.00    -0.190 OA
HETATM    8  O6  UNL     1      -2.922  -4.189   0.828  1.00  0.00    -0.190 OA
HETATM    9  C21 UNL     1      -4.598  -2.708  -0.620  1.00  0.00     0.035 C 
ENDROOT
BRANCH   1  10
HETATM   10  C9  UNL     1      -1.409   1.078  -0.175  1.00  0.00     0.061 C 
BRANCH  10  11
HETATM   11  C7  UNL     1      -0.105   1.099  -0.963  1.00  0.00     0.033 A 
HETATM   12  C6  UNL     1      -0.040   0.398  -2.107  1.00  0.00     0.131 A 
HETATM   13  C5  UNL     1       1.118   0.422  -2.776  1.00  0.00     0.055 A 
HETATM   14  O7  UNL     1      -1.098  -0.303  -2.600  1.00  0.00    -0.190 OA
HETATM   15  C4  UNL     1       2.192   1.111  -2.364  1.00  0.00     0.138 A 
HETATM   16  C3  UNL     1       2.119   1.831  -1.217  1.00  0.00     0.085 A 
HETATM   17  O1  UNL     1       3.296   1.041  -3.163  1.00  0.00    -0.190 OA
HETATM   18  C8  UNL     1       0.960   1.801  -0.510  1.00  0.00     0.134 A 
HETATM   19  O2  UNL     1       0.768   2.463   0.662  1.00  0.00    -0.190 OA
BRANCH  16  20
HETATM   20  C2  UNL     1       3.230   2.544  -0.844  1.00  0.00     0.177 C 
HETATM   21  O8  UNL     1       4.255   2.518  -1.494  1.00  0.00    -0.291 OA
BRANCH  20  22
HETATM   22  C1  UNL     1       3.365   3.462   0.370  1.00  0.00     0.069 C 
BRANCH  22  23
HETATM   23  C22 UNL     1       2.704   4.838   0.161  1.00  0.00     0.008 C 
HETATM   24  C23 UNL     1       3.291   5.611  -1.029  1.00  0.00     0.001 C 
ENDBRANCH  22  23
ENDBRANCH  20  22
ENDBRANCH  16  20
ENDBRANCH  10  11
ENDBRANCH   1  10
BRANCH   2  25
HETATM   25  O3  UNL     1      -3.832  -0.023  -1.078  1.00  0.00    -0.329 OA
HETATM   26  C12 UNL     1      -4.798   0.720  -0.366  1.00  0.00     0.181 C 
ENDBRANCH   2  25
BRANCH   5  27
HETATM   27  C17 UNL     1      -0.523  -3.225   1.895  1.00  0.00     0.177 C 
HETATM   28  O5  UNL     1      -0.849  -4.354   2.187  1.00  0.00    -0.291 OA
BRANCH  27  29
HETATM   29  C18 UNL     1       0.865  -2.856   2.425  1.00  0.00     0.069 C 
BRANCH  29  30
HETATM   30  C19 UNL     1       1.633  -4.023   3.078  1.00  0.00     0.008 C 
HETATM   31  C20 UNL     1       3.038  -3.601   3.532  1.00  0.00     0.001 C 
ENDBRANCH  29  30
ENDBRANCH  27  29
ENDBRANCH   5  27
TORSDOF 9
