REMARK  15 active torsions:
REMARK  status: ('A' for Active; 'I' for Inactive)
REMARK    1  A    between atoms: C2_2  and  O10_30 
REMARK    2  A    between atoms: C5_5  and  O2_7 
REMARK    3  A    between atoms: O2_7  and  C6_8 
REMARK    4  A    between atoms: C6_8  and  C7_9 
REMARK    5  A    between atoms: C11_13  and  O4_15 
REMARK    6  A    between atoms: O4_15  and  C12_16 
REMARK    7  A    between atoms: C12_16  and  C13_17 
REMARK    8  A    between atoms: O10_30  and  C20_31 
REMARK    9  A    between atoms: C20_31  and  C21_33 
REMARK   10  A    between atoms: C22_34  and  C23_35 
REMARK   11  A    between atoms: C26_38  and  O12_41 
REMARK   12  A    between atoms: O12_41  and  C29_42 
REMARK   13  A    between atoms: C30_44  and  C34_51 
REMARK   14  A    between atoms: C34_51  and  O17_52 
REMARK   15  A    between atoms: O17_52  and  C35_53 
ROOT
HETATM    1  C12 UNL     1       2.834   6.508   3.722  1.00  0.00     0.230 C 
HETATM    2  C19 UNL     1       2.082   6.091   2.523  1.00  0.00     0.108 C 
HETATM    3  N1  UNL     1       1.476   5.741   1.601  1.00  0.00    -0.193 NA
ENDROOT
BRANCH   1   4
HETATM    4  O4  UNL     1       3.880   5.583   4.027  1.00  0.00    -0.312 OA
BRANCH   4   5
HETATM    5  C11 UNL     1       3.486   4.283   4.364  1.00  0.00     0.271 C 
HETATM    6  C10 UNL     1       3.950   3.844   5.733  1.00  0.00     0.241 C 
HETATM    7  C9  UNL     1       3.468   2.471   6.104  1.00  0.00     0.220 C 
HETATM    8  O5  UNL     1       5.325   3.929   5.782  1.00  0.00    -0.215 OA
HETATM    9  C8  UNL     1       3.796   1.537   4.964  1.00  0.00     0.215 C 
HETATM   10  O6  UNL     1       2.081   2.486   6.306  1.00  0.00    -0.218 OA
HETATM   11  C7  UNL     1       3.336   2.131   3.631  1.00  0.00     0.180 C 
HETATM   12  O7  UNL     1       5.190   1.379   4.913  1.00  0.00    -0.218 OA
HETATM   13  O3  UNL     1       4.000   3.362   3.423  1.00  0.00    -0.326 OA
BRANCH  11  14
HETATM   14  C6  UNL     1       1.812   2.298   3.602  1.00  0.00     0.177 C 
BRANCH  14  15
HETATM   15  O2  UNL     1       1.250   1.567   2.575  1.00  0.00    -0.326 OA
BRANCH  15  16
HETATM   16  C5  UNL     1      -0.148   1.639   2.482  1.00  0.00     0.270 C 
HETATM   17  C4  UNL     1      -0.734   0.259   2.626  1.00  0.00     0.241 C 
HETATM   18  C3  UNL     1      -2.235   0.302   2.463  1.00  0.00     0.217 C 
HETATM   19  O8  UNL     1      -0.222  -0.569   1.613  1.00  0.00    -0.215 OA
HETATM   20  C2  UNL     1      -2.563   1.132   1.256  1.00  0.00     0.187 C 
HETATM   21  O9  UNL     1      -2.810   0.964   3.552  1.00  0.00    -0.218 OA
HETATM   22  C1  UNL     1      -1.824   2.435   1.182  1.00  0.00     0.178 C 
HETATM   23  O1  UNL     1      -0.446   2.143   1.190  1.00  0.00    -0.326 OA
BRANCH  20  24
HETATM   24  O10 UNL     1      -2.199   0.421   0.160  1.00  0.00    -0.296 OA
BRANCH  24  25
HETATM   25  C20 UNL     1      -3.162   0.115  -0.647  1.00  0.00     0.296 C 
HETATM   26  O11 UNL     1      -2.379  -0.474  -1.369  1.00  0.00    -0.259 OA
BRANCH  25  27
HETATM   27  C21 UNL     1      -4.476   0.367  -0.657  1.00  0.00     0.068 C 
HETATM   28  C22 UNL     1      -5.399   0.004  -1.571  1.00  0.00     0.005 C 
BRANCH  28  29
HETATM   29  C23 UNL     1      -5.140  -0.704  -2.671  1.00  0.00     0.000 A 
HETATM   30  C24 UNL     1      -6.025  -1.077  -3.589  1.00  0.00     0.002 A 
HETATM   31  C25 UNL     1      -5.632  -1.796  -4.660  1.00  0.00     0.024 A 
HETATM   32  C26 UNL     1      -4.364  -2.199  -4.908  1.00  0.00     0.097 A 
HETATM   33  C27 UNL     1      -3.444  -1.845  -4.021  1.00  0.00     0.024 A 
HETATM   34  C28 UNL     1      -3.961  -1.157  -3.040  1.00  0.00     0.002 A 
BRANCH  32  35
HETATM   35  O12 UNL     1      -4.032  -2.917  -6.015  1.00  0.00    -0.304 OA
BRANCH  35  36
HETATM   36  C29 UNL     1      -2.711  -3.290  -6.238  1.00  0.00     0.274 C 
HETATM   37  O13 UNL     1      -2.576  -4.691  -6.213  1.00  0.00    -0.326 OA
HETATM   38  C30 UNL     1      -1.199  -4.990  -6.117  1.00  0.00     0.180 C 
HETATM   39  C31 UNL     1      -0.544  -4.605  -7.441  1.00  0.00     0.215 C 
HETATM   40  C32 UNL     1      -0.692  -3.109  -7.660  1.00  0.00     0.220 C 
HETATM   41  O16 UNL     1       0.817  -4.944  -7.372  1.00  0.00    -0.218 OA
HETATM   42  C33 UNL     1      -2.141  -2.700  -7.482  1.00  0.00     0.241 C 
HETATM   43  O15 UNL     1      -0.276  -2.819  -8.963  1.00  0.00    -0.218 OA
HETATM   44  O14 UNL     1      -2.884  -3.234  -8.533  1.00  0.00    -0.215 OA
BRANCH  38  45
HETATM   45  C34 UNL     1      -0.522  -4.258  -4.946  1.00  0.00     0.177 C 
BRANCH  45  46
HETATM   46  O17 UNL     1      -0.024  -5.174  -4.028  1.00  0.00    -0.326 OA
BRANCH  46  47
HETATM   47  C35 UNL     1       0.620  -4.623  -2.907  1.00  0.00     0.270 C 
HETATM   48  O18 UNL     1      -0.059  -5.102  -1.754  1.00  0.00    -0.326 OA
HETATM   49  C36 UNL     1       0.452  -4.374  -0.656  1.00  0.00     0.181 C 
HETATM   50  C37 UNL     1       1.878  -4.829  -0.399  1.00  0.00     0.215 C 
HETATM   51  C38 UNL     1       2.733  -4.548  -1.621  1.00  0.00     0.220 C 
HETATM   52  O21 UNL     1       2.377  -4.116   0.701  1.00  0.00    -0.218 OA
HETATM   53  C39 UNL     1       2.052  -5.092  -2.862  1.00  0.00     0.241 C 
HETATM   54  O20 UNL     1       3.970  -5.184  -1.432  1.00  0.00    -0.218 OA
HETATM   55  O19 UNL     1       2.073  -6.495  -2.789  1.00  0.00    -0.215 OA
ENDBRANCH  46  47
ENDBRANCH  45  46
ENDBRANCH  38  45
ENDBRANCH  35  36
ENDBRANCH  32  35
ENDBRANCH  28  29
ENDBRANCH  25  27
ENDBRANCH  24  25
ENDBRANCH  20  24
ENDBRANCH  15  16
ENDBRANCH  14  15
ENDBRANCH  11  14
ENDBRANCH   4   5
ENDBRANCH   1   4
BRANCH   1  56
HETATM   56  C13 UNL     1       1.864   6.759   4.869  1.00  0.00     0.019 A 
HETATM   57  C14 UNL     1       0.848   7.625   4.821  1.00  0.00    -0.001 A 
HETATM   58  C15 UNL     1       0.029   7.766   5.878  1.00  0.00    -0.000 A 
HETATM   59  C16 UNL     1       0.189   7.053   7.008  1.00  0.00    -0.000 A 
HETATM   60  C17 UNL     1       1.186   6.172   7.114  1.00  0.00    -0.000 A 
HETATM   61  C18 UNL     1       1.953   6.114   6.030  1.00  0.00    -0.001 A 
ENDBRANCH   1  56
TORSDOF 15
