REMARK  3 active torsions:
REMARK  status: ('A' for Active; 'I' for Inactive)
REMARK    1  A    between atoms: C10_10  and  C11_11 
REMARK    2  A    between atoms: C11_11  and  C12_12 
REMARK    3  A    between atoms: C12_12  and  C13_13 
ROOT
HETATM    1  C1  UNL     1      -0.646  -0.559  -0.092  1.00  0.00     0.029 C 
HETATM    2  C2  UNL     1      -2.043  -0.008  -0.438  1.00  0.00     0.003 C 
HETATM    3  C3  UNL     1      -3.119  -1.072  -0.148  1.00  0.00     0.001 C 
HETATM    4  C4  UNL     1      -2.869  -2.387  -0.906  1.00  0.00     0.009 C 
HETATM    5  C5  UNL     1      -1.406  -2.873  -1.020  1.00  0.00     0.080 C 
HETATM    6  C6  UNL     1      -0.420  -1.697  -1.137  1.00  0.00     0.039 C 
HETATM    7  C7  UNL     1       0.871  -2.457  -0.815  1.00  0.00     0.125 C 
HETATM    8  C8  UNL     1       2.102  -1.566  -0.584  1.00  0.00     0.033 C 
HETATM    9  C9  UNL     1       1.858  -0.266   0.209  1.00  0.00     0.031 C 
HETATM   10  C10 UNL     1       0.533   0.447  -0.191  1.00  0.00     0.127 C 
HETATM   11  O2  UNL     1       0.649   0.943  -1.514  1.00  0.00    -0.226 OA
HETATM   12  C17 UNL     1       3.080   0.662   0.125  1.00  0.00     0.003 C 
HETATM   13  O3  UNL     1       0.531  -3.297   0.289  1.00  0.00    -0.304 OA
HETATM   14  C18 UNL     1      -0.766  -3.600   0.137  1.00  0.00     0.271 C 
HETATM   15  O4  UNL     1      -1.383  -4.359   0.848  1.00  0.00    -0.264 OA
HETATM   16  C19 UNL     1      -1.285  -3.773  -2.254  1.00  0.00     0.010 C 
HETATM   17  C20 UNL     1      -0.695  -1.049   1.373  1.00  0.00     0.003 C 
ENDROOT
BRANCH  10  18
HETATM   18  C11 UNL     1       0.295   1.682   0.689  1.00  0.00     0.035 C 
BRANCH  18  19
HETATM   19  C12 UNL     1       0.820   2.971   0.053  1.00  0.00     0.031 C 
BRANCH  19  20
HETATM   20  C13 UNL     1       0.805   4.115   1.043  1.00  0.00     0.005 A 
HETATM   21  C14 UNL     1       0.086   5.313   0.937  1.00  0.00     0.118 A 
HETATM   22  O1  UNL     1       0.297   6.133   2.008  1.00  0.00    -0.303 OA
HETATM   23  C15 UNL     1       1.164   5.438   2.799  1.00  0.00     0.122 A 
HETATM   24  C16 UNL     1       1.502   4.197   2.246  1.00  0.00     0.025 A 
ENDBRANCH  19  20
ENDBRANCH  18  19
ENDBRANCH  10  18
TORSDOF 3
