REMARK  10 active torsions:
REMARK  status: ('A' for Active; 'I' for Inactive)
REMARK    1  A    between atoms: C5_5  and  C9_10 
REMARK    2  A    between atoms: C10_11  and  C11_12 
REMARK    3  A    between atoms: C12_13  and  C13_14 
REMARK    4  A    between atoms: C14_15  and  C15_16 
REMARK    5  A    between atoms: C16_17  and  C17_18 
REMARK    6  A    between atoms: C18_19  and  C19_20 
REMARK    7  A    between atoms: C20_21  and  C21_22 
REMARK    8  A    between atoms: C22_23  and  C23_24 
REMARK    9  A    between atoms: C24_25  and  C25_26 
REMARK   10  A    between atoms: C26_27  and  C27_28 
ROOT
HETATM    1  C17 UNL     1      -0.944   1.253   0.824  1.00  0.00    -0.000 C 
HETATM    2  C18 UNL     1       0.318   1.240   0.349  1.00  0.00    -0.000 C 
ENDROOT
BRANCH   1   3
HETATM    3  C16 UNL     1      -1.869   0.363   0.414  1.00  0.00    -0.004 C 
HETATM    4  C15 UNL     1      -3.142   0.206   0.847  1.00  0.00    -0.022 C 
HETATM    5  C38 UNL     1      -3.715   1.097   1.929  1.00  0.00     0.031 C 
BRANCH   4   6
HETATM    6  C14 UNL     1      -3.875  -0.763   0.249  1.00  0.00    -0.004 C 
HETATM    7  C13 UNL     1      -5.097  -1.283   0.485  1.00  0.00    -0.001 C 
BRANCH   7   8
HETATM    8  C12 UNL     1      -5.927  -1.121   1.531  1.00  0.00    -0.004 C 
HETATM    9  C11 UNL     1      -7.139  -1.686   1.738  1.00  0.00    -0.022 C 
HETATM   10  C39 UNL     1      -7.827  -1.414   3.067  1.00  0.00     0.031 C 
BRANCH   9  11
HETATM   11  C10 UNL     1      -7.765  -2.458   0.824  1.00  0.00    -0.006 C 
HETATM   12  C9  UNL     1      -8.950  -3.069   0.995  1.00  0.00     0.002 C 
BRANCH  12  13
HETATM   13  C5  UNL     1      -9.579  -3.854  -0.057  1.00  0.00     0.134 A 
HETATM   14  C4  UNL     1      -9.593  -5.334   0.101  1.00  0.00     0.122 A 
HETATM   15  C3  UNL     1     -10.656  -6.162  -0.602  1.00  0.00     0.063 C 
HETATM   16  O1  UNL     1      -8.675  -4.703  -0.801  1.00  0.00    -0.355 OA
HETATM   17  C40 UNL     1      -8.913  -5.990   1.293  1.00  0.00     0.033 C 
HETATM   18  C2  UNL     1     -11.331  -5.459  -1.774  1.00  0.00     0.155 C 
HETATM   19  C1  UNL     1     -11.818  -4.093  -1.311  1.00  0.00     0.036 C 
HETATM   20  O3  UNL     1     -12.427  -6.229  -2.209  1.00  0.00    -0.223 OA
HETATM   21  C6  UNL     1     -10.653  -3.153  -0.914  1.00  0.00     0.031 C 
HETATM   22  C7  UNL     1     -11.301  -1.970  -0.147  1.00  0.00     0.003 C 
HETATM   23  C8  UNL     1     -10.015  -2.544  -2.185  1.00  0.00     0.003 C 
ENDBRANCH  12  13
ENDBRANCH   9  11
ENDBRANCH   7   8
ENDBRANCH   4   6
ENDBRANCH   1   3
BRANCH   2  24
HETATM   24  C19 UNL     1       1.273   2.112   0.725  1.00  0.00    -0.004 C 
HETATM   25  C20 UNL     1       2.572   2.091   0.342  1.00  0.00    -0.022 C 
HETATM   26  C37 UNL     1       3.060   1.048  -0.646  1.00  0.00     0.031 C 
BRANCH  25  27
HETATM   27  C21 UNL     1       3.393   3.050   0.832  1.00  0.00    -0.004 C 
HETATM   28  C22 UNL     1       4.734   3.188   0.798  1.00  0.00    -0.001 C 
BRANCH  28  29
HETATM   29  C23 UNL     1       5.659   2.246   0.535  1.00  0.00    -0.004 C 
HETATM   30  C24 UNL     1       7.010   2.324   0.496  1.00  0.00    -0.022 C 
HETATM   31  C36 UNL     1       7.714   0.995   0.336  1.00  0.00     0.031 C 
BRANCH  30  32
HETATM   32  C25 UNL     1       7.708   3.457   0.722  1.00  0.00    -0.005 C 
HETATM   33  C26 UNL     1       9.014   3.790   0.676  1.00  0.00    -0.005 C 
BRANCH  33  34
HETATM   34  C27 UNL     1      10.152   3.457   0.015  1.00  0.00    -0.030 C 
HETATM   35  C28 UNL     1      11.309   3.960   0.525  1.00  0.00    -0.045 C 
HETATM   36  C29 UNL     1      11.444   4.632   1.886  1.00  0.00     0.026 C 
HETATM   37  C30 UNL     1      12.655   3.978  -0.174  1.00  0.00     0.055 C 
HETATM   38  C31 UNL     1      12.715   3.390  -1.571  1.00  0.00     0.157 C 
HETATM   39  C32 UNL     1      11.332   3.401  -2.202  1.00  0.00     0.037 C 
HETATM   40  O2  UNL     1      13.262   2.093  -1.527  1.00  0.00    -0.223 OA
HETATM   41  C33 UNL     1      10.221   2.730  -1.344  1.00  0.00     0.021 C 
HETATM   42  C34 UNL     1       8.948   2.933  -2.200  1.00  0.00     0.004 C 
HETATM   43  C35 UNL     1      10.560   1.228  -1.241  1.00  0.00     0.004 C 
ENDBRANCH  33  34
ENDBRANCH  30  32
ENDBRANCH  28  29
ENDBRANCH  25  27
ENDBRANCH   2  24
TORSDOF 10
