REMARK  0 active torsions:
REMARK  status: ('A' for Active; 'I' for Inactive)
ROOT
HETATM    1  C1  UNL     1      -0.590   1.635   0.258  1.00  0.00     0.001 C 
HETATM    2  C2  UNL     1      -1.978   1.002   0.420  1.00  0.00     0.001 C 
HETATM    3  C3  UNL     1      -1.805  -0.498   0.154  1.00  0.00     0.009 C 
HETATM    4  C4  UNL     1      -0.301  -0.699   0.348  1.00  0.00     0.086 C 
HETATM    5  C5  UNL     1       0.242   0.525  -0.375  1.00  0.00     0.012 C 
HETATM    6  C6  UNL     1       1.774   0.603  -0.231  1.00  0.00     0.031 C 
HETATM    7  C7  UNL     1       2.389  -0.791   0.055  1.00  0.00     0.152 C 
HETATM    8  O1  UNL     1       1.656  -1.861  -0.563  1.00  0.00    -0.302 OA
HETATM    9  C8  UNL     1       0.342  -1.910  -0.285  1.00  0.00     0.271 C 
HETATM   10  O2  UNL     1      -0.332  -2.879  -0.545  1.00  0.00    -0.264 OA
HETATM   11  C9  UNL     1       2.350   1.238  -1.500  1.00  0.00     0.003 C 
HETATM   12  C10 UNL     1      -2.627  -1.363   1.105  1.00  0.00     0.001 C 
ENDROOT
TORSDOF 0
