REMARK  1 active torsions:
REMARK  status: ('A' for Active; 'I' for Inactive)
REMARK    1  A    between atoms: C7_8  and  C10_12 
ROOT
HETATM    1  C1  UNL     1      -2.168  -0.519   0.139  1.00  0.00     0.026 A 
HETATM    2  C2  UNL     1      -3.334   0.070  -0.406  1.00  0.00     0.127 A 
HETATM    3  C3  UNL     1      -3.234   1.229  -1.215  1.00  0.00     0.029 A 
HETATM    4  C4  UNL     1      -1.967   1.813  -1.463  1.00  0.00     0.134 A 
HETATM    5  C5  UNL     1      -0.801   1.236  -0.898  1.00  0.00     0.082 A 
HETATM    6  C6  UNL     1      -0.897   0.049  -0.119  1.00  0.00     0.097 A 
HETATM    7  O1  UNL     1       0.207  -0.549   0.381  1.00  0.00    -0.329 OA
HETATM    8  C7  UNL     1       1.500  -0.268  -0.168  1.00  0.00     0.153 C 
HETATM    9  C8  UNL     1       1.687   1.250  -0.344  1.00  0.00     0.104 C 
HETATM   10  C9  UNL     1       0.535   1.869  -1.105  1.00  0.00     0.180 C 
HETATM   11  O2  UNL     1       0.785   2.822  -1.809  1.00  0.00    -0.291 OA
HETATM   12  O4  UNL     1      -1.885   2.916  -2.223  1.00  0.00    -0.190 OA
HETATM   13  C16 UNL     1      -4.449   1.828  -1.795  1.00  0.00     0.035 C 
HETATM   14  O5  UNL     1      -4.537  -0.473  -0.160  1.00  0.00    -0.191 OA
HETATM   15  C17 UNL     1      -2.275  -1.728   0.975  1.00  0.00     0.035 C 
ENDROOT
BRANCH   8  16
HETATM   16  C10 UNL     1       2.541  -0.871   0.705  1.00  0.00     0.031 A 
HETATM   17  C11 UNL     1       3.828  -1.141   0.197  1.00  0.00     0.129 A 
HETATM   18  C12 UNL     1       4.801  -1.711   1.037  1.00  0.00     0.027 A 
HETATM   19  O3  UNL     1       4.125  -0.863  -1.057  1.00  0.00    -0.190 OA
HETATM   20  C13 UNL     1       4.496  -2.010   2.375  1.00  0.00     0.002 A 
HETATM   21  C14 UNL     1       3.213  -1.740   2.879  1.00  0.00    -0.000 A 
HETATM   22  C15 UNL     1       2.236  -1.170   2.045  1.00  0.00     0.000 A 
ENDBRANCH   8  16
TORSDOF 1
