REMARK  8 active torsions:
REMARK  status: ('A' for Active; 'I' for Inactive)
REMARK    1  A    between atoms: C4_4  and  O3_9 
REMARK    2  A    between atoms: C5_6  and  C6_7 
REMARK    3  A    between atoms: O3_9  and  C7_10 
REMARK    4  A    between atoms: C7_10  and  C8_11 
REMARK    5  A    between atoms: C12_15  and  O5_17 
REMARK    6  A    between atoms: O5_17  and  C13_18 
REMARK    7  A    between atoms: C20_26  and  C23_30 
REMARK    8  A    between atoms: C26_33  and  O8_36 
ROOT
HETATM    1  O5  UNL     1      -2.740  -1.107  -2.303  1.00  0.00    -0.304 OA
ENDROOT
BRANCH   1   2
HETATM    2  C12 UNL     1      -3.244  -1.035  -0.977  1.00  0.00     0.274 C 
HETATM    3  C11 UNL     1      -4.478  -1.953  -0.818  1.00  0.00     0.241 C 
HETATM    4  C10 UNL     1      -5.162  -1.769   0.553  1.00  0.00     0.220 C 
HETATM    5  O10 UNL     1      -5.414  -1.682  -1.848  1.00  0.00    -0.215 OA
HETATM    6  C9  UNL     1      -5.336  -0.275   0.914  1.00  0.00     0.215 C 
HETATM    7  O11 UNL     1      -4.348  -2.381   1.539  1.00  0.00    -0.218 OA
HETATM    8  C8  UNL     1      -4.061   0.566   0.643  1.00  0.00     0.180 C 
HETATM    9  O12 UNL     1      -6.408   0.266   0.164  1.00  0.00    -0.218 OA
HETATM   10  O4  UNL     1      -3.568   0.322  -0.676  1.00  0.00    -0.326 OA
BRANCH   8  11
HETATM   11  C7  UNL     1      -2.937   0.299   1.656  1.00  0.00     0.177 C 
BRANCH  11  12
HETATM   12  O3  UNL     1      -1.891   1.207   1.402  1.00  0.00    -0.326 OA
BRANCH  12  13
HETATM   13  C4  UNL     1      -0.777   1.029   2.258  1.00  0.00     0.270 C 
HETATM   14  C3  UNL     1       0.440   1.867   1.758  1.00  0.00     0.241 C 
HETATM   15  C2  UNL     1       0.719   3.145   2.607  1.00  0.00     0.220 C 
HETATM   16  O13 UNL     1       1.590   1.045   1.666  1.00  0.00    -0.215 OA
HETATM   17  C1  UNL     1      -0.609   3.742   3.119  1.00  0.00     0.215 C 
HETATM   18  O14 UNL     1       1.522   2.863   3.746  1.00  0.00    -0.218 OA
HETATM   19  C5  UNL     1      -1.514   2.701   3.850  1.00  0.00     0.184 C 
HETATM   20  O15 UNL     1      -1.310   4.276   2.010  1.00  0.00    -0.218 OA
HETATM   21  O1  UNL     1      -1.100   1.356   3.606  1.00  0.00    -0.326 OA
BRANCH  19  22
HETATM   22  C6  UNL     1      -1.486   2.875   5.369  1.00  0.00     0.214 C 
HETATM   23  O2  UNL     1      -2.490   2.057   5.924  1.00  0.00    -0.218 OA
ENDBRANCH  19  22
ENDBRANCH  12  13
ENDBRANCH  11  12
ENDBRANCH   8  11
ENDBRANCH   1   2
BRANCH   1  24
HETATM   24  C13 UNL     1      -1.543  -0.555  -2.553  1.00  0.00     0.093 A 
HETATM   25  C14 UNL     1      -1.463   0.670  -3.262  1.00  0.00     0.026 A 
HETATM   26  C15 UNL     1      -0.203   1.264  -3.514  1.00  0.00     0.134 A 
HETATM   27  C30 UNL     1      -2.695   1.326  -3.734  1.00  0.00     0.035 C 
HETATM   28  C16 UNL     1       0.983   0.631  -3.051  1.00  0.00     0.082 A 
HETATM   29  O9  UNL     1      -0.139   2.426  -4.180  1.00  0.00    -0.190 OA
HETATM   30  C17 UNL     1       0.904  -0.617  -2.373  1.00  0.00     0.097 A 
HETATM   31  C22 UNL     1       2.315   1.270  -3.260  1.00  0.00     0.180 C 
HETATM   32  C18 UNL     1      -0.361  -1.197  -2.109  1.00  0.00     0.023 A 
HETATM   33  O6  UNL     1       2.022  -1.266  -1.975  1.00  0.00    -0.329 OA
HETATM   34  C19 UNL     1      -0.447  -2.473  -1.377  1.00  0.00     0.035 C 
HETATM   35  C20 UNL     1       3.291  -0.947  -2.553  1.00  0.00     0.151 C 
HETATM   36  C21 UNL     1       3.492   0.578  -2.607  1.00  0.00     0.104 C 
HETATM   37  O7  UNL     1       2.545   2.277  -3.889  1.00  0.00    -0.291 OA
BRANCH  35  38
HETATM   38  C23 UNL     1       4.363  -1.633  -1.781  1.00  0.00     0.006 A 
HETATM   39  C24 UNL     1       4.385  -1.547  -0.379  1.00  0.00     0.000 A 
HETATM   40  C25 UNL     1       5.399  -2.195   0.350  1.00  0.00     0.024 A 
HETATM   41  C26 UNL     1       6.393  -2.930  -0.320  1.00  0.00     0.094 A 
HETATM   42  C27 UNL     1       6.367  -3.014  -1.723  1.00  0.00     0.024 A 
HETATM   43  C28 UNL     1       5.356  -2.367  -2.453  1.00  0.00     0.000 A 
BRANCH  41  44
HETATM   44  O8  UNL     1       7.342  -3.537   0.363  1.00  0.00    -0.328 OA
HETATM   45  C29 UNL     1       8.293  -4.307  -0.355  1.00  0.00     0.181 C 
ENDBRANCH  41  44
ENDBRANCH  35  38
ENDBRANCH   1  24
TORSDOF 8
