REMARK  0 active torsions:
REMARK  status: ('A' for Active; 'I' for Inactive)
ROOT
HETATM    1  C1  UNL     1       0.641  -2.842  -1.023  1.00  0.00     0.119 A 
HETATM    2  C2  UNL     1      -0.529  -2.129  -0.736  1.00  0.00     0.119 A 
HETATM    3  C3  UNL     1      -0.440  -0.785  -0.250  1.00  0.00     0.022 A 
HETATM    4  C4  UNL     1       0.838  -0.195  -0.019  1.00  0.00     0.007 A 
HETATM    5  C5  UNL     1       2.010  -0.904  -0.365  1.00  0.00    -0.020 A 
HETATM    6  C6  UNL     1       1.900  -2.225  -0.846  1.00  0.00     0.022 A 
HETATM    7  C7  UNL     1       3.330  -0.250  -0.221  1.00  0.00     0.061 C 
HETATM    8  C8  UNL     1       3.211   1.269  -0.431  1.00  0.00     0.255 C 
HETATM    9  N1  UNL     1       2.242   1.850   0.508  1.00  0.00     0.142 N 
HETATM   10  C9  UNL     1       0.924   1.170   0.592  1.00  0.00     0.246 C 
HETATM   11  C10 UNL     1      -0.178   2.088   0.028  1.00  0.00     0.064 C 
HETATM   12  C11 UNL     1      -1.520   1.457   0.127  1.00  0.00    -0.020 A 
HETATM   13  C12 UNL     1      -1.654   0.037   0.010  1.00  0.00    -0.000 A 
HETATM   14  C13 UNL     1      -2.951  -0.539   0.145  1.00  0.00     0.027 A 
HETATM   15  C14 UNL     1      -4.084   0.279   0.350  1.00  0.00     0.131 A 
HETATM   16  C15 UNL     1      -3.942   1.680   0.442  1.00  0.00     0.027 A 
HETATM   17  C16 UNL     1      -2.664   2.266   0.336  1.00  0.00    -0.002 A 
HETATM   18  O1  UNL     1      -5.299  -0.275   0.459  1.00  0.00    -0.190 OA
HETATM   19  C17 UNL     1       2.836   2.107   1.817  1.00  0.00     0.286 C 
HETATM   20  O2  UNL     1      -1.574  -2.916  -1.012  1.00  0.00    -0.300 OA
HETATM   21  C18 UNL     1      -1.111  -4.201  -1.478  1.00  0.00     0.304 A 
HETATM   22  O3  UNL     1       0.324  -4.065  -1.455  1.00  0.00    -0.300 OA
ENDROOT
TORSDOF 0
