REMARK  2 active torsions:
REMARK  status: ('A' for Active; 'I' for Inactive)
REMARK    1  A    between atoms: C5_7  and  O4_13 
REMARK    2  A    between atoms: C6_8  and  O3_11 
ROOT
HETATM    1  C1  UNL     1      -3.149  -1.166  -0.521  1.00  0.00     0.179 A 
HETATM    2  C2  UNL     1      -1.646  -1.047  -0.374  1.00  0.00     0.015 A 
HETATM    3  C3  UNL     1      -1.347   0.303  -0.402  1.00  0.00     0.086 A 
HETATM    4  C4  UNL     1      -2.567   1.072  -0.557  1.00  0.00     0.298 A 
HETATM    5  O1  UNL     1      -3.613   0.214  -0.627  1.00  0.00    -0.293 OA
HETATM    6  O2  UNL     1      -2.608   2.280  -0.612  1.00  0.00    -0.259 OA
HETATM    7  C5  UNL     1      -0.023   0.805  -0.291  1.00  0.00     0.121 A 
HETATM    8  C6  UNL     1       1.022  -0.145  -0.146  1.00  0.00     0.116 A 
HETATM    9  C7  UNL     1       0.742  -1.531  -0.114  1.00  0.00     0.026 A 
HETATM   10  C8  UNL     1      -0.592  -1.980  -0.227  1.00  0.00     0.001 A 
ENDROOT
BRANCH   7  11
HETATM   11  O4  UNL     1       0.367   2.089  -0.306  1.00  0.00    -0.326 OA
HETATM   12  C10 UNL     1       0.795   2.670   0.916  1.00  0.00     0.181 C 
ENDBRANCH   7  11
BRANCH   8  13
HETATM   13  O3  UNL     1       2.294   0.269  -0.038  1.00  0.00    -0.326 OA
HETATM   14  C9  UNL     1       3.298  -0.712   0.176  1.00  0.00     0.181 C 
ENDBRANCH   8  13
TORSDOF 2
