REMARK  0 active torsions:
REMARK  status: ('A' for Active; 'I' for Inactive)
ROOT
HETATM    1  C1  UNL     1       4.275  -0.687  -0.222  1.00  0.00     0.052 A 
HETATM    2  C2  UNL     1       4.934   0.536  -0.492  1.00  0.00     0.133 A 
HETATM    3  C3  UNL     1       4.190   1.731  -0.640  1.00  0.00     0.028 A 
HETATM    4  C4  UNL     1       2.781   1.713  -0.520  1.00  0.00     0.006 A 
HETATM    5  C5  UNL     1       2.123   0.490  -0.251  1.00  0.00     0.046 A 
HETATM    6  C6  UNL     1       2.866  -0.726  -0.098  1.00  0.00     0.107 A 
HETATM    7  O1  UNL     1       2.249  -1.914   0.163  1.00  0.00    -0.273 OA
HETATM    8  C7  UNL     1       0.906  -2.062   0.298  1.00  0.00     0.302 A 
HETATM    9  C8  UNL     1       0.084  -0.841   0.149  1.00  0.00     0.088 A 
HETATM   10  C9  UNL     1       0.642   0.408  -0.116  1.00  0.00     0.107 A 
HETATM   11  O2  UNL     1      -0.265   1.489  -0.234  1.00  0.00    -0.307 OA
HETATM   12  C10 UNL     1      -1.452   0.790  -0.018  1.00  0.00     0.102 A 
HETATM   13  C11 UNL     1      -1.238  -0.553   0.202  1.00  0.00     0.032 A 
HETATM   14  C12 UNL     1      -2.383  -1.347   0.431  1.00  0.00     0.029 A 
HETATM   15  C13 UNL     1      -3.735  -0.893   0.455  1.00  0.00     0.119 A 
HETATM   16  C14 UNL     1      -3.941   0.485   0.228  1.00  0.00     0.121 A 
HETATM   17  C15 UNL     1      -2.776   1.270   0.000  1.00  0.00     0.051 A 
HETATM   18  O3  UNL     1      -5.246   0.747   0.281  1.00  0.00    -0.299 OA
HETATM   19  C16 UNL     1      -5.959  -0.485   0.550  1.00  0.00     0.304 A 
HETATM   20  O4  UNL     1      -4.914  -1.483   0.649  1.00  0.00    -0.300 OA
HETATM   21  O5  UNL     1       0.378  -3.125   0.529  1.00  0.00    -0.259 OA
HETATM   22  O6  UNL     1       6.269   0.563  -0.608  1.00  0.00    -0.190 OA
ENDROOT
TORSDOF 0
