REMARK  1 active torsions:
REMARK  status: ('A' for Active; 'I' for Inactive)
REMARK    1  A    between atoms: C14_17  and  O4_19 
ROOT
HETATM    1  C1  UNL     1       0.437  -4.518   1.041  1.00  0.00     0.027 A 
HETATM    2  C2  UNL     1      -0.256  -3.286   1.058  1.00  0.00     0.002 A 
HETATM    3  C3  UNL     1       0.463  -2.065   1.073  1.00  0.00     0.028 A 
HETATM    4  C4  UNL     1       1.884  -2.083   1.034  1.00  0.00     0.094 A 
HETATM    5  C5  UNL     1       2.572  -3.319   1.040  1.00  0.00     0.051 A 
HETATM    6  C6  UNL     1       1.851  -4.535   1.043  1.00  0.00     0.133 A 
HETATM    7  O1  UNL     1       2.507  -5.704   1.043  1.00  0.00    -0.190 OA
HETATM    8  O2  UNL     1       2.593  -0.938   0.996  1.00  0.00    -0.331 OA
HETATM    9  C7  UNL     1       1.994   0.253   0.481  1.00  0.00     0.156 C 
HETATM   10  C8  UNL     1       0.624   0.514   1.127  1.00  0.00     0.086 C 
HETATM   11  C9  UNL     1      -0.267  -0.775   1.153  1.00  0.00     0.152 C 
HETATM   12  O3  UNL     1      -1.222  -0.618   0.089  1.00  0.00    -0.329 OA
HETATM   13  C10 UNL     1      -1.242   0.647  -0.329  1.00  0.00     0.092 A 
HETATM   14  C11 UNL     1      -0.216   1.413   0.248  1.00  0.00     0.005 A 
HETATM   15  C12 UNL     1      -0.100   2.795  -0.049  1.00  0.00    -0.000 A 
HETATM   16  C13 UNL     1      -0.993   3.421  -0.943  1.00  0.00     0.024 A 
HETATM   17  C14 UNL     1      -2.010   2.657  -1.550  1.00  0.00     0.096 A 
HETATM   18  C15 UNL     1      -2.125   1.284  -1.242  1.00  0.00     0.048 A 
ENDROOT
BRANCH  17  19
HETATM   19  O4  UNL     1      -2.862   3.230  -2.411  1.00  0.00    -0.328 OA
HETATM   20  C16 UNL     1      -2.721   4.620  -2.663  1.00  0.00     0.181 C 
ENDBRANCH  17  19
TORSDOF 1
