REMARK  7 active torsions:
REMARK  status: ('A' for Active; 'I' for Inactive)
REMARK    1  A    between atoms: C4_4  and  C7_7 
REMARK    2  A    between atoms: C7_7  and  O1_8 
REMARK    3  A    between atoms: O1_8  and  C8_9 
REMARK    4  A    between atoms: C8_9  and  C9_10 
REMARK    5  A    between atoms: C14_15  and  O3_19 
REMARK    6  A    between atoms: O3_19  and  C17_20 
REMARK    7  A    between atoms: C18_22  and  C22_29 
ROOT
HETATM    1  C9  UNL     1      -0.742   1.483  -0.563  1.00  0.00    -0.011 C 
HETATM    2  C10 UNL     1      -1.338   2.375   0.234  1.00  0.00     0.001 C 
HETATM    3  C11 UNL     1      -0.414   3.531   0.492  1.00  0.00     0.178 C 
HETATM    4  C12 UNL     1       0.643   3.420  -0.629  1.00  0.00     0.067 C 
HETATM    5  C13 UNL     1       0.654   1.908  -0.938  1.00  0.00     0.084 C 
HETATM    6  C14 UNL     1       1.732   1.231  -0.074  1.00  0.00     0.246 C 
HETATM    7  O2  UNL     1       3.014   1.846  -0.254  1.00  0.00    -0.304 OA
HETATM    8  C15 UNL     1       3.070   3.184  -0.146  1.00  0.00     0.115 C 
HETATM    9  C16 UNL     1       2.000   3.990  -0.281  1.00  0.00     0.003 C 
HETATM   10  O9  UNL     1      -1.102   4.764   0.420  1.00  0.00    -0.218 OA
ENDROOT
BRANCH   6  11
HETATM   11  O3  UNL     1       1.832  -0.137  -0.412  1.00  0.00    -0.304 OA
BRANCH  11  12
HETATM   12  C17 UNL     1       2.736  -0.850   0.408  1.00  0.00     0.272 C 
HETATM   13  O4  UNL     1       2.182  -0.947   1.713  1.00  0.00    -0.326 OA
HETATM   14  C18 UNL     1       3.006  -1.600   2.670  1.00  0.00     0.184 C 
HETATM   15  C19 UNL     1       3.254  -3.057   2.223  1.00  0.00     0.215 C 
HETATM   16  C20 UNL     1       3.848  -3.113   0.797  1.00  0.00     0.220 C 
HETATM   17  O7  UNL     1       4.145  -3.668   3.139  1.00  0.00    -0.218 OA
HETATM   18  C21 UNL     1       2.986  -2.268  -0.168  1.00  0.00     0.241 C 
HETATM   19  O6  UNL     1       3.893  -4.459   0.348  1.00  0.00    -0.218 OA
HETATM   20  O5  UNL     1       3.650  -2.158  -1.416  1.00  0.00    -0.215 OA
BRANCH  14  21
HETATM   21  C22 UNL     1       2.279  -1.502   4.016  1.00  0.00     0.214 C 
HETATM   22  O8  UNL     1       2.252  -0.148   4.404  1.00  0.00    -0.218 OA
ENDBRANCH  14  21
ENDBRANCH  11  12
ENDBRANCH   6  11
BRANCH   1  23
HETATM   23  C8  UNL     1      -1.373   0.203  -1.045  1.00  0.00     0.174 C 
BRANCH  23  24
HETATM   24  O1  UNL     1      -2.723   0.449  -1.408  1.00  0.00    -0.294 OA
BRANCH  24  25
HETATM   25  C7  UNL     1      -3.338  -0.646  -1.846  1.00  0.00     0.296 C 
HETATM   26  O10 UNL     1      -2.809  -1.728  -1.924  1.00  0.00    -0.259 OA
BRANCH  25  27
HETATM   27  C4  UNL     1      -4.764  -0.459  -2.246  1.00  0.00     0.063 A 
HETATM   28  C3  UNL     1      -5.512  -1.551  -2.723  1.00  0.00     0.005 A 
HETATM   29  C2  UNL     1      -6.856  -1.373  -3.100  1.00  0.00     0.000 A 
HETATM   30  C1  UNL     1      -7.451  -0.105  -3.002  1.00  0.00     0.000 A 
HETATM   31  C6  UNL     1      -6.705   0.986  -2.525  1.00  0.00     0.000 A 
HETATM   32  C5  UNL     1      -5.363   0.811  -2.148  1.00  0.00     0.005 A 
ENDBRANCH  25  27
ENDBRANCH  24  25
ENDBRANCH  23  24
ENDBRANCH   1  23
TORSDOF 7
