REMARK  0 active torsions:
REMARK  status: ('A' for Active; 'I' for Inactive)
ROOT
HETATM    1  C1  UNL     1      -3.578   1.416  -0.064  1.00  0.00     0.232 A 
HETATM    2  C2  UNL     1      -2.197   1.975  -0.183  1.00  0.00     0.234 A 
HETATM    3  C3  UNL     1      -1.059   1.031  -0.099  1.00  0.00     0.045 A 
HETATM    4  C4  UNL     1      -1.348  -0.272   0.082  1.00  0.00     0.022 A 
HETATM    5  C5  UNL     1      -2.664  -0.832   0.199  1.00  0.00     0.081 A 
HETATM    6  C6  UNL     1      -3.762  -0.051   0.131  1.00  0.00     0.038 A 
HETATM    7  C7  UNL     1      -5.145  -0.643   0.252  1.00  0.00     0.036 C 
HETATM    8  N1  UNL     1      -2.465  -2.225   0.373  1.00  0.00    -0.244 NA
HETATM    9  C8  UNL     1      -1.059  -2.498   0.365  1.00  0.00     0.099 A 
HETATM   10  C9  UNL     1      -0.383  -1.346   0.194  1.00  0.00     0.024 A 
HETATM   11  C10 UNL     1       1.064  -1.031   0.110  1.00  0.00     0.045 A 
HETATM   12  C11 UNL     1       2.203  -1.975   0.205  1.00  0.00     0.234 A 
HETATM   13  C12 UNL     1       3.584  -1.418   0.076  1.00  0.00     0.232 A 
HETATM   14  C13 UNL     1       3.767   0.049  -0.137  1.00  0.00     0.038 A 
HETATM   15  C14 UNL     1       2.670   0.830  -0.203  1.00  0.00     0.081 A 
HETATM   16  C15 UNL     1       1.353   0.269  -0.080  1.00  0.00     0.022 A 
HETATM   17  C16 UNL     1       0.389   1.342  -0.191  1.00  0.00     0.024 A 
HETATM   18  C17 UNL     1       1.064   2.494  -0.373  1.00  0.00     0.099 A 
HETATM   19  N2  UNL     1       2.469   2.221  -0.387  1.00  0.00    -0.244 NA
HETATM   20  C18 UNL     1       5.148   0.637  -0.271  1.00  0.00     0.036 C 
HETATM   21  O1  UNL     1       4.543  -2.150   0.143  1.00  0.00    -0.283 OA
HETATM   22  O2  UNL     1       2.025  -3.156   0.385  1.00  0.00    -0.283 OA
HETATM   23  O3  UNL     1      -2.018   3.158  -0.346  1.00  0.00    -0.283 OA
HETATM   24  O4  UNL     1      -4.537   2.150  -0.127  1.00  0.00    -0.283 OA
ENDROOT
TORSDOF 0
