REMARK  3 active torsions:
REMARK  status: ('A' for Active; 'I' for Inactive)
REMARK    1  A    between atoms: C10_10  and  O1_11 
REMARK    2  A    between atoms: O1_11  and  C11_12 
REMARK    3  A    between atoms: C17_20  and  C20_23 
ROOT
HETATM    1  C1  UNL     1      -3.450   1.262  -0.451  1.00  0.00     0.065 C 
HETATM    2  C2  UNL     1      -3.722   0.191  -1.481  1.00  0.00     0.150 C 
HETATM    3  C3  UNL     1      -2.760  -1.004  -1.572  1.00  0.00     0.054 C 
HETATM    4  C4  UNL     1      -2.237  -1.462  -0.161  1.00  0.00     0.037 C 
HETATM    5  C5  UNL     1      -2.116  -0.394   0.977  1.00  0.00     0.004 C 
HETATM    6  C6  UNL     1      -3.307   0.591   0.910  1.00  0.00     0.008 C 
HETATM    7  C7  UNL     1      -0.749   0.332   0.853  1.00  0.00     0.006 C 
HETATM    8  C8  UNL     1       0.456  -0.614   0.985  1.00  0.00     0.051 C 
HETATM    9  C9  UNL     1       0.364  -1.788   0.010  1.00  0.00     0.183 C 
HETATM   10  C10 UNL     1      -1.023  -2.425  -0.100  1.00  0.00     0.155 C 
HETATM   11  O3  UNL     1       0.820  -1.354  -1.247  1.00  0.00    -0.221 OA
HETATM   12  C13 UNL     1       1.764   0.120   0.812  1.00  0.00    -0.046 C 
HETATM   13  C14 UNL     1       1.838   1.629   0.859  1.00  0.00     0.019 C 
HETATM   14  C15 UNL     1       0.860   2.079   1.952  1.00  0.00     0.004 C 
HETATM   15  C16 UNL     1      -0.588   1.611   1.707  1.00  0.00     0.001 C 
HETATM   16  C17 UNL     1       3.332   1.823   1.241  1.00  0.00     0.032 C 
HETATM   17  C18 UNL     1       4.069   0.602   0.649  1.00  0.00     0.030 C 
HETATM   18  C19 UNL     1       2.979  -0.432   0.701  1.00  0.00    -0.034 C 
HETATM   19  C24 UNL     1       1.556   2.283  -0.507  1.00  0.00     0.004 C 
HETATM   20  C25 UNL     1      -2.251  -1.068   2.373  1.00  0.00     0.000 C 
HETATM   21  C26 UNL     1      -3.577  -2.135  -2.260  1.00  0.00     0.007 C 
HETATM   22  C27 UNL     1      -1.693  -0.559  -2.594  1.00  0.00     0.007 C 
HETATM   23  O5  UNL     1      -4.654   0.336  -2.241  1.00  0.00    -0.296 OA
ENDROOT
BRANCH  16  24
HETATM   24  C20 UNL     1       3.918   3.159   0.886  1.00  0.00     0.005 A 
HETATM   25  C21 UNL     1       3.817   4.303   1.620  1.00  0.00     0.118 A 
HETATM   26  O4  UNL     1       4.438   5.344   0.997  1.00  0.00    -0.303 OA
HETATM   27  C22 UNL     1       4.939   4.844  -0.168  1.00  0.00     0.122 A 
HETATM   28  C23 UNL     1       4.655   3.518  -0.289  1.00  0.00     0.025 A 
ENDBRANCH  16  24
BRANCH  10  29
HETATM   29  O1  UNL     1      -1.080  -3.357  -1.139  1.00  0.00    -0.302 OA
BRANCH  29  30
HETATM   30  C11 UNL     1      -0.349  -4.500  -1.056  1.00  0.00     0.272 C 
HETATM   31  C12 UNL     1      -0.493  -5.297  -2.337  1.00  0.00     0.106 C 
HETATM   32  O2  UNL     1       0.322  -4.839  -0.107  1.00  0.00    -0.264 OA
ENDBRANCH  29  30
ENDBRANCH  10  29
TORSDOF 3
