REMARK  7 active torsions:
REMARK  status: ('A' for Active; 'I' for Inactive)
REMARK    1  A    between atoms: C4_4  and  C19_25 
REMARK    2  A    between atoms: C5_5  and  C9_9 
REMARK    3  A    between atoms: C9_9  and  C10_10 
REMARK    4  A    between atoms: C10_10  and  C11_11 
REMARK    5  A    between atoms: C11_11  and  O1_12 
REMARK    6  A    between atoms: O1_12  and  C12_13 
REMARK    7  A    between atoms: C13_15  and  C17_22 
ROOT
HETATM    1  C10 UNL     1       0.401   1.649   0.069  1.00  0.00     0.030 C 
HETATM    2  C18 UNL     1      -0.988   2.312   0.074  1.00  0.00     0.003 C 
ENDROOT
BRANCH   1   3
HETATM    3  C9  UNL     1       0.898   1.321   1.498  1.00  0.00     0.003 C 
BRANCH   3   4
HETATM    4  C5  UNL     1      -0.001   0.370   2.341  1.00  0.00     0.003 C 
HETATM    5  C4  UNL     1      -0.823   1.214   3.358  1.00  0.00     0.036 C 
HETATM    6  C3  UNL     1       0.002   1.565   4.609  1.00  0.00     0.036 C 
HETATM    7  C2  UNL     1       0.656   0.339   5.236  1.00  0.00     0.152 C 
HETATM    8  C1  UNL     1       1.524  -0.399   4.221  1.00  0.00     0.033 C 
HETATM    9  O8  UNL     1       1.459   0.749   6.319  1.00  0.00    -0.224 OA
HETATM   10  C6  UNL     1       0.744  -0.851   2.969  1.00  0.00     0.003 C 
HETATM   11  C7  UNL     1      -0.242  -1.989   3.333  1.00  0.00     0.000 C 
HETATM   12  C8  UNL     1       1.736  -1.528   1.986  1.00  0.00     0.000 C 
BRANCH   5  13
HETATM   13  C19 UNL     1      -2.210   0.662   3.708  1.00  0.00     0.182 C 
HETATM   14  O7  UNL     1      -3.024   1.693   4.236  1.00  0.00    -0.221 OA
ENDBRANCH   5  13
ENDBRANCH   3   4
ENDBRANCH   1   3
BRANCH   1  15
HETATM   15  C11 UNL     1       0.456   0.424  -0.856  1.00  0.00     0.145 C 
BRANCH  15  16
HETATM   16  O1  UNL     1      -0.050   0.769  -2.119  1.00  0.00    -0.329 OA
BRANCH  16  17
HETATM   17  C12 UNL     1      -0.090  -0.311  -3.029  1.00  0.00     0.270 C 
HETATM   18  O2  UNL     1       1.036  -0.158  -3.867  1.00  0.00    -0.326 OA
HETATM   19  C13 UNL     1       1.097  -1.141  -4.872  1.00  0.00     0.184 C 
HETATM   20  C14 UNL     1      -0.153  -1.079  -5.744  1.00  0.00     0.215 C 
HETATM   21  C15 UNL     1      -1.394  -1.243  -4.893  1.00  0.00     0.220 C 
HETATM   22  O5  UNL     1      -0.158  -2.107  -6.704  1.00  0.00    -0.218 OA
HETATM   23  C16 UNL     1      -1.365  -0.175  -3.827  1.00  0.00     0.241 C 
HETATM   24  O4  UNL     1      -2.540  -1.086  -5.689  1.00  0.00    -0.218 OA
HETATM   25  O3  UNL     1      -2.467  -0.345  -2.972  1.00  0.00    -0.215 OA
BRANCH  19  26
HETATM   26  C17 UNL     1       2.355  -0.914  -5.699  1.00  0.00     0.214 C 
HETATM   27  O6  UNL     1       3.503  -1.129  -4.902  1.00  0.00    -0.218 OA
ENDBRANCH  19  26
ENDBRANCH  16  17
ENDBRANCH  15  16
ENDBRANCH   1  15
TORSDOF 7
