REMARK  3 active torsions:
REMARK  status: ('A' for Active; 'I' for Inactive)
REMARK    1  A    between atoms: C15_15  and  C18_18 
REMARK    2  A    between atoms: C20_21  and  C22_23 
REMARK    3  A    between atoms: C22_23  and  C23_25 
ROOT
HETATM    1  C1  UNL     1      -5.440  -2.510   1.757  1.00  0.00     0.033 C 
HETATM    2  C2  UNL     1      -5.248  -3.847   2.451  1.00  0.00     0.152 C 
HETATM    3  C3  UNL     1      -4.137  -4.650   1.768  1.00  0.00     0.031 C 
HETATM    4  C4  UNL     1      -3.004  -3.743   1.206  1.00  0.00     0.007 C 
HETATM    5  C5  UNL     1      -2.832  -2.356   1.886  1.00  0.00     0.004 C 
HETATM    6  C6  UNL     1      -4.201  -1.621   1.944  1.00  0.00     0.003 C 
HETATM    7  C7  UNL     1      -1.838  -1.516   1.021  1.00  0.00     0.018 C 
HETATM    8  C8  UNL     1      -0.546  -2.257   0.725  1.00  0.00    -0.049 C 
HETATM    9  C9  UNL     1      -0.501  -3.598   0.714  1.00  0.00    -0.035 C 
HETATM   10  C10 UNL     1      -1.667  -4.485   1.044  1.00  0.00     0.025 C 
HETATM   11  C11 UNL     1       0.710  -1.428   0.518  1.00  0.00     0.015 C 
HETATM   12  C12 UNL     1       0.363  -0.108  -0.220  1.00  0.00     0.003 C 
HETATM   13  C13 UNL     1      -0.565   0.736   0.677  1.00  0.00     0.001 C 
HETATM   14  C14 UNL     1      -1.582  -0.076   1.511  1.00  0.00     0.004 C 
HETATM   15  C15 UNL     1       1.774   0.482  -0.484  1.00  0.00     0.005 C 
HETATM   16  C16 UNL     1       2.616  -0.767  -0.847  1.00  0.00     0.001 C 
HETATM   17  C17 UNL     1       1.811  -2.005  -0.395  1.00  0.00     0.004 C 
HETATM   18  C26 UNL     1      -0.316  -0.341  -1.598  1.00  0.00     0.000 C 
HETATM   19  C27 UNL     1       1.364  -1.282   1.918  1.00  0.00     0.004 C 
HETATM   20  C28 UNL     1      -2.261  -2.528   3.313  1.00  0.00     0.000 C 
HETATM   21  C29 UNL     1      -3.699  -5.809   2.684  1.00  0.00     0.003 C 
HETATM   22  O5  UNL     1      -6.458  -4.568   2.414  1.00  0.00    -0.224 OA
ENDROOT
BRANCH  15  23
HETATM   23  C18 UNL     1       1.912   1.615  -1.515  1.00  0.00     0.062 C 
HETATM   24  C19 UNL     1       1.247   2.926  -1.127  1.00  0.00     0.269 C 
HETATM   25  O1  UNL     1       2.094   3.994  -1.480  1.00  0.00    -0.329 OA
HETATM   26  O4  UNL     1       0.108   3.208  -1.920  1.00  0.00    -0.190 OA
HETATM   27  C20 UNL     1       3.099   3.482  -2.299  1.00  0.00     0.151 C 
HETATM   28  C21 UNL     1       3.357   2.085  -1.740  1.00  0.00     0.038 C 
BRANCH  27  29
HETATM   29  C22 UNL     1       4.319   4.390  -2.316  1.00  0.00     0.207 C 
HETATM   30  O2  UNL     1       5.269   3.815  -3.186  1.00  0.00    -0.218 OA
BRANCH  29  31
HETATM   31  C23 UNL     1       4.103   5.837  -2.769  1.00  0.00     0.157 C 
HETATM   32  O3  UNL     1       5.379   6.338  -3.082  1.00  0.00    -0.223 OA
HETATM   33  C24 UNL     1       3.542   6.725  -1.655  1.00  0.00     0.036 C 
HETATM   34  C25 UNL     1       3.245   5.960  -4.029  1.00  0.00     0.036 C 
ENDBRANCH  29  31
ENDBRANCH  27  29
ENDBRANCH  15  23
TORSDOF 3
