REMARK  2 active torsions:
REMARK  status: ('A' for Active; 'I' for Inactive)
REMARK    1  A    between atoms: C1_1  and  O5_21 
REMARK    2  A    between atoms: C14_17  and  O4_19 
ROOT
HETATM    1  C1  UNL     1      -4.031  -1.523  -0.233  1.00  0.00     0.121 A 
HETATM    2  C2  UNL     1      -3.991  -0.126  -0.333  1.00  0.00     0.026 A 
HETATM    3  C3  UNL     1      -2.812   0.585  -0.536  1.00  0.00     0.002 A 
HETATM    4  C4  UNL     1      -1.605  -0.098  -0.657  1.00  0.00     0.030 A 
HETATM    5  C5  UNL     1      -1.598  -1.499  -0.598  1.00  0.00     0.119 A 
HETATM    6  C6  UNL     1      -2.799  -2.198  -0.370  1.00  0.00     0.175 A 
HETATM    7  O1  UNL     1      -2.706  -3.553  -0.296  1.00  0.00    -0.186 OA
HETATM    8  O2  UNL     1      -0.426  -2.206  -0.676  1.00  0.00    -0.329 OA
HETATM    9  C7  UNL     1       0.714  -1.516  -0.241  1.00  0.00     0.156 C 
HETATM   10  C8  UNL     1       0.901  -0.244  -1.055  1.00  0.00     0.086 C 
HETATM   11  C9  UNL     1      -0.338   0.671  -0.922  1.00  0.00     0.152 C 
HETATM   12  O3  UNL     1      -0.034   1.654   0.071  1.00  0.00    -0.329 OA
HETATM   13  C10 UNL     1       1.339   1.705   0.224  1.00  0.00     0.092 A 
HETATM   14  C11 UNL     1       1.942   0.642  -0.434  1.00  0.00     0.005 A 
HETATM   15  C12 UNL     1       3.325   0.501  -0.406  1.00  0.00    -0.000 A 
HETATM   16  C13 UNL     1       4.075   1.465   0.277  1.00  0.00     0.024 A 
HETATM   17  C14 UNL     1       3.493   2.563   0.941  1.00  0.00     0.096 A 
HETATM   18  C15 UNL     1       2.092   2.660   0.903  1.00  0.00     0.048 A 
ENDROOT
BRANCH   1  19
HETATM   19  O5  UNL     1      -5.280  -2.065  -0.035  1.00  0.00    -0.326 OA
HETATM   20  C17 UNL     1      -5.510  -3.451  -0.052  1.00  0.00     0.181 C 
ENDBRANCH   1  19
BRANCH  17  21
HETATM   21  O4  UNL     1       4.191   3.531   1.620  1.00  0.00    -0.328 OA
HETATM   22  C16 UNL     1       5.595   3.433   1.679  1.00  0.00     0.181 C 
ENDBRANCH  17  21
TORSDOF 2
