REMARK  2 active torsions:
REMARK  status: ('A' for Active; 'I' for Inactive)
REMARK    1  A    between atoms: C2_2  and  O5_21 
REMARK    2  A    between atoms: C14_16  and  O4_19 
ROOT
HETATM    1  C1  UNL     1      -3.560   1.281  -0.062  1.00  0.00     0.175 A 
HETATM    2  C2  UNL     1      -4.418   0.168  -0.031  1.00  0.00     0.121 A 
HETATM    3  C3  UNL     1      -3.858  -1.080  -0.337  1.00  0.00     0.026 A 
HETATM    4  C4  UNL     1      -2.508  -1.213  -0.655  1.00  0.00     0.002 A 
HETATM    5  C5  UNL     1      -1.672  -0.097  -0.677  1.00  0.00     0.030 A 
HETATM    6  C6  UNL     1      -2.202   1.170  -0.403  1.00  0.00     0.119 A 
HETATM    7  O1  UNL     1      -1.414   2.290  -0.368  1.00  0.00    -0.329 OA
HETATM    8  C7  UNL     1      -0.072   2.056  -0.037  1.00  0.00     0.156 C 
HETATM    9  C8  UNL     1       0.556   1.081  -1.024  1.00  0.00     0.086 C 
HETATM   10  C9  UNL     1      -0.222  -0.256  -1.047  1.00  0.00     0.152 C 
HETATM   11  O2  UNL     1       0.482  -1.169  -0.203  1.00  0.00    -0.327 OA
HETATM   12  C10 UNL     1       1.778  -0.708  -0.048  1.00  0.00     0.118 A 
HETATM   13  C11 UNL     1       1.889   0.588  -0.533  1.00  0.00     0.007 A 
HETATM   14  C12 UNL     1       3.112   1.244  -0.485  1.00  0.00    -0.000 A 
HETATM   15  C13 UNL     1       4.207   0.552   0.043  1.00  0.00     0.026 A 
HETATM   16  C14 UNL     1       4.115  -0.766   0.530  1.00  0.00     0.121 A 
HETATM   17  C15 UNL     1       2.863  -1.407   0.484  1.00  0.00     0.175 A 
HETATM   18  O3  UNL     1       2.735  -2.679   0.943  1.00  0.00    -0.186 OA
HETATM   19  O6  UNL     1      -4.044   2.517   0.240  1.00  0.00    -0.186 OA
ENDROOT
BRANCH   2  20
HETATM   20  O5  UNL     1      -5.735   0.371   0.302  1.00  0.00    -0.326 OA
HETATM   21  C17 UNL     1      -6.601  -0.740   0.348  1.00  0.00     0.181 C 
ENDBRANCH   2  20
BRANCH  16  22
HETATM   22  O4  UNL     1       5.161  -1.488   1.051  1.00  0.00    -0.326 OA
HETATM   23  C16 UNL     1       6.434  -0.891   1.114  1.00  0.00     0.181 C 
ENDBRANCH  16  22
TORSDOF 2
