REMARK  4 active torsions:
REMARK  status: ('A' for Active; 'I' for Inactive)
REMARK    1  A    between atoms: C5_5  and  C7_7 
REMARK    2  A    between atoms: C7_7  and  C8_8 
REMARK    3  A    between atoms: C8_8  and  O1_9 
REMARK    4  A    between atoms: O1_9  and  C9_10 
ROOT
HETATM    1  C1  UNL     1      -0.223   2.911  -0.545  1.00  0.00     0.022 C 
HETATM    2  C2  UNL     1       1.272   3.076  -0.675  1.00  0.00    -0.048 C 
HETATM    3  C3  UNL     1       2.105   2.022  -0.673  1.00  0.00    -0.034 C 
HETATM    4  C4  UNL     1       1.652   0.589  -0.570  1.00  0.00     0.029 C 
HETATM    5  C5  UNL     1       0.196   0.466  -0.095  1.00  0.00     0.025 C 
HETATM    6  C6  UNL     1      -0.682   1.478  -0.847  1.00  0.00     0.009 C 
HETATM    7  C12 UNL     1       1.777   4.494  -0.774  1.00  0.00     0.026 C 
ENDROOT
BRANCH   5   8
HETATM    8  C7  UNL     1      -0.316  -0.957  -0.230  1.00  0.00    -0.014 C 
HETATM    9  C11 UNL     1      -0.472  -1.537  -1.432  1.00  0.00    -0.007 C 
BRANCH   8  10
HETATM   10  C8  UNL     1      -0.632  -1.676   1.065  1.00  0.00     0.174 C 
BRANCH  10  11
HETATM   11  O1  UNL     1      -1.097  -2.995   0.860  1.00  0.00    -0.297 OA
BRANCH  11  12
HETATM   12  C9  UNL     1      -1.429  -3.706   1.971  1.00  0.00     0.273 C 
HETATM   13  C10 UNL     1      -1.911  -5.096   1.603  1.00  0.00     0.106 C 
HETATM   14  O2  UNL     1      -1.353  -3.290   3.105  1.00  0.00    -0.264 OA
ENDBRANCH  11  12
ENDBRANCH  10  11
ENDBRANCH   8  10
ENDBRANCH   5   8
TORSDOF 4
