REMARK  1 active torsions:
REMARK  status: ('A' for Active; 'I' for Inactive)
REMARK    1  A    between atoms: C4_4  and  C7_7 
ROOT
HETATM    1  C1  UNL     1       2.310   0.472  -0.255  1.00  0.00    -0.048 C 
HETATM    2  C2  UNL     1       1.855  -0.936   0.022  1.00  0.00     0.022 C 
HETATM    3  C3  UNL     1       0.461  -0.988   0.662  1.00  0.00     0.004 C 
HETATM    4  C4  UNL     1      -0.547  -0.108  -0.098  1.00  0.00     0.004 C 
HETATM    5  C5  UNL     1      -0.041   1.348  -0.061  1.00  0.00     0.025 C 
HETATM    6  C6  UNL     1       1.440   1.492  -0.291  1.00  0.00    -0.034 C 
HETATM    7  C10 UNL     1       3.775   0.691  -0.539  1.00  0.00     0.026 C 
ENDROOT
BRANCH   4   8
HETATM    8  C7  UNL     1      -1.990  -0.228   0.458  1.00  0.00     0.000 C 
HETATM    9  C8  UNL     1      -2.537  -1.667   0.388  1.00  0.00     0.000 C 
HETATM   10  C9  UNL     1      -2.973   0.702  -0.278  1.00  0.00     0.000 C 
ENDBRANCH   4   8
TORSDOF 1
