REMARK  1 active torsions:
REMARK  status: ('A' for Active; 'I' for Inactive)
REMARK    1  A    between atoms: C1_1  and  C8_8 
ROOT
HETATM    1  C1  UNL     1       0.447   0.072   0.243  1.00  0.00     0.001 C 
HETATM    2  C2  UNL     1      -0.798   0.977   0.380  1.00  0.00     0.004 C 
HETATM    3  C3  UNL     1      -1.243   1.586  -0.957  1.00  0.00     0.022 C 
HETATM    4  C4  UNL     1      -1.462   0.487  -1.963  1.00  0.00    -0.044 C 
HETATM    5  C5  UNL     1      -0.256  -0.388  -2.182  1.00  0.00     0.022 C 
HETATM    6  C6  UNL     1       0.187  -0.995  -0.843  1.00  0.00     0.004 C 
HETATM    7  C7  UNL     1      -2.628   0.298  -2.598  1.00  0.00    -0.009 C 
ENDROOT
BRANCH   1   8
HETATM    8  C8  UNL     1       0.854  -0.565   1.599  1.00  0.00     0.000 C 
HETATM    9  C9  UNL     1       2.099  -1.466   1.482  1.00  0.00     0.000 C 
HETATM   10  C10 UNL     1       1.124   0.487   2.693  1.00  0.00     0.000 C 
ENDBRANCH   1   8
TORSDOF 1
