REMARK  11 active torsions:
REMARK  status: ('A' for Active; 'I' for Inactive)
REMARK    1  A    between atoms: C1_1  and  C28_39 
REMARK    2  A    between atoms: C5_5  and  O2_7 
REMARK    3  A    between atoms: O2_7  and  C6_8 
REMARK    4  A    between atoms: C7_9  and  C25_33 
REMARK    5  A    between atoms: C12_16  and  O5_18 
REMARK    6  A    between atoms: O5_18  and  C14_19 
REMARK    7  A    between atoms: C14_19  and  C15_20 
REMARK    8  A    between atoms: C16_21  and  C17_22 
REMARK    9  A    between atoms: C17_22  and  C18_23 
REMARK   10  A    between atoms: C18_23  and  C19_24 
REMARK   11  A    between atoms: C19_24  and  C20_25 
ROOT
HETATM    1  C6  UNL     1       1.245   0.897   3.526  1.00  0.00     0.245 C 
HETATM    2  C7  UNL     1       1.396   1.024   2.000  1.00  0.00     0.075 C 
HETATM    3  C8  UNL     1       0.020   0.847   1.287  1.00  0.00     0.039 C 
HETATM    4  C9  UNL     1      -0.981   1.713   2.007  1.00  0.00     0.065 C 
HETATM    5  C10 UNL     1      -0.814   2.078   3.298  1.00  0.00     0.120 C 
HETATM    6  O3  UNL     1       0.257   1.742   4.075  1.00  0.00    -0.303 OA
HETATM    7  C11 UNL     1      -2.161   2.193   1.238  1.00  0.00     0.296 C 
HETATM    8  O4  UNL     1      -2.327   1.990  -0.103  1.00  0.00    -0.272 OA
HETATM    9  C12 UNL     1      -1.333   1.300  -0.829  1.00  0.00     0.250 C 
HETATM   10  C13 UNL     1       0.036   1.365  -0.168  1.00  0.00     0.067 C 
HETATM   11  O8  UNL     1      -3.041   2.802   1.846  1.00  0.00    -0.259 OA
HETATM   12  C24 UNL     1      -0.517  -0.605   1.293  1.00  0.00     0.005 C 
HETATM   13  C27 UNL     1       2.427  -0.028   1.527  1.00  0.00     0.010 C 
ENDROOT
BRANCH   9  14
HETATM   14  O5  UNL     1      -1.321   1.935  -2.094  1.00  0.00    -0.272 OA
BRANCH  14  15
HETATM   15  C14 UNL     1      -0.934   1.179  -3.169  1.00  0.00     0.293 C 
HETATM   16  O7  UNL     1      -0.450   0.065  -2.984  1.00  0.00    -0.259 OA
BRANCH  15  17
HETATM   17  C15 UNL     1      -1.193   1.632  -4.565  1.00  0.00     0.037 C 
HETATM   18  C16 UNL     1      -0.856   0.814  -5.589  1.00  0.00    -0.025 C 
HETATM   19  C23 UNL     1      -1.821   2.996  -4.720  1.00  0.00     0.036 C 
BRANCH  18  20
HETATM   20  C17 UNL     1      -1.033   1.054  -7.067  1.00  0.00     0.029 C 
BRANCH  20  21
HETATM   21  C18 UNL     1      -1.790  -0.077  -7.788  1.00  0.00     0.039 C 
BRANCH  21  22
HETATM   22  C19 UNL     1      -3.279  -0.263  -7.451  1.00  0.00     0.146 C 
HETATM   23  O6  UNL     1      -3.817  -1.129  -8.434  1.00  0.00    -0.222 OA
HETATM   24  C22 UNL     1      -4.051   1.057  -7.536  1.00  0.00     0.038 C 
BRANCH  22  25
HETATM   25  C20 UNL     1      -3.511  -0.925  -6.110  1.00  0.00     0.003 C 
HETATM   26  C21 UNL     1      -4.718  -1.315  -5.674  1.00  0.00    -0.002 C 
ENDBRANCH  22  25
ENDBRANCH  21  22
ENDBRANCH  20  21
ENDBRANCH  18  20
ENDBRANCH  15  17
ENDBRANCH  14  15
ENDBRANCH   9  14
BRANCH   2  27
HETATM   27  C25 UNL     1       1.932   2.434   1.749  1.00  0.00    -0.022 C 
HETATM   28  C26 UNL     1       2.940   2.785   0.936  1.00  0.00    -0.005 C 
ENDBRANCH   2  27
BRANCH   1  29
HETATM   29  O2  UNL     1       0.853  -0.405   3.904  1.00  0.00    -0.304 OA
BRANCH  29  30
HETATM   30  C5  UNL     1       1.494  -0.933   5.042  1.00  0.00     0.272 C 
HETATM   31  C4  UNL     1       0.771  -2.217   5.383  1.00  0.00     0.241 C 
HETATM   32  C3  UNL     1       1.532  -2.977   6.444  1.00  0.00     0.220 C 
HETATM   33  O9  UNL     1      -0.516  -1.918   5.859  1.00  0.00    -0.215 OA
HETATM   34  C2  UNL     1       2.949  -3.189   5.953  1.00  0.00     0.215 C 
HETATM   35  O10 UNL     1       0.923  -4.224   6.662  1.00  0.00    -0.218 OA
HETATM   36  C1  UNL     1       3.579  -1.846   5.606  1.00  0.00     0.184 C 
HETATM   37  O11 UNL     1       3.667  -3.841   6.971  1.00  0.00    -0.218 OA
HETATM   38  O1  UNL     1       2.810  -1.215   4.618  1.00  0.00    -0.326 OA
BRANCH  36  39
HETATM   39  C28 UNL     1       4.996  -2.007   5.074  1.00  0.00     0.214 C 
HETATM   40  O12 UNL     1       5.566  -0.732   4.852  1.00  0.00    -0.218 OA
ENDBRANCH  36  39
ENDBRANCH  29  30
ENDBRANCH   1  29
TORSDOF 11
