REMARK  3 active torsions:
REMARK  status: ('A' for Active; 'I' for Inactive)
REMARK    1  A    between atoms: C3_3  and  C9_11 
REMARK    2  A    between atoms: C5_5  and  O2_9 
REMARK    3  A    between atoms: C6_6  and  O1_7 
ROOT
HETATM    1  C9  UNL     1       0.393  -0.001   1.242  1.00  0.00     0.051 C 
HETATM    2  C10 UNL     1      -1.054   0.542   1.377  1.00  0.00     0.009 C 
HETATM    3  C11 UNL     1      -2.057  -0.107   0.410  1.00  0.00     0.033 C 
HETATM    4  C12 UNL     1      -2.070  -1.620   0.600  1.00  0.00     0.154 C 
HETATM    5  C13 UNL     1      -0.670  -2.184   0.388  1.00  0.00     0.067 C 
HETATM    6  C14 UNL     1       0.349  -1.548   1.345  1.00  0.00     0.226 C 
HETATM    7  N1  UNL     1       0.065  -1.757   2.756  1.00  0.00     0.138 N 
HETATM    8  C15 UNL     1       0.986  -0.875   3.453  1.00  0.00     0.251 C 
HETATM    9  C16 UNL     1       1.154   0.360   2.545  1.00  0.00     0.041 C 
HETATM   10  C17 UNL     1       0.144  -3.131   3.210  1.00  0.00     0.285 C 
HETATM   11  O3  UNL     1      -2.957  -2.203  -0.325  1.00  0.00    -0.223 OA
ENDROOT
BRANCH   1  12
HETATM   12  C3  UNL     1       1.154   0.492   0.010  1.00  0.00    -0.019 A 
HETATM   13  C2  UNL     1       2.455   0.057  -0.256  1.00  0.00    -0.002 A 
HETATM   14  C1  UNL     1       3.168   0.534  -1.354  1.00  0.00     0.026 A 
HETATM   15  C6  UNL     1       2.646   1.459  -2.272  1.00  0.00     0.116 A 
HETATM   16  C5  UNL     1       1.334   1.925  -2.026  1.00  0.00     0.116 A 
HETATM   17  C4  UNL     1       0.655   1.430  -0.900  1.00  0.00     0.022 A 
BRANCH  15  18
HETATM   18  O1  UNL     1       3.376   1.941  -3.329  1.00  0.00    -0.326 OA
HETATM   19  C7  UNL     1       4.746   1.629  -3.429  1.00  0.00     0.181 C 
ENDBRANCH  15  18
BRANCH  16  20
HETATM   20  O2  UNL     1       0.628   2.833  -2.784  1.00  0.00    -0.326 OA
HETATM   21  C8  UNL     1       1.175   3.396  -3.950  1.00  0.00     0.181 C 
ENDBRANCH  16  20
ENDBRANCH   1  12
TORSDOF 3
