REMARK  14 active torsions:
REMARK  status: ('A' for Active; 'I' for Inactive)
REMARK    1  A    between atoms: C1_1  and  O6_32 
REMARK    2  A    between atoms: C5_5  and  C7_7 
REMARK    3  A    between atoms: C7_7  and  C8_8 
REMARK    4  A    between atoms: C8_8  and  C9_9 
REMARK    5  A    between atoms: C9_9  and  C10_10 
REMARK    6  A    between atoms: C9_9  and  O4_27 
REMARK    7  A    between atoms: C10_10  and  C11_11 
REMARK    8  A    between atoms: C11_11  and  C12_12 
REMARK    9  A    between atoms: C11_11  and  O3_23 
REMARK   10  A    between atoms: C12_12  and  C13_13 
REMARK   11  A    between atoms: C13_13  and  C14_14 
REMARK   12  A    between atoms: C18_18  and  O1_20 
REMARK   13  A    between atoms: O3_23  and  C21_24 
REMARK   14  A    between atoms: O4_27  and  C24_28 
ROOT
HETATM    1  C10 UNL     1      -0.443  -1.240   0.641  1.00  0.00     0.060 C 
ENDROOT
BRANCH   1   2
HETATM    2  C9  UNL     1       0.390  -0.820  -0.584  1.00  0.00     0.124 C 
BRANCH   2   3
HETATM    3  C8  UNL     1       1.911  -0.724  -0.337  1.00  0.00     0.035 C 
BRANCH   3   4
HETATM    4  C7  UNL     1       2.575  -2.032   0.128  1.00  0.00     0.029 C 
BRANCH   4   5
HETATM    5  C5  UNL     1       4.090  -2.100   0.132  1.00  0.00    -0.020 A 
HETATM    6  C4  UNL     1       4.699  -3.312   0.469  1.00  0.00    -0.002 A 
HETATM    7  C3  UNL     1       6.086  -3.430   0.471  1.00  0.00     0.029 A 
HETATM    8  C2  UNL     1       6.907  -2.350   0.140  1.00  0.00     0.153 A 
HETATM    9  C1  UNL     1       6.330  -1.111  -0.189  1.00  0.00     0.119 A 
HETATM   10  O5  UNL     1       8.258  -2.510   0.149  1.00  0.00    -0.188 OA
HETATM   11  C6  UNL     1       4.927  -1.026  -0.192  1.00  0.00     0.022 A 
BRANCH   9  12
HETATM   12  O6  UNL     1       7.176  -0.083  -0.529  1.00  0.00    -0.326 OA
HETATM   13  C27 UNL     1       6.627   1.093  -1.076  1.00  0.00     0.181 C 
ENDBRANCH   9  12
ENDBRANCH   4   5
ENDBRANCH   3   4
ENDBRANCH   2   3
BRANCH   2  14
HETATM   14  O4  UNL     1       0.221  -1.755  -1.619  1.00  0.00    -0.338 OA
BRANCH  14  15
HETATM   15  C24 UNL     1      -0.906  -1.745  -2.402  1.00  0.00     0.072 C 
HETATM   16  C25 UNL     1      -0.942  -2.860  -3.424  1.00  0.00     0.058 C 
HETATM   17  C26 UNL     1      -1.928  -0.875  -2.353  1.00  0.00     0.021 C 
ENDBRANCH  14  15
ENDBRANCH   2  14
ENDBRANCH   1   2
BRANCH   1  18
HETATM   18  C11 UNL     1      -0.810  -0.155   1.673  1.00  0.00     0.124 C 
BRANCH  18  19
HETATM   19  C12 UNL     1      -1.905   0.810   1.184  1.00  0.00     0.035 C 
BRANCH  19  20
HETATM   20  C13 UNL     1      -3.290   0.144   1.086  1.00  0.00     0.029 C 
BRANCH  20  21
HETATM   21  C14 UNL     1      -4.410   1.032   0.586  1.00  0.00    -0.020 A 
HETATM   22  C15 UNL     1      -5.628   1.098   1.268  1.00  0.00    -0.002 A 
HETATM   23  C16 UNL     1      -6.681   1.849   0.749  1.00  0.00     0.029 A 
HETATM   24  C17 UNL     1      -6.549   2.555  -0.450  1.00  0.00     0.153 A 
HETATM   25  C18 UNL     1      -5.329   2.532  -1.145  1.00  0.00     0.119 A 
HETATM   26  O2  UNL     1      -7.591   3.264  -0.960  1.00  0.00    -0.188 OA
HETATM   27  C19 UNL     1      -4.294   1.751  -0.609  1.00  0.00     0.022 A 
BRANCH  25  28
HETATM   28  O1  UNL     1      -5.259   3.221  -2.330  1.00  0.00    -0.326 OA
HETATM   29  C20 UNL     1      -4.133   3.037  -3.155  1.00  0.00     0.181 C 
ENDBRANCH  25  28
ENDBRANCH  20  21
ENDBRANCH  19  20
ENDBRANCH  18  19
BRANCH  18  30
HETATM   30  O3  UNL     1       0.354   0.540   2.013  1.00  0.00    -0.338 OA
BRANCH  30  31
HETATM   31  C21 UNL     1       0.423   1.255   3.182  1.00  0.00     0.072 C 
HETATM   32  C22 UNL     1       1.741   1.979   3.365  1.00  0.00     0.058 C 
HETATM   33  C23 UNL     1      -0.519   1.361   4.135  1.00  0.00     0.021 C 
ENDBRANCH  30  31
ENDBRANCH  18  30
ENDBRANCH   1  18
TORSDOF 14
