REMARK  4 active torsions:
REMARK  status: ('A' for Active; 'I' for Inactive)
REMARK    1  A    between atoms: C2_2  and  O5_14 
REMARK    2  A    between atoms: C3_3  and  O4_12 
REMARK    3  A    between atoms: C4_4  and  O3_10 
REMARK    4  A    between atoms: C5_5  and  C7_8 
ROOT
HETATM    1  C1  UNL     1       0.997   1.873  -0.367  1.00  0.00     0.054 C 
HETATM    2  C2  UNL     1       1.386   0.689   0.136  1.00  0.00     0.120 C 
HETATM    3  C3  UNL     1       0.447  -0.284   0.226  1.00  0.00     0.139 C 
HETATM    4  C4  UNL     1      -0.854  -0.003  -0.052  1.00  0.00     0.123 C 
HETATM    5  C5  UNL     1      -1.189   1.195  -0.592  1.00  0.00     0.092 C 
HETATM    6  C6  UNL     1      -0.254   2.152  -0.751  1.00  0.00     0.138 C 
HETATM    7  O1  UNL     1      -0.520   3.386  -1.262  1.00  0.00    -0.190 OA
ENDROOT
BRANCH   2   8
HETATM    8  O5  UNL     1       2.721   0.573   0.464  1.00  0.00    -0.326 OA
HETATM    9  C10 UNL     1       3.428  -0.600   0.134  1.00  0.00     0.181 C 
ENDBRANCH   2   8
BRANCH   3  10
HETATM   10  O4  UNL     1       0.774  -1.510   0.758  1.00  0.00    -0.324 OA
HETATM   11  C9  UNL     1       0.796  -2.590  -0.153  1.00  0.00     0.182 C 
ENDBRANCH   3  10
BRANCH   4  12
HETATM   12  O3  UNL     1      -1.783  -1.009   0.090  1.00  0.00    -0.326 OA
HETATM   13  C8  UNL     1      -2.399  -1.056   1.358  1.00  0.00     0.181 C 
ENDBRANCH   4  12
BRANCH   5  14
HETATM   14  C7  UNL     1      -2.467   1.485  -0.968  1.00  0.00     0.238 C 
HETATM   15  O2  UNL     1      -3.436   0.768  -0.885  1.00  0.00    -0.283 OA
ENDBRANCH   5  14
TORSDOF 4
