REMARK  11 active torsions:
REMARK  status: ('A' for Active; 'I' for Inactive)
REMARK    1  A    between atoms: C3_3  and  C7_7 
REMARK    2  A    between atoms: C7_7  and  C8_8 
REMARK    3  A    between atoms: C7_7  and  C34_38 
REMARK    4  A    between atoms: C10_10  and  C19_22 
REMARK    5  A    between atoms: C10_10  and  C24_27 
REMARK    6  A    between atoms: C19_22  and  C20_23 
REMARK    7  A    between atoms: C24_27  and  C25_28 
REMARK    8  A    between atoms: C25_28  and  C29_32 
REMARK    9  A    between atoms: C29_32  and  C30_33 
REMARK   10  A    between atoms: C30_33  and  C31_34 
REMARK   11  A    between atoms: C34_38  and  C35_39 
ROOT
HETATM    1  C8  UNL     1      -1.125   2.440   0.930  1.00  0.00     0.039 C 
HETATM    2  C9  UNL     1      -0.134   1.481   1.492  1.00  0.00     0.173 C 
HETATM    3  C10 UNL     1       0.500   0.417   0.579  1.00  0.00     0.089 C 
HETATM    4  C11 UNL     1       0.907   1.154  -0.723  1.00  0.00     0.136 C 
HETATM    5  C12 UNL     1      -0.237   1.946  -1.367  1.00  0.00     0.133 C 
HETATM    6  C13 UNL     1      -1.201   2.604  -0.408  1.00  0.00     0.117 C 
HETATM    7  O1  UNL     1      -2.104   3.427  -1.010  1.00  0.00    -0.195 OA
HETATM    8  C14 UNL     1      -0.881   1.172  -2.505  1.00  0.00     0.161 C 
HETATM    9  C15 UNL     1       0.103   0.611  -3.519  1.00  0.00     0.085 C 
HETATM   10  C16 UNL     1       1.527   0.557  -2.947  1.00  0.00     0.122 C 
HETATM   11  O2  UNL     1       1.471   0.210  -1.594  1.00  0.00    -0.357 OA
HETATM   12  C17 UNL     1       2.463   1.737  -3.209  1.00  0.00     0.033 C 
HETATM   13  C18 UNL     1      -0.010   1.327  -4.870  1.00  0.00     0.010 C 
HETATM   14  O3  UNL     1      -2.076   1.008  -2.613  1.00  0.00    -0.295 OA
HETATM   15  O4  UNL     1       0.075   1.486   2.699  1.00  0.00    -0.291 OA
ENDROOT
BRANCH   3  16
HETATM   16  C19 UNL     1       1.774  -0.095   1.312  1.00  0.00     0.035 C 
BRANCH  16  17
HETATM   17  C20 UNL     1       1.521  -1.120   2.392  1.00  0.00    -0.034 C 
HETATM   18  C21 UNL     1       2.294  -2.174   2.709  1.00  0.00    -0.048 C 
HETATM   19  C22 UNL     1       1.888  -3.130   3.808  1.00  0.00     0.026 C 
HETATM   20  C23 UNL     1       3.608  -2.519   2.049  1.00  0.00     0.026 C 
ENDBRANCH  16  17
ENDBRANCH   3  16
BRANCH   3  21
HETATM   21  C24 UNL     1      -0.607  -0.659   0.327  1.00  0.00     0.035 C 
BRANCH  21  22
HETATM   22  C25 UNL     1      -0.306  -2.160   0.402  1.00  0.00    -0.034 C 
HETATM   23  C26 UNL     1      -0.976  -2.971   1.258  1.00  0.00    -0.048 C 
HETATM   24  C27 UNL     1      -0.689  -4.435   1.501  1.00  0.00     0.026 C 
HETATM   25  C28 UNL     1      -2.148  -2.518   2.112  1.00  0.00     0.026 C 
BRANCH  22  26
HETATM   26  C29 UNL     1       0.713  -2.589  -0.646  1.00  0.00    -0.031 C 
BRANCH  26  27
HETATM   27  C30 UNL     1       1.166  -4.036  -0.877  1.00  0.00     0.026 C 
BRANCH  27  28
HETATM   28  C31 UNL     1       2.096  -4.199  -2.102  1.00  0.00     0.004 C 
HETATM   29  C32 UNL     1       3.414  -3.416  -1.956  1.00  0.00     0.000 C 
HETATM   30  C33 UNL     1       2.407  -5.690  -2.329  1.00  0.00     0.000 C 
ENDBRANCH  27  28
ENDBRANCH  26  27
ENDBRANCH  22  26
ENDBRANCH  21  22
ENDBRANCH   3  21
BRANCH   1  31
HETATM   31  C7  UNL     1      -2.012   3.169   1.935  1.00  0.00     0.060 C 
BRANCH  31  32
HETATM   32  C3  UNL     1      -2.379   4.573   1.493  1.00  0.00    -0.018 A 
HETATM   33  C2  UNL     1      -1.359   5.449   1.098  1.00  0.00    -0.004 A 
HETATM   34  C1  UNL     1      -1.638   6.741   0.648  1.00  0.00    -0.000 A 
HETATM   35  C6  UNL     1      -2.958   7.188   0.595  1.00  0.00    -0.000 A 
HETATM   36  C5  UNL     1      -3.986   6.338   1.002  1.00  0.00    -0.000 A 
HETATM   37  C4  UNL     1      -3.696   5.047   1.450  1.00  0.00    -0.004 A 
ENDBRANCH  31  32
BRANCH  31  38
HETATM   38  C34 UNL     1      -3.147   2.235   2.401  1.00  0.00     0.106 C 
BRANCH  38  39
HETATM   39  C35 UNL     1      -4.068   1.763   1.293  1.00  0.00     0.186 C 
HETATM   40  O5  UNL     1      -4.742   0.652   1.641  1.00  0.00    -0.647 OA
HETATM   41  O6  UNL     1      -4.207   2.273   0.208  1.00  0.00    -0.647 OA
ENDBRANCH  38  39
ENDBRANCH  31  38
ENDBRANCH   1  31
TORSDOF 11
