REMARK  3 active torsions:
REMARK  status: ('A' for Active; 'I' for Inactive)
REMARK    1  A    between atoms: C6_7  and  O1_8 
REMARK    2  A    between atoms: O1_8  and  C7_9 
REMARK    3  A    between atoms: C7_9  and  C8_10 
ROOT
HETATM    1  C1  UNL     1      -2.437   1.784  -0.688  1.00  0.00     0.215 C 
HETATM    2  C2  UNL     1      -2.637   1.717   0.820  1.00  0.00     0.215 C 
HETATM    3  C3  UNL     1      -1.232   1.959   1.394  1.00  0.00     0.254 C 
HETATM    4  N1  UNL     1      -0.532   2.729   0.374  1.00  0.00     0.141 N 
HETATM    5  C4  UNL     1      -0.929   2.033  -0.843  1.00  0.00     0.254 C 
HETATM    6  C5  UNL     1      -0.152   0.695  -0.916  1.00  0.00     0.066 C 
HETATM    7  C6  UNL     1       0.477   0.308   0.428  1.00  0.00     0.129 C 
HETATM    8  C12 UNL     1      -0.472   0.626   1.590  1.00  0.00     0.066 C 
HETATM    9  C13 UNL     1      -0.846   4.147   0.385  1.00  0.00     0.285 C 
HETATM   10  O3  UNL     1      -3.538   2.690   1.293  1.00  0.00    -0.219 OA
HETATM   11  O4  UNL     1      -3.169   2.824  -1.292  1.00  0.00    -0.219 OA
ENDROOT
BRANCH   7  12
HETATM   12  O1  UNL     1       0.803  -1.050   0.489  1.00  0.00    -0.301 OA
BRANCH  12  13
HETATM   13  C7  UNL     1       1.800  -1.544  -0.304  1.00  0.00     0.291 C 
HETATM   14  O2  UNL     1       2.455  -0.791  -1.020  1.00  0.00    -0.260 OA
BRANCH  13  15
HETATM   15  C8  UNL     1       2.094  -3.005  -0.314  1.00  0.00     0.037 C 
HETATM   16  C9  UNL     1       2.971  -3.493  -1.221  1.00  0.00    -0.025 C 
HETATM   17  C10 UNL     1       3.361  -4.936  -1.417  1.00  0.00     0.030 C 
HETATM   18  C11 UNL     1       1.367  -3.864   0.694  1.00  0.00     0.036 C 
ENDBRANCH  13  15
ENDBRANCH  12  13
ENDBRANCH   7  12
TORSDOF 3
