REMARK  7 active torsions:
REMARK  status: ('A' for Active; 'I' for Inactive)
REMARK    1  A    between atoms: C4_4  and  O3_9 
REMARK    2  A    between atoms: C5_6  and  C6_7 
REMARK    3  A    between atoms: O3_9  and  C7_10 
REMARK    4  A    between atoms: C10_13  and  O6_18 
REMARK    5  A    between atoms: C11_15  and  C12_16 
REMARK    6  A    between atoms: O6_18  and  C13_19 
REMARK    7  A    between atoms: C14_21  and  C17_24 
ROOT
HETATM    1  C7  UNL     1       0.271  -1.254  -0.901  1.00  0.00     0.181 C 
HETATM    2  C8  UNL     1       1.630  -0.571  -0.965  1.00  0.00     0.217 C 
HETATM    3  C9  UNL     1       1.461   0.936  -0.938  1.00  0.00     0.241 C 
HETATM    4  C10 UNL     1       0.567   1.399   0.192  1.00  0.00     0.272 C 
HETATM    5  O4  UNL     1      -0.655   0.699   0.257  1.00  0.00    -0.326 OA
HETATM    6  C11 UNL     1      -0.588  -0.703   0.240  1.00  0.00     0.181 C 
HETATM    7  O8  UNL     1       0.918   1.368  -2.168  1.00  0.00    -0.215 OA
HETATM    8  O9  UNL     1       2.437  -0.983   0.111  1.00  0.00    -0.218 OA
ENDROOT
BRANCH   1   9
HETATM    9  O3  UNL     1      -0.353  -0.998  -2.127  1.00  0.00    -0.326 OA
BRANCH   9  10
HETATM   10  C4  UNL     1      -1.400  -1.861  -2.498  1.00  0.00     0.270 C 
HETATM   11  C3  UNL     1      -2.554  -1.035  -3.016  1.00  0.00     0.241 C 
HETATM   12  C2  UNL     1      -2.178  -0.316  -4.295  1.00  0.00     0.220 C 
HETATM   13  O10 UNL     1      -3.675  -1.865  -3.218  1.00  0.00    -0.215 OA
HETATM   14  C1  UNL     1      -1.562  -1.275  -5.299  1.00  0.00     0.215 C 
HETATM   15  O11 UNL     1      -1.274   0.732  -4.006  1.00  0.00    -0.218 OA
HETATM   16  C5  UNL     1      -0.518  -2.211  -4.702  1.00  0.00     0.184 C 
HETATM   17  O12 UNL     1      -2.583  -2.045  -5.894  1.00  0.00    -0.218 OA
HETATM   18  O1  UNL     1      -0.880  -2.756  -3.458  1.00  0.00    -0.326 OA
BRANCH  16  19
HETATM   19  C6  UNL     1       0.894  -1.633  -4.700  1.00  0.00     0.214 C 
HETATM   20  O2  UNL     1       1.389  -1.584  -6.024  1.00  0.00    -0.218 OA
ENDBRANCH  16  19
ENDBRANCH   9  10
ENDBRANCH   1   9
BRANCH   6  21
HETATM   21  C12 UNL     1      -0.303  -1.293   1.616  1.00  0.00     0.214 C 
HETATM   22  O5  UNL     1      -0.627  -2.670   1.613  1.00  0.00    -0.218 OA
ENDBRANCH   6  21
BRANCH   4  23
HETATM   23  O6  UNL     1       1.219   1.278   1.435  1.00  0.00    -0.305 OA
BRANCH  23  24
HETATM   24  C13 UNL     1       1.013   2.342   2.348  1.00  0.00     0.210 A 
HETATM   25  O7  UNL     1       1.531   1.828   3.576  1.00  0.00    -0.329 OA
HETATM   26  C14 UNL     1       0.518   1.842   4.567  1.00  0.00     0.140 A 
HETATM   27  C15 UNL     1      -0.721   2.340   3.884  1.00  0.00     0.003 A 
HETATM   28  C16 UNL     1      -0.436   2.639   2.617  1.00  0.00     0.027 A 
HETATM   29  C20 UNL     1       1.818   3.573   1.961  1.00  0.00     0.067 C 
BRANCH  26  30
HETATM   30  C17 UNL     1       0.372   0.461   5.217  1.00  0.00     0.032 C 
HETATM   31  C18 UNL     1       1.721  -0.053   5.750  1.00  0.00     0.003 C 
HETATM   32  C19 UNL     1      -0.658   0.479   6.361  1.00  0.00     0.003 C 
ENDBRANCH  26  30
ENDBRANCH  23  24
ENDBRANCH   4  23
TORSDOF 7
