REMARK  4 active torsions:
REMARK  status: ('A' for Active; 'I' for Inactive)
REMARK    1  A    between atoms: S1_2  and  C2_3 
REMARK    2  A    between atoms: C2_3  and  C3_4 
REMARK    3  A    between atoms: C3_4  and  C4_5 
REMARK    4  A    between atoms: C4_5  and  C5_7 
ROOT
HETATM    1  C3  UNL     1      -0.325  -0.664  -0.200  1.00  0.00     0.065 C 
ENDROOT
BRANCH   1   2
HETATM    2  C2  UNL     1      -0.299   0.868  -0.084  1.00  0.00     0.095 C 
BRANCH   2   3
HETATM    3  S1  UNL     1      -1.813   1.686  -0.653  1.00  0.00     0.043 S 
HETATM    4  C1  UNL     1      -2.900   1.128   0.674  1.00  0.00     0.106 C 
HETATM    5  O3  UNL     1      -1.608   3.138  -0.456  1.00  0.00    -0.256 OA
ENDBRANCH   2   3
ENDBRANCH   1   2
BRANCH   1   6
HETATM    6  C4  UNL     1       1.045  -1.324   0.044  1.00  0.00     0.388 C 
HETATM    7  N1  UNL     1       1.512  -1.035   1.411  1.00  0.00     0.628 N 
BRANCH   6   8
HETATM    8  C5  UNL     1       2.119  -0.909  -0.942  1.00  0.00     0.224 C 
HETATM    9  O1  UNL     1       1.749  -1.117  -2.218  1.00  0.00    -0.646 OA
HETATM   10  O2  UNL     1       3.209  -0.472  -0.657  1.00  0.00    -0.646 OA
ENDBRANCH   6   8
ENDBRANCH   1   6
TORSDOF 4
