REMARK  2 active torsions:
REMARK  status: ('A' for Active; 'I' for Inactive)
REMARK    1  A    between atoms: C12_13  and  C16_19 
REMARK    2  A    between atoms: C13_14  and  O3_17 
ROOT
HETATM    1  C1  UNL     1      -2.679   0.106  -1.606  1.00  0.00     0.000 C 
HETATM    2  C2  UNL     1      -2.429  -1.177  -2.405  1.00  0.00     0.000 C 
HETATM    3  C3  UNL     1      -1.238  -1.996  -1.853  1.00  0.00     0.000 C 
HETATM    4  C4  UNL     1      -1.416  -2.207  -0.313  1.00  0.00     0.007 C 
HETATM    5  C5  UNL     1      -1.704  -0.928   0.536  1.00  0.00     0.021 C 
HETATM    6  C6  UNL     1      -2.931  -0.261  -0.142  1.00  0.00     0.004 C 
HETATM    7  C7  UNL     1      -0.418  -0.102   0.678  1.00  0.00     0.003 A 
HETATM    8  C8  UNL     1       0.808  -0.782   0.681  1.00  0.00     0.006 A 
HETATM    9  C9  UNL     1       0.943  -2.286   0.641  1.00  0.00     0.174 C 
HETATM   10  C10 UNL     1      -0.337  -3.061   0.371  1.00  0.00     0.038 C 
HETATM   11  O1  UNL     1       1.490  -2.696   1.883  1.00  0.00    -0.219 OA
HETATM   12  C11 UNL     1       1.997  -0.054   0.722  1.00  0.00    -0.004 A 
HETATM   13  C12 UNL     1       2.022   1.337   0.810  1.00  0.00     0.002 A 
HETATM   14  C13 UNL     1       0.805   2.031   0.946  1.00  0.00     0.115 A 
HETATM   15  C14 UNL     1      -0.399   1.296   0.869  1.00  0.00     0.148 A 
HETATM   16  O2  UNL     1      -1.572   1.944   1.077  1.00  0.00    -0.188 OA
HETATM   17  C19 UNL     1      -2.140  -1.269   1.984  1.00  0.00     0.004 C 
HETATM   18  C20 UNL     1      -1.261  -3.361  -2.589  1.00  0.00     0.000 C 
HETATM   19  C21 UNL     1       0.065  -1.290  -2.289  1.00  0.00     0.000 C 
ENDROOT
BRANCH  13  20
HETATM   20  C16 UNL     1       3.380   2.033   0.796  1.00  0.00     0.024 C 
HETATM   21  C17 UNL     1       3.596   2.808  -0.514  1.00  0.00     0.005 C 
HETATM   22  C18 UNL     1       3.649   2.902   2.035  1.00  0.00     0.005 C 
ENDBRANCH  13  20
BRANCH  14  23
HETATM   23  O3  UNL     1       0.871   3.400   1.063  1.00  0.00    -0.326 OA
HETATM   24  C15 UNL     1      -0.184   4.217   0.613  1.00  0.00     0.181 C 
ENDBRANCH  14  23
TORSDOF 2
