REMARK  2 active torsions:
REMARK  status: ('A' for Active; 'I' for Inactive)
REMARK    1  A    between atoms: C4_4  and  C7_8 
REMARK    2  A    between atoms: C9_12  and  C12_17 
ROOT
HETATM    1  C1  UNL     1      -0.398  -2.095  -0.295  1.00  0.00     0.085 A 
HETATM    2  C2  UNL     1      -0.659  -0.988   0.542  1.00  0.00     0.099 A 
HETATM    3  C3  UNL     1      -1.771  -1.054   1.384  1.00  0.00     0.027 A 
HETATM    4  C4  UNL     1      -2.590  -2.190   1.443  1.00  0.00     0.039 A 
HETATM    5  C5  UNL     1      -2.297  -3.265   0.602  1.00  0.00     0.030 A 
HETATM    6  C6  UNL     1      -1.202  -3.248  -0.275  1.00  0.00     0.136 A 
HETATM    7  O1  UNL     1      -0.994  -4.329  -1.076  1.00  0.00    -0.190 OA
HETATM    8  O3  UNL     1       0.062   0.176   0.483  1.00  0.00    -0.326 OA
HETATM    9  C9  UNL     1       0.609   0.452  -0.780  1.00  0.00     0.181 C 
HETATM   10  C10 UNL     1       1.528  -0.680  -1.196  1.00  0.00     0.245 C 
HETATM   11  C11 UNL     1       0.800  -2.017  -1.177  1.00  0.00     0.210 C 
HETATM   12  O4  UNL     1       1.235  -2.970  -1.809  1.00  0.00    -0.288 OA
HETATM   13  O5  UNL     1       2.030  -0.377  -2.486  1.00  0.00    -0.212 OA
ENDROOT
BRANCH   9  14
HETATM   14  C12 UNL     1       1.372   1.762  -0.803  1.00  0.00     0.008 A 
HETATM   15  C13 UNL     1       1.372   2.557  -1.954  1.00  0.00     0.000 A 
HETATM   16  C14 UNL     1       2.102   3.744  -2.008  1.00  0.00     0.027 A 
HETATM   17  C15 UNL     1       2.857   4.182  -0.916  1.00  0.00     0.131 A 
HETATM   18  C16 UNL     1       2.860   3.382   0.230  1.00  0.00     0.027 A 
HETATM   19  O6  UNL     1       3.570   5.338  -0.966  1.00  0.00    -0.190 OA
HETATM   20  C17 UNL     1       2.137   2.189   0.287  1.00  0.00     0.000 A 
ENDBRANCH   9  14
BRANCH   4  21
HETATM   21  C7  UNL     1      -3.766  -2.267   2.357  1.00  0.00     0.174 C 
HETATM   22  C8  UNL     1      -4.009  -1.145   3.352  1.00  0.00     0.077 C 
HETATM   23  O2  UNL     1      -4.529  -3.225   2.339  1.00  0.00    -0.291 OA
ENDBRANCH   4  21
TORSDOF 2
