REMARK  7 active torsions:
REMARK  status: ('A' for Active; 'I' for Inactive)
REMARK    1  A    between atoms: C2_2  and  O4_23 
REMARK    2  A    between atoms: C3_3  and  O3_12 
REMARK    3  A    between atoms: O3_12  and  C10_13 
REMARK    4  A    between atoms: C10_13  and  C11_14 
REMARK    5  A    between atoms: C12_15  and  C14_17 
REMARK    6  A    between atoms: C14_17  and  C15_18 
REMARK    7  A    between atoms: C15_18  and  C16_19 
ROOT
HETATM    1  C1  UNL     1       1.069   3.884   2.506  1.00  0.00     0.028 A 
HETATM    2  C2  UNL     1       1.089   2.643   1.859  1.00  0.00     0.116 A 
HETATM    3  C3  UNL     1      -0.066   2.249   1.149  1.00  0.00     0.119 A 
HETATM    4  C4  UNL     1      -1.163   3.121   1.122  1.00  0.00     0.051 A 
HETATM    5  C5  UNL     1      -1.197   4.365   1.761  1.00  0.00     0.105 A 
HETATM    6  C6  UNL     1      -0.043   4.737   2.464  1.00  0.00     0.025 A 
HETATM    7  C7  UNL     1      -0.019   6.026   3.152  1.00  0.00     0.007 A 
HETATM    8  C8  UNL     1      -1.111   6.816   3.086  1.00  0.00     0.069 A 
HETATM    9  C9  UNL     1      -2.289   6.348   2.321  1.00  0.00     0.300 A 
HETATM   10  O1  UNL     1      -2.317   5.146   1.678  1.00  0.00    -0.273 OA
HETATM   11  O2  UNL     1      -3.270   7.088   2.278  1.00  0.00    -0.259 OA
ENDROOT
BRANCH   3  12
HETATM   12  O3  UNL     1      -0.034   1.027   0.522  1.00  0.00    -0.324 OA
BRANCH  12  13
HETATM   13  C10 UNL     1      -1.161   0.589  -0.211  1.00  0.00     0.174 C 
BRANCH  13  14
HETATM   14  C11 UNL     1      -0.887  -0.772  -0.806  1.00  0.00    -0.002 C 
HETATM   15  C12 UNL     1      -1.742  -1.488  -1.559  1.00  0.00    -0.045 C 
HETATM   16  C13 UNL     1      -3.127  -0.997  -1.913  1.00  0.00     0.026 C 
BRANCH  15  17
HETATM   17  C14 UNL     1      -1.405  -2.855  -2.128  1.00  0.00     0.026 C 
BRANCH  17  18
HETATM   18  C15 UNL     1      -0.009  -3.407  -1.801  1.00  0.00     0.030 C 
BRANCH  18  19
HETATM   19  C16 UNL     1       0.258  -4.768  -2.397  1.00  0.00    -0.034 C 
HETATM   20  C17 UNL     1       1.412  -5.441  -2.240  1.00  0.00    -0.048 C 
HETATM   21  C18 UNL     1       1.595  -6.799  -2.873  1.00  0.00     0.026 C 
HETATM   22  C19 UNL     1       2.558  -4.875  -1.436  1.00  0.00     0.026 C 
ENDBRANCH  18  19
ENDBRANCH  17  18
ENDBRANCH  15  17
ENDBRANCH  13  14
ENDBRANCH  12  13
ENDBRANCH   3  12
BRANCH   2  23
HETATM   23  O4  UNL     1       2.156   1.776   1.879  1.00  0.00    -0.326 OA
HETATM   24  C20 UNL     1       3.304   2.126   2.617  1.00  0.00     0.181 C 
ENDBRANCH   2  23
TORSDOF 7
