REMARK  2 active torsions:
REMARK  status: ('A' for Active; 'I' for Inactive)
REMARK    1  A    between atoms: C1_1  and  O5_20 
REMARK    2  A    between atoms: C7_8  and  C10_12 
ROOT
HETATM    1  C1  UNL     1      -3.062   1.418  -0.016  1.00  0.00     0.123 A 
HETATM    2  C2  UNL     1      -2.551   2.723   0.019  1.00  0.00     0.178 A 
HETATM    3  C3  UNL     1      -1.172   2.969   0.039  1.00  0.00     0.163 A 
HETATM    4  C4  UNL     1      -0.284   1.880   0.033  1.00  0.00     0.089 A 
HETATM    5  C5  UNL     1      -0.745   0.555   0.004  1.00  0.00     0.107 A 
HETATM    6  C6  UNL     1      -2.130   0.370  -0.021  1.00  0.00     0.051 A 
HETATM    7  O1  UNL     1       0.068  -0.544  -0.000  1.00  0.00    -0.307 OA
HETATM    8  C7  UNL     1       1.427  -0.387   0.013  1.00  0.00     0.103 A 
HETATM    9  C8  UNL     1       1.995   0.845   0.040  1.00  0.00     0.067 A 
HETATM   10  C9  UNL     1       1.184   2.080   0.056  1.00  0.00     0.202 A 
HETATM   11  O2  UNL     1       1.728   3.180   0.083  1.00  0.00    -0.286 OA
HETATM   12  O3  UNL     1      -0.768   4.268   0.069  1.00  0.00    -0.188 OA
HETATM   13  O4  UNL     1      -3.400   3.789   0.031  1.00  0.00    -0.186 OA
ENDROOT
BRANCH   8  14
HETATM   14  C10 UNL     1       2.283  -1.599  -0.001  1.00  0.00     0.023 A 
HETATM   15  C11 UNL     1       1.658  -2.861  -0.034  1.00  0.00     0.002 A 
HETATM   16  C12 UNL     1       2.393  -4.046  -0.049  1.00  0.00     0.000 A 
HETATM   17  C13 UNL     1       3.788  -4.008  -0.031  1.00  0.00     0.000 A 
HETATM   18  C14 UNL     1       4.432  -2.772   0.001  1.00  0.00     0.000 A 
HETATM   19  C15 UNL     1       3.689  -1.589   0.016  1.00  0.00     0.002 A 
ENDBRANCH   8  14
BRANCH   1  20
HETATM   20  O5  UNL     1      -4.426   1.255  -0.039  1.00  0.00    -0.326 OA
HETATM   21  C16 UNL     1      -4.949  -0.053  -0.063  1.00  0.00     0.181 C 
ENDBRANCH   1  20
TORSDOF 2
