REMARK  1 active torsions:
REMARK  status: ('A' for Active; 'I' for Inactive)
REMARK    1  A    between atoms: C4_4  and  O3_10 
ROOT
HETATM    1  C1  UNL     1      -0.378  -2.461  -0.182  1.00  0.00     0.027 A 
HETATM    2  C2  UNL     1      -1.657  -1.948   0.030  1.00  0.00     0.004 A 
HETATM    3  C3  UNL     1      -1.863  -0.566   0.127  1.00  0.00     0.024 A 
HETATM    4  C4  UNL     1      -0.840   0.390  -0.003  1.00  0.00     0.095 A 
HETATM    5  C5  UNL     1       0.437  -0.160  -0.183  1.00  0.00     0.058 A 
HETATM    6  C6  UNL     1       0.651  -1.528  -0.280  1.00  0.00     0.131 A 
HETATM    7  O1  UNL     1       1.990  -1.769  -0.487  1.00  0.00    -0.195 OA
HETATM    8  O2  UNL     1       2.658  -0.672  -0.583  1.00  0.00    -0.211 OA
HETATM    9  C7  UNL     1       1.795   0.446  -0.365  1.00  0.00     0.213 A 
ENDROOT
BRANCH   4  10
HETATM   10  O3  UNL     1      -1.157   1.716   0.148  1.00  0.00    -0.328 OA
HETATM   11  C8  UNL     1      -0.160   2.609   0.578  1.00  0.00     0.181 C 
ENDBRANCH   4  10
TORSDOF 1
