REMARK  7 active torsions:
REMARK  status: ('A' for Active; 'I' for Inactive)
REMARK    1  A    between atoms: C4_4  and  O5_21 
REMARK    2  A    between atoms: C5_5  and  C8_9 
REMARK    3  A    between atoms: C6_6  and  O1_7 
REMARK    4  A    between atoms: C8_9  and  O2_10 
REMARK    5  A    between atoms: O2_10  and  C9_11 
REMARK    6  A    between atoms: C9_11  and  C10_12 
REMARK    7  A    between atoms: C15_17  and  O3_18 
ROOT
HETATM    1  C8  UNL     1       0.004  -1.193  -1.470  1.00  0.00     0.300 C 
HETATM    2  O4  UNL     1      -0.262  -1.902  -2.434  1.00  0.00    -0.259 OA
ENDROOT
BRANCH   1   3
HETATM    3  C5  UNL     1       1.296  -1.527  -0.731  1.00  0.00     0.108 A 
HETATM    4  C4  UNL     1       1.270  -2.583   0.189  1.00  0.00     0.101 A 
HETATM    5  C3  UNL     1       2.479  -2.867   0.839  1.00  0.00     0.025 A 
HETATM    6  C2  UNL     1       3.636  -2.143   0.556  1.00  0.00     0.004 A 
HETATM    7  C1  UNL     1       3.609  -1.098  -0.370  1.00  0.00     0.025 A 
HETATM    8  C6  UNL     1       2.433  -0.767  -1.054  1.00  0.00     0.101 A 
BRANCH   4   9
HETATM    9  O5  UNL     1       0.095  -3.240   0.451  1.00  0.00    -0.328 OA
HETATM   10  C17 UNL     1      -0.220  -3.450   1.808  1.00  0.00     0.181 C 
ENDBRANCH   4   9
BRANCH   8  11
HETATM   11  O1  UNL     1       2.308   0.252  -1.964  1.00  0.00    -0.328 OA
HETATM   12  C7  UNL     1       3.405   1.107  -2.176  1.00  0.00     0.181 C 
ENDBRANCH   8  11
ENDBRANCH   1   3
BRANCH   1  13
HETATM   13  O2  UNL     1      -0.834  -0.173  -1.124  1.00  0.00    -0.293 OA
BRANCH  13  14
HETATM   14  C9  UNL     1      -0.512   0.581   0.027  1.00  0.00     0.181 C 
BRANCH  14  15
HETATM   15  C10 UNL     1      -1.486   1.723   0.269  1.00  0.00     0.030 C 
HETATM   16  C11 UNL     1      -0.968   2.971   0.644  1.00  0.00     0.000 C 
HETATM   17  C12 UNL     1      -1.794   4.076   0.848  1.00  0.00    -0.000 C 
HETATM   18  C13 UNL     1      -3.165   3.941   0.644  1.00  0.00     0.002 C 
HETATM   19  C14 UNL     1      -3.682   2.697   0.283  1.00  0.00     0.024 C 
HETATM   20  C15 UNL     1      -2.881   1.551   0.169  1.00  0.00     0.092 C 
BRANCH  20  21
HETATM   21  O3  UNL     1      -3.446   0.380  -0.261  1.00  0.00    -0.328 OA
HETATM   22  C16 UNL     1      -3.758  -0.523   0.775  1.00  0.00     0.181 C 
ENDBRANCH  20  21
ENDBRANCH  14  15
ENDBRANCH  13  14
ENDBRANCH   1  13
TORSDOF 7
