REMARK  8 active torsions:
REMARK  status: ('A' for Active; 'I' for Inactive)
REMARK    1  A    between atoms: C1_1  and  O6_23 
REMARK    2  A    between atoms: C4_4  and  O5_21 
REMARK    3  A    between atoms: C5_5  and  C8_9 
REMARK    4  A    between atoms: C6_6  and  O1_7 
REMARK    5  A    between atoms: C8_9  and  O2_10 
REMARK    6  A    between atoms: O2_10  and  C9_11 
REMARK    7  A    between atoms: C9_11  and  C10_12 
REMARK    8  A    between atoms: C15_17  and  O3_18 
ROOT
HETATM    1  C1  UNL     1       4.812  -0.827  -0.464  1.00  0.00     0.117 C 
HETATM    2  C2  UNL     1       4.810  -1.746   0.590  1.00  0.00     0.028 C 
HETATM    3  C3  UNL     1       3.670  -2.465   0.949  1.00  0.00     0.026 C 
HETATM    4  C4  UNL     1       2.458  -2.287   0.271  1.00  0.00     0.101 C 
HETATM    5  C5  UNL     1       2.457  -1.270  -0.697  1.00  0.00     0.110 C 
HETATM    6  C6  UNL     1       3.564  -0.465  -1.006  1.00  0.00     0.123 C 
ENDROOT
BRANCH   5   7
HETATM    7  C8  UNL     1       1.158  -0.996  -1.438  1.00  0.00     0.300 C 
HETATM    8  O4  UNL     1       1.120  -1.365  -2.607  1.00  0.00    -0.259 OA
BRANCH   7   9
HETATM    9  O2  UNL     1       0.072  -0.374  -0.893  1.00  0.00    -0.293 OA
BRANCH   9  10
HETATM   10  C9  UNL     1       0.136   0.077   0.446  1.00  0.00     0.181 C 
BRANCH  10  11
HETATM   11  C10 UNL     1      -0.683   1.342   0.609  1.00  0.00     0.030 C 
HETATM   12  C11 UNL     1      -0.047   2.543   0.945  1.00  0.00     0.000 C 
HETATM   13  C12 UNL     1      -0.764   3.735   1.048  1.00  0.00    -0.000 C 
HETATM   14  C13 UNL     1      -2.131   3.731   0.777  1.00  0.00     0.002 C 
HETATM   15  C14 UNL     1      -2.762   2.531   0.447  1.00  0.00     0.024 C 
HETATM   16  C15 UNL     1      -2.079   1.306   0.435  1.00  0.00     0.092 C 
BRANCH  16  17
HETATM   17  O3  UNL     1      -2.720   0.162   0.040  1.00  0.00    -0.328 OA
HETATM   18  C16 UNL     1      -3.429  -0.476   1.078  1.00  0.00     0.181 C 
ENDBRANCH  16  17
ENDBRANCH  10  11
ENDBRANCH   9  10
ENDBRANCH   7   9
ENDBRANCH   5   7
BRANCH   4  19
HETATM   19  O5  UNL     1       1.295  -2.958   0.548  1.00  0.00    -0.328 OA
HETATM   20  C17 UNL     1       1.238  -3.752   1.710  1.00  0.00     0.181 C 
ENDBRANCH   4  19
BRANCH   6  21
HETATM   21  O1  UNL     1       3.491   0.482  -1.995  1.00  0.00    -0.326 OA
HETATM   22  C7  UNL     1       3.279   1.789  -1.510  1.00  0.00     0.181 C 
ENDBRANCH   6  21
BRANCH   1  23
HETATM   23  O6  UNL     1       5.936  -0.094  -0.742  1.00  0.00    -0.326 OA
HETATM   24  C18 UNL     1       6.686  -0.608  -1.817  1.00  0.00     0.181 C 
ENDBRANCH   1  23
TORSDOF 8
