REMARK  5 active torsions:
REMARK  status: ('A' for Active; 'I' for Inactive)
REMARK    1  A    between atoms: C7_9  and  C10_13 
REMARK    2  A    between atoms: C12_15  and  C18_23 
REMARK    3  A    between atoms: C13_16  and  O5_21 
REMARK    4  A    between atoms: C14_17  and  O4_19 
REMARK    5  A    between atoms: C20_26  and  C27_36 
ROOT
HETATM    1  C10 UNL     1      -0.455   2.020  -0.299  1.00  0.00     0.025 C 
HETATM    2  C11 UNL     1      -0.994   0.728  -0.345  1.00  0.00     0.004 C 
HETATM    3  C12 UNL     1      -0.280  -0.381   0.109  1.00  0.00     0.028 C 
HETATM    4  C13 UNL     1       1.052  -0.268   0.555  1.00  0.00     0.116 C 
HETATM    5  C14 UNL     1       1.659   1.008   0.516  1.00  0.00     0.116 C 
HETATM    6  C15 UNL     1       0.895   2.101   0.070  1.00  0.00     0.028 C 
ENDROOT
BRANCH   3   7
HETATM    7  C18 UNL     1      -0.998  -1.693   0.134  1.00  0.00     0.050 A 
HETATM    8  C19 UNL     1      -0.456  -2.821  -0.500  1.00  0.00     0.107 A 
HETATM    9  O6  UNL     1       0.722  -2.762  -1.191  1.00  0.00    -0.307 OA
HETATM   10  C23 UNL     1      -1.176  -4.029  -0.448  1.00  0.00     0.087 A 
HETATM   11  C20 UNL     1       1.534  -3.850  -1.024  1.00  0.00     0.103 C 
HETATM   12  C21 UNL     1       0.983  -5.088  -1.029  1.00  0.00     0.067 C 
HETATM   13  C22 UNL     1      -0.494  -5.222  -1.018  1.00  0.00     0.202 C 
HETATM   14  O9  UNL     1      -1.047  -6.296  -1.234  1.00  0.00    -0.286 OA
HETATM   15  C24 UNL     1      -2.423  -4.135   0.185  1.00  0.00     0.138 A 
HETATM   16  C25 UNL     1      -2.917  -2.982   0.802  1.00  0.00     0.055 A 
HETATM   17  O8  UNL     1      -3.135  -5.292   0.259  1.00  0.00    -0.190 OA
HETATM   18  C26 UNL     1      -2.231  -1.767   0.805  1.00  0.00     0.135 A 
HETATM   19  O7  UNL     1      -2.762  -0.703   1.465  1.00  0.00    -0.190 OA
BRANCH  11  20
HETATM   20  C27 UNL     1       2.998  -3.682  -0.900  1.00  0.00     0.023 A 
HETATM   21  C28 UNL     1       3.599  -2.482  -1.314  1.00  0.00     0.004 A 
HETATM   22  C29 UNL     1       4.964  -2.260  -1.135  1.00  0.00     0.028 A 
HETATM   23  C30 UNL     1       5.788  -3.218  -0.534  1.00  0.00     0.131 A 
HETATM   24  C31 UNL     1       5.187  -4.404  -0.106  1.00  0.00     0.028 A 
HETATM   25  O10 UNL     1       7.114  -2.998  -0.335  1.00  0.00    -0.190 OA
HETATM   26  C32 UNL     1       3.822  -4.637  -0.286  1.00  0.00     0.004 A 
ENDBRANCH  11  20
ENDBRANCH   3   7
BRANCH   4  27
HETATM   27  O5  UNL     1       1.640  -1.399   1.078  1.00  0.00    -0.326 OA
HETATM   28  C17 UNL     1       2.626  -1.289   2.075  1.00  0.00     0.181 C 
ENDBRANCH   4  27
BRANCH   1  29
HETATM   29  C7  UNL     1      -1.347   3.168  -0.590  1.00  0.00     0.103 C 
HETATM   30  O2  UNL     1      -2.663   2.923  -0.878  1.00  0.00    -0.307 OA
HETATM   31  C4  UNL     1      -3.575   3.904  -0.614  1.00  0.00     0.107 A 
HETATM   32  C3  UNL     1      -3.237   5.267  -0.557  1.00  0.00     0.087 A 
HETATM   33  C5  UNL     1      -4.919   3.564  -0.433  1.00  0.00     0.052 A 
HETATM   34  C2  UNL     1      -4.196   6.265  -0.308  1.00  0.00     0.138 A 
HETATM   35  C9  UNL     1      -1.798   5.595  -0.717  1.00  0.00     0.202 C 
HETATM   36  C1  UNL     1      -5.521   5.853  -0.124  1.00  0.00     0.055 A 
HETATM   37  O11 UNL     1      -3.898   7.590  -0.214  1.00  0.00    -0.190 OA
HETATM   38  C6  UNL     1      -5.912   4.515  -0.183  1.00  0.00     0.135 A 
HETATM   39  O1  UNL     1      -7.211   4.159   0.000  1.00  0.00    -0.190 OA
HETATM   40  C8  UNL     1      -0.881   4.441  -0.559  1.00  0.00     0.067 C 
HETATM   41  O3  UNL     1      -1.364   6.738  -0.823  1.00  0.00    -0.286 OA
ENDBRANCH   1  29
BRANCH   5  42
HETATM   42  O4  UNL     1       2.989   1.124   0.840  1.00  0.00    -0.326 OA
HETATM   43  C16 UNL     1       3.713   2.253   0.412  1.00  0.00     0.181 C 
ENDBRANCH   5  42
TORSDOF 5
