REMARK  5 active torsions:
REMARK  status: ('A' for Active; 'I' for Inactive)
REMARK    1  A    between atoms: C7_7  and  C10_12 
REMARK    2  A    between atoms: N1_9  and  O1_10 
REMARK    3  A    between atoms: C10_12  and  N2_13 
REMARK    4  A    between atoms: N2_13  and  C11_14 
REMARK    5  A    between atoms: C11_14  and  S1_15 
ROOT
HETATM    1  C1  UNL     1      -2.787  -0.837  -0.514  1.00  0.00     0.000 A 
HETATM    2  C2  UNL     1      -2.760  -2.249  -0.383  1.00  0.00     0.001 A 
HETATM    3  C3  UNL     1      -1.563  -2.934  -0.292  1.00  0.00     0.014 A 
HETATM    4  C4  UNL     1      -0.365  -2.182  -0.320  1.00  0.00     0.066 A 
HETATM    5  C5  UNL     1      -0.392  -0.789  -0.440  1.00  0.00     0.012 A 
HETATM    6  C6  UNL     1      -1.621  -0.096  -0.551  1.00  0.00     0.001 A 
HETATM    7  C7  UNL     1       0.969  -0.336  -0.444  1.00  0.00     0.017 A 
HETATM    8  C8  UNL     1       1.753  -1.450  -0.326  1.00  0.00     0.077 A 
HETATM    9  N1  UNL     1       0.970  -2.620  -0.254  1.00  0.00    -0.122 NA
ENDROOT
BRANCH   7  10
HETATM   10  C10 UNL     1       1.455   1.077  -0.537  1.00  0.00     0.155 C 
BRANCH  10  11
HETATM   11  N2  UNL     1       0.572   1.925   0.264  1.00  0.00    -0.250 NA
BRANCH  11  12
HETATM   12  C11 UNL     1       0.760   3.274   0.433  1.00  0.00     0.157 C 
HETATM   13  S2  UNL     1       1.981   4.111  -0.118  1.00  0.00    -0.051 SA
BRANCH  12  14
HETATM   14  S1  UNL     1      -0.528   4.165   1.355  1.00  0.00    -0.084 SA
HETATM   15  C12 UNL     1      -1.006   5.684   0.484  1.00  0.00     0.076 C 
ENDBRANCH  12  14
ENDBRANCH  11  12
ENDBRANCH  10  11
ENDBRANCH   7  10
BRANCH   9  16
HETATM   16  O1  UNL     1       1.240  -3.404   0.773  1.00  0.00    -0.272 OA
HETATM   17  C9  UNL     1       1.882  -4.587   0.350  1.00  0.00     0.202 C 
ENDBRANCH   9  16
TORSDOF 5
