REMARK  2 active torsions:
REMARK  status: ('A' for Active; 'I' for Inactive)
REMARK    1  A    between atoms: C2_3  and  C20_26 
REMARK    2  A    between atoms: C18_21  and  O2_22 
ROOT
HETATM    1  O1  UNL     1       5.551   0.594  -0.662  1.00  0.00    -0.295 OA
HETATM    2  C1  UNL     1       5.351  -0.732  -0.892  1.00  0.00     0.304 C 
HETATM    3  C2  UNL     1       4.076  -1.349  -0.293  1.00  0.00     0.222 C 
HETATM    4  C3  UNL     1       2.940  -0.353  -0.191  1.00  0.00     0.019 A 
HETATM    5  C4  UNL     1       3.269   0.944   0.071  1.00  0.00     0.063 A 
HETATM    6  C5  UNL     1       4.715   1.312   0.216  1.00  0.00     0.183 C 
HETATM    7  C6  UNL     1       2.199   1.950   0.234  1.00  0.00     0.259 A 
HETATM    8  N1  UNL     1       0.933   1.484   0.101  1.00  0.00    -0.290 N 
HETATM    9  C7  UNL     1       0.567   0.173  -0.165  1.00  0.00     0.080 A 
HETATM   10  C8  UNL     1       1.549  -0.760  -0.314  1.00  0.00     0.017 A 
HETATM   11  C9  UNL     1      -0.888   0.055  -0.213  1.00  0.00     0.095 A 
HETATM   12  C10 UNL     1      -1.382   1.361   0.037  1.00  0.00     0.020 A 
HETATM   13  C11 UNL     1      -0.258   2.339   0.242  1.00  0.00     0.138 A 
HETATM   14  C12 UNL     1      -2.735   1.588   0.069  1.00  0.00     0.003 A 
HETATM   15  C13 UNL     1      -3.596   0.470  -0.158  1.00  0.00     0.040 A 
HETATM   16  C14 UNL     1      -3.009  -0.795  -0.395  1.00  0.00     0.083 A 
HETATM   17  N2  UNL     1      -1.647  -0.993  -0.425  1.00  0.00    -0.244 NA
HETATM   18  C15 UNL     1      -3.851  -1.930  -0.590  1.00  0.00     0.019 C 
HETATM   19  C16 UNL     1      -5.214  -1.790  -0.503  1.00  0.00     0.004 C 
HETATM   20  C17 UNL     1      -5.783  -0.515  -0.241  1.00  0.00     0.024 C 
HETATM   21  C18 UNL     1      -5.024   0.635  -0.164  1.00  0.00     0.096 C 
HETATM   22  O3  UNL     1       2.440   3.135   0.488  1.00  0.00    -0.267 OA
HETATM   23  O4  UNL     1       3.664  -2.413  -1.143  1.00  0.00    -0.211 OA
HETATM   24  O5  UNL     1       6.132  -1.383  -1.554  1.00  0.00    -0.261 OA
ENDROOT
BRANCH   3  25
HETATM   25  C20 UNL     1       4.440  -1.954   1.070  1.00  0.00     0.045 C 
HETATM   26  C21 UNL     1       3.274  -2.643   1.792  1.00  0.00     0.004 C 
ENDBRANCH   3  25
BRANCH  21  27
HETATM   27  O2  UNL     1      -5.613   1.827   0.170  1.00  0.00    -0.328 OA
HETATM   28  C19 UNL     1      -6.026   2.581  -0.948  1.00  0.00     0.181 C 
ENDBRANCH  21  27
TORSDOF 2
