REMARK  3 active torsions:
REMARK  status: ('A' for Active; 'I' for Inactive)
REMARK    1  A    between atoms: C2_2  and  O2_11 
REMARK    2  A    between atoms: C5_5  and  C7_7 
REMARK    3  A    between atoms: C8_8  and  C9_9 
ROOT
HETATM    1  C1  UNL     1       1.924   0.764   0.001  1.00  0.00     0.024 A 
HETATM    2  C2  UNL     1       2.438  -0.520   0.219  1.00  0.00     0.094 A 
HETATM    3  C3  UNL     1       1.486  -1.542   0.365  1.00  0.00     0.024 A 
HETATM    4  C4  UNL     1       0.115  -1.286   0.336  1.00  0.00     0.002 A 
HETATM    5  C5  UNL     1      -0.384   0.009   0.128  1.00  0.00    -0.000 A 
HETATM    6  C6  UNL     1       0.554   1.036  -0.034  1.00  0.00     0.002 A 
ENDROOT
BRANCH   5   7
HETATM    7  C7  UNL     1      -1.841   0.212   0.086  1.00  0.00    -0.002 C 
HETATM    8  C8  UNL     1      -2.474   1.371  -0.187  1.00  0.00     0.009 C 
BRANCH   8   9
HETATM    9  C9  UNL     1      -3.975   1.477  -0.228  1.00  0.00     0.209 C 
HETATM   10  O1  UNL     1      -4.396   2.788  -0.583  1.00  0.00    -0.215 OA
ENDBRANCH   8   9
ENDBRANCH   5   7
BRANCH   2  11
HETATM   11  O2  UNL     1       3.798  -0.700   0.202  1.00  0.00    -0.328 OA
HETATM   12  C10 UNL     1       4.296  -2.016   0.136  1.00  0.00     0.181 C 
ENDBRANCH   2  11
TORSDOF 3
