REMARK  6 active torsions:
REMARK  status: ('A' for Active; 'I' for Inactive)
REMARK    1  A    between atoms: C6_6  and  O1_7 
REMARK    2  A    between atoms: C16_17  and  C19_20 
REMARK    3  A    between atoms: C19_20  and  C20_21 
REMARK    4  A    between atoms: C20_21  and  C21_22 
REMARK    5  A    between atoms: C22_23  and  C23_24 
REMARK    6  A    between atoms: C23_24  and  C24_25 
ROOT
HETATM    1  C1  UNL     1      -4.759  -3.256  -0.829  1.00  0.00     0.025 C 
HETATM    2  C2  UNL     1      -3.283  -2.788  -0.999  1.00  0.00     0.002 C 
HETATM    3  C3  UNL     1      -3.181  -1.283  -1.224  1.00  0.00     0.000 A 
HETATM    4  C4  UNL     1      -3.782  -0.900  -2.577  1.00  0.00     0.003 C 
HETATM    5  C5  UNL     1      -5.059  -1.722  -2.861  1.00  0.00     0.030 C 
HETATM    6  C6  UNL     1      -5.689  -2.244  -1.559  1.00  0.00     0.115 C 
HETATM    7  C8  UNL     1      -2.071  -0.499  -0.538  1.00  0.00     0.000 A 
HETATM    8  C9  UNL     1      -1.262  -1.128   0.609  1.00  0.00     0.000 C 
HETATM    9  C10 UNL     1      -1.765  -2.518   1.059  1.00  0.00     0.000 C 
HETATM   10  C11 UNL     1      -2.214  -3.422  -0.092  1.00  0.00     0.000 C 
HETATM   11  C12 UNL     1       0.268  -0.991   0.411  1.00  0.00     0.000 C 
HETATM   12  C13 UNL     1       0.655   0.505   0.143  1.00  0.00     0.000 C 
HETATM   13  C14 UNL     1       0.088   0.842  -1.248  1.00  0.00     0.000 C 
HETATM   14  C15 UNL     1      -1.446   0.696  -1.274  1.00  0.00     0.000 C 
HETATM   15  C16 UNL     1       2.206   0.498   0.294  1.00  0.00     0.000 C 
HETATM   16  C17 UNL     1       2.422  -0.507   1.453  1.00  0.00     0.000 C 
HETATM   17  C18 UNL     1       1.118  -1.298   1.658  1.00  0.00     0.000 C 
HETATM   18  C27 UNL     1       0.085   1.521   1.167  1.00  0.00     0.000 C 
HETATM   19  C28 UNL     1       0.716  -1.974  -0.700  1.00  0.00     0.000 C 
HETATM   20  C29 UNL     1      -3.520  -0.311  -0.124  1.00  0.00     0.000 A 
HETATM   21  C30 UNL     1      -4.914  -4.675  -1.433  1.00  0.00     0.002 C 
HETATM   22  C31 UNL     1      -5.198  -3.349   0.650  1.00  0.00     0.002 C 
ENDROOT
BRANCH  15  23
HETATM   23  C19 UNL     1       2.984   1.823   0.512  1.00  0.00     0.004 C 
HETATM   24  C26 UNL     1       2.864   2.785  -0.685  1.00  0.00     0.000 C 
BRANCH  23  25
HETATM   25  C20 UNL     1       4.487   1.577   0.796  1.00  0.00     0.026 C 
BRANCH  25  26
HETATM   26  C21 UNL     1       5.212   2.826   1.241  1.00  0.00    -0.028 C 
HETATM   27  C22 UNL     1       6.514   3.051   1.008  1.00  0.00     0.001 C 
BRANCH  27  28
HETATM   28  C23 UNL     1       7.312   4.266   1.435  1.00  0.00     0.175 C 
HETATM   29  C25 UNL     1       7.709   5.064   0.193  1.00  0.00     0.040 C 
HETATM   30  O3  UNL     1       8.487   3.807   2.069  1.00  0.00    -0.219 OA
BRANCH  28  31
HETATM   31  C24 UNL     1       6.632   5.166   2.457  1.00  0.00     0.217 C 
HETATM   32  O2  UNL     1       6.436   4.424   3.644  1.00  0.00    -0.218 OA
ENDBRANCH  28  31
ENDBRANCH  27  28
ENDBRANCH  25  26
ENDBRANCH  23  25
ENDBRANCH  15  23
BRANCH   6  33
HETATM   33  O1  UNL     1      -6.938  -2.837  -1.803  1.00  0.00    -0.354 OA
HETATM   34  C7  UNL     1      -8.008  -1.916  -1.835  1.00  0.00     0.174 C 
ENDBRANCH   6  33
TORSDOF 6
