REMARK  2 active torsions:
REMARK  status: ('A' for Active; 'I' for Inactive)
REMARK    1  A    between atoms: C13_13  and  C15_17 
REMARK    2  A    between atoms: C15_17  and  O3_18 
ROOT
HETATM    1  C1  UNL     1      -1.114  -1.328  -0.221  1.00  0.00     0.129 C 
HETATM    2  C2  UNL     1       0.413  -1.273  -0.266  1.00  0.00     0.040 C 
HETATM    3  C3  UNL     1       1.139  -0.715  -1.491  1.00  0.00     0.007 C 
HETATM    4  C4  UNL     1       0.986   0.780  -1.755  1.00  0.00     0.022 C 
HETATM    5  C5  UNL     1      -0.416   1.081  -2.215  1.00  0.00    -0.044 C 
HETATM    6  C6  UNL     1      -1.503   1.183  -1.179  1.00  0.00     0.025 C 
HETATM    7  C7  UNL     1      -1.264   2.175  -0.028  1.00  0.00     0.009 C 
HETATM    8  C8  UNL     1      -2.402   1.870   0.954  1.00  0.00     0.022 C 
HETATM    9  C9  UNL     1      -2.798   0.450   0.637  1.00  0.00    -0.042 C 
HETATM   10  C10 UNL     1      -2.029  -0.120  -0.544  1.00  0.00     0.050 C 
HETATM   11  C11 UNL     1      -3.780  -0.188   1.289  1.00  0.00    -0.009 C 
HETATM   12  C12 UNL     1      -0.691   1.202  -3.526  1.00  0.00    -0.009 C 
HETATM   13  C13 UNL     1       0.754  -0.782   1.143  1.00  0.00     0.118 C 
HETATM   14  C14 UNL     1      -0.346  -1.478   1.929  1.00  0.00     0.274 C 
HETATM   15  O1  UNL     1      -1.367  -1.781   1.083  1.00  0.00    -0.304 OA
HETATM   16  O2  UNL     1      -0.323  -1.742   3.110  1.00  0.00    -0.264 OA
ENDROOT
BRANCH  13  17
HETATM   17  C15 UNL     1       2.159  -1.095   1.656  1.00  0.00     0.152 C 
BRANCH  17  18
HETATM   18  O3  UNL     1       3.080  -0.257   1.003  1.00  0.00    -0.351 OA
HETATM   19  C16 UNL     1       4.399  -0.442   1.470  1.00  0.00     0.174 C 
ENDBRANCH  17  18
ENDBRANCH  13  17
TORSDOF 2
