REMARK  6 active torsions:
REMARK  status: ('A' for Active; 'I' for Inactive)
REMARK    1  A    between atoms: C2_2  and  O5_21 
REMARK    2  A    between atoms: C3_3  and  C10_12 
REMARK    3  A    between atoms: C10_12  and  C11_13 
REMARK    4  A    between atoms: C11_13  and  C12_14 
REMARK    5  A    between atoms: C11_13  and  O4_18 
REMARK    6  A    between atoms: O4_18  and  C15_19 
ROOT
HETATM    1  C1  UNL     1       3.376  -1.046   0.342  1.00  0.00     0.024 C 
HETATM    2  C2  UNL     1       2.033  -1.436   0.254  1.00  0.00     0.092 C 
HETATM    3  C3  UNL     1       1.058  -0.523   0.704  1.00  0.00     0.025 C 
HETATM    4  C4  UNL     1       1.413   0.648   1.405  1.00  0.00     0.101 A 
HETATM    5  C5  UNL     1       2.778   0.946   1.559  1.00  0.00     0.023 A 
HETATM    6  C6  UNL     1       3.758   0.110   1.012  1.00  0.00     0.004 C 
HETATM    7  C7  UNL     1       3.180   2.161   2.265  1.00  0.00     0.007 A 
HETATM    8  C8  UNL     1       2.222   2.974   2.756  1.00  0.00     0.069 A 
HETATM    9  C9  UNL     1       0.805   2.598   2.556  1.00  0.00     0.300 A 
HETATM   10  O1  UNL     1       0.431   1.466   1.897  1.00  0.00    -0.273 OA
HETATM   11  O2  UNL     1      -0.052   3.352   3.013  1.00  0.00    -0.259 OA
ENDROOT
BRANCH   3  12
HETATM   12  C10 UNL     1      -0.419  -0.812   0.475  1.00  0.00     0.062 C 
BRANCH  12  13
HETATM   13  C11 UNL     1      -1.167   0.165  -0.453  1.00  0.00     0.147 C 
BRANCH  13  14
HETATM   14  C12 UNL     1      -0.525   0.399  -1.832  1.00  0.00     0.152 C 
HETATM   15  C13 UNL     1      -0.523  -0.853  -2.713  1.00  0.00     0.035 C 
HETATM   16  O3  UNL     1       0.806   0.810  -1.661  1.00  0.00    -0.224 OA
HETATM   17  C14 UNL     1      -1.231   1.542  -2.577  1.00  0.00     0.035 C 
ENDBRANCH  13  14
BRANCH  13  18
HETATM   18  O4  UNL     1      -2.485  -0.268  -0.680  1.00  0.00    -0.354 OA
BRANCH  18  19
HETATM   19  C15 UNL     1      -3.320  -0.259   0.452  1.00  0.00     0.142 C 
HETATM   20  C16 UNL     1      -4.750  -0.534  -0.006  1.00  0.00     0.035 C 
ENDBRANCH  18  19
ENDBRANCH  13  18
ENDBRANCH  12  13
ENDBRANCH   3  12
BRANCH   2  21
HETATM   21  O5  UNL     1       1.711  -2.549  -0.479  1.00  0.00    -0.328 OA
HETATM   22  C17 UNL     1       1.698  -3.737   0.279  1.00  0.00     0.181 C 
ENDBRANCH   2  21
TORSDOF 6
