REMARK  3 active torsions:
REMARK  status: ('A' for Active; 'I' for Inactive)
REMARK    1  A    between atoms: C2_2  and  O3_18 
REMARK    2  A    between atoms: C3_3  and  C13_15 
REMARK    3  A    between atoms: C6_6  and  C7_7 
ROOT
HETATM    1  C1  UNL     1       1.834  -0.075   1.786  1.00  0.00     0.156 A 
HETATM    2  C2  UNL     1       1.876   0.572   0.509  1.00  0.00     0.119 A 
HETATM    3  C3  UNL     1       0.758   0.463  -0.322  1.00  0.00     0.017 A 
HETATM    4  C4  UNL     1      -0.399  -0.274   0.153  1.00  0.00     0.003 A 
HETATM    5  C5  UNL     1      -0.442  -0.897   1.424  1.00  0.00     0.031 A 
HETATM    6  C6  UNL     1       0.748  -0.809   2.213  1.00  0.00     0.071 A 
HETATM    7  C8  UNL     1      -1.644  -1.554   1.878  1.00  0.00     0.131 A 
HETATM    8  C9  UNL     1      -2.732  -1.617   1.041  1.00  0.00     0.023 A 
HETATM    9  C10 UNL     1      -2.718  -1.058  -0.258  1.00  0.00    -0.020 A 
HETATM   10  C11 UNL     1      -1.581  -0.398  -0.650  1.00  0.00    -0.004 A 
HETATM   11  C12 UNL     1      -3.944  -1.146  -1.133  1.00  0.00     0.031 C 
HETATM   12  O2  UNL     1      -1.816  -2.063   3.126  1.00  0.00    -0.190 OA
HETATM   13  O4  UNL     1       2.959  -0.035   2.561  1.00  0.00    -0.188 OA
ENDROOT
BRANCH   3  14
HETATM   14  C13 UNL     1       0.695   1.099  -1.714  1.00  0.00    -0.042 C 
HETATM   15  C14 UNL     1       0.665   0.088  -2.878  1.00  0.00     0.026 C 
HETATM   16  C15 UNL     1      -0.271   2.297  -1.809  1.00  0.00     0.026 C 
ENDBRANCH   3  14
BRANCH   2  17
HETATM   17  O3  UNL     1       3.098   1.195   0.335  1.00  0.00    -0.326 OA
HETATM   18  C16 UNL     1       3.539   1.885  -0.803  1.00  0.00     0.181 C 
ENDBRANCH   2  17
BRANCH   6  19
HETATM   19  C7  UNL     1       0.908  -1.468   3.546  1.00  0.00     0.236 C 
HETATM   20  O1  UNL     1       0.657  -2.644   3.755  1.00  0.00    -0.283 OA
ENDBRANCH   6  19
TORSDOF 3
