REMARK  13 active torsions:
REMARK  status: ('A' for Active; 'I' for Inactive)
REMARK    1  A    between atoms: C2_2  and  C3_3 
REMARK    2  A    between atoms: C3_3  and  C4_5 
REMARK    3  A    between atoms: C5_6  and  C6_7 
REMARK    4  A    between atoms: C7_8  and  C8_9 
REMARK    5  A    between atoms: C8_9  and  C9_11 
REMARK    6  A    between atoms: C9_11  and  C10_12 
REMARK    7  A    between atoms: C9_11  and  O3_20 
REMARK    8  A    between atoms: C10_12  and  C11_13 
REMARK    9  A    between atoms: C11_13  and  C12_14 
REMARK   10  A    between atoms: C12_14  and  C13_15 
REMARK   11  A    between atoms: C13_15  and  C14_16 
REMARK   12  A    between atoms: C14_16  and  C15_17 
REMARK   13  A    between atoms: C15_17  and  C16_18 
ROOT
HETATM    1  C9  UNL     1      -0.796   0.705   1.218  1.00  0.00     0.158 C 
ENDROOT
BRANCH   1   2
HETATM    2  C8  UNL     1      -1.403  -0.019   2.426  1.00  0.00     0.243 C 
HETATM    3  O2  UNL     1      -1.602   0.921   3.473  1.00  0.00    -0.206 OA
BRANCH   2   4
HETATM    4  C7  UNL     1      -2.692  -0.699   2.162  1.00  0.00    -0.043 C 
HETATM    5  C6  UNL     1      -3.845  -1.061   2.047  1.00  0.00    -0.011 C 
BRANCH   5   6
HETATM    6  C5  UNL     1      -5.248  -1.418   1.950  1.00  0.00    -0.011 C 
HETATM    7  C4  UNL     1      -6.432  -1.675   1.891  1.00  0.00    -0.041 C 
BRANCH   7   8
HETATM    8  C3  UNL     1      -7.888  -1.908   1.857  1.00  0.00     0.238 C 
HETATM    9  O1  UNL     1      -8.221  -2.683   0.708  1.00  0.00    -0.204 OA
BRANCH   8  10
HETATM   10  C2  UNL     1      -8.637  -0.601   1.843  1.00  0.00     0.019 C 
HETATM   11  C1  UNL     1      -9.517  -0.231   2.784  1.00  0.00    -0.001 C 
ENDBRANCH   8  10
ENDBRANCH   7   8
ENDBRANCH   5   6
ENDBRANCH   2   4
ENDBRANCH   1   2
BRANCH   1  12
HETATM   12  C10 UNL     1       0.116  -0.198   0.366  1.00  0.00     0.033 C 
BRANCH  12  13
HETATM   13  C11 UNL     1       1.440   0.504   0.005  1.00  0.00     0.003 C 
BRANCH  13  14
HETATM   14  C12 UNL     1       2.403  -0.358  -0.829  1.00  0.00     0.000 C 
BRANCH  14  15
HETATM   15  C13 UNL     1       3.708   0.410  -1.108  1.00  0.00     0.000 C 
BRANCH  15  16
HETATM   16  C14 UNL     1       4.736  -0.404  -1.908  1.00  0.00     0.000 C 
BRANCH  16  17
HETATM   17  C15 UNL     1       6.029   0.399  -2.133  1.00  0.00     0.000 C 
BRANCH  17  18
HETATM   18  C16 UNL     1       7.083  -0.393  -2.921  1.00  0.00     0.000 C 
HETATM   19  C17 UNL     1       8.371   0.417  -3.123  1.00  0.00     0.000 C 
ENDBRANCH  17  18
ENDBRANCH  16  17
ENDBRANCH  15  16
ENDBRANCH  14  15
ENDBRANCH  13  14
ENDBRANCH  12  13
ENDBRANCH   1  12
BRANCH   1  20
HETATM   20  O3  UNL     1      -1.854   1.258   0.476  1.00  0.00    -0.350 OA
HETATM   21  C18 UNL     1      -1.458   2.162  -0.532  1.00  0.00     0.174 C 
ENDBRANCH   1  20
TORSDOF 13
