REMARK  3 active torsions:
REMARK  status: ('A' for Active; 'I' for Inactive)
REMARK    1  A    between atoms: C13_14  and  C16_18 
REMARK    2  A    between atoms: C14_15  and  O2_16 
REMARK    3  A    between atoms: C16_18  and  O3_19 
ROOT
HETATM    1  C1  UNL     1      -5.545   0.790  -0.254  1.00  0.00     0.000 A 
HETATM    2  C2  UNL     1      -4.413   1.584  -0.472  1.00  0.00     0.003 A 
HETATM    3  C3  UNL     1      -3.136   1.096  -0.171  1.00  0.00     0.042 A 
HETATM    4  C4  UNL     1      -2.987  -0.197   0.359  1.00  0.00     0.042 A 
HETATM    5  C5  UNL     1      -4.125  -0.984   0.573  1.00  0.00     0.003 A 
HETATM    6  C6  UNL     1      -5.400  -0.493   0.267  1.00  0.00     0.000 A 
HETATM    7  C7  UNL     1      -1.647  -0.750   0.684  1.00  0.00     0.198 A 
HETATM    8  C8  UNL     1      -0.442   0.067   0.353  1.00  0.00     0.064 A 
HETATM    9  C9  UNL     1      -0.611   1.362  -0.174  1.00  0.00     0.046 A 
HETATM   10  C10 UNL     1      -1.952   1.950  -0.423  1.00  0.00     0.196 A 
HETATM   11  O1  UNL     1      -2.083   3.098  -0.843  1.00  0.00    -0.287 OA
HETATM   12  C11 UNL     1       0.510   2.130  -0.491  1.00  0.00     0.031 A 
HETATM   13  C12 UNL     1       1.805   1.656  -0.263  1.00  0.00     0.131 A 
HETATM   14  C13 UNL     1       1.963   0.368   0.261  1.00  0.00     0.055 A 
HETATM   15  C14 UNL     1       0.853  -0.470   0.512  1.00  0.00     0.098 A 
HETATM   16  O4  UNL     1       2.882   2.421  -0.589  1.00  0.00    -0.190 OA
HETATM   17  O5  UNL     1      -1.582  -1.871   1.183  1.00  0.00    -0.286 OA
ENDROOT
BRANCH  14  18
HETATM   18  C16 UNL     1       3.384  -0.109   0.517  1.00  0.00     0.173 C 
BRANCH  18  19
HETATM   19  O3  UNL     1       4.053  -0.258  -0.720  1.00  0.00    -0.347 OA
HETATM   20  C17 UNL     1       5.358  -0.772  -0.571  1.00  0.00     0.175 C 
ENDBRANCH  18  19
ENDBRANCH  14  18
BRANCH  15  21
HETATM   21  O2  UNL     1       1.058  -1.696   1.095  1.00  0.00    -0.328 OA
HETATM   22  C15 UNL     1       1.210  -2.749   0.169  1.00  0.00     0.181 C 
ENDBRANCH  15  21
TORSDOF 3
