REMARK  1 active torsions:
REMARK  status: ('A' for Active; 'I' for Inactive)
REMARK    1  A    between atoms: C6_6  and  O1_7 
ROOT
HETATM    1  C1  UNL     1      -1.202   0.106  -0.062  1.00  0.00     0.143 A 
HETATM    2  C2  UNL     1      -0.258   1.129   0.017  1.00  0.00     0.144 A 
HETATM    3  C3  UNL     1       1.115   0.915   0.142  1.00  0.00     0.128 A 
HETATM    4  C4  UNL     1       1.485  -0.442   0.184  1.00  0.00     0.027 A 
HETATM    5  C5  UNL     1       0.528  -1.471   0.104  1.00  0.00     0.028 A 
HETATM    6  C6  UNL     1      -0.852  -1.251  -0.020  1.00  0.00     0.118 A 
HETATM    7  C8  UNL     1       2.905  -0.764   0.305  1.00  0.00     0.008 A 
HETATM    8  C9  UNL     1       3.801   0.245   0.370  1.00  0.00     0.069 A 
HETATM    9  C10 UNL     1       3.317   1.644   0.318  1.00  0.00     0.300 A 
HETATM   10  O2  UNL     1       1.994   1.959   0.211  1.00  0.00    -0.271 OA
HETATM   11  O3  UNL     1       4.159   2.539   0.376  1.00  0.00    -0.259 OA
HETATM   12  O4  UNL     1      -0.899   2.351  -0.059  1.00  0.00    -0.297 OA
HETATM   13  C11 UNL     1      -2.298   2.106  -0.211  1.00  0.00     0.304 A 
HETATM   14  O5  UNL     1      -2.453   0.685  -0.185  1.00  0.00    -0.297 OA
ENDROOT
BRANCH   6  15
HETATM   15  O1  UNL     1      -1.696  -2.328  -0.099  1.00  0.00    -0.326 OA
HETATM   16  C7  UNL     1      -3.075  -2.101  -0.254  1.00  0.00     0.181 C 
ENDBRANCH   6  15
TORSDOF 1
