REMARK  2 active torsions:
REMARK  status: ('A' for Active; 'I' for Inactive)
REMARK    1  A    between atoms: C4_4  and  O3_18 
REMARK    2  A    between atoms: C7_8  and  C10_12 
ROOT
HETATM    1  C1  UNL     1       2.082   0.607  -0.932  1.00  0.00     0.051 A 
HETATM    2  C2  UNL     1       3.159  -0.258  -1.009  1.00  0.00     0.123 A 
HETATM    3  C3  UNL     1       3.049  -1.551  -0.524  1.00  0.00     0.141 A 
HETATM    4  C4  UNL     1       1.897  -2.087   0.066  1.00  0.00     0.123 A 
HETATM    5  C5  UNL     1       0.796  -1.178   0.138  1.00  0.00     0.086 A 
HETATM    6  C6  UNL     1       0.887   0.152  -0.358  1.00  0.00     0.107 A 
HETATM    7  O1  UNL     1      -0.113   1.085  -0.325  1.00  0.00    -0.307 OA
HETATM    8  C7  UNL     1      -1.340   0.771   0.174  1.00  0.00     0.103 A 
HETATM    9  C8  UNL     1      -1.577  -0.457   0.684  1.00  0.00     0.067 A 
HETATM   10  C9  UNL     1      -0.535  -1.510   0.720  1.00  0.00     0.202 A 
HETATM   11  O2  UNL     1      -0.879  -2.566   1.234  1.00  0.00    -0.286 OA
HETATM   12  O4  UNL     1       4.267  -2.184  -0.727  1.00  0.00    -0.298 OA
HETATM   13  C17 UNL     1       5.166  -1.250  -1.337  1.00  0.00     0.304 A 
HETATM   14  O5  UNL     1       4.421  -0.043  -1.519  1.00  0.00    -0.299 OA
ENDROOT
BRANCH   8  15
HETATM   15  C10 UNL     1      -2.403   1.805   0.155  1.00  0.00     0.023 A 
HETATM   16  C11 UNL     1      -2.096   3.072  -0.381  1.00  0.00     0.002 A 
HETATM   17  C12 UNL     1      -3.039   4.098  -0.432  1.00  0.00     0.000 A 
HETATM   18  C13 UNL     1      -4.330   3.888   0.055  1.00  0.00     0.000 A 
HETATM   19  C14 UNL     1      -4.660   2.644   0.590  1.00  0.00     0.000 A 
HETATM   20  C15 UNL     1      -3.710   1.620   0.638  1.00  0.00     0.002 A 
ENDBRANCH   8  15
BRANCH   4  21
HETATM   21  O3  UNL     1       2.081  -3.395   0.456  1.00  0.00    -0.326 OA
HETATM   22  C16 UNL     1       1.119  -4.200   1.076  1.00  0.00     0.181 C 
ENDBRANCH   4  21
TORSDOF 2
