REMARK  3 active torsions:
REMARK  status: ('A' for Active; 'I' for Inactive)
REMARK    1  A    between atoms: C8_8  and  C17_19 
REMARK    2  A    between atoms: C12_13  and  O2_15 
REMARK    3  A    between atoms: C17_19  and  O3_20 
ROOT
HETATM    1  C1  UNL     1      -3.844  -1.131   0.858  1.00  0.00     0.002 A 
HETATM    2  C2  UNL     1      -4.102  -2.436   0.512  1.00  0.00     0.000 A 
HETATM    3  C3  UNL     1      -3.078  -3.235  -0.059  1.00  0.00     0.000 A 
HETATM    4  C4  UNL     1      -1.827  -2.705  -0.264  1.00  0.00     0.002 A 
HETATM    5  C5  UNL     1      -1.532  -1.348   0.088  1.00  0.00     0.024 A 
HETATM    6  C6  UNL     1      -2.549  -0.559   0.655  1.00  0.00     0.027 A 
HETATM    7  C7  UNL     1      -2.282   0.796   1.024  1.00  0.00     0.136 A 
HETATM    8  C8  UNL     1      -1.018   1.296   0.798  1.00  0.00     0.086 A 
HETATM    9  C9  UNL     1       0.016   0.503   0.208  1.00  0.00     0.010 A 
HETATM   10  C10 UNL     1      -0.222  -0.813  -0.146  1.00  0.00     0.090 A 
HETATM   11  O1  UNL     1       0.754  -1.638  -0.639  1.00  0.00    -0.334 OA
HETATM   12  C11 UNL     1       2.079  -1.267  -0.425  1.00  0.00     0.124 C 
HETATM   13  C12 UNL     1       2.251   0.173  -0.911  1.00  0.00     0.145 C 
HETATM   14  C13 UNL     1       1.379   1.102  -0.065  1.00  0.00     0.061 C 
HETATM   15  C15 UNL     1       2.933  -2.229  -1.267  1.00  0.00     0.033 C 
HETATM   16  C16 UNL     1       2.442  -1.476   1.054  1.00  0.00     0.033 C 
HETATM   17  O5  UNL     1      -3.224   1.534   1.664  1.00  0.00    -0.190 OA
ENDROOT
BRANCH   8  18
HETATM   18  C17 UNL     1      -0.706   2.710   1.240  1.00  0.00     0.298 C 
HETATM   19  O4  UNL     1       0.242   2.817   2.012  1.00  0.00    -0.259 OA
BRANCH  18  20
HETATM   20  O3  UNL     1      -1.383   3.845   0.885  1.00  0.00    -0.296 OA
HETATM   21  C18 UNL     1      -2.413   3.791  -0.074  1.00  0.00     0.185 C 
ENDBRANCH  18  20
ENDBRANCH   8  18
BRANCH  13  22
HETATM   22  O2  UNL     1       3.605   0.534  -0.837  1.00  0.00    -0.351 OA
HETATM   23  C14 UNL     1       3.942   1.644  -1.640  1.00  0.00     0.174 C 
ENDBRANCH  13  22
TORSDOF 3
