REMARK  7 active torsions:
REMARK  status: ('A' for Active; 'I' for Inactive)
REMARK    1  A    between atoms: C1_1  and  C23_26 
REMARK    2  A    between atoms: C2_2  and  O3_24 
REMARK    3  A    between atoms: C5_5  and  C15_15 
REMARK    4  A    between atoms: C6_6  and  C7_7 
REMARK    5  A    between atoms: C8_8  and  C9_9 
REMARK    6  A    between atoms: C15_15  and  C16_16 
REMARK    7  A    between atoms: C23_26  and  C24_27 
ROOT
HETATM    1  C1  UNL     1       2.244  -0.488   0.398  1.00  0.00     0.004 A 
HETATM    2  C2  UNL     1       2.909  -1.727   0.474  1.00  0.00     0.092 A 
HETATM    3  C3  UNL     1       2.149  -2.823   0.896  1.00  0.00     0.051 A 
HETATM    4  C4  UNL     1       0.782  -2.777   1.184  1.00  0.00     0.129 A 
HETATM    5  C5  UNL     1       0.119  -1.544   1.079  1.00  0.00     0.007 A 
HETATM    6  C6  UNL     1       0.874  -0.417   0.701  1.00  0.00    -0.003 A 
HETATM    7  O2  UNL     1       0.191  -3.914   1.645  1.00  0.00    -0.190 OA
ENDROOT
BRANCH   1   8
HETATM    8  C23 UNL     1       3.092   0.735   0.071  1.00  0.00     0.055 C 
BRANCH   8   9
HETATM    9  C24 UNL     1       2.443   1.888  -0.654  1.00  0.00    -0.018 A 
HETATM   10  C25 UNL     1       2.361   3.155  -0.064  1.00  0.00    -0.002 A 
HETATM   11  C26 UNL     1       1.748   4.218  -0.729  1.00  0.00     0.027 A 
HETATM   12  C27 UNL     1       1.213   4.059  -2.010  1.00  0.00     0.131 A 
HETATM   13  C28 UNL     1       1.309   2.795  -2.601  1.00  0.00     0.027 A 
HETATM   14  O4  UNL     1       0.559   5.072  -2.635  1.00  0.00    -0.190 OA
HETATM   15  C29 UNL     1       1.930   1.730  -1.945  1.00  0.00    -0.002 A 
ENDBRANCH   8   9
ENDBRANCH   1   8
BRANCH   2  16
HETATM   16  O3  UNL     1       4.265  -1.778   0.251  1.00  0.00    -0.328 OA
HETATM   17  C22 UNL     1       4.982  -2.919   0.661  1.00  0.00     0.181 C 
ENDBRANCH   2  16
BRANCH   6  18
HETATM   18  C7  UNL     1       0.178   0.913   0.636  1.00  0.00    -0.001 C 
HETATM   19  C8  UNL     1      -0.647   1.215  -0.387  1.00  0.00    -0.000 C 
BRANCH  19  20
HETATM   20  C9  UNL     1      -1.334   2.498  -0.599  1.00  0.00    -0.000 A 
HETATM   21  C10 UNL     1      -2.047   2.684  -1.797  1.00  0.00    -0.000 A 
HETATM   22  C11 UNL     1      -2.684   3.892  -2.076  1.00  0.00     0.000 A 
HETATM   23  C12 UNL     1      -2.625   4.942  -1.157  1.00  0.00     0.000 A 
HETATM   24  C13 UNL     1      -1.934   4.769   0.042  1.00  0.00     0.000 A 
HETATM   25  C14 UNL     1      -1.298   3.557   0.320  1.00  0.00    -0.000 A 
ENDBRANCH  19  20
ENDBRANCH   6  18
BRANCH   5  26
HETATM   26  C15 UNL     1      -1.349  -1.372   1.444  1.00  0.00     0.055 C 
BRANCH  26  27
HETATM   27  C16 UNL     1      -2.211  -2.605   1.353  1.00  0.00    -0.018 A 
HETATM   28  C17 UNL     1      -2.842  -3.126   2.488  1.00  0.00    -0.002 A 
HETATM   29  C18 UNL     1      -3.574  -4.311   2.417  1.00  0.00     0.027 A 
HETATM   30  C19 UNL     1      -3.704  -5.014   1.216  1.00  0.00     0.131 A 
HETATM   31  C20 UNL     1      -3.077  -4.485   0.084  1.00  0.00     0.027 A 
HETATM   32  O1  UNL     1      -4.403  -6.177   1.146  1.00  0.00    -0.190 OA
HETATM   33  C21 UNL     1      -2.344  -3.298   0.147  1.00  0.00    -0.002 A 
ENDBRANCH  26  27
ENDBRANCH   5  26
TORSDOF 7
