REMARK  3 active torsions:
REMARK  status: ('A' for Active; 'I' for Inactive)
REMARK    1  A    between atoms: C2_2  and  O3_13 
REMARK    2  A    between atoms: C5_5  and  C7_7 
REMARK    3  A    between atoms: C8_8  and  C10_10 
ROOT
HETATM    1  C1  UNL     1       1.963   0.496  -0.469  1.00  0.00     0.024 A 
HETATM    2  C2  UNL     1       2.480  -0.705   0.034  1.00  0.00     0.094 A 
HETATM    3  C3  UNL     1       1.527  -1.650   0.448  1.00  0.00     0.024 A 
HETATM    4  C4  UNL     1       0.160  -1.371   0.456  1.00  0.00     0.002 A 
HETATM    5  C5  UNL     1      -0.334  -0.129   0.028  1.00  0.00     0.000 A 
HETATM    6  C6  UNL     1       0.595   0.779  -0.490  1.00  0.00     0.002 A 
ENDROOT
BRANCH   5   7
HETATM    7  C7  UNL     1      -1.794   0.084  -0.037  1.00  0.00     0.002 C 
HETATM    8  C8  UNL     1      -2.460   1.254   0.119  1.00  0.00     0.043 C 
HETATM    9  C9  UNL     1      -1.803   2.562   0.494  1.00  0.00     0.037 C 
BRANCH   8  10
HETATM   10  C10 UNL     1      -3.940   1.248  -0.051  1.00  0.00     0.207 C 
HETATM   11  O1  UNL     1      -4.578   2.285   0.079  1.00  0.00    -0.644 OA
HETATM   12  O2  UNL     1      -4.650   0.142  -0.362  1.00  0.00    -0.644 OA
ENDBRANCH   8  10
ENDBRANCH   5   7
BRANCH   2  13
HETATM   13  O3  UNL     1       3.834  -0.927  -0.039  1.00  0.00    -0.328 OA
HETATM   14  C11 UNL     1       4.296  -2.254   0.054  1.00  0.00     0.181 C 
ENDBRANCH   2  13
TORSDOF 3
