REMARK  10 active torsions:
REMARK  status: ('A' for Active; 'I' for Inactive)
REMARK    1  A    between atoms: C3_3  and  C7_7 
REMARK    2  A    between atoms: C13_14  and  O17_62 
REMARK    3  A    between atoms: C22_23  and  O2_27 
REMARK    4  A    between atoms: O2_27  and  C26_28 
REMARK    5  A    between atoms: C27_30  and  C37_47 
REMARK    6  A    between atoms: C28_31  and  O6_36 
REMARK    7  A    between atoms: O6_36  and  C31_37 
REMARK    8  A    between atoms: C37_47  and  O11_48 
REMARK    9  A    between atoms: O11_48  and  C38_49 
REMARK   10  A    between atoms: C39_51  and  C43_58 
ROOT
HETATM    1  O2  UNL     1      -0.610  -2.026  -0.768  1.00  0.00    -0.332 OA
ENDROOT
BRANCH   1   2
HETATM    2  C22 UNL     1       0.545  -1.390  -0.249  1.00  0.00     0.118 C 
HETATM    3  C21 UNL     1       1.747  -2.331  -0.413  1.00  0.00     0.030 C 
HETATM    4  C20 UNL     1       3.035  -1.683   0.114  1.00  0.00     0.003 C 
HETATM    5  C19 UNL     1       3.341  -0.320  -0.558  1.00  0.00     0.003 C 
HETATM    6  C14 UNL     1       4.586   0.364   0.117  1.00  0.00     0.032 C 
HETATM    7  C18 UNL     1       2.099   0.605  -0.407  1.00  0.00     0.002 C 
HETATM    8  C44 UNL     1       3.600  -0.584  -2.051  1.00  0.00     0.000 C 
HETATM    9  C13 UNL     1       5.877  -0.503   0.125  1.00  0.00     0.137 C 
HETATM   10  C15 UNL     1       4.878   1.812  -0.385  1.00  0.00     0.006 C 
HETATM   11  C12 UNL     1       7.055   0.196   0.750  1.00  0.00    -0.006 C 
HETATM   12  C11 UNL     1       7.124   1.533   0.929  1.00  0.00    -0.047 C 
HETATM   13  C2  UNL     1       8.308   2.094   1.719  1.00  0.00     0.023 C 
HETATM   14  C10 UNL     1       6.041   2.504   0.439  1.00  0.00     0.017 C 
HETATM   15  C1  UNL     1       9.309   2.915   0.873  1.00  0.00     0.004 C 
HETATM   16  C3  UNL     1       7.779   2.834   2.975  1.00  0.00     0.062 C 
HETATM   17  C6  UNL     1      10.458   3.471   1.717  1.00  0.00     0.000 C 
HETATM   18  C5  UNL     1       9.911   4.305   2.880  1.00  0.00     0.000 C 
HETATM   19  C4  UNL     1       8.959   3.475   3.752  1.00  0.00     0.005 C 
HETATM   20  C8  UNL     1       6.715   3.878   2.537  1.00  0.00     0.155 C 
HETATM   21  C9  UNL     1       5.560   3.241   1.720  1.00  0.00     0.037 C 
HETATM   22  O18 UNL     1       6.159   4.529   3.667  1.00  0.00    -0.223 OA
HETATM   23  C47 UNL     1       6.656   3.587  -0.466  1.00  0.00     0.004 C 
HETATM   24  C16 UNL     1       3.579   2.652  -0.314  1.00  0.00     0.000 C 
HETATM   25  C45 UNL     1       5.284   1.733  -1.871  1.00  0.00     0.000 C 
HETATM   26  C17 UNL     1       2.382   1.995  -1.006  1.00  0.00     0.000 C 
HETATM   27  C23 UNL     1       0.767  -0.014  -0.926  1.00  0.00     0.025 C 
HETATM   28  C24 UNL     1      -0.403   0.913  -0.562  1.00  0.00     0.002 C 
HETATM   29  C25 UNL     1       0.793  -0.153  -2.456  1.00  0.00     0.002 C 
BRANCH   9  30
HETATM   30  O17 UNL     1       6.267  -0.926  -1.166  1.00  0.00    -0.350 OA
HETATM   31  C46 UNL     1       7.241  -1.945  -1.147  1.00  0.00     0.175 C 
ENDBRANCH   9  30
BRANCH  16  32
HETATM   32  C7  UNL     1       7.120   1.804   3.913  1.00  0.00     0.185 C 
HETATM   33  O1  UNL     1       8.089   0.842   4.261  1.00  0.00    -0.221 OA
ENDBRANCH  16  32
ENDBRANCH   1   2
BRANCH   1  34
HETATM   34  C26 UNL     1      -1.762  -1.826   0.027  1.00  0.00     0.270 C 
HETATM   35  O3  UNL     1      -2.877  -1.644  -0.836  1.00  0.00    -0.326 OA
HETATM   36  C27 UNL     1      -4.109  -1.379  -0.180  1.00  0.00     0.177 C 
HETATM   37  C28 UNL     1      -4.480  -2.583   0.714  1.00  0.00     0.180 C 
HETATM   38  C29 UNL     1      -3.344  -2.916   1.708  1.00  0.00     0.217 C 
HETATM   39  C30 UNL     1      -2.003  -3.049   0.949  1.00  0.00     0.241 C 
HETATM   40  O5  UNL     1      -3.635  -4.127   2.384  1.00  0.00    -0.218 OA
HETATM   41  O4  UNL     1      -0.943  -3.146   1.885  1.00  0.00    -0.215 OA
BRANCH  36  42
HETATM   42  C37 UNL     1      -5.144  -1.111  -1.277  1.00  0.00     0.177 C 
BRANCH  42  43
HETATM   43  O11 UNL     1      -4.732   0.024  -2.005  1.00  0.00    -0.326 OA
BRANCH  43  44
HETATM   44  C38 UNL     1      -5.567   0.313  -3.108  1.00  0.00     0.270 C 
HETATM   45  O12 UNL     1      -6.845   0.691  -2.616  1.00  0.00    -0.326 OA
HETATM   46  C39 UNL     1      -7.817   0.967  -3.616  1.00  0.00     0.184 C 
HETATM   47  C40 UNL     1      -7.341   2.159  -4.478  1.00  0.00     0.215 C 
HETATM   48  C41 UNL     1      -5.941   1.895  -5.075  1.00  0.00     0.220 C 
HETATM   49  O15 UNL     1      -8.278   2.366  -5.522  1.00  0.00    -0.218 OA
HETATM   50  C42 UNL     1      -4.964   1.462  -3.958  1.00  0.00     0.241 C 
HETATM   51  O14 UNL     1      -5.458   3.071  -5.706  1.00  0.00    -0.218 OA
HETATM   52  O13 UNL     1      -3.748   1.027  -4.541  1.00  0.00    -0.215 OA
BRANCH  46  53
HETATM   53  C43 UNL     1      -9.135   1.247  -2.887  1.00  0.00     0.214 C 
HETATM   54  O16 UNL     1      -9.559   0.053  -2.272  1.00  0.00    -0.218 OA
ENDBRANCH  46  53
ENDBRANCH  43  44
ENDBRANCH  42  43
ENDBRANCH  36  42
BRANCH  37  55
HETATM   55  O6  UNL     1      -5.665  -2.270   1.427  1.00  0.00    -0.326 OA
BRANCH  55  56
HETATM   56  C31 UNL     1      -6.815  -2.899   0.900  1.00  0.00     0.270 C 
HETATM   57  O7  UNL     1      -6.745  -4.287   1.197  1.00  0.00    -0.329 OA
HETATM   58  C32 UNL     1      -7.816  -5.067   0.684  1.00  0.00     0.151 C 
HETATM   59  C33 UNL     1      -9.147  -4.582   1.304  1.00  0.00     0.212 C 
HETATM   60  C36 UNL     1      -7.499  -6.527   1.018  1.00  0.00     0.035 C 
HETATM   61  C34 UNL     1      -9.356  -3.068   1.072  1.00  0.00     0.220 C 
HETATM   62  O10 UNL     1     -10.212  -5.309   0.719  1.00  0.00    -0.218 OA
HETATM   63  C35 UNL     1      -8.098  -2.288   1.518  1.00  0.00     0.241 C 
HETATM   64  O9  UNL     1     -10.485  -2.622   1.804  1.00  0.00    -0.218 OA
HETATM   65  O8  UNL     1      -8.218  -0.935   1.112  1.00  0.00    -0.215 OA
ENDBRANCH  55  56
ENDBRANCH  37  55
ENDBRANCH   1  34
TORSDOF 10
