REMARK  2 active torsions:
REMARK  status: ('A' for Active; 'I' for Inactive)
REMARK    1  A    between atoms: O1_2  and  C2_3 
REMARK    2  A    between atoms: C5_6  and  C8_9 
ROOT
HETATM    1  C2  UNL     1       0.389   1.123  -0.012  1.00  0.00     0.096 A 
HETATM    2  C3  UNL     1      -1.018   1.068  -0.012  1.00  0.00     0.052 A 
HETATM    3  C4  UNL     1      -1.682  -0.172  -0.012  1.00  0.00     0.136 A 
HETATM    4  C5  UNL     1      -0.932  -1.365  -0.012  1.00  0.00     0.068 A 
HETATM    5  C6  UNL     1       0.473  -1.311  -0.012  1.00  0.00     0.007 A 
HETATM    6  C7  UNL     1       1.131  -0.070  -0.012  1.00  0.00     0.024 A 
HETATM    7  O3  UNL     1      -3.000  -0.205  -0.012  1.00  0.00    -0.190 OA
ENDROOT
BRANCH   1   8
HETATM    8  O1  UNL     1       1.004   2.287  -0.012  1.00  0.00    -0.328 OA
HETATM    9  C1  UNL     1       2.424   2.291   0.056  1.00  0.00     0.181 C 
ENDBRANCH   1   8
BRANCH   4  10
HETATM   10  C8  UNL     1      -1.621  -2.691  -0.012  1.00  0.00     0.236 C 
HETATM   11  O2  UNL     1      -0.988  -3.721  -0.012  1.00  0.00    -0.283 OA
ENDBRANCH   4  10
TORSDOF 2
