REMARK  3 active torsions:
REMARK  status: ('A' for Active; 'I' for Inactive)
REMARK    1  A    between atoms: C1_1  and  O5_21 
REMARK    2  A    between atoms: C2_2  and  O4_19 
REMARK    3  A    between atoms: C4_4  and  C7_8 
ROOT
HETATM    1  C1  UNL     1      -3.047   2.096   0.352  1.00  0.00     0.118 A 
HETATM    2  C2  UNL     1      -2.279   1.469   1.352  1.00  0.00     0.116 A 
HETATM    3  C3  UNL     1      -1.229   0.607   0.990  1.00  0.00     0.024 A 
HETATM    4  C4  UNL     1      -0.941   0.369  -0.365  1.00  0.00     0.008 A 
HETATM    5  C5  UNL     1      -1.707   0.994  -1.367  1.00  0.00     0.129 A 
HETATM    6  C6  UNL     1      -2.758   1.856  -1.004  1.00  0.00     0.053 A 
HETATM    7  O1  UNL     1      -1.449   0.779  -2.643  1.00  0.00    -0.190 OA
ENDROOT
BRANCH   4   8
HETATM    8  C7  UNL     1       0.176  -0.547  -0.734  1.00  0.00     0.059 C 
HETATM    9  C8  UNL     1      -0.039  -1.961  -0.168  1.00  0.00     0.153 C 
HETATM   10  O2  UNL     1       1.033  -2.822  -0.570  1.00  0.00    -0.331 OA
HETATM   11  C9  UNL     1       2.311  -2.385  -0.566  1.00  0.00     0.092 A 
HETATM   12  C10 UNL     1       2.627  -1.004  -0.414  1.00  0.00     0.001 A 
HETATM   13  C15 UNL     1       3.352  -3.330  -0.727  1.00  0.00     0.051 A 
HETATM   14  C11 UNL     1       1.539  -0.004  -0.258  1.00  0.00     0.035 C 
HETATM   15  C12 UNL     1       3.982  -0.590  -0.414  1.00  0.00    -0.000 A 
HETATM   16  C13 UNL     1       5.018  -1.541  -0.568  1.00  0.00     0.027 A 
HETATM   17  C14 UNL     1       4.703  -2.910  -0.727  1.00  0.00     0.133 A 
HETATM   18  O3  UNL     1       5.686  -3.811  -0.873  1.00  0.00    -0.190 OA
ENDBRANCH   4   8
BRANCH   2  19
HETATM   19  O4  UNL     1      -2.541   1.686   2.625  1.00  0.00    -0.326 OA
HETATM   20  C16 UNL     1      -1.736   1.029   3.594  1.00  0.00     0.181 C 
ENDBRANCH   2  19
BRANCH   1  21
HETATM   21  O5  UNL     1      -4.033   2.904   0.682  1.00  0.00    -0.326 OA
HETATM   22  C17 UNL     1      -4.738   3.557  -0.363  1.00  0.00     0.181 C 
ENDBRANCH   1  21
TORSDOF 3
