REMARK  2 active torsions:
REMARK  status: ('A' for Active; 'I' for Inactive)
REMARK    1  A    between atoms: C1_2  and  O2_3 
REMARK    2  A    between atoms: C1_2  and  C3_5 
ROOT
HETATM    1  C3  UNL     1       5.100  -0.318   1.000  1.00  0.00     0.081 C 
HETATM    2  C4  UNL     1       6.131  -0.697   2.068  1.00  0.00     0.010 C 
HETATM    3  C5  UNL     1       3.701  -0.830   1.428  1.00  0.00     0.014 C 
HETATM    4  C6  UNL     1       2.750  -1.203   0.262  1.00  0.00     0.021 C 
HETATM    5  C7  UNL     1       3.012  -0.455  -1.068  1.00  0.00     0.032 C 
HETATM    6  C8  UNL     1       4.492  -0.715  -1.504  1.00  0.00     0.153 C 
HETATM    7  C9  UNL     1       5.504  -0.934  -0.352  1.00  0.00     0.042 C 
HETATM    8  O3  UNL     1       4.959   0.289  -2.385  1.00  0.00    -0.223 OA
HETATM    9  C10 UNL     1       2.106  -1.078  -2.149  1.00  0.00     0.003 C 
HETATM   10  C11 UNL     1       2.611   1.051  -0.953  1.00  0.00     0.003 C 
HETATM   11  C12 UNL     1       1.740   1.424   0.268  1.00  0.00     0.004 C 
HETATM   12  C13 UNL     1       0.707   0.357   0.727  1.00  0.00     0.015 C 
HETATM   13  C14 UNL     1       1.291  -1.041   0.633  1.00  0.00    -0.049 C 
HETATM   14  C15 UNL     1       0.492  -2.103   0.855  1.00  0.00    -0.035 C 
HETATM   15  C16 UNL     1      -0.998  -1.881   0.984  1.00  0.00     0.025 C 
HETATM   16  C17 UNL     1      -1.416  -0.918  -0.160  1.00  0.00     0.005 C 
HETATM   17  C18 UNL     1      -0.684   0.469  -0.027  1.00  0.00     0.004 C 
HETATM   18  C19 UNL     1      -1.580   1.496   0.711  1.00  0.00     0.000 C 
HETATM   19  C20 UNL     1      -2.992   1.602   0.148  1.00  0.00     0.000 C 
HETATM   20  C21 UNL     1      -3.725   0.250   0.215  1.00  0.00     0.002 C 
HETATM   21  C22 UNL     1      -2.941  -0.844  -0.559  1.00  0.00     0.001 C 
HETATM   22  C23 UNL     1      -3.654  -2.203  -0.324  1.00  0.00     0.003 C 
HETATM   23  C24 UNL     1      -5.195  -2.203  -0.432  1.00  0.00     0.033 C 
HETATM   24  C25 UNL     1      -5.830  -0.877  -0.877  1.00  0.00     0.152 C 
HETATM   25  C26 UNL     1      -5.252   0.373  -0.147  1.00  0.00     0.028 C 
HETATM   26  C27 UNL     1      -6.027   0.541   1.170  1.00  0.00     0.003 C 
HETATM   27  C28 UNL     1      -5.555   1.645  -0.963  1.00  0.00     0.003 C 
HETATM   28  O4  UNL     1      -5.731  -0.777  -2.289  1.00  0.00    -0.224 OA
HETATM   29  C29 UNL     1      -2.969  -0.510  -2.061  1.00  0.00     0.000 C 
HETATM   30  C30 UNL     1      -0.463   0.994  -1.457  1.00  0.00     0.000 C 
HETATM   31  C31 UNL     1       0.543   0.541   2.250  1.00  0.00     0.004 C 
ENDROOT
BRANCH   1  32
HETATM   32  C1  UNL     1       5.145   1.188   0.920  1.00  0.00     0.271 C 
HETATM   33  O1  UNL     1       5.656   1.746  -0.023  1.00  0.00    -0.264 OA
BRANCH  32  34
HETATM   34  O2  UNL     1       4.588   1.826   1.945  1.00  0.00    -0.299 OA
HETATM   35  C2  UNL     1       4.709   3.236   1.832  1.00  0.00     0.184 C 
ENDBRANCH  32  34
ENDBRANCH   1  32
TORSDOF 2
