REMARK  2 active torsions:
REMARK  status: ('A' for Active; 'I' for Inactive)
REMARK    1  A    between atoms: C6_8  and  C10_13 
REMARK    2  A    between atoms: C10_13  and  C11_14 
ROOT
HETATM    1  C1  UNL     1       2.389   1.850  -0.269  1.00  0.00     0.081 A 
HETATM    2  O1  UNL     1       1.121   2.281  -0.437  1.00  0.00    -0.311 OA
HETATM    3  C2  UNL     1       0.035   1.533  -0.139  1.00  0.00     0.104 A 
HETATM    4  C3  UNL     1       0.186   0.217   0.381  1.00  0.00     0.058 A 
HETATM    5  C4  UNL     1       1.568  -0.309   0.582  1.00  0.00     0.199 A 
HETATM    6  C5  UNL     1       2.656   0.619   0.215  1.00  0.00     0.062 A 
HETATM    7  O2  UNL     1       1.895  -1.395   1.008  1.00  0.00    -0.286 OA
HETATM    8  C6  UNL     1      -0.961  -0.563   0.693  1.00  0.00    -0.008 A 
HETATM    9  C7  UNL     1      -2.252  -0.020   0.482  1.00  0.00     0.024 A 
HETATM   10  C8  UNL     1      -2.400   1.289  -0.035  1.00  0.00     0.133 A 
HETATM   11  C9  UNL     1      -1.260   2.064  -0.344  1.00  0.00     0.052 A 
HETATM   12  O3  UNL     1      -3.627   1.795  -0.230  1.00  0.00    -0.190 OA
HETATM   13  C13 UNL     1       3.545   2.748  -0.627  1.00  0.00     0.058 C 
ENDROOT
BRANCH   8  14
HETATM   14  C10 UNL     1      -0.842  -1.928   1.233  1.00  0.00     0.091 C 
BRANCH  14  15
HETATM   15  C11 UNL     1      -0.504  -2.934   0.164  1.00  0.00     0.155 C 
HETATM   16  O4  UNL     1       0.506  -3.594   0.229  1.00  0.00    -0.296 OA
HETATM   17  C12 UNL     1      -1.461  -3.092  -0.986  1.00  0.00     0.073 C 
ENDBRANCH  14  15
ENDBRANCH   8  14
TORSDOF 2
