REMARK  1 active torsions:
REMARK  status: ('A' for Active; 'I' for Inactive)
REMARK    1  A    between atoms: C1_1  and  C2_2 
ROOT
HETATM    1  C2  UNL     1       0.258   0.109  -0.006  1.00  0.00     0.031 A 
HETATM    2  C3  UNL     1       1.002  -1.084  -0.006  1.00  0.00     0.003 A 
HETATM    3  C4  UNL     1       0.344  -2.326  -0.006  1.00  0.00     0.000 A 
HETATM    4  C5  UNL     1      -1.060  -2.377  -0.006  1.00  0.00    -0.000 A 
HETATM    5  C6  UNL     1      -1.806  -1.188  -0.006  1.00  0.00    -0.004 A 
HETATM    6  C7  UNL     1      -1.150   0.059  -0.006  1.00  0.00    -0.019 A 
HETATM    7  C8  UNL     1      -1.961   1.307  -0.006  1.00  0.00     0.031 C 
ENDROOT
BRANCH   1   8
HETATM    8  C1  UNL     1       0.977   1.422  -0.006  1.00  0.00     0.173 C 
HETATM    9  C9  UNL     1       2.481   1.406   0.027  1.00  0.00     0.077 C 
HETATM   10  O1  UNL     1       0.363   2.465  -0.031  1.00  0.00    -0.291 OA
ENDBRANCH   1   8
TORSDOF 1
