REMARK  0 active torsions:
REMARK  status: ('A' for Active; 'I' for Inactive)
ROOT
HETATM    1  C1  UNL     1       1.981  -2.037  -0.672  1.00  0.00     0.300 A 
HETATM    2  O1  UNL     1       0.650  -2.213  -0.531  1.00  0.00    -0.273 OA
HETATM    3  C2  UNL     1      -0.195  -1.205  -0.219  1.00  0.00     0.105 A 
HETATM    4  C3  UNL     1       0.297   0.113  -0.017  1.00  0.00     0.021 A 
HETATM    5  C4  UNL     1       1.762   0.355  -0.162  1.00  0.00    -0.015 A 
HETATM    6  C5  UNL     1       2.557  -0.688  -0.476  1.00  0.00     0.065 A 
HETATM    7  C6  UNL     1       2.363   1.727   0.031  1.00  0.00     0.031 C 
HETATM    8  C7  UNL     1      -0.596   1.166   0.313  1.00  0.00     0.031 A 
HETATM    9  C8  UNL     1      -1.978   0.898   0.440  1.00  0.00     0.156 A 
HETATM   10  C9  UNL     1      -2.471  -0.414   0.238  1.00  0.00     0.158 A 
HETATM   11  C10 UNL     1      -1.580  -1.465  -0.090  1.00  0.00     0.054 A 
HETATM   12  O2  UNL     1      -3.781  -0.666   0.360  1.00  0.00    -0.188 OA
HETATM   13  O3  UNL     1      -2.822   1.893   0.752  1.00  0.00    -0.188 OA
HETATM   14  O4  UNL     1       2.725  -2.945  -0.951  1.00  0.00    -0.259 OA
ENDROOT
TORSDOF 0
