REMARK  0 active torsions:
REMARK  status: ('A' for Active; 'I' for Inactive)
ROOT
HETATM    1  C1  UNL     1       3.924  -0.824   0.525  1.00  0.00     0.156 A 
HETATM    2  C2  UNL     1       2.684  -1.502   0.459  1.00  0.00     0.159 A 
HETATM    3  C3  UNL     1       1.473  -0.777   0.256  1.00  0.00     0.070 A 
HETATM    4  C4  UNL     1       1.523   0.643   0.125  1.00  0.00     0.044 A 
HETATM    5  C5  UNL     1       2.777   1.307   0.197  1.00  0.00     0.005 A 
HETATM    6  C6  UNL     1       3.969   0.578   0.395  1.00  0.00     0.030 A 
HETATM    7  C7  UNL     1       0.289   1.463  -0.088  1.00  0.00     0.196 A 
HETATM    8  C8  UNL     1      -1.004   0.713  -0.172  1.00  0.00     0.042 A 
HETATM    9  C9  UNL     1      -1.059  -0.705  -0.043  1.00  0.00     0.042 A 
HETATM   10  C10 UNL     1       0.172  -1.525   0.186  1.00  0.00     0.198 A 
HETATM   11  O1  UNL     1       0.115  -2.728   0.303  1.00  0.00    -0.286 OA
HETATM   12  C11 UNL     1      -2.313  -1.365  -0.131  1.00  0.00     0.003 A 
HETATM   13  C12 UNL     1      -3.500  -0.631  -0.348  1.00  0.00    -0.004 A 
HETATM   14  C13 UNL     1      -3.447   0.774  -0.475  1.00  0.00    -0.022 A 
HETATM   15  C14 UNL     1      -2.205   1.441  -0.387  1.00  0.00    -0.001 A 
HETATM   16  C15 UNL     1      -4.684   1.539  -0.699  1.00  0.00     0.031 C 
HETATM   17  O2  UNL     1       0.334   2.668  -0.189  1.00  0.00    -0.287 OA
HETATM   18  O3  UNL     1       2.678  -2.838   0.588  1.00  0.00    -0.188 OA
HETATM   19  O4  UNL     1       5.059  -1.512   0.715  1.00  0.00    -0.188 OA
ENDROOT
TORSDOF 0
