REMARK  1 active torsions:
REMARK  status: ('A' for Active; 'I' for Inactive)
REMARK    1  A    between atoms: C10_11  and  O2_12 
ROOT
HETATM    1  C1  UNL     1       3.879  -0.871   0.570  1.00  0.00     0.062 A 
HETATM    2  C2  UNL     1       3.395   0.400  -0.008  1.00  0.00     0.201 A 
HETATM    3  C3  UNL     1       1.914   0.553  -0.055  1.00  0.00     0.084 A 
HETATM    4  C4  UNL     1       1.106  -0.504   0.443  1.00  0.00     0.106 A 
HETATM    5  O1  UNL     1       1.678  -1.619   0.951  1.00  0.00    -0.311 OA
HETATM    6  C5  UNL     1       3.012  -1.807   1.016  1.00  0.00     0.081 A 
HETATM    7  C6  UNL     1       3.569  -3.082   1.594  1.00  0.00     0.058 C 
HETATM    8  C7  UNL     1      -0.307  -0.377   0.404  1.00  0.00     0.045 A 
HETATM    9  C8  UNL     1      -0.908   0.789  -0.133  1.00  0.00     0.098 A 
HETATM   10  C9  UNL     1      -0.096   1.840  -0.617  1.00  0.00     0.049 A 
HETATM   11  C10 UNL     1       1.315   1.725  -0.586  1.00  0.00     0.101 A 
HETATM   12  O3  UNL     1      -2.254   0.912  -0.170  1.00  0.00    -0.332 OA
HETATM   13  C12 UNL     1      -3.121  -0.232  -0.060  1.00  0.00     0.117 C 
HETATM   14  C13 UNL     1      -2.518  -1.365   0.756  1.00  0.00     0.001 C 
HETATM   15  C14 UNL     1      -1.185  -1.449   0.932  1.00  0.00     0.002 C 
HETATM   16  C15 UNL     1      -3.391  -0.748  -1.476  1.00  0.00     0.035 C 
HETATM   17  C16 UNL     1      -4.428   0.238   0.580  1.00  0.00     0.035 C 
HETATM   18  O4  UNL     1       4.229   1.189  -0.383  1.00  0.00    -0.286 OA
ENDROOT
BRANCH  11  19
HETATM   19  O2  UNL     1       2.067   2.730  -1.057  1.00  0.00    -0.328 OA
HETATM   20  C11 UNL     1       1.404   3.842  -1.641  1.00  0.00     0.181 C 
ENDBRANCH  11  19
TORSDOF 1
