REMARK  3 active torsions:
REMARK  status: ('A' for Active; 'I' for Inactive)
REMARK    1  A    between atoms: C2_2  and  C3_3 
REMARK    2  A    between atoms: C3_3  and  S1_4 
REMARK    3  A    between atoms: S1_4  and  S2_5 
ROOT
HETATM    1  S1  UNL     1       1.203  -0.977   0.166  1.00  0.00     0.097 S 
HETATM    2  O1  UNL     1       0.239  -1.551   1.086  1.00  0.00    -0.245 OA
ENDROOT
BRANCH   1   3
HETATM    3  C3  UNL     1       0.760   0.729  -0.149  1.00  0.00     0.129 C 
BRANCH   3   4
HETATM    4  C2  UNL     1       0.852   1.746   0.957  1.00  0.00    -0.011 C 
HETATM    5  C1  UNL     1      -0.092   1.744   1.912  1.00  0.00    -0.004 C 
ENDBRANCH   3   4
ENDBRANCH   1   3
BRANCH   1   6
HETATM    6  S2  UNL     1       0.744  -1.900  -1.594  1.00  0.00    -0.049 SA
HETATM    7  C4  UNL     1      -1.070  -1.900  -1.594  1.00  0.00     0.084 C 
ENDBRANCH   1   6
TORSDOF 3
