REMARK  5 active torsions:
REMARK  status: ('A' for Active; 'I' for Inactive)
REMARK    1  A    between atoms: C2_2  and  O9_28 
REMARK    2  A    between atoms: C3_3  and  C14_17 
REMARK    3  A    between atoms: C10_10  and  C11_12 
REMARK    4  A    between atoms: C11_12  and  C12_13 
REMARK    5  A    between atoms: C15_19  and  C19_26 
ROOT
HETATM    1  C1  UNL     1      -1.320  -2.758   1.166  1.00  0.00     0.020 A 
HETATM    2  C2  UNL     1      -1.477  -1.449   0.648  1.00  0.00     0.094 A 
HETATM    3  C3  UNL     1      -0.338  -0.668   0.334  1.00  0.00     0.052 A 
HETATM    4  C4  UNL     1       0.961  -1.197   0.539  1.00  0.00     0.102 A 
HETATM    5  C5  UNL     1       1.115  -2.512   1.059  1.00  0.00     0.058 A 
HETATM    6  C6  UNL     1      -0.027  -3.295   1.373  1.00  0.00    -0.015 A 
HETATM    7  C7  UNL     1       0.096  -4.660   1.914  1.00  0.00     0.031 C 
HETATM    8  C8  UNL     1       2.500  -3.035   1.260  1.00  0.00     0.199 A 
HETATM    9  C9  UNL     1       3.586  -2.106   0.891  1.00  0.00     0.063 A 
HETATM   10  C10 UNL     1       3.314  -0.873   0.406  1.00  0.00     0.088 A 
HETATM   11  O1  UNL     1       2.045  -0.447   0.242  1.00  0.00    -0.311 OA
HETATM   12  O3  UNL     1       2.830  -4.119   1.684  1.00  0.00    -0.286 OA
ENDROOT
BRANCH   3  13
HETATM   13  C14 UNL     1      -0.504   0.693  -0.203  1.00  0.00     0.174 C 
HETATM   14  O4  UNL     1      -1.309   1.430   0.707  1.00  0.00    -0.347 OA
HETATM   15  C15 UNL     1      -1.486   2.805   0.389  1.00  0.00     0.181 C 
HETATM   16  C16 UNL     1      -2.203   2.926  -0.975  1.00  0.00     0.214 C 
HETATM   17  C17 UNL     1      -1.443   2.158  -2.078  1.00  0.00     0.218 C 
HETATM   18  O7  UNL     1      -2.297   4.297  -1.318  1.00  0.00    -0.218 OA
HETATM   19  C18 UNL     1      -1.160   0.713  -1.611  1.00  0.00     0.216 C 
HETATM   20  O6  UNL     1      -2.213   2.141  -3.270  1.00  0.00    -0.218 OA
HETATM   21  O5  UNL     1      -0.297   0.080  -2.545  1.00  0.00    -0.218 OA
BRANCH  15  22
HETATM   22  C19 UNL     1      -2.287   3.428   1.537  1.00  0.00     0.214 C 
HETATM   23  O8  UNL     1      -1.482   3.412   2.693  1.00  0.00    -0.218 OA
ENDBRANCH  15  22
ENDBRANCH   3  13
BRANCH   2  24
HETATM   24  O9  UNL     1      -2.709  -0.959   0.457  1.00  0.00    -0.328 OA
HETATM   25  C20 UNL     1      -3.815  -1.809   0.721  1.00  0.00     0.181 C 
ENDBRANCH   2  24
BRANCH  10  26
HETATM   26  C11 UNL     1       4.467   0.029   0.049  1.00  0.00     0.116 C 
BRANCH  26  27
HETATM   27  C12 UNL     1       4.053   1.018  -1.008  1.00  0.00     0.158 C 
HETATM   28  O2  UNL     1       3.777   2.158  -0.717  1.00  0.00    -0.296 OA
HETATM   29  C13 UNL     1       3.996   0.547  -2.436  1.00  0.00     0.073 C 
ENDBRANCH  26  27
ENDBRANCH  10  26
TORSDOF 5
