REMARK  9 active torsions:
REMARK  status: ('A' for Active; 'I' for Inactive)
REMARK    1  A    between atoms: C2_2  and  O11_39 
REMARK    2  A    between atoms: C3_3  and  C14_17 
REMARK    3  A    between atoms: C10_10  and  C11_12 
REMARK    4  A    between atoms: C11_12  and  C12_13 
REMARK    5  A    between atoms: C15_19  and  C28_37 
REMARK    6  A    between atoms: C18_22  and  O5_23 
REMARK    7  A    between atoms: O5_23  and  C19_24 
REMARK    8  A    between atoms: C19_24  and  C20_25 
REMARK    9  A    between atoms: C21_26  and  C22_27 
ROOT
HETATM    1  C14 UNL     1      -0.081  -2.018  -0.529  1.00  0.00     0.172 C 
HETATM    2  O4  UNL     1       0.249  -3.397  -0.417  1.00  0.00    -0.347 OA
HETATM    3  C15 UNL     1      -0.098  -4.195  -1.543  1.00  0.00     0.181 C 
HETATM    4  C16 UNL     1      -1.629  -4.149  -1.754  1.00  0.00     0.214 C 
HETATM    5  C17 UNL     1      -2.129  -2.694  -1.878  1.00  0.00     0.215 C 
HETATM    6  C18 UNL     1      -1.611  -1.862  -0.692  1.00  0.00     0.189 C 
HETATM    7  O8  UNL     1      -3.545  -2.657  -1.890  1.00  0.00    -0.218 OA
HETATM    8  O9  UNL     1      -1.948  -4.869  -2.932  1.00  0.00    -0.218 OA
ENDROOT
BRANCH   1   9
HETATM    9  C3  UNL     1       0.429  -1.317   0.663  1.00  0.00     0.052 A 
HETATM   10  C2  UNL     1       0.092  -1.782   1.958  1.00  0.00     0.094 A 
HETATM   11  C1  UNL     1       0.582  -1.110   3.102  1.00  0.00     0.020 A 
HETATM   12  C6  UNL     1       1.410   0.029   2.966  1.00  0.00    -0.015 A 
HETATM   13  C5  UNL     1       1.749   0.496   1.667  1.00  0.00     0.058 A 
HETATM   14  C7  UNL     1       1.902   0.702   4.180  1.00  0.00     0.031 C 
HETATM   15  C4  UNL     1       1.257  -0.177   0.514  1.00  0.00     0.102 A 
HETATM   16  C8  UNL     1       2.621   1.692   1.469  1.00  0.00     0.199 A 
HETATM   17  O1  UNL     1       1.575   0.266  -0.724  1.00  0.00    -0.311 OA
HETATM   18  C10 UNL     1       2.356   1.340  -0.954  1.00  0.00     0.088 A 
HETATM   19  C9  UNL     1       2.883   2.059   0.062  1.00  0.00     0.063 A 
HETATM   20  O3  UNL     1       3.131   2.387   2.318  1.00  0.00    -0.286 OA
BRANCH  10  21
HETATM   21  O11 UNL     1      -0.691  -2.860   2.108  1.00  0.00    -0.328 OA
HETATM   22  C29 UNL     1      -0.950  -3.317   3.427  1.00  0.00     0.181 C 
ENDBRANCH  10  21
BRANCH  18  23
HETATM   23  C11 UNL     1       2.659   1.766  -2.366  1.00  0.00     0.116 C 
BRANCH  23  24
HETATM   24  C12 UNL     1       2.828   0.562  -3.255  1.00  0.00     0.158 C 
HETATM   25  O2  UNL     1       3.207  -0.494  -2.806  1.00  0.00    -0.296 OA
HETATM   26  C13 UNL     1       2.511   0.713  -4.718  1.00  0.00     0.073 C 
ENDBRANCH  23  24
ENDBRANCH  18  23
ENDBRANCH   1   9
BRANCH   6  27
HETATM   27  O5  UNL     1      -1.929  -0.491  -0.905  1.00  0.00    -0.295 OA
BRANCH  27  28
HETATM   28  C19 UNL     1      -2.012   0.192   0.233  1.00  0.00     0.296 C 
HETATM   29  O7  UNL     1      -2.199  -0.318   1.313  1.00  0.00    -0.259 OA
BRANCH  28  30
HETATM   30  C20 UNL     1      -1.860   1.647   0.116  1.00  0.00     0.068 C 
HETATM   31  C21 UNL     1      -1.925   2.432   1.203  1.00  0.00     0.005 C 
BRANCH  31  32
HETATM   32  C22 UNL     1      -1.765   3.907   1.033  1.00  0.00     0.000 A 
HETATM   33  C23 UNL     1      -2.432   4.793   1.899  1.00  0.00     0.002 A 
HETATM   34  C24 UNL     1      -2.280   6.180   1.737  1.00  0.00     0.027 A 
HETATM   35  C25 UNL     1      -1.462   6.689   0.712  1.00  0.00     0.131 A 
HETATM   36  C26 UNL     1      -0.797   5.801  -0.152  1.00  0.00     0.027 A 
HETATM   37  O6  UNL     1      -1.321   7.991   0.562  1.00  0.00    -0.190 OA
HETATM   38  C27 UNL     1      -0.946   4.413   0.007  1.00  0.00     0.002 A 
ENDBRANCH  31  32
ENDBRANCH  28  30
ENDBRANCH  27  28
ENDBRANCH   6  27
BRANCH   3  39
HETATM   39  C28 UNL     1       0.425  -5.608  -1.265  1.00  0.00     0.214 C 
HETATM   40  O10 UNL     1       1.834  -5.564  -1.259  1.00  0.00    -0.218 OA
ENDBRANCH   3  39
TORSDOF 9
