REMARK  2 active torsions:
REMARK  status: ('A' for Active; 'I' for Inactive)
REMARK    1  A    between atoms: C1_1  and  C2_2 
REMARK    2  A    between atoms: C1_1  and  O1_9 
ROOT
HETATM    1  C2  UNL     1       0.315  -0.346  -0.158  1.00  0.00     0.083 A 
HETATM    2  C3  UNL     1      -1.099  -0.397  -0.158  1.00  0.00     0.108 A 
HETATM    3  N1  UNL     1      -1.855   0.750  -0.158  1.00  0.00    -0.148 N 
HETATM    4  C4  UNL     1      -1.752  -1.645  -0.158  1.00  0.00     0.021 A 
HETATM    5  C5  UNL     1      -1.006  -2.834  -0.158  1.00  0.00     0.002 A 
HETATM    6  C6  UNL     1       0.397  -2.783  -0.158  1.00  0.00     0.000 A 
HETATM    7  C7  UNL     1       1.055  -1.543  -0.158  1.00  0.00     0.007 A 
ENDROOT
BRANCH   1   8
HETATM    8  C1  UNL     1       1.053   0.957  -0.158  1.00  0.00     0.297 C 
HETATM    9  O2  UNL     1       2.004   1.133  -0.885  1.00  0.00    -0.259 OA
BRANCH   8  10
HETATM   10  O1  UNL     1       0.584   1.873   0.684  1.00  0.00    -0.296 OA
HETATM   11  C8  UNL     1       1.330   3.080   0.639  1.00  0.00     0.185 C 
ENDBRANCH   8  10
ENDBRANCH   1   8
TORSDOF 2
