REMARK  0 active torsions:
REMARK  status: ('A' for Active; 'I' for Inactive)
ROOT
HETATM    1  C1  UNL     1       4.270  -1.017   0.584  1.00  0.00     0.000 A 
HETATM    2  C2  UNL     1       3.025  -1.681   0.514  1.00  0.00     0.003 A 
HETATM    3  C3  UNL     1       1.824  -0.951   0.313  1.00  0.00     0.042 A 
HETATM    4  C4  UNL     1       1.881   0.467   0.182  1.00  0.00     0.042 A 
HETATM    5  C5  UNL     1       3.139   1.123   0.254  1.00  0.00     0.003 A 
HETATM    6  C6  UNL     1       4.326   0.385   0.453  1.00  0.00     0.000 A 
HETATM    7  C7  UNL     1       0.648   1.291  -0.031  1.00  0.00     0.196 A 
HETATM    8  C8  UNL     1      -0.645   0.543  -0.113  1.00  0.00     0.042 A 
HETATM    9  C9  UNL     1      -0.701  -0.875   0.014  1.00  0.00     0.042 A 
HETATM   10  C10 UNL     1       0.529  -1.697   0.242  1.00  0.00     0.196 A 
HETATM   11  O1  UNL     1       0.478  -2.902   0.361  1.00  0.00    -0.287 OA
HETATM   12  C11 UNL     1      -1.957  -1.535  -0.076  1.00  0.00     0.003 A 
HETATM   13  C12 UNL     1      -3.143  -0.799  -0.291  1.00  0.00    -0.004 A 
HETATM   14  C13 UNL     1      -3.088   0.606  -0.418  1.00  0.00    -0.022 A 
HETATM   15  C14 UNL     1      -1.844   1.272  -0.328  1.00  0.00    -0.001 A 
HETATM   16  C15 UNL     1      -4.322   1.375  -0.642  1.00  0.00     0.031 C 
HETATM   17  O2  UNL     1       0.697   2.498  -0.131  1.00  0.00    -0.287 OA
ENDROOT
TORSDOF 0
