REMARK  4 active torsions:
REMARK  status: ('A' for Active; 'I' for Inactive)
REMARK    1  A    between atoms: C16_16  and  C19_19 
REMARK    2  A    between atoms: C19_19  and  C20_20 
REMARK    3  A    between atoms: C20_20  and  C21_21 
REMARK    4  A    between atoms: C21_21  and  C22_22 
ROOT
HETATM    1  C1  UNL     1       5.619   1.885  -1.668  1.00  0.00     0.000 C 
HETATM    2  C2  UNL     1       6.227   0.471  -1.676  1.00  0.00     0.000 C 
HETATM    3  C3  UNL     1       5.232  -0.652  -1.301  1.00  0.00     0.000 C 
HETATM    4  C4  UNL     1       3.848  -0.391  -1.951  1.00  0.00     0.000 C 
HETATM    5  C5  UNL     1       3.219   1.006  -1.596  1.00  0.00     0.000 C 
HETATM    6  C6  UNL     1       4.268   1.947  -0.953  1.00  0.00     0.000 C 
HETATM    7  C7  UNL     1       2.002   0.822  -0.647  1.00  0.00     0.004 C 
HETATM    8  C8  UNL     1       0.867  -0.006  -1.303  1.00  0.00     0.004 C 
HETATM    9  C9  UNL     1       1.428  -1.223  -2.082  1.00  0.00     0.000 C 
HETATM   10  C10 UNL     1       2.871  -1.564  -1.699  1.00  0.00     0.000 C 
HETATM   11  C11 UNL     1      -0.215  -0.369  -0.248  1.00  0.00     0.015 C 
HETATM   12  C12 UNL     1      -0.648   0.881   0.514  1.00  0.00    -0.049 C 
HETATM   13  C13 UNL     1       0.107   1.994   0.609  1.00  0.00    -0.034 C 
HETATM   14  C14 UNL     1       1.436   2.145  -0.096  1.00  0.00     0.025 C 
HETATM   15  C15 UNL     1      -2.022   0.822   1.141  1.00  0.00     0.022 C 
HETATM   16  C16 UNL     1      -3.119   0.727   0.051  1.00  0.00     0.004 C 
HETATM   17  C17 UNL     1      -2.578   0.023  -1.223  1.00  0.00     0.001 C 
HETATM   18  C18 UNL     1      -1.481  -1.006  -0.899  1.00  0.00     0.004 C 
HETATM   19  C26 UNL     1      -3.608   2.131  -0.324  1.00  0.00     0.000 C 
HETATM   20  C27 UNL     1       0.375  -1.355   0.773  1.00  0.00     0.004 C 
HETATM   21  C28 UNL     1       2.730   1.676  -2.893  1.00  0.00     0.000 C 
HETATM   22  C29 UNL     1       5.809  -1.986  -1.795  1.00  0.00     0.000 C 
HETATM   23  C30 UNL     1       5.104  -0.748   0.225  1.00  0.00     0.000 C 
ENDROOT
BRANCH  16  24
HETATM   24  C19 UNL     1      -4.311  -0.061   0.611  1.00  0.00     0.001 C 
BRANCH  24  25
HETATM   25  C20 UNL     1      -4.856   0.539   1.908  1.00  0.00     0.004 C 
BRANCH  25  26
HETATM   26  C21 UNL     1      -5.949  -0.320   2.541  1.00  0.00     0.018 C 
HETATM   27  C25 UNL     1      -6.633   0.369   3.723  1.00  0.00     0.004 C 
BRANCH  26  28
HETATM   28  C22 UNL     1      -5.465  -1.703   2.887  1.00  0.00    -0.044 C 
HETATM   29  C23 UNL     1      -4.432  -1.969   3.951  1.00  0.00     0.026 C 
HETATM   30  C24 UNL     1      -5.977  -2.748   2.217  1.00  0.00    -0.009 C 
ENDBRANCH  26  28
ENDBRANCH  25  26
ENDBRANCH  24  25
ENDBRANCH  16  24
TORSDOF 4
