REMARK  3 active torsions:
REMARK  status: ('A' for Active; 'I' for Inactive)
REMARK    1  A    between atoms: C3_3  and  O2_14 
REMARK    2  A    between atoms: C7_8  and  O1_12 
REMARK    3  A    between atoms: C14_17  and  C15_19 
ROOT
HETATM    1  C1  UNL     1      -0.406   0.203   0.527  1.00  0.00     0.157 A 
HETATM    2  C2  UNL     1      -0.580  -0.738  -0.494  1.00  0.00     0.042 A 
HETATM    3  C3  UNL     1       0.519  -1.381  -1.119  1.00  0.00     0.095 A 
HETATM    4  C4  UNL     1       1.840  -1.055  -0.691  1.00  0.00     0.040 A 
HETATM    5  C5  UNL     1       2.047  -0.098   0.352  1.00  0.00     0.086 A 
HETATM    6  N1  UNL     1       0.910   0.519   0.945  1.00  0.00    -0.305 N 
HETATM    7  C6  UNL     1       1.037   1.520   2.022  1.00  0.00     0.133 C 
HETATM    8  C7  UNL     1       3.381   0.211   0.764  1.00  0.00     0.110 A 
HETATM    9  C8  UNL     1       4.479  -0.428   0.149  1.00  0.00     0.026 A 
HETATM   10  C9  UNL     1       4.273  -1.371  -0.879  1.00  0.00     0.002 A 
HETATM   11  C10 UNL     1       2.963  -1.686  -1.299  1.00  0.00     0.004 A 
HETATM   12  C13 UNL     1      -2.059  -0.895  -0.754  1.00  0.00     0.065 A 
HETATM   13  C14 UNL     1      -2.676   0.092   0.285  1.00  0.00     0.155 A 
HETATM   14  O3  UNL     1      -1.565   0.686   0.977  1.00  0.00    -0.316 OA
ENDROOT
BRANCH  13  15
HETATM   15  C15 UNL     1      -3.502   1.186  -0.383  1.00  0.00     0.152 C 
HETATM   16  C16 UNL     1      -4.690   0.553  -1.109  1.00  0.00     0.036 C 
HETATM   17  C17 UNL     1      -3.930   2.213   0.666  1.00  0.00     0.036 C 
HETATM   18  O4  UNL     1      -2.697   1.840  -1.338  1.00  0.00    -0.224 OA
ENDBRANCH  13  15
BRANCH   3  19
HETATM   19  O2  UNL     1       0.418  -2.289  -2.103  1.00  0.00    -0.328 OA
HETATM   20  C12 UNL     1      -0.715  -3.145  -2.105  1.00  0.00     0.181 C 
ENDBRANCH   3  19
BRANCH   8  21
HETATM   21  O1  UNL     1       3.643   1.100   1.734  1.00  0.00    -0.327 OA
HETATM   22  C11 UNL     1       4.945   1.107   2.297  1.00  0.00     0.181 C 
ENDBRANCH   8  21
TORSDOF 3
