REMARK  1 active torsions:
REMARK  status: ('A' for Active; 'I' for Inactive)
REMARK    1  A    between atoms: C1_1  and  C5_8 
ROOT
HETATM    1  C1  UNL     1      -0.312  -0.301  -0.027  1.00  0.00     0.217 C 
HETATM    2  C2  UNL     1       1.166  -0.108  -0.278  1.00  0.00     0.244 C 
HETATM    3  C3  UNL     1       1.420   1.192   0.435  1.00  0.00     0.303 C 
HETATM    4  O1  UNL     1       0.223   1.936   0.418  1.00  0.00    -0.324 OA
HETATM    5  C4  UNL     1      -0.783   1.135  -0.156  1.00  0.00     0.181 C 
HETATM    6  O2  UNL     1       1.569   0.949   1.825  1.00  0.00    -0.187 OA
HETATM    7  O3  UNL     1       1.913  -1.156   0.283  1.00  0.00    -0.215 OA
HETATM    8  O5  UNL     1      -0.505  -0.712   1.302  1.00  0.00    -0.218 OA
ENDROOT
BRANCH   1   9
HETATM    9  C5  UNL     1      -0.992  -1.301  -0.933  1.00  0.00     0.218 C 
HETATM   10  O4  UNL     1      -2.325  -1.444  -0.489  1.00  0.00    -0.218 OA
ENDBRANCH   1   9
TORSDOF 1
