REMARK  1 active torsions:
REMARK  status: ('A' for Active; 'I' for Inactive)
REMARK    1  A    between atoms: C2_2  and  C3_3 
ROOT
HETATM    1  C1  UNL     1       0.207   0.119   2.104  1.00  0.00     0.072 C 
HETATM    2  C2  UNL     1      -0.305  -0.582   0.875  1.00  0.00     0.151 C 
HETATM    3  O1  UNL     1      -1.137  -1.455   0.957  1.00  0.00    -0.296 OA
ENDROOT
BRANCH   2   4
HETATM    4  C3  UNL     1       0.250  -0.164  -0.461  1.00  0.00     0.058 C 
HETATM    5  C4  UNL     1       0.027   1.320  -0.746  1.00  0.00     0.008 C 
HETATM    6  C5  UNL     1      -0.232  -1.063  -1.600  1.00  0.00     0.008 C 
ENDBRANCH   2   4
TORSDOF 1
