REMARK  4 active torsions:
REMARK  status: ('A' for Active; 'I' for Inactive)
REMARK    1  A    between atoms: C15_15  and  C18_18 
REMARK    2  A    between atoms: C18_18  and  C19_19 
REMARK    3  A    between atoms: C20_20  and  C21_21 
REMARK    4  A    between atoms: C21_21  and  C22_22 
ROOT
HETATM    1  C1  UNL     1      -5.617   0.174  -1.758  1.00  0.00     0.034 C 
HETATM    2  C2  UNL     1      -6.150   1.623  -1.699  1.00  0.00     0.156 C 
HETATM    3  C3  UNL     1      -5.523   2.441  -0.553  1.00  0.00     0.055 C 
HETATM    4  C4  UNL     1      -4.023   2.289  -0.664  1.00  0.00    -0.042 C 
HETATM    5  C5  UNL     1      -3.479   0.875  -0.512  1.00  0.00     0.019 C 
HETATM    6  C6  UNL     1      -4.072   0.107  -1.719  1.00  0.00     0.007 C 
HETATM    7  C7  UNL     1      -1.916   0.826  -0.418  1.00  0.00     0.022 C 
HETATM    8  C8  UNL     1      -1.186   1.994  -1.059  1.00  0.00    -0.045 C 
HETATM    9  C9  UNL     1      -1.805   3.174  -1.242  1.00  0.00    -0.009 C 
HETATM   10  C10 UNL     1      -3.232   3.342  -0.949  1.00  0.00    -0.009 C 
HETATM   11  C11 UNL     1       0.256   1.756  -1.465  1.00  0.00     0.018 C 
HETATM   12  C12 UNL     1       0.936   0.736  -0.545  1.00  0.00     0.004 C 
HETATM   13  C13 UNL     1       0.229  -0.627  -0.672  1.00  0.00     0.001 C 
HETATM   14  C14 UNL     1      -1.297  -0.510  -0.897  1.00  0.00     0.004 C 
HETATM   15  C15 UNL     1       2.356   0.785  -1.121  1.00  0.00     0.004 C 
HETATM   16  C16 UNL     1       2.606   2.283  -1.348  1.00  0.00     0.001 C 
HETATM   17  C17 UNL     1       1.223   2.940  -1.418  1.00  0.00     0.004 C 
HETATM   18  C27 UNL     1       0.945   1.223   0.912  1.00  0.00     0.000 C 
HETATM   19  C28 UNL     1      -4.035   0.252   0.781  1.00  0.00     0.004 C 
HETATM   20  O1  UNL     1      -7.555   1.600  -1.541  1.00  0.00    -0.223 OA
ENDROOT
BRANCH  15  21
HETATM   21  C18 UNL     1       3.414   0.141  -0.229  1.00  0.00     0.022 C 
HETATM   22  C26 UNL     1       4.643   0.254  -1.131  1.00  0.00     0.005 C 
BRANCH  21  23
HETATM   23  C19 UNL     1       3.082  -1.287   0.113  1.00  0.00    -0.031 C 
HETATM   24  C20 UNL     1       3.020  -1.637   1.408  1.00  0.00    -0.031 C 
BRANCH  24  25
HETATM   25  C21 UNL     1       2.690  -3.064   1.752  1.00  0.00     0.022 C 
HETATM   26  C25 UNL     1       1.346  -3.195   2.473  1.00  0.00     0.005 C 
BRANCH  25  27
HETATM   27  C22 UNL     1       3.826  -3.766   2.494  1.00  0.00     0.004 C 
HETATM   28  C23 UNL     1       5.094  -3.893   1.648  1.00  0.00     0.000 C 
HETATM   29  C24 UNL     1       4.096  -3.156   3.871  1.00  0.00     0.000 C 
ENDBRANCH  25  27
ENDBRANCH  24  25
ENDBRANCH  21  23
ENDBRANCH  15  21
TORSDOF 4
