REMARK  4 active torsions:
REMARK  status: ('A' for Active; 'I' for Inactive)
REMARK    1  A    between atoms: C4_4  and  C7_7 
REMARK    2  A    between atoms: C7_7  and  C8_8 
REMARK    3  A    between atoms: C8_8  and  O1_9 
REMARK    4  A    between atoms: O1_9  and  C9_10 
ROOT
HETATM    1  C8  UNL     1      -0.698  -1.571   0.087  1.00  0.00     0.296 C 
HETATM    2  O3  UNL     1      -1.829  -1.706   0.509  1.00  0.00    -0.259 OA
ENDROOT
BRANCH   1   3
HETATM    3  C7  UNL     1       0.155  -2.651   0.137  1.00  0.00     0.063 C 
HETATM    4  C16 UNL     1      -0.406  -3.783   0.624  1.00  0.00     0.005 C 
BRANCH   3   5
HETATM    5  C4  UNL     1       1.456  -2.621  -0.277  1.00  0.00     0.005 A 
HETATM    6  C3  UNL     1       2.298  -3.662  -0.064  1.00  0.00     0.000 A 
HETATM    7  C2  UNL     1       3.590  -3.679  -0.431  1.00  0.00     0.000 A 
HETATM    8  C1  UNL     1       4.129  -2.628  -1.058  1.00  0.00     0.000 A 
HETATM    9  C6  UNL     1       3.338  -1.580  -1.308  1.00  0.00     0.000 A 
HETATM   10  C5  UNL     1       2.050  -1.592  -0.927  1.00  0.00     0.000 A 
ENDBRANCH   3   5
ENDBRANCH   1   3
BRANCH   1  11
HETATM   11  O1  UNL     1      -0.343  -0.314  -0.308  1.00  0.00    -0.301 OA
BRANCH  11  12
HETATM   12  C9  UNL     1      -1.118   0.805   0.024  1.00  0.00     0.129 C 
HETATM   13  C10 UNL     1      -0.530   1.482   1.274  1.00  0.00     0.069 C 
HETATM   14  C11 UNL     1      -1.046   2.924   1.433  1.00  0.00     0.288 C 
HETATM   15  C12 UNL     1      -2.567   2.994   1.379  1.00  0.00     0.178 A 
HETATM   16  N1  UNL     1      -0.664   3.655   0.224  1.00  0.00     0.340 N 
HETATM   17  C13 UNL     1      -2.920   3.141   0.035  1.00  0.00     0.178 A 
HETATM   18  O2  UNL     1      -3.054   4.386   0.933  1.00  0.00    -0.350 OA
HETATM   19  C14 UNL     1      -1.625   3.168  -0.766  1.00  0.00     0.288 C 
HETATM   20  C15 UNL     1      -1.165   1.758  -1.181  1.00  0.00     0.069 C 
ENDBRANCH  11  12
ENDBRANCH   1  11
TORSDOF 4
