REMARK  2 active torsions:
REMARK  status: ('A' for Active; 'I' for Inactive)
REMARK    1  A    between atoms: C19_19  and  O1_20 
REMARK    2  A    between atoms: C25_27  and  C26_29 
ROOT
HETATM    1  C1  UNL     1      -5.764   2.012  -0.141  1.00  0.00     0.033 C 
HETATM    2  C2  UNL     1      -6.281   0.576   0.025  1.00  0.00     0.152 C 
HETATM    3  C3  UNL     1      -5.443  -0.215   1.059  1.00  0.00     0.028 C 
HETATM    4  C4  UNL     1      -3.957  -0.252   0.623  1.00  0.00     0.002 C 
HETATM    5  C5  UNL     1      -3.395   1.135   0.240  1.00  0.00     0.000 A 
HETATM    6  C6  UNL     1      -4.305   2.039  -0.607  1.00  0.00     0.003 C 
HETATM    7  C7  UNL     1      -1.910   1.162  -0.123  1.00  0.00     0.000 A 
HETATM    8  C8  UNL     1      -1.234  -0.229  -0.156  1.00  0.00     0.002 C 
HETATM    9  C9  UNL     1      -2.133  -1.262  -0.887  1.00  0.00     0.000 C 
HETATM   10  C10 UNL     1      -3.643  -1.147  -0.590  1.00  0.00     0.000 C 
HETATM   11  C11 UNL     1       0.195  -0.154  -0.754  1.00  0.00     0.030 C 
HETATM   12  C12 UNL     1       0.184  -0.121  -2.299  1.00  0.00     0.003 C 
HETATM   13  C13 UNL     1       0.865   1.150  -0.246  1.00  0.00     0.007 C 
HETATM   14  C14 UNL     1       0.199   2.369  -0.920  1.00  0.00     0.000 C 
HETATM   15  C15 UNL     1      -1.328   2.195  -1.104  1.00  0.00     0.000 C 
HETATM   16  C16 UNL     1       0.773   1.291   1.281  1.00  0.00     0.000 C 
HETATM   17  C17 UNL     1       2.336   0.906  -0.639  1.00  0.00     0.054 C 
HETATM   18  C18 UNL     1       2.525  -0.551  -0.152  1.00  0.00     0.212 C 
HETATM   19  C19 UNL     1       1.154  -1.266  -0.252  1.00  0.00     0.166 C 
HETATM   20  O2  UNL     1       3.004  -0.572   1.174  1.00  0.00    -0.333 OA
HETATM   21  C21 UNL     1       4.320  -0.092   1.158  1.00  0.00     0.147 C 
HETATM   22  C22 UNL     1       4.189   1.439   1.084  1.00  0.00     0.033 C 
HETATM   23  C23 UNL     1       3.395   1.932  -0.150  1.00  0.00     0.007 C 
HETATM   24  C24 UNL     1       4.340   2.258  -1.316  1.00  0.00     0.000 C 
HETATM   25  C25 UNL     1       4.838  -0.760  -0.129  1.00  0.00     0.173 C 
HETATM   26  O3  UNL     1       3.643  -1.147  -0.793  1.00  0.00    -0.330 OA
HETATM   27  C29 UNL     1      -2.395   1.746   1.197  1.00  0.00     0.000 A 
HETATM   28  C30 UNL     1      -5.981  -1.649   1.201  1.00  0.00     0.003 C 
HETATM   29  C31 UNL     1      -5.529   0.449   2.441  1.00  0.00     0.003 C 
HETATM   30  O5  UNL     1      -7.639   0.631   0.424  1.00  0.00    -0.224 OA
ENDROOT
BRANCH  25  31
HETATM   31  C26 UNL     1       5.652  -2.018   0.146  1.00  0.00     0.154 C 
HETATM   32  C27 UNL     1       5.875  -2.776  -1.162  1.00  0.00     0.036 C 
HETATM   33  C28 UNL     1       6.961  -1.635   0.838  1.00  0.00     0.036 C 
HETATM   34  O4  UNL     1       4.918  -2.848   1.018  1.00  0.00    -0.223 OA
ENDBRANCH  25  31
BRANCH  19  35
HETATM   35  O1  UNL     1       1.160  -2.402  -1.102  1.00  0.00    -0.349 OA
HETATM   36  C20 UNL     1       1.684  -3.555  -0.480  1.00  0.00     0.174 C 
ENDBRANCH  19  35
TORSDOF 2
