REMARK  4 active torsions:
REMARK  status: ('A' for Active; 'I' for Inactive)
REMARK    1  A    between atoms: C2_2  and  O5_36 
REMARK    2  A    between atoms: C24_26  and  C25_28 
REMARK    3  A    between atoms: C25_28  and  O4_31 
REMARK    4  A    between atoms: O5_36  and  C32_37 
ROOT
HETATM    1  C1  UNL     1       3.281   1.875  -0.051  1.00  0.00     0.030 C 
HETATM    2  C2  UNL     1       4.156   0.906  -0.861  1.00  0.00     0.118 C 
HETATM    3  C3  UNL     1       3.490  -0.486  -0.998  1.00  0.00     0.025 C 
HETATM    4  C4  UNL     1       3.178  -1.064   0.422  1.00  0.00     0.002 C 
HETATM    5  C5  UNL     1       2.381  -0.070   1.297  1.00  0.00     0.000 A 
HETATM    6  C6  UNL     1       3.047   1.320   1.353  1.00  0.00     0.003 C 
HETATM    7  C7  UNL     1       0.869  -0.320   1.498  1.00  0.00     0.000 A 
HETATM    8  C8  UNL     1       0.189  -1.668   1.121  1.00  0.00     0.003 C 
HETATM    9  C9  UNL     1       1.023  -2.437   0.078  1.00  0.00     0.000 C 
HETATM   10  C10 UNL     1       2.522  -2.461   0.402  1.00  0.00     0.000 C 
HETATM   11  C11 UNL     1      -1.314  -1.588   0.697  1.00  0.00     0.033 C 
HETATM   12  C12 UNL     1      -1.725  -2.838  -0.115  1.00  0.00     0.003 C 
HETATM   13  C13 UNL     1      -1.756  -0.281  -0.061  1.00  0.00     0.007 C 
HETATM   14  C14 UNL     1      -0.705   0.844   0.021  1.00  0.00     0.000 C 
HETATM   15  C15 UNL     1      -0.037   0.906   1.398  1.00  0.00     0.000 C 
HETATM   16  C16 UNL     1      -2.061  -0.566  -1.539  1.00  0.00     0.000 C 
HETATM   17  C17 UNL     1      -3.041   0.246   0.652  1.00  0.00     0.054 C 
HETATM   18  C18 UNL     1      -3.531  -0.980   1.432  1.00  0.00     0.215 C 
HETATM   19  C19 UNL     1      -2.221  -1.568   1.959  1.00  0.00     0.203 C 
HETATM   20  O1  UNL     1      -2.400  -2.842   2.562  1.00  0.00    -0.218 OA
HETATM   21  O2  UNL     1      -4.297  -1.814   0.592  1.00  0.00    -0.333 OA
HETATM   22  C20 UNL     1      -5.522  -1.164   0.373  1.00  0.00     0.147 C 
HETATM   23  C21 UNL     1      -5.233  -0.057  -0.658  1.00  0.00     0.033 C 
HETATM   24  C22 UNL     1      -4.180   0.947  -0.135  1.00  0.00     0.007 C 
HETATM   25  C23 UNL     1      -3.658   1.879  -1.234  1.00  0.00     0.000 C 
HETATM   26  C24 UNL     1      -5.795  -0.627   1.793  1.00  0.00     0.170 C 
HETATM   27  O3  UNL     1      -4.506  -0.633   2.400  1.00  0.00    -0.330 OA
HETATM   28  C29 UNL     1       1.840  -0.459   2.658  1.00  0.00     0.000 A 
HETATM   29  C30 UNL     1       4.447  -1.439  -1.731  1.00  0.00     0.002 C 
HETATM   30  C31 UNL     1       2.223  -0.348  -1.850  1.00  0.00     0.002 C 
ENDROOT
BRANCH   2  31
HETATM   31  O5  UNL     1       4.412   1.479  -2.135  1.00  0.00    -0.332 OA
BRANCH  31  32
HETATM   32  C32 UNL     1       5.463   2.422  -2.119  1.00  0.00     0.270 C 
HETATM   33  C33 UNL     1       5.463   3.256  -3.430  1.00  0.00     0.241 C 
HETATM   34  C34 UNL     1       6.695   4.186  -3.498  1.00  0.00     0.220 C 
HETATM   35  O9  UNL     1       4.279   4.035  -3.490  1.00  0.00    -0.215 OA
HETATM   36  C35 UNL     1       7.979   3.375  -3.215  1.00  0.00     0.215 C 
HETATM   37  O8  UNL     1       6.777   4.783  -4.781  1.00  0.00    -0.218 OA
HETATM   38  C36 UNL     1       7.846   2.555  -1.916  1.00  0.00     0.181 C 
HETATM   39  O7  UNL     1       9.090   4.242  -3.082  1.00  0.00    -0.218 OA
HETATM   40  O6  UNL     1       6.695   1.725  -1.990  1.00  0.00    -0.326 OA
ENDBRANCH  31  32
ENDBRANCH   2  31
BRANCH  26  41
HETATM   41  C25 UNL     1      -6.701  -1.553   2.600  1.00  0.00     0.120 C 
HETATM   42  C26 UNL     1      -6.723  -1.100   4.061  1.00  0.00     0.032 C 
HETATM   43  C27 UNL     1      -8.094  -1.576   1.969  1.00  0.00     0.032 C 
BRANCH  41  44
HETATM   44  O4  UNL     1      -6.172  -2.857   2.551  1.00  0.00    -0.354 OA
HETATM   45  C28 UNL     1      -6.961  -3.803   3.234  1.00  0.00     0.174 C 
ENDBRANCH  41  44
ENDBRANCH  26  41
TORSDOF 4
