REMARK  3 active torsions:
REMARK  status: ('A' for Active; 'I' for Inactive)
REMARK    1  A    between atoms: C6_6  and  C7_7 
REMARK    2  A    between atoms: C8_8  and  C9_9 
REMARK    3  A    between atoms: C9_9  and  O1_10 
ROOT
HETATM    1  C1  UNL     1      -1.295  -1.367   0.003  1.00  0.00     0.000 A 
HETATM    2  C2  UNL     1      -1.951  -2.609   0.003  1.00  0.00     0.000 A 
HETATM    3  C3  UNL     1      -1.205  -3.799   0.003  1.00  0.00     0.000 A 
HETATM    4  C4  UNL     1       0.199  -3.748   0.003  1.00  0.00     0.000 A 
HETATM    5  C5  UNL     1       0.857  -2.506   0.003  1.00  0.00     0.000 A 
HETATM    6  C6  UNL     1       0.111  -1.314   0.003  1.00  0.00     0.000 A 
ENDROOT
BRANCH   6   7
HETATM    7  C7  UNL     1       0.810   0.006   0.003  1.00  0.00     0.005 C 
HETATM    8  C8  UNL     1       0.072   1.127   0.003  1.00  0.00     0.068 C 
BRANCH   8   9
HETATM    9  C9  UNL     1       0.715   2.447   0.003  1.00  0.00     0.296 C 
HETATM   10  O2  UNL     1       1.920   2.541   0.003  1.00  0.00    -0.259 OA
BRANCH   9  11
HETATM   11  O1  UNL     1      -0.109   3.490   0.003  1.00  0.00    -0.296 OA
HETATM   12  C10 UNL     1       0.586   4.729   0.009  1.00  0.00     0.185 C 
ENDBRANCH   9  11
ENDBRANCH   8   9
ENDBRANCH   6   7
TORSDOF 3
