REMARK  1 active torsions:
REMARK  status: ('A' for Active; 'I' for Inactive)
REMARK    1  A    between atoms: C9_10  and  O1_12 
ROOT
HETATM    1  N1  UNL     1       2.348   1.252  -0.016  1.00  0.00     0.141 N 
HETATM    2  C1  UNL     1       2.590  -0.152  -0.367  1.00  0.00     0.255 C 
HETATM    3  C2  UNL     1       1.529  -1.074   0.270  1.00  0.00     0.061 C 
HETATM    4  C3  UNL     1       0.143  -0.567   0.121  1.00  0.00    -0.020 A 
HETATM    5  C4  UNL     1      -0.098   0.795  -0.228  1.00  0.00     0.007 A 
HETATM    6  C5  UNL     1       1.035   1.732  -0.490  1.00  0.00     0.241 C 
HETATM    7  C6  UNL     1       1.135   2.037  -1.990  1.00  0.00     0.040 C 
HETATM    8  C7  UNL     1      -1.432   1.262  -0.338  1.00  0.00     0.027 A 
HETATM    9  C8  UNL     1      -2.520   0.387  -0.115  1.00  0.00     0.153 A 
HETATM   10  C9  UNL     1      -2.279  -0.967   0.219  1.00  0.00     0.119 A 
HETATM   11  C10 UNL     1      -0.953  -1.440   0.338  1.00  0.00     0.022 A 
HETATM   12  O2  UNL     1      -3.775   0.842  -0.223  1.00  0.00    -0.188 OA
HETATM   13  C12 UNL     1       2.570   1.512   1.404  1.00  0.00     0.286 C 
ENDROOT
BRANCH  10  14
HETATM   14  O1  UNL     1      -3.307  -1.801   0.426  1.00  0.00    -0.326 OA
HETATM   15  C11 UNL     1      -3.016  -3.162   0.709  1.00  0.00     0.181 C 
ENDBRANCH  10  14
TORSDOF 1
