REMARK  3 active torsions:
REMARK  status: ('A' for Active; 'I' for Inactive)
REMARK    1  A    between atoms: C7_8  and  O6_43 
REMARK    2  A    between atoms: C21_23  and  O4_36 
REMARK    3  A    between atoms: C29_32  and  O3_33 
ROOT
HETATM    1  C1  UNL     1      -5.963  -1.060   0.957  1.00  0.00     0.255 C 
HETATM    2  N1  UNL     1      -4.658  -1.598   1.348  1.00  0.00     0.142 N 
HETATM    3  C2  UNL     1      -3.563  -0.598   1.434  1.00  0.00     0.247 C 
HETATM    4  C3  UNL     1      -3.688   0.592   0.510  1.00  0.00     0.030 A 
HETATM    5  C4  UNL     1      -4.795   0.690  -0.385  1.00  0.00    -0.018 A 
HETATM    6  C5  UNL     1      -5.838  -0.363  -0.400  1.00  0.00     0.061 C 
HETATM    7  C6  UNL     1      -4.914   1.793  -1.262  1.00  0.00     0.022 A 
HETATM    8  C7  UNL     1      -3.969   2.836  -1.219  1.00  0.00     0.121 A 
HETATM    9  C8  UNL     1      -2.897   2.783  -0.305  1.00  0.00     0.175 A 
HETATM   10  C9  UNL     1      -2.719   1.643   0.533  1.00  0.00     0.125 A 
HETATM   11  O1  UNL     1      -1.670   1.508   1.381  1.00  0.00    -0.305 OA
HETATM   12  C10 UNL     1      -0.383   1.828   1.262  1.00  0.00     0.100 A 
HETATM   13  C11 UNL     1       0.236   2.225   0.055  1.00  0.00     0.024 A 
HETATM   14  C12 UNL     1       1.605   2.535   0.016  1.00  0.00    -0.002 A 
HETATM   15  C13 UNL     1       2.398   2.389   1.168  1.00  0.00    -0.020 A 
HETATM   16  C14 UNL     1       1.789   2.006   2.377  1.00  0.00    -0.002 A 
HETATM   17  C15 UNL     1       0.412   1.734   2.420  1.00  0.00     0.024 A 
HETATM   18  C16 UNL     1       3.887   2.619   1.108  1.00  0.00     0.053 C 
HETATM   19  C17 UNL     1       4.664   1.717   0.096  1.00  0.00     0.104 C 
HETATM   20  C18 UNL     1       4.148   0.313   0.059  1.00  0.00    -0.004 A 
HETATM   21  C19 UNL     1       4.606  -0.619   1.020  1.00  0.00    -0.020 A 
HETATM   22  C20 UNL     1       4.047  -1.920   1.070  1.00  0.00     0.022 A 
HETATM   23  C21 UNL     1       3.041  -2.293   0.149  1.00  0.00     0.116 A 
HETATM   24  C22 UNL     1       2.609  -1.373  -0.844  1.00  0.00     0.122 A 
HETATM   25  O2  UNL     1       1.639  -1.686  -1.726  1.00  0.00    -0.303 OA
HETATM   26  C23 UNL     1       0.338  -1.818  -1.471  1.00  0.00     0.122 A 
HETATM   27  C24 UNL     1      -0.240  -1.519  -0.211  1.00  0.00     0.022 A 
HETATM   28  C25 UNL     1      -1.623  -1.668   0.014  1.00  0.00    -0.018 A 
HETATM   29  C26 UNL     1      -2.190  -1.346   1.373  1.00  0.00     0.064 C 
HETATM   30  C27 UNL     1      -2.440  -2.127  -1.037  1.00  0.00    -0.002 A 
HETATM   31  C28 UNL     1      -1.879  -2.422  -2.291  1.00  0.00     0.026 A 
HETATM   32  C29 UNL     1      -0.500  -2.269  -2.508  1.00  0.00     0.117 A 
HETATM   33  C31 UNL     1       3.193  -0.088  -0.908  1.00  0.00     0.024 A 
HETATM   34  C33 UNL     1       5.670  -0.178   1.947  1.00  0.00     0.050 C 
HETATM   35  C34 UNL     1       6.713   0.684   1.203  1.00  0.00     0.102 C 
HETATM   36  N2  UNL     1       6.111   1.791   0.426  1.00  0.00    -0.364 N 
HETATM   37  C35 UNL     1       6.959   2.240  -0.674  1.00  0.00     0.121 C 
HETATM   38  O5  UNL     1      -2.072   3.838  -0.224  1.00  0.00    -0.186 OA
HETATM   39  C37 UNL     1      -4.770  -2.426   2.547  1.00  0.00     0.286 C 
ENDROOT
BRANCH   8  40
HETATM   40  O6  UNL     1      -4.104   3.887  -2.043  1.00  0.00    -0.326 OA
HETATM   41  C36 UNL     1      -5.188   3.879  -2.961  1.00  0.00     0.181 C 
ENDBRANCH   8  40
BRANCH  32  42
HETATM   42  O3  UNL     1       0.008  -2.553  -3.691  1.00  0.00    -0.326 OA
HETATM   43  C30 UNL     1      -0.844  -3.148  -4.658  1.00  0.00     0.181 C 
ENDBRANCH  32  42
BRANCH  23  44
HETATM   44  O4  UNL     1       2.498  -3.516   0.213  1.00  0.00    -0.326 OA
HETATM   45  C32 UNL     1       2.953  -4.395   1.231  1.00  0.00     0.181 C 
ENDBRANCH  23  44
TORSDOF 3
