REMARK  0 active torsions:
REMARK  status: ('A' for Active; 'I' for Inactive)
ROOT
HETATM    1  C1  UNL     1      -0.662   1.117  -0.098  1.00  0.00     0.000 C 
HETATM    2  C2  UNL     1      -0.943  -0.367   0.193  1.00  0.00     0.000 C 
HETATM    3  C3  UNL     1       0.225  -1.252  -0.272  1.00  0.00     0.000 C 
HETATM    4  C4  UNL     1       1.567  -0.793   0.318  1.00  0.00     0.000 C 
HETATM    5  C5  UNL     1       1.838   0.687   0.017  1.00  0.00     0.000 C 
HETATM    6  C6  UNL     1       0.680   1.576   0.492  1.00  0.00     0.000 C 
HETATM    7  C7  UNL     1      -2.264  -0.815  -0.443  1.00  0.00     0.000 C 
ENDROOT
TORSDOF 0
