REMARK  0 active torsions:
REMARK  status: ('A' for Active; 'I' for Inactive)
ROOT
HETATM    1  C1  UNL     1       0.807   0.014   0.297  1.00  0.00     0.058 C 
HETATM    2  C2  UNL     1       0.027   1.258  -0.014  1.00  0.00     0.150 C 
HETATM    3  C3  UNL     1      -1.443   0.963  -0.041  1.00  0.00     0.065 C 
HETATM    4  C4  UNL     1      -1.549  -0.438   0.563  1.00  0.00     0.008 C 
HETATM    5  C5  UNL     1      -0.231  -1.105   0.156  1.00  0.00     0.008 C 
HETATM    6  O1  UNL     1       0.514   2.346  -0.215  1.00  0.00    -0.296 OA
HETATM    7  C6  UNL     1       1.988  -0.213  -0.639  1.00  0.00     0.008 C 
ENDROOT
TORSDOF 0
