REMARK  3 active torsions:
REMARK  status: ('A' for Active; 'I' for Inactive)
REMARK    1  A    between atoms: C1_2  and  C2_4 
REMARK    2  A    between atoms: C2_4  and  C3_6 
REMARK    3  A    between atoms: C3_6  and  S1_7 
ROOT
HETATM    1  C2  UNL     1       0.939   0.504   0.402  1.00  0.00     0.398 C 
HETATM    2  N1  UNL     1       1.148   1.273   1.615  1.00  0.00     0.629 N 
ENDROOT
BRANCH   1   3
HETATM    3  C1  UNL     1       1.654  -0.818   0.494  1.00  0.00     0.225 C 
HETATM    4  O1  UNL     1       2.758  -0.918  -0.242  1.00  0.00    -0.646 OA
HETATM    5  O2  UNL     1       1.232  -1.705   1.197  1.00  0.00    -0.646 OA
ENDBRANCH   1   3
BRANCH   1   6
HETATM    6  C3  UNL     1      -0.555   0.340   0.121  1.00  0.00     0.108 C 
BRANCH   6   7
HETATM    7  S1  UNL     1      -0.830  -0.563  -1.430  1.00  0.00    -0.137 SA
HETATM    8  C4  UNL     1      -2.647  -0.563  -1.430  1.00  0.00     0.069 C 
ENDBRANCH   6   7
ENDBRANCH   1   6
TORSDOF 3
