REMARK  5 active torsions:
REMARK  status: ('A' for Active; 'I' for Inactive)
REMARK    1  A    between atoms: C2_2  and  C10_11 
REMARK    2  A    between atoms: C4_4  and  C8_8 
REMARK    3  A    between atoms: C10_11  and  O2_12 
REMARK    4  A    between atoms: O2_12  and  C11_13 
REMARK    5  A    between atoms: C12_15  and  C16_22 
ROOT
HETATM    1  O2  UNL     1       0.031   0.711   0.452  1.00  0.00    -0.329 OA
ENDROOT
BRANCH   1   2
HETATM    2  C10 UNL     1      -0.621   0.044  -0.600  1.00  0.00     0.145 C 
BRANCH   2   3
HETATM    3  C2  UNL     1       0.149   0.302  -1.899  1.00  0.00     0.030 C 
HETATM    4  C1  UNL     1      -0.684   0.015  -3.169  1.00  0.00     0.003 C 
HETATM    5  C6  UNL     1       0.125  -0.599  -4.333  1.00  0.00     0.000 C 
HETATM    6  C5  UNL     1       1.526  -1.074  -3.918  1.00  0.00     0.003 C 
HETATM    7  C4  UNL     1       1.577  -1.823  -2.555  1.00  0.00     0.031 C 
HETATM    8  C7  UNL     1       2.247   0.103  -3.212  1.00  0.00     0.000 C 
HETATM    9  C3  UNL     1       1.521  -0.396  -1.928  1.00  0.00     0.005 C 
HETATM   10  C9  UNL     1       0.438  -2.811  -2.274  1.00  0.00     0.003 C 
BRANCH   7  11
HETATM   11  C8  UNL     1       2.913  -2.547  -2.330  1.00  0.00     0.182 C 
HETATM   12  O1  UNL     1       2.982  -3.049  -1.010  1.00  0.00    -0.221 OA
ENDBRANCH   7  11
ENDBRANCH   2   3
ENDBRANCH   1   2
BRANCH   1  13
HETATM   13  C11 UNL     1      -0.587   0.554   1.711  1.00  0.00     0.270 C 
HETATM   14  O3  UNL     1      -1.809   1.258   1.656  1.00  0.00    -0.326 OA
HETATM   15  C12 UNL     1      -2.511   1.221   2.871  1.00  0.00     0.184 C 
HETATM   16  C13 UNL     1      -1.681   1.893   3.959  1.00  0.00     0.215 C 
HETATM   17  C14 UNL     1      -0.344   1.195   4.090  1.00  0.00     0.220 C 
HETATM   18  O6  UNL     1      -2.325   1.826   5.208  1.00  0.00    -0.218 OA
HETATM   19  C15 UNL     1       0.326   1.193   2.735  1.00  0.00     0.241 C 
HETATM   20  O5  UNL     1       0.456   1.885   5.014  1.00  0.00    -0.218 OA
HETATM   21  O4  UNL     1       1.526   0.468   2.815  1.00  0.00    -0.215 OA
BRANCH  15  22
HETATM   22  C16 UNL     1      -3.851   1.915   2.676  1.00  0.00     0.214 C 
HETATM   23  O7  UNL     1      -4.636   1.188   1.752  1.00  0.00    -0.218 OA
ENDBRANCH  15  22
ENDBRANCH   1  13
TORSDOF 5
