REMARK  4 active torsions:
REMARK  status: ('A' for Active; 'I' for Inactive)
REMARK    1  A    between atoms: O1_2  and  C2_3 
REMARK    2  A    between atoms: C2_3  and  C3_5 
REMARK    3  A    between atoms: C3_5  and  C5_7 
REMARK    4  A    between atoms: C5_7  and  C6_9 
ROOT
HETATM    1  C3  UNL     1      -1.113   0.279  -0.532  1.00  0.00     0.073 C 
HETATM    2  C4  UNL     1      -2.113   0.226  -1.430  1.00  0.00     0.004 C 
ENDROOT
BRANCH   1   3
HETATM    3  C2  UNL     1      -1.027   1.526   0.315  1.00  0.00     0.294 C 
HETATM    4  O2  UNL     1      -2.046   1.795   0.941  1.00  0.00    -0.259 OA
BRANCH   3   5
HETATM    5  O1  UNL     1       0.068   2.327   0.474  1.00  0.00    -0.296 OA
HETATM    6  C1  UNL     1       1.218   2.088  -0.299  1.00  0.00     0.185 C 
ENDBRANCH   3   5
ENDBRANCH   1   3
BRANCH   1   7
HETATM    7  C5  UNL     1      -0.209  -0.916  -0.330  1.00  0.00     0.212 C 
HETATM    8  O3  UNL     1       0.967  -0.826  -1.112  1.00  0.00    -0.216 OA
BRANCH   7   9
HETATM    9  C6  UNL     1       0.191  -1.145   1.114  1.00  0.00     0.220 C 
HETATM   10  O4  UNL     1       1.124  -2.204   1.128  1.00  0.00    -0.217 OA
ENDBRANCH   7   9
ENDBRANCH   1   7
TORSDOF 4
