REMARK  0 active torsions:
REMARK  status: ('A' for Active; 'I' for Inactive)
ROOT
HETATM    1  C1  UNL     1      -0.416   0.496  -0.053  1.00  0.00     0.010 A 
HETATM    2  C2  UNL     1       0.326  -0.647   0.062  1.00  0.00    -0.011 A 
HETATM    3  C3  UNL     1       1.840  -0.708   0.126  1.00  0.00     0.095 A 
HETATM    4  S1  UNL     1       2.506   1.002   0.052  1.00  0.00    -0.073 SA
HETATM    5  S2  UNL     1       0.454   1.972  -0.124  1.00  0.00    -0.059 SA
HETATM    6  C4  UNL     1      -1.920   0.501  -0.116  1.00  0.00     0.038 C 
ENDROOT
TORSDOF 0
