REMARK  3 active torsions:
REMARK  status: ('A' for Active; 'I' for Inactive)
REMARK    1  A    between atoms: C5_5  and  C8_8 
REMARK    2  A    between atoms: C8_8  and  C9_9 
REMARK    3  A    between atoms: C9_9  and  C10_10 
ROOT
HETATM    1  C8  UNL     1       0.400  -0.604   0.160  1.00  0.00    -0.001 C 
ENDROOT
BRANCH   1   2
HETATM    2  C5  UNL     1       1.929  -0.731   0.198  1.00  0.00    -0.008 A 
HETATM    3  C4  UNL     1       2.415  -2.015   0.541  1.00  0.00    -0.024 A 
HETATM    4  C3  UNL     1       3.795  -2.265   0.612  1.00  0.00    -0.001 A 
HETATM    5  C20 UNL     1       1.487  -3.182   0.849  1.00  0.00     0.031 C 
HETATM    6  C2  UNL     1       4.704  -1.238   0.342  1.00  0.00     0.122 A 
HETATM    7  C21 UNL     1       4.370  -3.621   0.974  1.00  0.00     0.033 C 
HETATM    8  C1  UNL     1       4.240   0.038  -0.000  1.00  0.00    -0.001 A 
HETATM    9  O2  UNL     1       6.043  -1.486   0.412  1.00  0.00    -0.191 OA
HETATM   10  C6  UNL     1       2.857   0.304  -0.076  1.00  0.00    -0.024 A 
HETATM   11  C22 UNL     1       5.342   1.051  -0.267  1.00  0.00     0.033 C 
HETATM   12  C7  UNL     1       2.394   1.696  -0.451  1.00  0.00     0.031 C 
ENDBRANCH   1   2
BRANCH   1  13
HETATM   13  C9  UNL     1      -0.391   0.663  -0.176  1.00  0.00    -0.001 C 
BRANCH  13  14
HETATM   14  C10 UNL     1      -1.920   0.794  -0.214  1.00  0.00    -0.008 A 
HETATM   15  C11 UNL     1      -2.399   2.081  -0.559  1.00  0.00    -0.024 A 
HETATM   16  C12 UNL     1      -3.777   2.333  -0.631  1.00  0.00    -0.001 A 
HETATM   17  C19 UNL     1      -1.468   3.245  -0.866  1.00  0.00     0.031 C 
HETATM   18  C13 UNL     1      -4.693   1.312  -0.362  1.00  0.00     0.122 A 
HETATM   19  C18 UNL     1      -4.357   3.687  -0.993  1.00  0.00     0.033 C 
HETATM   20  C14 UNL     1      -4.236   0.032  -0.018  1.00  0.00    -0.001 A 
HETATM   21  O1  UNL     1      -6.029   1.573  -0.435  1.00  0.00    -0.191 OA
HETATM   22  C15 UNL     1      -2.853  -0.236   0.058  1.00  0.00    -0.024 A 
HETATM   23  C17 UNL     1      -5.334  -0.984   0.251  1.00  0.00     0.033 C 
HETATM   24  C16 UNL     1      -2.390  -1.629   0.434  1.00  0.00     0.031 C 
ENDBRANCH  13  14
ENDBRANCH   1  13
TORSDOF 3
