REMARK  2 active torsions:
REMARK  status: ('A' for Active; 'I' for Inactive)
REMARK    1  A    between atoms: C7_9  and  C10_13 
REMARK    2  A    between atoms: C14_17  and  O4_19 
ROOT
HETATM    1  C1  UNL     1      -2.098  -3.434   0.053  1.00  0.00     0.131 A 
HETATM    2  C2  UNL     1      -1.407  -2.295  -0.160  1.00  0.00     0.028 A 
HETATM    3  C3  UNL     1      -1.760  -1.147   0.460  1.00  0.00     0.095 A 
HETATM    4  C4  UNL     1      -2.839  -1.174   1.263  1.00  0.00     0.051 A 
HETATM    5  C5  UNL     1      -3.553  -2.284   1.497  1.00  0.00     0.135 A 
HETATM    6  C6  UNL     1      -3.159  -3.405   0.876  1.00  0.00     0.055 A 
HETATM    7  O1  UNL     1      -4.637  -2.277   2.319  1.00  0.00    -0.190 OA
HETATM    8  O2  UNL     1      -1.119   0.051   0.273  1.00  0.00    -0.327 OA
HETATM    9  C7  UNL     1      -0.295   0.144  -0.860  1.00  0.00     0.174 C 
HETATM   10  C8  UNL     1       0.629  -1.056  -0.904  1.00  0.00     0.188 C 
HETATM   11  C9  UNL     1      -0.213  -2.311  -1.093  1.00  0.00     0.066 C 
HETATM   12  O3  UNL     1       1.533  -0.894  -1.970  1.00  0.00    -0.220 OA
HETATM   13  O6  UNL     1      -1.756  -4.599  -0.562  1.00  0.00    -0.190 OA
ENDROOT
BRANCH   9  14
HETATM   14  C10 UNL     1       0.526   1.421  -0.838  1.00  0.00     0.010 A 
HETATM   15  C11 UNL     1       0.539   2.247  -1.895  1.00  0.00     0.000 A 
HETATM   16  C12 UNL     1       1.292   3.354  -1.867  1.00  0.00     0.029 A 
HETATM   17  C13 UNL     1       2.049   3.657  -0.799  1.00  0.00     0.153 A 
HETATM   18  C14 UNL     1       2.061   2.840   0.275  1.00  0.00     0.119 A 
HETATM   19  O5  UNL     1       2.808   4.787  -0.794  1.00  0.00    -0.188 OA
HETATM   20  C15 UNL     1       1.296   1.732   0.219  1.00  0.00     0.025 A 
BRANCH  18  21
HETATM   21  O4  UNL     1       2.868   3.187   1.333  1.00  0.00    -0.326 OA
HETATM   22  C16 UNL     1       2.993   2.303   2.422  1.00  0.00     0.181 C 
ENDBRANCH  18  21
ENDBRANCH   9  14
TORSDOF 2
