REMARK  7 active torsions:
REMARK  status: ('A' for Active; 'I' for Inactive)
REMARK    1  A    between atoms: C2_2  and  O1_32 
REMARK    2  A    between atoms: C16_16  and  C19_19 
REMARK    3  A    between atoms: C19_19  and  C20_20 
REMARK    4  A    between atoms: C20_20  and  C21_21 
REMARK    5  A    between atoms: C21_21  and  C22_22 
REMARK    6  A    between atoms: C22_22  and  C24_24 
REMARK    7  A    between atoms: O1_32  and  C32_33 
ROOT
HETATM    1  C1  UNL     1      -5.045  -1.987   1.831  1.00  0.00     0.030 C 
HETATM    2  C2  UNL     1      -4.535  -3.391   2.188  1.00  0.00     0.124 C 
HETATM    3  C3  UNL     1      -3.824  -4.076   0.998  1.00  0.00     0.026 C 
HETATM    4  C4  UNL     1      -2.568  -3.236   0.609  1.00  0.00     0.002 C 
HETATM    5  C5  UNL     1      -2.685  -1.745   0.934  1.00  0.00     0.000 A 
HETATM    6  C6  UNL     1      -4.110  -1.217   0.883  1.00  0.00     0.003 C 
HETATM    7  C7  UNL     1      -1.500  -0.909   0.474  1.00  0.00     0.000 A 
HETATM    8  C8  UNL     1      -0.335  -1.685  -0.150  1.00  0.00     0.000 C 
HETATM    9  C9  UNL     1      -0.923  -2.558  -1.282  1.00  0.00     0.000 C 
HETATM   10  C10 UNL     1      -2.179  -3.360  -0.878  1.00  0.00     0.000 C 
HETATM   11  C11 UNL     1       0.906  -0.837  -0.555  1.00  0.00     0.000 C 
HETATM   12  C12 UNL     1       0.559   0.588  -1.063  1.00  0.00     0.000 C 
HETATM   13  C13 UNL     1      -0.561   1.321  -0.281  1.00  0.00     0.000 C 
HETATM   14  C14 UNL     1      -1.800   0.415  -0.211  1.00  0.00     0.000 C 
HETATM   15  C15 UNL     1      -0.280   1.867   1.133  1.00  0.00     0.000 C 
HETATM   16  C16 UNL     1       1.924   1.311  -1.071  1.00  0.00     0.000 C 
HETATM   17  C17 UNL     1       2.604   0.788   0.212  1.00  0.00     0.000 C 
HETATM   18  C18 UNL     1       1.874  -0.516   0.607  1.00  0.00     0.000 C 
HETATM   19  C28 UNL     1       1.760  -1.624  -1.589  1.00  0.00     0.000 C 
HETATM   20  C29 UNL     1      -1.769  -1.097   1.948  1.00  0.00     0.000 A 
HETATM   21  C30 UNL     1      -3.386  -5.505   1.412  1.00  0.00     0.002 C 
HETATM   22  C31 UNL     1      -4.847  -4.274  -0.148  1.00  0.00     0.002 C 
ENDROOT
BRANCH  16  23
HETATM   23  C19 UNL     1       1.963   2.831  -1.351  1.00  0.00     0.000 C 
HETATM   24  C27 UNL     1       1.352   3.144  -2.731  1.00  0.00     0.000 C 
BRANCH  23  25
HETATM   25  C20 UNL     1       3.409   3.372  -1.256  1.00  0.00     0.004 C 
BRANCH  25  26
HETATM   26  C21 UNL     1       3.550   4.873  -1.554  1.00  0.00     0.022 C 
BRANCH  26  27
HETATM   27  C22 UNL     1       4.910   5.443  -1.201  1.00  0.00    -0.045 C 
HETATM   28  C23 UNL     1       5.034   6.294  -0.167  1.00  0.00    -0.009 C 
BRANCH  27  29
HETATM   29  C24 UNL     1       6.146   5.029  -1.984  1.00  0.00     0.018 C 
HETATM   30  C25 UNL     1       6.840   3.822  -1.331  1.00  0.00     0.004 C 
HETATM   31  C26 UNL     1       5.895   4.788  -3.482  1.00  0.00     0.004 C 
ENDBRANCH  27  29
ENDBRANCH  26  27
ENDBRANCH  25  26
ENDBRANCH  23  25
ENDBRANCH  16  23
BRANCH   2  32
HETATM   32  O1  UNL     1      -3.651  -3.304   3.271  1.00  0.00    -0.304 OA
BRANCH  32  33
HETATM   33  C32 UNL     1      -4.048  -3.378   4.575  1.00  0.00     0.272 C 
HETATM   34  O2  UNL     1      -3.259  -3.283   5.491  1.00  0.00    -0.264 OA
HETATM   35  C33 UNL     1      -5.529  -3.596   4.842  1.00  0.00     0.106 C 
ENDBRANCH  32  33
ENDBRANCH   2  32
TORSDOF 7
