REMARK  2 active torsions:
REMARK  status: ('A' for Active; 'I' for Inactive)
REMARK    1  A    between atoms: C12_13  and  C16_19 
REMARK    2  A    between atoms: C14_15  and  O2_16 
ROOT
HETATM    1  C1  UNL     1      -3.712  -0.759   0.387  1.00  0.00     0.004 C 
HETATM    2  C2  UNL     1      -3.397  -1.890   1.369  1.00  0.00     0.018 C 
HETATM    3  C3  UNL     1      -2.312  -2.715   0.709  1.00  0.00    -0.044 C 
HETATM    4  C4  UNL     1      -1.028  -1.934   0.452  1.00  0.00     0.030 C 
HETATM    5  C5  UNL     1      -1.218  -0.681  -0.447  1.00  0.00     0.025 C 
HETATM    6  C6  UNL     1      -2.460   0.081   0.090  1.00  0.00     0.005 C 
HETATM    7  C7  UNL     1       0.101   0.136  -0.416  1.00  0.00     0.007 C 
HETATM    8  C8  UNL     1       1.335  -0.543  -0.345  1.00  0.00     0.058 C 
HETATM    9  C9  UNL     1       1.369  -2.033  -0.381  1.00  0.00     0.175 C 
HETATM   10  C10 UNL     1       0.115  -2.811  -0.063  1.00  0.00     0.074 C 
HETATM   11  O1  UNL     1       2.361  -2.676  -0.707  1.00  0.00    -0.291 OA
HETATM   12  C11 UNL     1       2.570   0.117  -0.200  1.00  0.00     0.134 C 
HETATM   13  C12 UNL     1       2.611   1.518  -0.161  1.00  0.00     0.058 C 
HETATM   14  C13 UNL     1       1.391   2.203  -0.277  1.00  0.00     0.153 C 
HETATM   15  C14 UNL     1       0.169   1.542  -0.500  1.00  0.00     0.115 C 
HETATM   16  O3  UNL     1       1.343   3.558  -0.156  1.00  0.00    -0.188 OA
HETATM   17  O5  UNL     1       3.693  -0.610   0.034  1.00  0.00    -0.190 OA
HETATM   18  C19 UNL     1      -1.489  -1.088  -1.912  1.00  0.00     0.005 C 
HETATM   19  C20 UNL     1      -2.490  -4.006   0.385  1.00  0.00    -0.009 C 
HETATM   20  C21 UNL     1      -4.683  -2.632   1.769  1.00  0.00     0.004 C 
ENDROOT
BRANCH  13  21
HETATM   21  C16 UNL     1       3.911   2.319   0.030  1.00  0.00     0.149 C 
HETATM   22  C17 UNL     1       4.054   2.688   1.510  1.00  0.00     0.038 C 
HETATM   23  C18 UNL     1       5.216   1.681  -0.468  1.00  0.00     0.038 C 
HETATM   24  O4  UNL     1       3.834   3.523  -0.708  1.00  0.00    -0.221 OA
ENDBRANCH  13  21
BRANCH  15  25
HETATM   25  O2  UNL     1      -0.939   2.346  -0.570  1.00  0.00    -0.326 OA
HETATM   26  C15 UNL     1      -1.214   2.839  -1.862  1.00  0.00     0.181 C 
ENDBRANCH  15  25
TORSDOF 2
