REMARK  5 active torsions:
REMARK  status: ('A' for Active; 'I' for Inactive)
REMARK    1  A    between atoms: C4_4  and  C7_9 
REMARK    2  A    between atoms: C5_6  and  C6_7 
REMARK    3  A    between atoms: C11_13  and  C14_17 
REMARK    4  A    between atoms: C12_14  and  O3_15 
REMARK    5  A    between atoms: C14_17  and  C15_18 
ROOT
HETATM    1  C7  UNL     1      -1.217  -0.311   0.081  1.00  0.00     0.053 C 
HETATM    2  C8  UNL     1      -2.547  -0.254   0.500  1.00  0.00     0.119 A 
HETATM    3  C9  UNL     1      -3.268  -1.377   0.877  1.00  0.00     0.119 A 
HETATM    4  C10 UNL     1      -2.696  -2.638   0.815  1.00  0.00     0.024 C 
HETATM    5  C11 UNL     1      -1.365  -2.730   0.384  1.00  0.00     0.006 C 
HETATM    6  C12 UNL     1      -0.584  -1.580   0.110  1.00  0.00     0.091 C 
HETATM    7  O4  UNL     1      -4.554  -1.015   1.225  1.00  0.00    -0.300 OA
HETATM    8  C17 UNL     1      -4.659   0.401   1.053  1.00  0.00     0.304 A 
HETATM    9  O5  UNL     1      -3.377   0.851   0.599  1.00  0.00    -0.300 OA
ENDROOT
BRANCH   1  10
HETATM   10  C4  UNL     1      -0.544   0.986  -0.365  1.00  0.00     0.174 C 
HETATM   11  C3  UNL     1       0.052   1.726   0.829  1.00  0.00     0.216 C 
HETATM   12  C2  UNL     1       0.865   2.928   0.385  1.00  0.00     0.218 C 
HETATM   13  O6  UNL     1      -0.991   2.172   1.666  1.00  0.00    -0.218 OA
HETATM   14  C1  UNL     1       1.818   2.551  -0.729  1.00  0.00     0.214 C 
HETATM   15  O7  UNL     1       1.633   3.439   1.448  1.00  0.00    -0.218 OA
HETATM   16  C5  UNL     1       1.059   1.877  -1.860  1.00  0.00     0.181 C 
HETATM   17  O8  UNL     1       2.434   3.740  -1.166  1.00  0.00    -0.218 OA
HETATM   18  O1  UNL     1       0.417   0.737  -1.363  1.00  0.00    -0.347 OA
BRANCH  16  19
HETATM   19  C6  UNL     1       1.976   1.404  -2.983  1.00  0.00     0.214 C 
HETATM   20  O2  UNL     1       2.767   2.472  -3.458  1.00  0.00    -0.218 OA
ENDBRANCH  16  19
ENDBRANCH   1  10
BRANCH   6  21
HETATM   21  O3  UNL     1       0.689  -1.770  -0.372  1.00  0.00    -0.329 OA
HETATM   22  C13 UNL     1       1.724  -1.585   0.566  1.00  0.00     0.181 C 
ENDBRANCH   6  21
BRANCH   5  23
HETATM   23  C14 UNL     1      -0.777  -4.120   0.230  1.00  0.00     0.054 C 
BRANCH  23  24
HETATM   24  C15 UNL     1       0.059  -4.490   1.427  1.00  0.00    -0.021 C 
HETATM   25  C16 UNL     1       1.337  -4.889   1.350  1.00  0.00    -0.005 C 
ENDBRANCH  23  24
ENDBRANCH   5  23
TORSDOF 5
