REMARK  5 active torsions:
REMARK  status: ('A' for Active; 'I' for Inactive)
REMARK    1  A    between atoms: C5_5  and  C7_7 
REMARK    2  A    between atoms: C7_7  and  C8_8 
REMARK    3  A    between atoms: C8_8  and  C9_9 
REMARK    4  A    between atoms: C9_9  and  C10_10 
REMARK    5  A    between atoms: C10_10  and  C11_11 
ROOT
HETATM    1  C9  UNL     1       0.409  -0.499   0.060  1.00  0.00     0.006 C 
ENDROOT
BRANCH   1   2
HETATM    2  C8  UNL     1      -1.098  -0.796   0.164  1.00  0.00     0.005 C 
BRANCH   2   3
HETATM    3  C7  UNL     1      -1.398  -2.302   0.116  1.00  0.00     0.026 C 
BRANCH   3   4
HETATM    4  C5  UNL     1      -2.857  -2.706   0.209  1.00  0.00    -0.020 A 
HETATM    5  C4  UNL     1      -3.167  -4.072   0.341  1.00  0.00    -0.002 A 
HETATM    6  C3  UNL     1      -4.481  -4.545   0.429  1.00  0.00     0.026 A 
HETATM    7  C2  UNL     1      -5.500  -3.599   0.378  1.00  0.00     0.119 A 
HETATM    8  C1  UNL     1      -5.214  -2.245   0.247  1.00  0.00     0.119 A 
HETATM    9  O2  UNL     1      -6.869  -3.772   0.438  1.00  0.00    -0.300 OA
HETATM   10  C6  UNL     1      -3.907  -1.775   0.163  1.00  0.00     0.022 A 
HETATM   11  O3  UNL     1      -6.400  -1.536   0.220  1.00  0.00    -0.300 OA
HETATM   12  C20 UNL     1      -7.474  -2.477   0.338  1.00  0.00     0.304 A 
ENDBRANCH   3   4
ENDBRANCH   2   3
ENDBRANCH   1   2
BRANCH   1  13
HETATM   13  C10 UNL     1       0.688   1.011   0.110  1.00  0.00     0.042 C 
BRANCH  13  14
HETATM   14  C11 UNL     1       2.131   1.413  -0.051  1.00  0.00     0.043 C 
HETATM   15  N1  UNL     1       2.548   2.848  -0.240  1.00  0.00    -0.258 NA
HETATM   16  C12 UNL     1       3.871   3.291  -0.364  1.00  0.00     0.056 C 
HETATM   17  C13 UNL     1       4.920   2.427  -0.276  1.00  0.00     0.013 C 
HETATM   18  C19 UNL     1       4.078   4.755  -0.590  1.00  0.00     0.045 C 
HETATM   19  C14 UNL     1       4.690   0.939  -0.087  1.00  0.00     0.111 C 
HETATM   20  C16 UNL     1       6.296   2.902  -0.444  1.00  0.00     0.029 C 
HETATM   21  C15 UNL     1       3.261   0.430  -0.228  1.00  0.00     0.095 C 
HETATM   22  O1  UNL     1       5.674   0.096   0.138  1.00  0.00    -0.195 OA
HETATM   23  C17 UNL     1       6.602   4.376  -0.484  1.00  0.00     0.005 C 
HETATM   24  C18 UNL     1       5.464   5.335  -0.753  1.00  0.00     0.007 C 
ENDBRANCH  13  14
ENDBRANCH   1  13
TORSDOF 5
