REMARK  12 active torsions:
REMARK  status: ('A' for Active; 'I' for Inactive)
REMARK    1  A    between atoms: C5_5  and  C7_7 
REMARK    2  A    between atoms: C8_8  and  C9_9 
REMARK    3  A    between atoms: C9_9  and  C10_10 
REMARK    4  A    between atoms: C10_10  and  C11_11 
REMARK    5  A    between atoms: C11_11  and  C12_12 
REMARK    6  A    between atoms: C12_12  and  C13_13 
REMARK    7  A    between atoms: C13_13  and  C14_14 
REMARK    8  A    between atoms: C14_14  and  C15_15 
REMARK    9  A    between atoms: C15_15  and  C16_16 
REMARK   10  A    between atoms: C16_16  and  C17_17 
REMARK   11  A    between atoms: C17_17  and  C18_18 
REMARK   12  A    between atoms: C18_18  and  C19_19 
ROOT
HETATM    1  C9  UNL     1       0.748  -3.247   0.531  1.00  0.00     0.026 C 
ENDROOT
BRANCH   1   2
HETATM    2  C8  UNL     1      -0.751  -3.073   0.500  1.00  0.00    -0.026 C 
HETATM    3  C7  UNL     1      -1.608  -3.663   1.354  1.00  0.00    -0.004 C 
BRANCH   3   4
HETATM    4  C5  UNL     1      -3.074  -3.493   1.282  1.00  0.00     0.002 A 
HETATM    5  C4  UNL     1      -3.902  -4.517   1.782  1.00  0.00     0.002 A 
HETATM    6  C3  UNL     1      -5.297  -4.423   1.755  1.00  0.00     0.026 A 
HETATM    7  C2  UNL     1      -5.848  -3.252   1.241  1.00  0.00     0.119 A 
HETATM    8  C1  UNL     1      -5.043  -2.217   0.781  1.00  0.00     0.119 A 
HETATM    9  O1  UNL     1      -7.175  -2.889   1.107  1.00  0.00    -0.300 OA
HETATM   10  C6  UNL     1      -3.654  -2.310   0.790  1.00  0.00     0.026 A 
HETATM   11  O2  UNL     1      -5.845  -1.174   0.358  1.00  0.00    -0.300 OA
HETATM   12  C21 UNL     1      -7.209  -1.569   0.550  1.00  0.00     0.304 A 
ENDBRANCH   3   4
ENDBRANCH   1   2
BRANCH   1  13
HETATM   13  C10 UNL     1       1.504  -1.913   0.404  1.00  0.00     0.005 C 
BRANCH  13  14
HETATM   14  C11 UNL     1       1.853  -1.215   1.731  1.00  0.00     0.000 C 
BRANCH  14  15
HETATM   15  C12 UNL     1       0.695  -0.888   2.689  1.00  0.00     0.000 C 
BRANCH  15  16
HETATM   16  C13 UNL     1      -0.464  -0.059   2.115  1.00  0.00     0.000 C 
BRANCH  16  17
HETATM   17  C14 UNL     1      -0.046   1.215   1.371  1.00  0.00     0.000 C 
BRANCH  17  18
HETATM   18  C15 UNL     1      -1.266   2.006   0.862  1.00  0.00     0.000 C 
BRANCH  18  19
HETATM   19  C16 UNL     1      -0.905   2.923  -0.320  1.00  0.00     0.000 C 
BRANCH  19  20
HETATM   20  C17 UNL     1      -0.859   2.149  -1.651  1.00  0.00     0.000 C 
BRANCH  20  21
HETATM   21  C18 UNL     1      -0.113   2.888  -2.774  1.00  0.00     0.000 C 
BRANCH  21  22
HETATM   22  C19 UNL     1       1.415   2.956  -2.597  1.00  0.00     0.000 C 
HETATM   23  C20 UNL     1       2.104   1.584  -2.598  1.00  0.00     0.000 C 
ENDBRANCH  21  22
ENDBRANCH  20  21
ENDBRANCH  19  20
ENDBRANCH  18  19
ENDBRANCH  17  18
ENDBRANCH  16  17
ENDBRANCH  15  16
ENDBRANCH  14  15
ENDBRANCH  13  14
ENDBRANCH   1  13
TORSDOF 12
