REMARK  4 active torsions:
REMARK  status: ('A' for Active; 'I' for Inactive)
REMARK    1  A    between atoms: C1_1  and  C2_2 
REMARK    2  A    between atoms: C2_2  and  C3_3 
REMARK    3  A    between atoms: C3_3  and  C4_4 
REMARK    4  A    between atoms: C4_4  and  C5_6 
ROOT
HETATM    1  C3  UNL     1      -0.185  -0.627  -0.647  1.00  0.00     0.083 C 
ENDROOT
BRANCH   1   2
HETATM    2  C2  UNL     1      -1.447   0.011  -0.111  1.00  0.00     0.045 C 
HETATM    3  C6  UNL     1      -2.258  -0.651   0.742  1.00  0.00     0.002 C 
BRANCH   2   4
HETATM    4  C1  UNL     1      -1.791   1.399  -0.510  1.00  0.00     0.207 C 
HETATM    5  O3  UNL     1      -2.784   1.964  -0.065  1.00  0.00    -0.644 OA
HETATM    6  O4  UNL     1      -1.028   2.109  -1.365  1.00  0.00    -0.644 OA
ENDBRANCH   2   4
ENDBRANCH   1   2
BRANCH   1   7
HETATM    7  C4  UNL     1       1.061  -0.076   0.064  1.00  0.00     0.392 C 
HETATM    8  N1  UNL     1       0.912  -0.263   1.515  1.00  0.00     0.628 N 
BRANCH   7   9
HETATM    9  C5  UNL     1       2.350  -0.728  -0.397  1.00  0.00     0.224 C 
HETATM   10  O1  UNL     1       3.406  -0.263   0.295  1.00  0.00    -0.646 OA
HETATM   11  O2  UNL     1       2.480  -1.555  -1.268  1.00  0.00    -0.646 OA
ENDBRANCH   7   9
ENDBRANCH   1   7
TORSDOF 4
