REMARK  3 active torsions:
REMARK  status: ('A' for Active; 'I' for Inactive)
REMARK    1  A    between atoms: C1_1  and  O1_11 
REMARK    2  A    between atoms: C6_6  and  C8_8 
REMARK    3  A    between atoms: O1_11  and  C11_12 
ROOT
HETATM    1  C1  UNL     1      -0.504  -0.909  -1.055  1.00  0.00     0.143 C 
HETATM    2  C2  UNL     1      -1.383  -1.320   0.111  1.00  0.00    -0.017 C 
HETATM    3  C3  UNL     1      -2.531  -2.000  -0.021  1.00  0.00    -0.007 C 
HETATM    4  C4  UNL     1      -0.872  -0.875   1.429  1.00  0.00     0.021 A 
HETATM    5  C5  UNL     1       0.558  -1.326   1.623  1.00  0.00     0.004 A 
HETATM    6  C6  UNL     1       0.258   0.048   1.068  1.00  0.00     0.006 A 
HETATM    7  C7  UNL     1       0.358   0.204  -0.443  1.00  0.00     0.035 C 
ENDROOT
BRANCH   1   8
HETATM    8  O1  UNL     1      -1.281  -0.444  -2.131  1.00  0.00    -0.300 OA
BRANCH   8   9
HETATM    9  C11 UNL     1      -0.765  -0.227  -3.373  1.00  0.00     0.273 C 
HETATM   10  O2  UNL     1      -1.413   0.294  -4.257  1.00  0.00    -0.264 OA
HETATM   11  C12 UNL     1       0.642  -0.738  -3.627  1.00  0.00     0.106 C 
ENDBRANCH   8   9
ENDBRANCH   1   8
BRANCH   6  12
HETATM   12  C8  UNL     1       0.569   1.240   1.971  1.00  0.00     0.000 C 
HETATM   13  C9  UNL     1       2.038   1.676   1.853  1.00  0.00     0.000 C 
HETATM   14  C10 UNL     1      -0.367   2.440   1.744  1.00  0.00     0.000 C 
ENDBRANCH   6  12
TORSDOF 3
