REMARK  5 active torsions:
REMARK  status: ('A' for Active; 'I' for Inactive)
REMARK    1  A    between atoms: C15_15  and  C18_18 
REMARK    2  A    between atoms: C18_18  and  C19_19 
REMARK    3  A    between atoms: C19_19  and  C20_20 
REMARK    4  A    between atoms: C20_20  and  C21_21 
REMARK    5  A    between atoms: C21_21  and  C22_22 
ROOT
HETATM    1  C1  UNL     1      -5.230  -0.403  -1.151  1.00  0.00     0.000 C 
HETATM    2  C2  UNL     1      -5.181  -1.726  -1.921  1.00  0.00     0.000 C 
HETATM    3  C3  UNL     1      -3.992  -2.581  -1.450  1.00  0.00     0.000 C 
HETATM    4  C4  UNL     1      -4.038  -2.816   0.082  1.00  0.00     0.004 C 
HETATM    5  C5  UNL     1      -4.110  -1.490   0.889  1.00  0.00     0.015 C 
HETATM    6  C6  UNL     1      -5.324  -0.693   0.350  1.00  0.00     0.004 C 
HETATM    7  C7  UNL     1      -2.768  -0.759   0.809  1.00  0.00    -0.052 C 
HETATM    8  C8  UNL     1      -1.609  -1.416   0.606  1.00  0.00    -0.052 C 
HETATM    9  C9  UNL     1      -1.536  -2.905   0.339  1.00  0.00     0.021 C 
HETATM   10  C10 UNL     1      -2.850  -3.649   0.583  1.00  0.00     0.004 C 
HETATM   11  C11 UNL     1      -0.249  -0.749   0.663  1.00  0.00     0.018 C 
HETATM   12  C12 UNL     1      -0.186   0.756   1.032  1.00  0.00     0.004 C 
HETATM   13  C13 UNL     1      -1.508   1.415   0.601  1.00  0.00     0.004 C 
HETATM   14  C14 UNL     1      -2.745   0.711   1.162  1.00  0.00     0.021 C 
HETATM   15  C15 UNL     1       0.999   1.347   0.195  1.00  0.00     0.000 C 
HETATM   16  C16 UNL     1       1.725   0.101  -0.342  1.00  0.00     0.000 C 
HETATM   17  C17 UNL     1       0.577  -0.876  -0.623  1.00  0.00     0.004 C 
HETATM   18  C27 UNL     1       0.013   0.858   2.559  1.00  0.00     0.000 C 
HETATM   19  C28 UNL     1      -4.391  -1.741   2.391  1.00  0.00     0.004 C 
HETATM   20  C29 UNL     1      -3.964  -3.890  -2.260  1.00  0.00     0.000 C 
ENDROOT
BRANCH  15  21
HETATM   21  C18 UNL     1       1.916   2.425   0.823  1.00  0.00     0.000 C 
HETATM   22  C26 UNL     1       1.148   3.744   1.053  1.00  0.00     0.000 C 
BRANCH  21  23
HETATM   23  C19 UNL     1       3.161   2.742  -0.046  1.00  0.00     0.004 C 
BRANCH  23  24
HETATM   24  C20 UNL     1       4.436   2.006   0.399  1.00  0.00     0.022 C 
BRANCH  24  25
HETATM   25  C21 UNL     1       5.609   2.287  -0.520  1.00  0.00    -0.044 C 
HETATM   26  C25 UNL     1       6.176   3.504  -0.532  1.00  0.00    -0.009 C 
BRANCH  25  27
HETATM   27  C22 UNL     1       6.102   1.124  -1.365  1.00  0.00     0.018 C 
HETATM   28  C23 UNL     1       6.911   1.531  -2.609  1.00  0.00     0.004 C 
HETATM   29  C24 UNL     1       6.933   0.164  -0.497  1.00  0.00     0.004 C 
ENDBRANCH  25  27
ENDBRANCH  24  25
ENDBRANCH  23  24
ENDBRANCH  21  23
ENDBRANCH  15  21
TORSDOF 5
