REMARK  1 active torsions:
REMARK  status: ('A' for Active; 'I' for Inactive)
REMARK    1  A    between atoms: O1_2  and  C2_3 
ROOT
HETATM    1  C2  UNL     1       0.435  -1.399  -0.639  1.00  0.00     0.121 A 
HETATM    2  C3  UNL     1       1.581  -0.918   0.018  1.00  0.00     0.153 A 
HETATM    3  O2  UNL     1       2.710  -1.674   0.090  1.00  0.00    -0.188 OA
HETATM    4  C4  UNL     1       1.565   0.352   0.594  1.00  0.00     0.031 A 
HETATM    5  C5  UNL     1       0.424   1.164   0.555  1.00  0.00     0.025 A 
HETATM    6  C6  UNL     1      -0.745   0.709  -0.074  1.00  0.00     0.105 A 
HETATM    7  C7  UNL     1      -0.698  -0.571  -0.642  1.00  0.00     0.051 A 
HETATM    8  O3  UNL     1      -1.897   1.443  -0.141  1.00  0.00    -0.273 OA
HETATM    9  C8  UNL     1      -1.887   2.678   0.438  1.00  0.00     0.300 A 
HETATM   10  C9  UNL     1      -0.695   3.231   1.120  1.00  0.00     0.069 A 
HETATM   11  C10 UNL     1       0.430   2.487   1.174  1.00  0.00     0.007 A 
HETATM   12  O4  UNL     1      -2.898   3.378   0.405  1.00  0.00    -0.259 OA
ENDROOT
BRANCH   1  13
HETATM   13  O1  UNL     1       0.477  -2.666  -1.168  1.00  0.00    -0.326 OA
HETATM   14  C1  UNL     1      -0.734  -3.280  -1.542  1.00  0.00     0.181 C 
ENDBRANCH   1  13
TORSDOF 1
