REMARK  3 active torsions:
REMARK  status: ('A' for Active; 'I' for Inactive)
REMARK    1  A    between atoms: C2_2  and  C3_3 
REMARK    2  A    between atoms: C3_3  and  S1_4 
REMARK    3  A    between atoms: S1_4  and  C4_5 
ROOT
HETATM    1  S1  UNL     1       0.357   0.951  -0.023  1.00  0.00    -0.136 SA
ENDROOT
BRANCH   1   2
HETATM    2  C3  UNL     1      -1.239   0.352   0.611  1.00  0.00     0.083 C 
BRANCH   2   3
HETATM    3  C2  UNL     1      -2.235   1.484   0.589  1.00  0.00    -0.015 C 
HETATM    4  C1  UNL     1      -3.352   1.483  -0.153  1.00  0.00    -0.004 C 
ENDBRANCH   2   3
ENDBRANCH   1   2
BRANCH   1   5
HETATM    5  C4  UNL     1       1.346  -0.578   0.157  1.00  0.00     0.048 C 
HETATM    6  C5  UNL     1       1.037  -1.540  -1.001  1.00  0.00     0.012 C 
HETATM    7  C6  UNL     1       2.834  -0.191   0.160  1.00  0.00     0.012 C 
ENDBRANCH   1   5
TORSDOF 3
