REMARK  6 active torsions:
REMARK  status: ('A' for Active; 'I' for Inactive)
REMARK    1  A    between atoms: C15_17  and  C18_21 
REMARK    2  A    between atoms: C19_22  and  C20_23 
REMARK    3  A    between atoms: C20_23  and  C21_25 
REMARK    4  A    between atoms: C21_25  and  C22_26 
REMARK    5  A    between atoms: C22_26  and  C24_28 
REMARK    6  A    between atoms: C24_28  and  O5_29 
ROOT
HETATM    1  C1  UNL     1      -5.049  -1.497   0.639  1.00  0.00     0.033 C 
HETATM    2  C2  UNL     1      -5.076  -2.917   0.095  1.00  0.00     0.152 C 
HETATM    3  C3  UNL     1      -3.979  -3.807   0.709  1.00  0.00     0.029 C 
HETATM    4  C4  UNL     1      -2.598  -3.086   0.584  1.00  0.00     0.014 C 
HETATM    5  C5  UNL     1      -2.481  -1.577   0.947  1.00  0.00     0.022 C 
HETATM    6  C6  UNL     1      -3.696  -0.843   0.335  1.00  0.00     0.007 C 
HETATM    7  C7  UNL     1      -1.120  -1.059   0.430  1.00  0.00     0.011 C 
HETATM    8  C8  UNL     1      -0.005  -1.837   0.485  1.00  0.00     0.013 C 
HETATM    9  C9  UNL     1      -0.099  -3.266   0.901  1.00  0.00     0.169 C 
HETATM   10  C10 UNL     1      -1.447  -3.864   1.230  1.00  0.00     0.069 C 
HETATM   11  O1  UNL     1       0.878  -4.002   0.920  1.00  0.00    -0.292 OA
HETATM   12  C11 UNL     1       1.335  -1.330  -0.034  1.00  0.00     0.050 C 
HETATM   13  C12 UNL     1       1.530   0.161   0.366  1.00  0.00     0.016 C 
HETATM   14  C13 UNL     1       0.422   0.941  -0.344  1.00  0.00     0.070 C 
HETATM   15  C14 UNL     1      -0.958   0.345  -0.083  1.00  0.00     0.169 C 
HETATM   16  O2  UNL     1      -1.902   1.091  -0.305  1.00  0.00    -0.292 OA
HETATM   17  C15 UNL     1       3.033   0.502   0.081  1.00  0.00     0.018 C 
HETATM   18  C16 UNL     1       3.676  -0.818   0.614  1.00  0.00     0.037 C 
HETATM   19  C17 UNL     1       2.610  -1.921   0.585  1.00  0.00     0.156 C 
HETATM   20  O3  UNL     1       3.075  -3.050  -0.112  1.00  0.00    -0.223 OA
HETATM   21  C27 UNL     1       3.469   0.591  -1.399  1.00  0.00     0.004 C 
HETATM   22  C28 UNL     1       1.286   0.392   1.891  1.00  0.00     0.001 C 
HETATM   23  C29 UNL     1       1.204  -1.669  -1.542  1.00  0.00     0.007 C 
HETATM   24  C30 UNL     1      -2.441  -1.272   2.462  1.00  0.00     0.004 C 
HETATM   25  C31 UNL     1      -3.964  -5.124  -0.116  1.00  0.00     0.003 C 
HETATM   26  C32 UNL     1      -4.326  -4.218   2.157  1.00  0.00     0.003 C 
HETATM   27  O7  UNL     1      -6.361  -3.457   0.305  1.00  0.00    -0.224 OA
ENDROOT
BRANCH  17  28
HETATM   28  C18 UNL     1       3.559   1.788   0.757  1.00  0.00    -0.042 C 
HETATM   29  C19 UNL     1       3.183   3.064   0.531  1.00  0.00     0.029 C 
HETATM   30  C26 UNL     1       4.642   1.614   1.811  1.00  0.00     0.026 C 
BRANCH  29  31
HETATM   31  C20 UNL     1       2.187   3.663  -0.426  1.00  0.00     0.173 C 
HETATM   32  O4  UNL     1       1.292   4.360   0.027  1.00  0.00    -0.291 OA
BRANCH  31  33
HETATM   33  C21 UNL     1       2.434   3.636  -1.925  1.00  0.00     0.079 C 
BRANCH  33  34
HETATM   34  C22 UNL     1       2.477   5.024  -2.599  1.00  0.00     0.094 C 
HETATM   35  C23 UNL     1       3.764   5.772  -2.204  1.00  0.00     0.011 C 
BRANCH  34  36
HETATM   36  C24 UNL     1       1.235   5.879  -2.372  1.00  0.00     0.272 C 
HETATM   37  O6  UNL     1       1.255   7.049  -2.051  1.00  0.00    -0.264 OA
BRANCH  36  38
HETATM   38  O5  UNL     1       0.102   5.167  -2.616  1.00  0.00    -0.299 OA
HETATM   39  C25 UNL     1      -1.115   5.843  -2.404  1.00  0.00     0.184 C 
ENDBRANCH  36  38
ENDBRANCH  34  36
ENDBRANCH  33  34
ENDBRANCH  31  33
ENDBRANCH  29  31
ENDBRANCH  17  28
TORSDOF 6
