REMARK  11 active torsions:
REMARK  status: ('A' for Active; 'I' for Inactive)
REMARK    1  A    between atoms: C2_2  and  O4_21 
REMARK    2  A    between atoms: C3_3  and  O3_19 
REMARK    3  A    between atoms: C6_6  and  C7_7 
REMARK    4  A    between atoms: C7_7  and  C8_8 
REMARK    5  A    between atoms: C8_8  and  C9_9 
REMARK    6  A    between atoms: C9_9  and  C10_11 
REMARK    7  A    between atoms: C10_11  and  C11_12 
REMARK    8  A    between atoms: C11_12  and  C12_14 
REMARK    9  A    between atoms: C12_14  and  C13_15 
REMARK   10  A    between atoms: C13_15  and  C14_16 
REMARK   11  A    between atoms: C14_16  and  C15_17 
ROOT
HETATM    1  C7  UNL     1      -0.074  -1.122  -0.880  1.00  0.00     0.029 C 
ENDROOT
BRANCH   1   2
HETATM    2  C6  UNL     1       0.514  -2.445  -0.435  1.00  0.00    -0.020 A 
HETATM    3  C1  UNL     1       1.896  -2.615  -0.327  1.00  0.00     0.022 A 
HETATM    4  C2  UNL     1       2.534  -3.806   0.055  1.00  0.00     0.116 A 
HETATM    5  C3  UNL     1       1.724  -4.930   0.341  1.00  0.00     0.116 A 
HETATM    6  C4  UNL     1       0.333  -4.760   0.234  1.00  0.00     0.026 A 
HETATM    7  C5  UNL     1      -0.269  -3.561  -0.143  1.00  0.00    -0.002 A 
BRANCH   4   8
HETATM    8  O4  UNL     1       3.911  -3.753   0.082  1.00  0.00    -0.326 OA
HETATM    9  C18 UNL     1       4.683  -4.902   0.333  1.00  0.00     0.181 C 
ENDBRANCH   4   8
BRANCH   5  10
HETATM   10  O3  UNL     1       2.292  -6.125   0.704  1.00  0.00    -0.326 OA
HETATM   11  C17 UNL     1       1.471  -7.235   0.980  1.00  0.00     0.181 C 
ENDBRANCH   5  10
ENDBRANCH   1   2
BRANCH   1  12
HETATM   12  C8  UNL     1      -1.418  -0.739  -0.234  1.00  0.00     0.038 C 
BRANCH  12  13
HETATM   13  C9  UNL     1      -1.937   0.646  -0.642  1.00  0.00     0.155 C 
HETATM   14  O1  UNL     1      -1.893   0.756  -2.047  1.00  0.00    -0.223 OA
BRANCH  13  15
HETATM   15  C10 UNL     1      -1.181   1.825  -0.016  1.00  0.00     0.066 C 
BRANCH  15  16
HETATM   16  C11 UNL     1      -1.929   2.494   1.142  1.00  0.00     0.155 C 
HETATM   17  O2  UNL     1      -2.101   1.539   2.165  1.00  0.00    -0.223 OA
BRANCH  16  18
HETATM   18  C12 UNL     1      -1.205   3.717   1.720  1.00  0.00     0.033 C 
BRANCH  18  19
HETATM   19  C13 UNL     1      -1.680   5.076   1.170  1.00  0.00     0.003 C 
BRANCH  19  20
HETATM   20  C14 UNL     1      -1.548   5.283  -0.348  1.00  0.00     0.000 C 
BRANCH  20  21
HETATM   21  C15 UNL     1      -0.093   5.320  -0.842  1.00  0.00     0.000 C 
HETATM   22  C16 UNL     1      -0.019   5.415  -2.372  1.00  0.00     0.000 C 
ENDBRANCH  20  21
ENDBRANCH  19  20
ENDBRANCH  18  19
ENDBRANCH  16  18
ENDBRANCH  15  16
ENDBRANCH  13  15
ENDBRANCH  12  13
ENDBRANCH   1  12
TORSDOF 11
