REMARK  4 active torsions:
REMARK  status: ('A' for Active; 'I' for Inactive)
REMARK    1  A    between atoms: C3_3  and  C4_4 
REMARK    2  A    between atoms: C4_4  and  C5_5 
REMARK    3  A    between atoms: C6_6  and  C7_7 
REMARK    4  A    between atoms: C7_7  and  C8_8 
ROOT
HETATM    1  C5  UNL     1      -0.442  -0.778  -0.000  1.00  0.00    -0.018 C 
HETATM    2  C6  UNL     1       0.577  -1.663   0.000  1.00  0.00     0.033 C 
ENDROOT
BRANCH   1   3
HETATM    3  C4  UNL     1      -0.214   0.713  -0.000  1.00  0.00     0.051 C 
BRANCH   3   4
HETATM    4  C3  UNL     1      -1.479   1.536  -0.000  1.00  0.00    -0.030 C 
HETATM    5  C2  UNL     1      -1.508   2.881   0.000  1.00  0.00    -0.048 C 
HETATM    6  C1  UNL     1      -2.830   3.611   0.000  1.00  0.00     0.026 C 
HETATM    7  C10 UNL     1      -0.244   3.706   0.000  1.00  0.00     0.026 C 
ENDBRANCH   3   4
ENDBRANCH   1   3
BRANCH   2   8
HETATM    8  C7  UNL     1       0.358  -3.129   0.000  1.00  0.00     0.173 C 
HETATM    9  O1  UNL     1      -0.774  -3.602   0.000  1.00  0.00    -0.291 OA
BRANCH   8  10
HETATM   10  C8  UNL     1       1.548  -4.082   0.000  1.00  0.00     0.069 C 
HETATM   11  C9  UNL     1       2.953  -3.469   0.000  1.00  0.00     0.009 C 
ENDBRANCH   8  10
ENDBRANCH   2   8
TORSDOF 4
