REMARK  7 active torsions:
REMARK  status: ('A' for Active; 'I' for Inactive)
REMARK    1  A    between atoms: C15_15  and  C18_18 
REMARK    2  A    between atoms: C18_18  and  C19_19 
REMARK    3  A    between atoms: C18_18  and  C25_26 
REMARK    4  A    between atoms: C19_19  and  C20_20 
REMARK    5  A    between atoms: C20_20  and  C21_21 
REMARK    6  A    between atoms: C22_22  and  C24_24 
REMARK    7  A    between atoms: C25_26  and  O2_27 
ROOT
HETATM    1  C1  UNL     1      -5.019   0.144   0.399  1.00  0.00     0.065 C 
HETATM    2  C2  UNL     1      -5.585   1.342  -0.327  1.00  0.00     0.150 C 
HETATM    3  C3  UNL     1      -4.729   2.606  -0.279  1.00  0.00     0.052 C 
HETATM    4  C4  UNL     1      -3.220   2.211  -0.248  1.00  0.00     0.011 C 
HETATM    5  C5  UNL     1      -2.842   0.830  -0.862  1.00  0.00     0.004 C 
HETATM    6  C6  UNL     1      -3.704  -0.309  -0.243  1.00  0.00     0.008 C 
HETATM    7  C7  UNL     1      -1.346   0.541  -0.524  1.00  0.00     0.018 C 
HETATM    8  C8  UNL     1      -0.408   1.702  -0.805  1.00  0.00    -0.049 C 
HETATM    9  C9  UNL     1      -0.863   2.960  -0.894  1.00  0.00    -0.035 C 
HETATM   10  C10 UNL     1      -2.310   3.338  -0.772  1.00  0.00     0.026 C 
HETATM   11  C11 UNL     1       1.065   1.379  -1.004  1.00  0.00     0.015 C 
HETATM   12  C12 UNL     1       1.456   0.147  -0.139  1.00  0.00     0.004 C 
HETATM   13  C13 UNL     1       0.671  -1.076  -0.660  1.00  0.00     0.001 C 
HETATM   14  C14 UNL     1      -0.781  -0.776  -1.089  1.00  0.00     0.004 C 
HETATM   15  C15 UNL     1       2.994   0.097  -0.345  1.00  0.00     0.010 C 
HETATM   16  C16 UNL     1       3.386   1.596  -0.299  1.00  0.00     0.001 C 
HETATM   17  C17 UNL     1       2.094   2.415  -0.506  1.00  0.00     0.004 C 
HETATM   18  C27 UNL     1       1.157   0.407   1.366  1.00  0.00     0.000 C 
HETATM   19  C28 UNL     1       1.282   1.260  -2.535  1.00  0.00     0.004 C 
HETATM   20  C29 UNL     1      -3.058   0.846  -2.392  1.00  0.00     0.000 C 
HETATM   21  C30 UNL     1      -5.145   3.531  -1.447  1.00  0.00     0.007 C 
HETATM   22  C31 UNL     1      -5.113   3.349   1.023  1.00  0.00     0.007 C 
HETATM   23  O4  UNL     1      -6.670   1.292  -0.861  1.00  0.00    -0.296 OA
ENDROOT
BRANCH  15  24
HETATM   24  C18 UNL     1       3.903  -0.794   0.538  1.00  0.00     0.087 C 
BRANCH  24  25
HETATM   25  C19 UNL     1       3.599  -2.307   0.444  1.00  0.00     0.015 C 
BRANCH  25  26
HETATM   26  C20 UNL     1       2.872  -2.872   1.677  1.00  0.00     0.026 C 
BRANCH  26  27
HETATM   27  C21 UNL     1       2.307  -4.245   1.407  1.00  0.00    -0.032 C 
HETATM   28  C22 UNL     1       1.068  -4.692   1.685  1.00  0.00    -0.015 C 
HETATM   29  C23 UNL     1       0.657  -6.102   1.322  1.00  0.00     0.029 C 
BRANCH  28  30
HETATM   30  C24 UNL     1      -0.016  -3.893   2.374  1.00  0.00     0.204 C 
HETATM   31  O1  UNL     1      -1.130  -3.684   1.516  1.00  0.00    -0.216 OA
ENDBRANCH  28  30
ENDBRANCH  26  27
ENDBRANCH  25  26
ENDBRANCH  24  25
BRANCH  24  32
HETATM   32  C25 UNL     1       5.354  -0.549   0.112  1.00  0.00     0.271 C 
HETATM   33  O3  UNL     1       5.807  -0.859  -0.967  1.00  0.00    -0.264 OA
BRANCH  32  34
HETATM   34  O2  UNL     1       6.062   0.077   1.092  1.00  0.00    -0.299 OA
HETATM   35  C26 UNL     1       7.399   0.395   0.784  1.00  0.00     0.184 C 
ENDBRANCH  32  34
ENDBRANCH  24  32
ENDBRANCH  15  24
TORSDOF 7
