REMARK  0 active torsions:
REMARK  status: ('A' for Active; 'I' for Inactive)
ROOT
HETATM    1  C1  UNL     1       1.707  -1.194  -0.018  1.00  0.00     0.023 A 
HETATM    2  C2  UNL     1       0.527  -1.925   0.133  1.00  0.00     0.099 A 
HETATM    3  N1  UNL     1      -0.685  -1.364   0.185  1.00  0.00    -0.246 NA
HETATM    4  C3  UNL     1      -0.772  -0.029   0.089  1.00  0.00     0.085 A 
HETATM    5  C4  UNL     1       0.349   0.802  -0.061  1.00  0.00     0.144 A 
HETATM    6  C5  UNL     1       1.607   0.193  -0.113  1.00  0.00     0.030 A 
HETATM    7  O1  UNL     1       0.232   2.153  -0.145  1.00  0.00    -0.189 OA
HETATM    8  C6  UNL     1      -2.167   0.539   0.148  1.00  0.00     0.054 C 
ENDROOT
TORSDOF 0
