REMARK  0 active torsions:
REMARK  status: ('A' for Active; 'I' for Inactive)
ROOT
HETATM    1  C1  UNL     1       0.278   1.690  -0.436  1.00  0.00    -0.004 A 
HETATM    2  C2  UNL     1       1.299   0.693  -0.496  1.00  0.00    -0.020 A 
HETATM    3  C3  UNL     1       1.009  -0.610  -0.139  1.00  0.00     0.015 A 
HETATM    4  C4  UNL     1      -0.310  -0.916   0.279  1.00  0.00     0.081 A 
HETATM    5  C5  UNL     1      -1.304   0.066   0.334  1.00  0.00     0.019 A 
HETATM    6  C6  UNL     1      -1.009   1.403  -0.031  1.00  0.00     0.001 A 
HETATM    7  C7  UNL     1      -2.508  -0.551   0.788  1.00  0.00     0.022 A 
HETATM    8  C8  UNL     1      -2.221  -1.878   0.996  1.00  0.00     0.099 A 
HETATM    9  N1  UNL     1      -0.889  -2.100   0.688  1.00  0.00    -0.244 NA
HETATM   10  C9  UNL     1       2.695   1.049  -0.945  1.00  0.00     0.031 C 
ENDROOT
TORSDOF 0
