REMARK  2 active torsions:
REMARK  status: ('A' for Active; 'I' for Inactive)
REMARK    1  A    between atoms: C8_9  and  C10_12 
REMARK    2  A    between atoms: C10_12  and  C11_13 
ROOT
HETATM    1  C1  UNL     1       0.085  -4.644  -0.028  1.00  0.00     0.000 A 
HETATM    2  C2  UNL     1       0.306  -4.410   1.273  1.00  0.00     0.002 A 
HETATM    3  C3  UNL     1       0.310  -3.152   1.739  1.00  0.00     0.017 A 
HETATM    4  C4  UNL     1       0.094  -2.098   0.926  1.00  0.00     0.066 A 
HETATM    5  C5  UNL     1      -0.121  -2.350  -0.383  1.00  0.00     0.074 A 
HETATM    6  C6  UNL     1      -0.127  -3.611  -0.855  1.00  0.00     0.006 A 
HETATM    7  C7  UNL     1      -0.334  -1.291  -1.214  1.00  0.00     0.282 A 
HETATM    8  N1  UNL     1      -0.321  -0.110  -0.757  1.00  0.00    -0.194 NA
HETATM    9  C8  UNL     1      -0.114   0.113   0.472  1.00  0.00     0.128 A 
HETATM   10  N2  UNL     1       0.079  -0.867   1.268  1.00  0.00    -0.314 N 
HETATM   11  C9  UNL     1       0.280  -0.556   2.712  1.00  0.00     0.132 C 
HETATM   12  O1  UNL     1      -0.533  -1.476  -2.396  1.00  0.00    -0.265 OA
ENDROOT
BRANCH   9  13
HETATM   13  C10 UNL     1      -0.106   1.600   0.801  1.00  0.00     0.090 C 
BRANCH  13  14
HETATM   14  C11 UNL     1      -0.109   2.526  -0.402  1.00  0.00    -0.015 A 
HETATM   15  C12 UNL     1      -1.202   3.235  -0.739  1.00  0.00    -0.004 A 
HETATM   16  C13 UNL     1      -1.193   4.050  -1.806  1.00  0.00    -0.000 A 
HETATM   17  C14 UNL     1      -0.086   4.166  -2.555  1.00  0.00    -0.000 A 
HETATM   18  C15 UNL     1       1.009   3.462  -2.232  1.00  0.00    -0.000 A 
HETATM   19  C16 UNL     1       0.994   2.652  -1.163  1.00  0.00    -0.004 A 
ENDBRANCH  13  14
ENDBRANCH   9  13
TORSDOF 2
