REMARK  4 active torsions:
REMARK  status: ('A' for Active; 'I' for Inactive)
REMARK    1  A    between atoms: C4_4  and  C8_9 
REMARK    2  A    between atoms: C5_5  and  O1_7 
REMARK    3  A    between atoms: C8_9  and  C9_10 
REMARK    4  A    between atoms: C10_11  and  C11_12 
ROOT
HETATM    1  C8  UNL     1       1.493  -1.821   0.954  1.00  0.00     0.198 C 
HETATM    2  O3  UNL     1       1.935  -2.753   1.617  1.00  0.00    -0.286 OA
ENDROOT
BRANCH   1   3
HETATM    3  C4  UNL     1       2.397  -0.694   0.552  1.00  0.00     0.061 A 
HETATM    4  C3  UNL     1       3.716  -1.031   0.228  1.00  0.00     0.007 A 
HETATM    5  C2  UNL     1       4.636  -0.045  -0.127  1.00  0.00     0.028 A 
HETATM    6  C1  UNL     1       4.251   1.294  -0.175  1.00  0.00     0.133 A 
HETATM    7  C6  UNL     1       2.928   1.604   0.166  1.00  0.00     0.052 A 
HETATM    8  O4  UNL     1       5.133   2.272  -0.510  1.00  0.00    -0.190 OA
HETATM    9  C5  UNL     1       1.971   0.653   0.546  1.00  0.00     0.099 A 
BRANCH   9  10
HETATM   10  O1  UNL     1       0.691   0.973   0.927  1.00  0.00    -0.328 OA
HETATM   11  C7  UNL     1       0.281   2.319   0.912  1.00  0.00     0.181 C 
ENDBRANCH   9  10
ENDBRANCH   1   3
BRANCH   1  12
HETATM   12  C9  UNL     1       0.031  -1.782   0.659  1.00  0.00     0.042 C 
HETATM   13  C10 UNL     1      -0.523  -1.156  -0.400  1.00  0.00     0.003 C 
BRANCH  13  14
HETATM   14  C11 UNL     1      -1.977  -1.010  -0.582  1.00  0.00     0.000 A 
HETATM   15  C12 UNL     1      -2.454   0.075  -1.334  1.00  0.00     0.002 A 
HETATM   16  C13 UNL     1      -3.823   0.312  -1.456  1.00  0.00     0.027 A 
HETATM   17  C14 UNL     1      -4.764  -0.531  -0.855  1.00  0.00     0.131 A 
HETATM   18  C15 UNL     1      -4.285  -1.643  -0.157  1.00  0.00     0.027 A 
HETATM   19  O2  UNL     1      -6.098  -0.292  -0.951  1.00  0.00    -0.190 OA
HETATM   20  C16 UNL     1      -2.917  -1.889  -0.027  1.00  0.00     0.002 A 
ENDBRANCH  13  14
ENDBRANCH   1  12
TORSDOF 4
