REMARK  4 active torsions:
REMARK  status: ('A' for Active; 'I' for Inactive)
REMARK    1  A    between atoms: C1_1  and  O5_22 
REMARK    2  A    between atoms: C8_9  and  C10_11 
REMARK    3  A    between atoms: C13_14  and  O4_20 
REMARK    4  A    between atoms: C14_15  and  O3_18 
ROOT
HETATM    1  C1  UNL     1      -4.172  -0.854  -0.982  1.00  0.00     0.096 A 
HETATM    2  C2  UNL     1      -3.616  -2.094  -1.316  1.00  0.00     0.024 A 
HETATM    3  C3  UNL     1      -2.290  -2.221  -1.726  1.00  0.00    -0.000 A 
HETATM    4  C4  UNL     1      -1.455  -1.105  -1.797  1.00  0.00     0.001 A 
HETATM    5  C5  UNL     1      -1.961   0.154  -1.447  1.00  0.00     0.092 A 
HETATM    6  C6  UNL     1      -3.300   0.243  -1.044  1.00  0.00     0.048 A 
HETATM    7  O1  UNL     1      -1.175   1.275  -1.474  1.00  0.00    -0.331 OA
HETATM    8  C7  UNL     1      -0.097   1.230  -2.367  1.00  0.00     0.153 C 
HETATM    9  C8  UNL     1       0.807   0.027  -2.106  1.00  0.00     0.059 C 
HETATM   10  C9  UNL     1      -0.003  -1.279  -2.170  1.00  0.00     0.035 C 
ENDROOT
BRANCH   9  11
HETATM   11  C10 UNL     1       1.734   0.197  -0.901  1.00  0.00     0.008 A 
HETATM   12  C11 UNL     1       3.064   0.558  -1.140  1.00  0.00     0.000 A 
HETATM   13  C12 UNL     1       3.976   0.677  -0.097  1.00  0.00     0.026 A 
HETATM   14  C13 UNL     1       3.617   0.512   1.245  1.00  0.00     0.118 A 
HETATM   15  C14 UNL     1       2.261   0.222   1.505  1.00  0.00     0.141 A 
HETATM   16  C15 UNL     1       1.365  -0.005   0.440  1.00  0.00     0.151 A 
HETATM   17  O2  UNL     1       0.090  -0.344   0.759  1.00  0.00    -0.188 OA
BRANCH  14  18
HETATM   18  O4  UNL     1       4.630   0.612   2.171  1.00  0.00    -0.326 OA
HETATM   19  C17 UNL     1       4.561  -0.108   3.379  1.00  0.00     0.181 C 
ENDBRANCH  14  18
BRANCH  15  20
HETATM   20  O3  UNL     1       1.805  -0.006   2.778  1.00  0.00    -0.324 OA
HETATM   21  C16 UNL     1       1.226   1.131   3.381  1.00  0.00     0.182 C 
ENDBRANCH  15  20
ENDBRANCH   9  11
BRANCH   1  22
HETATM   22  O5  UNL     1      -5.464  -0.808  -0.522  1.00  0.00    -0.328 OA
HETATM   23  C18 UNL     1      -5.843   0.291   0.275  1.00  0.00     0.181 C 
ENDBRANCH   1  22
TORSDOF 4
