REMARK  2 active torsions:
REMARK  status: ('A' for Active; 'I' for Inactive)
REMARK    1  A    between atoms: C4_4  and  O1_8 
REMARK    2  A    between atoms: O1_8  and  C8_9 
ROOT
HETATM    1  C1  UNL     1       2.087  -1.723   0.601  1.00  0.00     0.000 C 
HETATM    2  C2  UNL     1       1.314  -1.065   1.754  1.00  0.00     0.003 C 
HETATM    3  C3  UNL     1       0.761   0.304   1.334  1.00  0.00     0.030 C 
HETATM    4  C4  UNL     1      -0.133   0.169   0.098  1.00  0.00     0.115 C 
HETATM    5  C5  UNL     1       0.666  -0.451  -1.053  1.00  0.00     0.030 C 
HETATM    6  C6  UNL     1       1.217  -1.834  -0.663  1.00  0.00     0.002 C 
HETATM    7  C7  UNL     1       2.008  -2.462  -1.822  1.00  0.00     0.000 C 
ENDROOT
BRANCH   4   8
HETATM    8  O1  UNL     1      -0.597   1.436  -0.291  1.00  0.00    -0.359 OA
BRANCH   8   9
HETATM    9  C8  UNL     1      -1.992   1.584  -0.255  1.00  0.00     0.115 C 
HETATM   10  C9  UNL     1      -2.342   2.885  -0.982  1.00  0.00     0.032 C 
HETATM   11  C10 UNL     1      -2.512   1.631   1.184  1.00  0.00     0.032 C 
ENDBRANCH   8   9
ENDBRANCH   4   8
TORSDOF 2
