REMARK  0 active torsions:
REMARK  status: ('A' for Active; 'I' for Inactive)
ROOT
HETATM    1  C1  UNL     1       1.743   0.793   0.096  1.00  0.00     0.023 A 
HETATM    2  C2  UNL     1       1.799  -0.592  -0.038  1.00  0.00    -0.020 A 
HETATM    3  C3  UNL     1       0.592  -1.300  -0.118  1.00  0.00    -0.001 A 
HETATM    4  C4  UNL     1      -0.632  -0.631  -0.066  1.00  0.00     0.044 A 
HETATM    5  C5  UNL     1      -0.667   0.773   0.070  1.00  0.00     0.067 A 
HETATM    6  C6  UNL     1       0.531   1.499   0.154  1.00  0.00     0.134 A 
HETATM    7  O1  UNL     1       0.568   2.852   0.286  1.00  0.00    -0.190 OA
HETATM    8  C7  UNL     1      -1.973   1.485   0.125  1.00  0.00     0.198 A 
HETATM    9  C8  UNL     1      -3.201   0.657   0.032  1.00  0.00     0.045 A 
HETATM   10  C9  UNL     1      -3.161  -0.683  -0.097  1.00  0.00     0.045 A 
HETATM   11  C10 UNL     1      -1.882  -1.429  -0.155  1.00  0.00     0.196 A 
HETATM   12  O2  UNL     1      -1.886  -2.650  -0.273  1.00  0.00    -0.287 OA
HETATM   13  O3  UNL     1      -2.087   2.701   0.241  1.00  0.00    -0.286 OA
HETATM   14  C11 UNL     1       3.131  -1.298  -0.094  1.00  0.00     0.031 C 
ENDROOT
TORSDOF 0
