REMARK  1 active torsions:
REMARK  status: ('A' for Active; 'I' for Inactive)
REMARK    1  A    between atoms: C19_19  and  C20_20 
ROOT
HETATM    1  C1  UNL     1      -1.534  -2.956  -0.766  1.00  0.00     0.033 C 
HETATM    2  C2  UNL     1      -0.507  -3.089   0.658  1.00  0.00     0.152 C 
HETATM    3  C3  UNL     1      -1.048  -2.559   2.270  1.00  0.00     0.029 C 
HETATM    4  C4  UNL     1      -2.649  -1.653   2.244  1.00  0.00     0.006 C 
HETATM    5  C5  UNL     1      -3.446  -1.108   0.663  1.00  0.00     0.018 C 
HETATM    6  C6  UNL     1      -2.859  -1.827  -0.869  1.00  0.00     0.007 C 
HETATM    7  C7  UNL     1      -2.510  -0.041   0.582  1.00  0.00    -0.035 C 
HETATM    8  C8  UNL     1      -1.510  -1.137   0.592  1.00  0.00    -0.049 C 
HETATM    9  C9  UNL     1      -2.602  -2.806   0.983  1.00  0.00     0.022 C 
HETATM   10  C10 UNL     1      -3.536  -2.822   2.224  1.00  0.00     0.005 C 
HETATM   11  C11 UNL     1      -0.249  -0.473  -0.408  1.00  0.00     0.015 C 
HETATM   12  C12 UNL     1      -0.590   1.033  -0.865  1.00  0.00     0.008 C 
HETATM   13  C13 UNL     1      -1.255   1.933   0.200  1.00  0.00     0.026 C 
HETATM   14  C14 UNL     1      -2.551   1.282   0.504  1.00  0.00    -0.031 C 
HETATM   15  C15 UNL     1       0.569   1.807  -1.538  1.00  0.00     0.001 C 
HETATM   16  C16 UNL     1       1.878   1.990  -0.741  1.00  0.00     0.000 C 
HETATM   17  C17 UNL     1       2.262   0.576  -0.269  1.00  0.00     0.000 C 
HETATM   18  C18 UNL     1       1.087  -0.183   0.404  1.00  0.00     0.004 C 
HETATM   19  C19 UNL     1       2.756   2.644  -1.850  1.00  0.00     0.000 C 
HETATM   20  C23 UNL     1       1.770   3.611  -2.561  1.00  0.00     0.000 C 
HETATM   21  C24 UNL     1       0.336   3.171  -2.200  1.00  0.00     0.000 C 
HETATM   22  C25 UNL     1       1.813   2.949   0.468  1.00  0.00     0.000 C 
HETATM   23  C26 UNL     1       0.241  -1.180  -1.706  1.00  0.00     0.004 C 
HETATM   24  C27 UNL     1      -4.901  -0.640   0.647  1.00  0.00     0.004 C 
HETATM   25  C28 UNL     1       0.023  -1.766   3.102  1.00  0.00     0.003 C 
HETATM   26  C29 UNL     1      -1.061  -3.845   3.190  1.00  0.00     0.003 C 
HETATM   27  O1  UNL     1      -0.092  -4.442   0.710  1.00  0.00    -0.224 OA
ENDROOT
BRANCH  19  28
HETATM   28  C20 UNL     1       4.092   3.335  -1.489  1.00  0.00     0.000 C 
HETATM   29  C21 UNL     1       4.761   3.939  -2.742  1.00  0.00     0.000 C 
HETATM   30  C22 UNL     1       5.098   2.383  -0.818  1.00  0.00     0.000 C 
ENDBRANCH  19  28
TORSDOF 1
