REMARK  1 active torsions:
REMARK  status: ('A' for Active; 'I' for Inactive)
REMARK    1  A    between atoms: C8_10  and  O3_12 
ROOT
HETATM    1  O1  UNL     1       2.618  -1.280  -0.144  1.00  0.00    -0.301 OA
HETATM    2  C1  UNL     1       2.702   0.083  -0.442  1.00  0.00     0.129 C 
HETATM    3  C2  UNL     1       1.720   0.917   0.378  1.00  0.00     0.057 C 
HETATM    4  C3  UNL     1       0.322   0.382   0.231  1.00  0.00    -0.011 A 
HETATM    5  C4  UNL     1       0.141  -1.000   0.124  1.00  0.00     0.085 A 
HETATM    6  C5  UNL     1       1.386  -1.814   0.101  1.00  0.00     0.297 C 
HETATM    7  O2  UNL     1       1.301  -3.020   0.313  1.00  0.00    -0.259 OA
HETATM    8  C6  UNL     1      -1.149  -1.551   0.042  1.00  0.00     0.138 A 
HETATM    9  C7  UNL     1      -2.230  -0.660   0.045  1.00  0.00     0.052 A 
HETATM   10  C8  UNL     1      -2.099   0.735   0.116  1.00  0.00     0.096 A 
HETATM   11  C9  UNL     1      -0.790   1.223   0.233  1.00  0.00     0.020 A 
HETATM   12  O4  UNL     1      -1.390  -2.887  -0.058  1.00  0.00    -0.190 OA
HETATM   13  C11 UNL     1       4.145   0.539  -0.222  1.00  0.00     0.033 C 
ENDROOT
BRANCH  10  14
HETATM   14  O3  UNL     1      -3.136   1.632   0.132  1.00  0.00    -0.328 OA
HETATM   15  C10 UNL     1      -4.453   1.137   0.195  1.00  0.00     0.181 C 
ENDBRANCH  10  14
TORSDOF 1
