REMARK  14 active torsions:
REMARK  status: ('A' for Active; 'I' for Inactive)
REMARK    1  A    between atoms: C15_15  and  C18_18 
REMARK    2  A    between atoms: C18_18  and  C19_19 
REMARK    3  A    between atoms: C19_19  and  C20_20 
REMARK    4  A    between atoms: C20_20  and  C21_21 
REMARK    5  A    between atoms: C21_21  and  C23_23 
REMARK    6  A    between atoms: C23_23  and  C24_24 
REMARK    7  A    between atoms: C24_24  and  O1_25 
REMARK    8  A    between atoms: O1_25  and  C25_26 
REMARK    9  A    between atoms: C25_26  and  C26_27 
REMARK   10  A    between atoms: C26_27  and  C28_29 
REMARK   11  A    between atoms: C28_29  and  C29_30 
REMARK   12  A    between atoms: C29_30  and  C30_31 
REMARK   13  A    between atoms: C30_31  and  C31_32 
REMARK   14  A    between atoms: C31_32  and  C33_34 
ROOT
HETATM    1  O1  UNL     1       2.000   3.061  -3.609  1.00  0.00    -0.301 OA
ENDROOT
BRANCH   1   2
HETATM    2  C24 UNL     1       1.835   3.506  -4.930  1.00  0.00     0.156 C 
BRANCH   2   3
HETATM    3  C23 UNL     1       1.780   5.035  -5.013  1.00  0.00     0.049 C 
HETATM    4  C56 UNL     1       1.625   5.436  -6.494  1.00  0.00     0.007 C 
BRANCH   3   5
HETATM    5  C21 UNL     1       0.747   5.781  -4.176  1.00  0.00    -0.042 C 
HETATM    6  C22 UNL     1       0.874   7.115  -4.049  1.00  0.00    -0.009 C 
BRANCH   5   7
HETATM    7  C20 UNL     1      -0.419   5.089  -3.493  1.00  0.00     0.022 C 
BRANCH   7   8
HETATM    8  C19 UNL     1      -1.457   4.457  -4.434  1.00  0.00     0.004 C 
BRANCH   8   9
HETATM    9  C18 UNL     1      -2.758   4.041  -3.700  1.00  0.00     0.000 C 
HETATM   10  C57 UNL     1      -3.698   5.261  -3.673  1.00  0.00     0.000 C 
BRANCH   9  11
HETATM   11  C15 UNL     1      -3.404   2.791  -4.350  1.00  0.00     0.000 C 
HETATM   12  C12 UNL     1      -4.755   2.226  -3.821  1.00  0.00     0.000 C 
HETATM   13  C11 UNL     1      -4.792   0.785  -4.428  1.00  0.00     0.000 C 
HETATM   14  C13 UNL     1      -6.023   2.966  -4.291  1.00  0.00     0.000 C 
HETATM   15  C58 UNL     1      -4.722   2.246  -2.270  1.00  0.00     0.000 C 
HETATM   16  C8  UNL     1      -5.904  -0.051  -3.736  1.00  0.00     0.000 C 
HETATM   17  C17 UNL     1      -3.358   0.299  -4.136  1.00  0.00     0.000 C 
HETATM   18  C59 UNL     1      -4.977   0.760  -5.972  1.00  0.00     0.000 C 
HETATM   19  C7  UNL     1      -7.222   0.739  -3.592  1.00  0.00     0.000 A 
HETATM   20  C9  UNL     1      -6.006  -1.496  -4.280  1.00  0.00     0.000 C 
HETATM   21  C5  UNL     1      -8.503  -0.063  -3.396  1.00  0.00     0.000 A 
HETATM   22  C14 UNL     1      -7.289   2.083  -4.322  1.00  0.00     0.000 C 
HETATM   23  C60 UNL     1      -7.909   0.693  -2.236  1.00  0.00     0.000 A 
HETATM   24  C4  UNL     1      -8.364  -1.588  -3.404  1.00  0.00     0.002 C 
HETATM   25  C6  UNL     1      -9.823   0.452  -3.949  1.00  0.00     0.003 C 
HETATM   26  C3  UNL     1      -9.713  -2.363  -3.376  1.00  0.00     0.028 C 
HETATM   27  C10 UNL     1      -7.437  -1.971  -4.565  1.00  0.00     0.000 C 
HETATM   28  C2  UNL     1     -10.738  -1.522  -2.593  1.00  0.00     0.152 C 
HETATM   29  C61 UNL     1      -9.516  -3.721  -2.656  1.00  0.00     0.003 C 
HETATM   30  C62 UNL     1     -10.286  -2.694  -4.774  1.00  0.00     0.003 C 
HETATM   31  C1  UNL     1     -11.043  -0.175  -3.254  1.00  0.00     0.033 C 
HETATM   32  O4  UNL     1     -10.269  -1.287  -1.283  1.00  0.00    -0.224 OA
HETATM   33  C16 UNL     1      -2.478   1.549  -4.313  1.00  0.00     0.000 C 
ENDBRANCH   9  11
ENDBRANCH   8   9
ENDBRANCH   7   8
ENDBRANCH   5   7
ENDBRANCH   3   5
ENDBRANCH   2   3
ENDBRANCH   1   2
BRANCH   1  34
HETATM   34  C25 UNL     1       1.472   1.843  -3.305  1.00  0.00     0.275 C 
HETATM   35  O3  UNL     1       0.846   1.147  -4.073  1.00  0.00    -0.264 OA
BRANCH  34  36
HETATM   36  C26 UNL     1       1.791   1.452  -1.867  1.00  0.00     0.105 C 
HETATM   37  C27 UNL     1       0.819   0.376  -1.356  1.00  0.00     0.015 C 
BRANCH  36  38
HETATM   38  C28 UNL     1       3.232   0.989  -1.777  1.00  0.00    -0.035 C 
HETATM   39  C55 UNL     1       3.745   0.137  -2.680  1.00  0.00    -0.009 C 
BRANCH  38  40
HETATM   40  C29 UNL     1       4.067   1.460  -0.605  1.00  0.00     0.022 C 
BRANCH  40  41
HETATM   41  C30 UNL     1       3.603   0.819   0.714  1.00  0.00     0.004 C 
BRANCH  41  42
HETATM   42  C31 UNL     1       4.718   0.610   1.765  1.00  0.00     0.000 C 
HETATM   43  C32 UNL     1       5.387   1.956   2.097  1.00  0.00     0.000 C 
BRANCH  42  44
HETATM   44  C33 UNL     1       4.184  -0.099   3.039  1.00  0.00     0.000 C 
HETATM   45  C34 UNL     1       5.184  -0.731   4.049  1.00  0.00     0.000 C 
HETATM   46  C35 UNL     1       4.248  -1.586   4.958  1.00  0.00     0.000 C 
HETATM   47  C41 UNL     1       5.993   0.237   4.947  1.00  0.00     0.000 C 
HETATM   48  C54 UNL     1       6.150  -1.611   3.210  1.00  0.00     0.000 C 
HETATM   49  C36 UNL     1       3.413  -2.328   3.898  1.00  0.00     0.000 C 
HETATM   50  C38 UNL     1       5.080  -2.439   5.961  1.00  0.00     0.000 C 
HETATM   51  C53 UNL     1       3.212  -0.744   5.766  1.00  0.00     0.000 C 
HETATM   52  C37 UNL     1       3.218  -1.288   2.772  1.00  0.00     0.000 C 
HETATM   53  C39 UNL     1       6.480  -1.895   6.260  1.00  0.00     0.000 A 
HETATM   54  C45 UNL     1       4.877  -3.957   5.940  1.00  0.00     0.000 C 
HETATM   55  C40 UNL     1       6.453  -0.368   6.296  1.00  0.00     0.000 C 
HETATM   56  C42 UNL     1       7.265  -2.798   7.215  1.00  0.00     0.001 A 
HETATM   57  C52 UNL     1       7.843  -2.425   5.876  1.00  0.00     0.000 A 
HETATM   58  C43 UNL     1       6.947  -4.308   7.298  1.00  0.00     0.006 C 
HETATM   59  C49 UNL     1       7.606  -2.087   8.517  1.00  0.00     0.008 C 
HETATM   60  C44 UNL     1       5.436  -4.577   7.237  1.00  0.00     0.000 C 
HETATM   61  C46 UNL     1       7.773  -5.102   8.344  1.00  0.00     0.051 C 
HETATM   62  C47 UNL     1       7.868  -4.290   9.634  1.00  0.00     0.150 C 
HETATM   63  C50 UNL     1       7.191  -6.498   8.654  1.00  0.00     0.007 C 
HETATM   64  C51 UNL     1       9.209  -5.320   7.809  1.00  0.00     0.007 C 
HETATM   65  C48 UNL     1       8.451  -2.897   9.501  1.00  0.00     0.065 C 
HETATM   66  O2  UNL     1       7.534  -4.724  10.713  1.00  0.00    -0.296 OA
ENDBRANCH  42  44
ENDBRANCH  41  42
ENDBRANCH  40  41
ENDBRANCH  38  40
ENDBRANCH  36  38
ENDBRANCH  34  36
ENDBRANCH   1  34
TORSDOF 14
