REMARK  3 active torsions:
REMARK  status: ('A' for Active; 'I' for Inactive)
REMARK    1  A    between atoms: C5_5  and  C7_7 
REMARK    2  A    between atoms: C5_5  and  O1_10 
REMARK    3  A    between atoms: O1_10  and  C10_11 
ROOT
HETATM    1  C1  UNL     1      -0.352   2.206  -1.049  1.00  0.00     0.024 C 
HETATM    2  C2  UNL     1       1.111   2.345  -0.718  1.00  0.00    -0.048 C 
HETATM    3  C3  UNL     1       1.862   1.272  -0.426  1.00  0.00    -0.032 C 
HETATM    4  C4  UNL     1       1.331  -0.138  -0.415  1.00  0.00     0.053 C 
HETATM    5  C5  UNL     1      -0.194  -0.233  -0.225  1.00  0.00     0.105 C 
HETATM    6  C6  UNL     1      -0.755   0.743  -1.298  1.00  0.00     0.033 C 
HETATM    7  C12 UNL     1       1.668   3.747  -0.714  1.00  0.00     0.026 C 
ENDROOT
BRANCH   5   8
HETATM    8  C7  UNL     1      -0.791  -1.635  -0.527  1.00  0.00     0.026 C 
HETATM    9  C8  UNL     1       0.145  -2.849  -0.369  1.00  0.00     0.002 C 
HETATM   10  C9  UNL     1      -2.171  -1.895   0.104  1.00  0.00     0.002 C 
ENDBRANCH   5   8
BRANCH   5  11
HETATM   11  O1  UNL     1      -0.616   0.347   0.975  1.00  0.00    -0.306 OA
BRANCH  11  12
HETATM   12  C10 UNL     1      -0.635  -0.131   2.250  1.00  0.00     0.272 C 
HETATM   13  O2  UNL     1      -1.262   0.440   3.118  1.00  0.00    -0.264 OA
HETATM   14  C11 UNL     1       0.235  -1.310   2.631  1.00  0.00     0.106 C 
ENDBRANCH  11  12
ENDBRANCH   5  11
TORSDOF 3
