REMARK  2 active torsions:
REMARK  status: ('A' for Active; 'I' for Inactive)
REMARK    1  A    between atoms: C6_6  and  O1_7 
REMARK    2  A    between atoms: C10_11  and  C11_13 
ROOT
HETATM    1  C1  UNL     1      -3.310   2.647  -0.001  1.00  0.00     0.052 A 
HETATM    2  C2  UNL     1      -3.785   1.335  -0.034  1.00  0.00     0.135 A 
HETATM    3  C3  UNL     1      -2.845   0.303  -0.042  1.00  0.00     0.052 A 
HETATM    4  C4  UNL     1      -1.467   0.537  -0.018  1.00  0.00     0.107 A 
HETATM    5  C5  UNL     1      -1.052   1.876   0.016  1.00  0.00     0.086 A 
HETATM    6  C6  UNL     1      -1.945   2.968   0.023  1.00  0.00     0.101 A 
HETATM    7  C8  UNL     1       0.409   2.107   0.043  1.00  0.00     0.227 A 
HETATM    8  C9  UNL     1       1.288   0.912   0.029  1.00  0.00     0.192 A 
HETATM    9  C10 UNL     1       0.747  -0.335  -0.006  1.00  0.00     0.129 A 
HETATM   10  O2  UNL     1      -0.612  -0.525  -0.025  1.00  0.00    -0.305 OA
HETATM   11  O6  UNL     1       2.608   1.237   0.060  1.00  0.00    -0.185 OA
HETATM   12  O7  UNL     1       0.954   3.207   0.078  1.00  0.00    -0.284 OA
HETATM   13  O8  UNL     1      -5.117   1.062  -0.056  1.00  0.00    -0.190 OA
ENDROOT
BRANCH   9  14
HETATM   14  C11 UNL     1       1.588  -1.563  -0.019  1.00  0.00     0.029 A 
HETATM   15  C12 UNL     1       2.991  -1.620  -0.029  1.00  0.00     0.032 A 
HETATM   16  C13 UNL     1       3.707  -2.821  -0.036  1.00  0.00     0.158 A 
HETATM   17  C14 UNL     1       3.013  -4.031  -0.040  1.00  0.00     0.181 A 
HETATM   18  O5  UNL     1       5.066  -2.845  -0.042  1.00  0.00    -0.188 OA
HETATM   19  C15 UNL     1       1.616  -4.030  -0.038  1.00  0.00     0.158 A 
HETATM   20  O4  UNL     1       3.685  -5.210  -0.049  1.00  0.00    -0.186 OA
HETATM   21  C16 UNL     1       0.935  -2.812  -0.027  1.00  0.00     0.032 A 
HETATM   22  O3  UNL     1       0.949  -5.213  -0.046  1.00  0.00    -0.188 OA
ENDBRANCH   9  14
BRANCH   6  23
HETATM   23  O1  UNL     1      -1.458   4.251   0.059  1.00  0.00    -0.328 OA
HETATM   24  C7  UNL     1      -2.366   5.327   0.090  1.00  0.00     0.181 C 
ENDBRANCH   6  23
TORSDOF 2
