REMARK  8 active torsions:
REMARK  status: ('A' for Active; 'I' for Inactive)
REMARK    1  A    between atoms: C2_2  and  C3_3 
REMARK    2  A    between atoms: C3_3  and  C4_4 
REMARK    3  A    between atoms: C4_4  and  C5_5 
REMARK    4  A    between atoms: C5_5  and  C6_6 
REMARK    5  A    between atoms: C6_6  and  C7_7 
REMARK    6  A    between atoms: C7_7  and  C8_8 
REMARK    7  A    between atoms: C8_8  and  C9_9 
REMARK    8  A    between atoms: C9_9  and  C10_10 
ROOT
HETATM    1  C5  UNL     1       0.338   0.423   1.364  1.00  0.00     0.000 C 
ENDROOT
BRANCH   1   2
HETATM    2  C4  UNL     1      -0.055  -0.134   2.733  1.00  0.00     0.008 C 
BRANCH   2   3
HETATM    3  C3  UNL     1       0.552   0.661   3.889  1.00  0.00     0.065 C 
BRANCH   3   4
HETATM    4  C2  UNL     1       0.153   0.114   5.234  1.00  0.00     0.151 C 
HETATM    5  C1  UNL     1       0.665   0.815   6.463  1.00  0.00     0.072 C 
HETATM    6  O1  UNL     1      -0.557  -0.860   5.323  1.00  0.00    -0.296 OA
ENDBRANCH   3   4
ENDBRANCH   2   3
ENDBRANCH   1   2
BRANCH   1   7
HETATM    7  C6  UNL     1      -0.267  -0.373   0.207  1.00  0.00     0.000 C 
BRANCH   7   8
HETATM    8  C7  UNL     1       0.126   0.184  -1.161  1.00  0.00     0.000 C 
BRANCH   8   9
HETATM    9  C8  UNL     1      -0.479  -0.612  -2.318  1.00  0.00     0.000 C 
BRANCH   9  10
HETATM   10  C9  UNL     1      -0.087  -0.055  -3.687  1.00  0.00     0.000 C 
BRANCH  10  11
HETATM   11  C10 UNL     1      -0.692  -0.851  -4.843  1.00  0.00     0.000 C 
HETATM   12  C11 UNL     1      -0.299  -0.295  -6.212  1.00  0.00     0.000 C 
ENDBRANCH  10  11
ENDBRANCH   9  10
ENDBRANCH   8   9
ENDBRANCH   7   8
ENDBRANCH   1   7
TORSDOF 8
