REMARK  12 active torsions:
REMARK  status: ('A' for Active; 'I' for Inactive)
REMARK    1  A    between atoms: C1_1  and  C50_66 
REMARK    2  A    between atoms: C4_4  and  O2_6 
REMARK    3  A    between atoms: O2_6  and  C5_7 
REMARK    4  A    between atoms: C7_9  and  O9_51 
REMARK    5  A    between atoms: C8_10  and  O6_17 
REMARK    6  A    between atoms: C9_12  and  C10_13 
REMARK    7  A    between atoms: C10_13  and  O4_14 
REMARK    8  A    between atoms: O6_17  and  C12_18 
REMARK    9  A    between atoms: C27_33  and  C36_42 
REMARK   10  A    between atoms: C36_42  and  O7_43 
REMARK   11  A    between atoms: O9_51  and  C43_52 
REMARK   12  A    between atoms: C45_54  and  C49_61 
ROOT
HETATM    1  O6  UNL     1      -3.189  -0.197  -0.104  1.00  0.00    -0.332 OA
ENDROOT
BRANCH   1   2
HETATM    2  C8  UNL     1      -3.193   0.853   0.844  1.00  0.00     0.267 C 
HETATM    3  C7  UNL     1      -4.639   1.098   1.346  1.00  0.00     0.204 C 
HETATM    4  C6  UNL     1      -5.090  -0.014   2.322  1.00  0.00     0.214 C 
HETATM    5  C5  UNL     1      -4.033  -0.201   3.434  1.00  0.00     0.188 C 
HETATM    6  O14 UNL     1      -6.365   0.285   2.869  1.00  0.00    -0.218 OA
HETATM    7  C9  UNL     1      -2.617  -0.428   2.844  1.00  0.00     0.233 C 
HETATM    8  O3  UNL     1      -2.291   0.627   1.934  1.00  0.00    -0.319 OA
BRANCH   3   9
HETATM    9  O9  UNL     1      -4.678   2.371   1.975  1.00  0.00    -0.349 OA
BRANCH   9  10
HETATM   10  C43 UNL     1      -5.477   3.313   1.281  1.00  0.00     0.149 C 
HETATM   11  C44 UNL     1      -4.803   3.676  -0.059  1.00  0.00     0.038 C 
HETATM   12  C45 UNL     1      -5.625   4.707  -0.854  1.00  0.00     0.069 C 
HETATM   13  C46 UNL     1      -5.906   5.955   0.018  1.00  0.00     0.188 C 
HETATM   14  C47 UNL     1      -6.564   5.629   1.385  1.00  0.00     0.215 C 
HETATM   15  O12 UNL     1      -6.672   6.902  -0.707  1.00  0.00    -0.221 OA
HETATM   16  C48 UNL     1      -5.764   4.559   2.162  1.00  0.00     0.212 C 
HETATM   17  O11 UNL     1      -7.889   5.152   1.211  1.00  0.00    -0.218 OA
HETATM   18  O10 UNL     1      -4.551   5.148   2.598  1.00  0.00    -0.218 OA
BRANCH  12  19
HETATM   19  C49 UNL     1      -6.900   4.066  -1.420  1.00  0.00     0.185 C 
HETATM   20  O13 UNL     1      -6.525   3.154  -2.428  1.00  0.00    -0.221 OA
ENDBRANCH  12  19
ENDBRANCH   9  10
ENDBRANCH   3   9
BRANCH   5  21
HETATM   21  O2  UNL     1      -4.379  -1.293   4.270  1.00  0.00    -0.326 OA
BRANCH  21  22
HETATM   22  C4  UNL     1      -3.596  -1.365   5.441  1.00  0.00     0.270 C 
HETATM   23  C3  UNL     1      -4.344  -2.055   6.584  1.00  0.00     0.241 C 
HETATM   24  C2  UNL     1      -3.176  -2.525   7.488  1.00  0.00     0.217 C 
HETATM   25  O15 UNL     1      -5.264  -1.180   7.215  1.00  0.00    -0.215 OA
HETATM   26  C1  UNL     1      -1.969  -2.590   6.527  1.00  0.00     0.184 C 
HETATM   27  O16 UNL     1      -2.885  -1.619   8.543  1.00  0.00    -0.218 OA
HETATM   28  O1  UNL     1      -2.492  -2.219   5.272  1.00  0.00    -0.326 OA
BRANCH  26  29
HETATM   29  C50 UNL     1      -1.365  -3.983   6.402  1.00  0.00     0.214 C 
HETATM   30  O17 UNL     1      -0.187  -3.883   5.633  1.00  0.00    -0.218 OA
ENDBRANCH  26  29
ENDBRANCH  21  22
ENDBRANCH   5  21
BRANCH   7  31
HETATM   31  C10 UNL     1      -2.400  -1.777   2.199  1.00  0.00     0.302 C 
HETATM   32  O5  UNL     1      -3.318  -2.379   1.689  1.00  0.00    -0.261 OA
BRANCH  31  33
HETATM   33  O4  UNL     1      -1.152  -2.231   2.240  1.00  0.00    -0.297 OA
HETATM   34  C11 UNL     1      -1.092  -3.649   2.311  1.00  0.00     0.185 C 
ENDBRANCH  31  33
ENDBRANCH   7  31
ENDBRANCH   1   2
BRANCH   1  35
HETATM   35  C12 UNL     1      -1.894  -0.512  -0.584  1.00  0.00     0.118 C 
HETATM   36  C13 UNL     1      -1.975  -1.545  -1.733  1.00  0.00     0.025 C 
HETATM   37  C14 UNL     1      -0.531  -1.846  -2.246  1.00  0.00     0.002 C 
HETATM   38  C41 UNL     1      -2.656  -2.836  -1.252  1.00  0.00     0.002 C 
HETATM   39  C42 UNL     1      -2.846  -1.006  -2.881  1.00  0.00     0.002 C 
HETATM   40  C15 UNL     1       0.262  -0.565  -2.664  1.00  0.00     0.001 C 
HETATM   41  C21 UNL     1       0.258  -2.787  -1.295  1.00  0.00     0.000 C 
HETATM   42  C16 UNL     1       0.201   0.531  -1.565  1.00  0.00     0.003 C 
HETATM   43  C18 UNL     1       1.721  -0.959  -3.061  1.00  0.00     0.005 C 
HETATM   44  C40 UNL     1      -0.396   0.033  -3.922  1.00  0.00     0.000 C 
HETATM   45  C17 UNL     1      -1.213   0.791  -1.031  1.00  0.00     0.030 C 
HETATM   46  C19 UNL     1       2.527  -1.793  -1.996  1.00  0.00     0.004 C 
HETATM   47  C25 UNL     1       2.529   0.215  -3.672  1.00  0.00     0.025 C 
HETATM   48  C20 UNL     1       1.625  -2.277  -0.838  1.00  0.00     0.000 C 
HETATM   49  C22 UNL     1       3.764  -1.000  -1.447  1.00  0.00     0.015 C 
HETATM   50  C39 UNL     1       3.045  -3.065  -2.701  1.00  0.00     0.000 C 
HETATM   51  C23 UNL     1       4.625  -0.559  -2.621  1.00  0.00    -0.049 C 
HETATM   52  C29 UNL     1       4.613  -1.863  -0.484  1.00  0.00     0.004 C 
HETATM   53  C38 UNL     1       3.324   0.264  -0.691  1.00  0.00     0.004 C 
HETATM   54  C24 UNL     1       4.020  -0.012  -3.695  1.00  0.00    -0.035 C 
HETATM   55  C26 UNL     1       6.137  -0.746  -2.518  1.00  0.00     0.027 C 
HETATM   56  C27 UNL     1       6.623  -0.338  -1.098  1.00  0.00     0.082 C 
HETATM   57  C33 UNL     1       6.953  -0.037  -3.627  1.00  0.00     0.004 C 
HETATM   58  C28 UNL     1       5.899  -1.172  -0.004  1.00  0.00     0.010 C 
HETATM   59  C30 UNL     1       8.151  -0.533  -0.977  1.00  0.00     0.010 C 
HETATM   60  C31 UNL     1       8.936   0.184  -2.086  1.00  0.00     0.001 C 
HETATM   61  C32 UNL     1       8.473  -0.248  -3.488  1.00  0.00     0.000 C 
HETATM   62  C34 UNL     1       8.821  -1.723  -3.719  1.00  0.00     0.000 C 
HETATM   63  C35 UNL     1       9.201   0.588  -4.545  1.00  0.00     0.000 C 
BRANCH  56  64
HETATM   64  C36 UNL     1       6.322   1.133  -0.875  1.00  0.00     0.271 C 
HETATM   65  O8  UNL     1       6.680   1.695   0.135  1.00  0.00    -0.264 OA
BRANCH  64  66
HETATM   66  O7  UNL     1       5.651   1.729  -1.856  1.00  0.00    -0.299 OA
HETATM   67  C37 UNL     1       5.446   3.111  -1.609  1.00  0.00     0.184 C 
ENDBRANCH  64  66
ENDBRANCH  56  64
ENDBRANCH   1  35
TORSDOF 12
