REMARK  3 active torsions:
REMARK  status: ('A' for Active; 'I' for Inactive)
REMARK    1  A    between atoms: C9_10  and  C11_13 
REMARK    2  A    between atoms: C11_13  and  C12_14 
REMARK    3  A    between atoms: C15_17  and  O3_20 
ROOT
HETATM    1  C1  UNL     1       3.799  -1.258   1.461  1.00  0.00     0.127 A 
HETATM    2  C2  UNL     1       3.672   0.088   1.039  1.00  0.00     0.029 A 
HETATM    3  C3  UNL     1       2.389   0.676   0.914  1.00  0.00     0.134 A 
HETATM    4  C4  UNL     1       1.231  -0.088   1.213  1.00  0.00     0.082 A 
HETATM    5  C5  UNL     1       1.357  -1.428   1.676  1.00  0.00     0.097 A 
HETATM    6  C6  UNL     1       2.643  -2.016   1.777  1.00  0.00     0.026 A 
HETATM    7  C7  UNL     1       2.777  -3.414   2.221  1.00  0.00     0.035 C 
HETATM    8  O1  UNL     1       0.272  -2.152   2.018  1.00  0.00    -0.330 OA
HETATM    9  C8  UNL     1      -0.967  -1.500   2.315  1.00  0.00     0.157 C 
HETATM   10  C9  UNL     1      -1.301  -0.443   1.250  1.00  0.00     0.097 C 
HETATM   11  C10 UNL     1      -0.133   0.498   1.037  1.00  0.00     0.179 C 
HETATM   12  O2  UNL     1      -0.394   1.643   0.740  1.00  0.00    -0.291 OA
HETATM   13  O4  UNL     1       2.281   1.949   0.506  1.00  0.00    -0.190 OA
HETATM   14  C19 UNL     1       4.877   0.875   0.727  1.00  0.00     0.035 C 
HETATM   15  O5  UNL     1       5.014  -1.816   1.566  1.00  0.00    -0.191 OA
ENDROOT
BRANCH  10  16
HETATM   16  C11 UNL     1      -1.697  -1.094  -0.078  1.00  0.00     0.037 C 
BRANCH  16  17
HETATM   17  C12 UNL     1      -2.172  -0.088  -1.062  1.00  0.00    -0.021 A 
HETATM   18  C13 UNL     1      -1.322   0.336  -2.102  1.00  0.00    -0.002 A 
HETATM   19  C14 UNL     1      -1.771   1.289  -3.031  1.00  0.00     0.024 A 
HETATM   20  C15 UNL     1      -3.068   1.822  -2.928  1.00  0.00     0.094 A 
HETATM   21  C16 UNL     1      -3.916   1.398  -1.889  1.00  0.00     0.024 A 
HETATM   22  C17 UNL     1      -3.469   0.445  -0.957  1.00  0.00    -0.002 A 
BRANCH  20  23
HETATM   23  O3  UNL     1      -3.488   2.717  -3.801  1.00  0.00    -0.328 OA
HETATM   24  C18 UNL     1      -4.828   3.176  -3.693  1.00  0.00     0.181 C 
ENDBRANCH  20  23
ENDBRANCH  16  17
ENDBRANCH  10  16
TORSDOF 3
