REMARK  2 active torsions:
REMARK  status: ('A' for Active; 'I' for Inactive)
REMARK    1  A    between atoms: C8_9  and  C10_12 
REMARK    2  A    between atoms: C14_16  and  O3_18 
ROOT
HETATM    1  C1  UNL     1       3.500   2.393   0.195  1.00  0.00     0.052 A 
HETATM    2  C2  UNL     1       4.789   1.813   0.166  1.00  0.00     0.135 A 
HETATM    3  C3  UNL     1       4.934   0.406   0.166  1.00  0.00     0.055 A 
HETATM    4  C4  UNL     1       3.791  -0.428   0.193  1.00  0.00     0.138 A 
HETATM    5  C5  UNL     1       2.498   0.156   0.221  1.00  0.00     0.087 A 
HETATM    6  C6  UNL     1       2.352   1.568   0.223  1.00  0.00     0.107 A 
HETATM    7  O1  UNL     1       1.123   2.129   0.252  1.00  0.00    -0.305 OA
HETATM    8  C7  UNL     1      -0.016   1.408   0.281  1.00  0.00     0.126 A 
HETATM    9  C8  UNL     1      -0.016   0.055   0.279  1.00  0.00     0.064 A 
HETATM   10  C9  UNL     1       1.270  -0.691   0.246  1.00  0.00     0.201 A 
HETATM   11  O2  UNL     1       1.225  -1.900   0.242  1.00  0.00    -0.286 OA
HETATM   12  O5  UNL     1       3.949  -1.760   0.191  1.00  0.00    -0.190 OA
HETATM   13  O6  UNL     1       5.877   2.596   0.141  1.00  0.00    -0.190 OA
ENDROOT
BRANCH   9  14
HETATM   14  C10 UNL     1      -1.320  -0.684   0.311  1.00  0.00     0.007 A 
HETATM   15  C11 UNL     1      -1.441  -1.869   1.055  1.00  0.00     0.002 A 
HETATM   16  C12 UNL     1      -2.664  -2.559   1.082  1.00  0.00     0.029 A 
HETATM   17  C13 UNL     1      -3.772  -2.068   0.367  1.00  0.00     0.153 A 
HETATM   18  C14 UNL     1      -3.650  -0.881  -0.381  1.00  0.00     0.119 A 
HETATM   19  O4  UNL     1      -4.916  -2.721   0.397  1.00  0.00    -0.188 OA
HETATM   20  C15 UNL     1      -2.426  -0.191  -0.406  1.00  0.00     0.026 A 
BRANCH  18  21
HETATM   21  O3  UNL     1      -4.682  -0.414  -1.055  1.00  0.00    -0.326 OA
HETATM   22  C16 UNL     1      -4.543   0.846  -1.697  1.00  0.00     0.181 C 
ENDBRANCH  18  21
ENDBRANCH   9  14
TORSDOF 2
