REMARK  6 active torsions:
REMARK  status: ('A' for Active; 'I' for Inactive)
REMARK    1  A    between atoms: C1_1  and  C9_11 
REMARK    2  A    between atoms: C4_4  and  O1_7 
REMARK    3  A    between atoms: O1_7  and  C7_8 
REMARK    4  A    between atoms: C9_11  and  C10_12 
REMARK    5  A    between atoms: C9_11  and  O3_14 
REMARK    6  A    between atoms: O3_14  and  C12_15 
ROOT
HETATM    1  C1  UNL     1       0.234   0.420   0.197  1.00  0.00     0.009 A 
HETATM    2  C2  UNL     1      -1.170   0.369   0.197  1.00  0.00     0.000 A 
HETATM    3  C3  UNL     1      -1.828  -0.873   0.197  1.00  0.00     0.025 A 
HETATM    4  C4  UNL     1      -1.084  -2.069   0.197  1.00  0.00     0.103 A 
HETATM    5  C5  UNL     1       0.320  -2.012   0.197  1.00  0.00     0.025 A 
HETATM    6  C6  UNL     1       0.980  -0.772   0.197  1.00  0.00     0.000 A 
ENDROOT
BRANCH   1   7
HETATM    7  C9  UNL     1       0.930   1.734   0.197  1.00  0.00     0.169 C 
BRANCH   7   8
HETATM    8  C10 UNL     1       0.740   2.476   1.492  1.00  0.00     0.008 C 
HETATM    9  C11 UNL     1       1.301   1.978   2.606  1.00  0.00    -0.002 C 
ENDBRANCH   7   8
BRANCH   7  10
HETATM   10  O3  UNL     1       0.447   2.525  -0.879  1.00  0.00    -0.295 OA
BRANCH  10  11
HETATM   11  C12 UNL     1       1.213   3.590  -1.107  1.00  0.00     0.273 C 
HETATM   12  O4  UNL     1       2.227   3.834  -0.496  1.00  0.00    -0.264 OA
HETATM   13  C13 UNL     1       0.730   4.500  -2.203  1.00  0.00     0.106 C 
ENDBRANCH  10  11
ENDBRANCH   7  10
ENDBRANCH   1   7
BRANCH   4  14
HETATM   14  O1  UNL     1      -1.701  -3.233   0.197  1.00  0.00    -0.276 OA
BRANCH  14  15
HETATM   15  C7  UNL     1      -1.190  -4.233  -0.514  1.00  0.00     0.277 C 
HETATM   16  C8  UNL     1      -1.684  -5.604  -0.137  1.00  0.00     0.107 C 
HETATM   17  O2  UNL     1      -0.387  -4.084  -1.404  1.00  0.00    -0.264 OA
ENDBRANCH  14  15
ENDBRANCH   4  14
TORSDOF 6
