REMARK  3 active torsions:
REMARK  status: ('A' for Active; 'I' for Inactive)
REMARK    1  A    between atoms: C6_6  and  C7_7 
REMARK    2  A    between atoms: C7_7  and  C8_8 
REMARK    3  A    between atoms: C8_8  and  O1_9 
ROOT
HETATM    1  C1  UNL     1      -1.850  -0.482  -0.744  1.00  0.00    -0.004 A 
HETATM    2  C2  UNL     1      -2.508  -1.725  -0.744  1.00  0.00    -0.000 A 
HETATM    3  C3  UNL     1      -1.762  -2.916  -0.744  1.00  0.00    -0.000 A 
HETATM    4  C4  UNL     1      -0.357  -2.865  -0.744  1.00  0.00    -0.000 A 
HETATM    5  C5  UNL     1       0.301  -1.623  -0.744  1.00  0.00    -0.004 A 
HETATM    6  C6  UNL     1      -0.445  -0.432  -0.744  1.00  0.00    -0.020 A 
ENDROOT
BRANCH   6   7
HETATM    7  C7  UNL     1       0.252   0.883  -0.744  1.00  0.00     0.058 C 
BRANCH   7   8
HETATM    8  C8  UNL     1       0.832   1.213   0.631  1.00  0.00     0.147 C 
BRANCH   8   9
HETATM    9  O1  UNL     1       1.461   2.471   0.555  1.00  0.00    -0.351 OA
HETATM   10  C9  UNL     1       2.020   2.889   1.782  1.00  0.00     0.174 C 
ENDBRANCH   8   9
ENDBRANCH   7   8
ENDBRANCH   6   7
TORSDOF 3
