REMARK  3 active torsions:
REMARK  status: ('A' for Active; 'I' for Inactive)
REMARK    1  A    between atoms: C15_15  and  C18_19 
REMARK    2  A    between atoms: C18_19  and  C19_20 
REMARK    3  A    between atoms: C19_20  and  O2_21 
ROOT
HETATM    1  C1  UNL     1       4.682  -0.449   1.135  1.00  0.00     0.034 C 
HETATM    2  C2  UNL     1       5.088   1.033   1.035  1.00  0.00     0.156 C 
HETATM    3  C3  UNL     1       4.410   1.750  -0.148  1.00  0.00     0.055 C 
HETATM    4  C4  UNL     1       2.916   1.516  -0.070  1.00  0.00    -0.046 C 
HETATM    5  C5  UNL     1       2.473   0.053  -0.078  1.00  0.00     0.015 C 
HETATM    6  C6  UNL     1       3.148  -0.625   1.139  1.00  0.00     0.006 C 
HETATM    7  C7  UNL     1       0.926  -0.072  -0.051  1.00  0.00     0.006 C 
HETATM    8  C8  UNL     1       0.289   0.990   0.875  1.00  0.00     0.033 C 
HETATM    9  C9  UNL     1       0.570   2.363   0.244  1.00  0.00     0.028 C 
HETATM   10  C10 UNL     1       2.057   2.557   0.035  1.00  0.00    -0.035 C 
HETATM   11  C11 UNL     1      -1.195   0.652   1.207  1.00  0.00     0.130 C 
HETATM   12  C12 UNL     1      -1.883  -0.236   0.139  1.00  0.00     0.058 C 
HETATM   13  C13 UNL     1      -1.147  -1.596   0.006  1.00  0.00     0.005 C 
HETATM   14  C14 UNL     1       0.379  -1.486   0.234  1.00  0.00     0.001 C 
HETATM   15  C15 UNL     1      -3.387  -0.242   0.539  1.00  0.00     0.182 C 
HETATM   16  C16 UNL     1      -3.588   1.164   1.154  1.00  0.00     0.040 C 
HETATM   17  C17 UNL     1      -2.203   1.807   1.314  1.00  0.00     0.034 C 
HETATM   18  O1  UNL     1      -3.639  -1.213   1.543  1.00  0.00    -0.218 OA
HETATM   19  C21 UNL     1      -1.826   0.510  -1.207  1.00  0.00     0.005 C 
HETATM   20  O4  UNL     1      -1.195  -0.018   2.465  1.00  0.00    -0.226 OA
HETATM   21  C22 UNL     1       2.984  -0.607  -1.369  1.00  0.00     0.004 C 
HETATM   22  O5  UNL     1       6.492   1.125   0.893  1.00  0.00    -0.223 OA
ENDROOT
BRANCH  15  23
HETATM   23  C18 UNL     1      -4.352  -0.555  -0.582  1.00  0.00     0.208 C 
HETATM   24  O3  UNL     1      -5.141   0.273  -0.973  1.00  0.00    -0.291 OA
BRANCH  23  25
HETATM   25  C19 UNL     1      -4.299  -1.926  -1.199  1.00  0.00     0.209 C 
BRANCH  25  26
HETATM   26  O2  UNL     1      -3.897  -1.820  -2.547  1.00  0.00    -0.344 OA
HETATM   27  C20 UNL     1      -3.832  -3.064  -3.207  1.00  0.00     0.175 C 
ENDBRANCH  25  26
ENDBRANCH  23  25
ENDBRANCH  15  23
TORSDOF 3
