REMARK  3 active torsions:
REMARK  status: ('A' for Active; 'I' for Inactive)
REMARK    1  A    between atoms: C2_2  and  C3_3 
REMARK    2  A    between atoms: C3_3  and  S1_4 
REMARK    3  A    between atoms: S1_4  and  S2_5 
ROOT
HETATM    1  C3  UNL     1      -0.283  -0.158  -0.441  1.00  0.00     0.069 C 
ENDROOT
BRANCH   1   2
HETATM    2  C2  UNL     1       0.149   0.795  -1.559  1.00  0.00     0.013 C 
HETATM    3  C1  UNL     1      -0.891   1.879  -1.844  1.00  0.00     0.001 C 
ENDBRANCH   1   2
BRANCH   1   4
HETATM    4  S1  UNL     1       0.983  -1.422  -0.141  1.00  0.00    -0.082 SA
BRANCH   4   5
HETATM    5  S2  UNL     1       0.170  -2.537   1.361  1.00  0.00    -0.081 SA
HETATM    6  C4  UNL     1       0.776  -1.707   2.857  1.00  0.00     0.081 C 
ENDBRANCH   4   5
ENDBRANCH   1   4
TORSDOF 3
