REMARK  16 active torsions:
REMARK  status: ('A' for Active; 'I' for Inactive)
REMARK    1  A    between atoms: C1_1  and  C2_2 
REMARK    2  A    between atoms: C1_1  and  C15_17 
REMARK    3  A    between atoms: C2_2  and  C3_3 
REMARK    4  A    between atoms: C3_3  and  C4_4 
REMARK    5  A    between atoms: C4_4  and  C5_5 
REMARK    6  A    between atoms: C5_5  and  C6_6 
REMARK    7  A    between atoms: C6_6  and  C7_7 
REMARK    8  A    between atoms: C7_7  and  C8_8 
REMARK    9  A    between atoms: C8_8  and  C9_9 
REMARK   10  A    between atoms: C9_9  and  C10_10 
REMARK       I    between atoms: C10_10  and  N1_11 
REMARK   11  A    between atoms: N1_11  and  C11_12 
REMARK   12  A    between atoms: C11_12  and  C12_13 
REMARK   13  A    between atoms: C15_17  and  C16_18 
REMARK   14  A    between atoms: C16_18  and  C17_19 
REMARK   15  A    between atoms: C17_19  and  C18_20 
REMARK   16  A    between atoms: C18_20  and  C19_21 
ROOT
HETATM    1  C5  UNL     1       0.041   1.596   1.566  1.00  0.00    -0.026 C 
ENDROOT
BRANCH   1   2
HETATM    2  C4  UNL     1      -0.644   0.439   1.566  1.00  0.00    -0.004 C 
BRANCH   2   3
HETATM    3  C3  UNL     1      -2.111   0.439   1.566  1.00  0.00     0.009 C 
BRANCH   3   4
HETATM    4  C2  UNL     1      -2.797  -0.715   1.566  1.00  0.00     0.049 C 
BRANCH   4   5
HETATM    5  C1  UNL     1      -4.234  -0.717   1.566  1.00  0.00    -0.064 C 
BRANCH   5   6
HETATM    6  C15 UNL     1      -5.424  -0.717   1.566  1.00  0.00    -0.086 C 
BRANCH   6   7
HETATM    7  C16 UNL     1      -6.883  -0.717   1.566  1.00  0.00     0.076 C 
BRANCH   7   8
HETATM    8  C17 UNL     1      -7.420  -2.148   1.566  1.00  0.00     0.014 C 
BRANCH   8   9
HETATM    9  C18 UNL     1      -8.947  -2.205   1.566  1.00  0.00     0.001 C 
BRANCH   9  10
HETATM   10  C19 UNL     1      -9.484  -3.637   1.566  1.00  0.00     0.000 C 
HETATM   11  C20 UNL     1     -11.012  -3.695   1.564  1.00  0.00     0.000 C 
ENDBRANCH   9  10
ENDBRANCH   8   9
ENDBRANCH   7   8
ENDBRANCH   6   7
ENDBRANCH   5   6
ENDBRANCH   4   5
ENDBRANCH   3   4
ENDBRANCH   2   3
ENDBRANCH   1   2
BRANCH   1  12
HETATM   12  C6  UNL     1       1.545   1.539   1.566  1.00  0.00     0.031 C 
BRANCH  12  13
HETATM   13  C7  UNL     1       2.160   2.375   0.443  1.00  0.00     0.031 C 
BRANCH  13  14
HETATM   14  C8  UNL     1       3.664   2.330   0.451  1.00  0.00    -0.021 C 
BRANCH  14  15
HETATM   15  C9  UNL     1       4.303   2.029  -0.692  1.00  0.00     0.058 C 
BRANCH  15  16
HETATM   16  C10 UNL     1       5.768   1.971  -0.738  1.00  0.00     0.275 C 
HETATM   17  N1  UNL     1       6.387   1.662  -1.916  1.00  0.00    -0.234 NA
HETATM   18  O1  UNL     1       6.420   2.191   0.254  1.00  0.00    -0.266 OA
BRANCH  17  19
HETATM   19  C11 UNL     1       7.856   1.604  -1.963  1.00  0.00     0.129 C 
BRANCH  19  20
HETATM   20  C12 UNL     1       8.340   1.102  -3.322  1.00  0.00     0.025 C 
HETATM   21  C13 UNL     1       9.850   1.264  -3.506  1.00  0.00     0.002 C 
HETATM   22  C14 UNL     1       7.856  -0.314  -3.637  1.00  0.00     0.002 C 
ENDBRANCH  19  20
ENDBRANCH  17  19
ENDBRANCH  15  16
ENDBRANCH  14  15
ENDBRANCH  13  14
ENDBRANCH  12  13
ENDBRANCH   1  12
TORSDOF 16
