REMARK  4 active torsions:
REMARK  status: ('A' for Active; 'I' for Inactive)
REMARK    1  A    between atoms: S1_2  and  S2_3 
REMARK    2  A    between atoms: S2_3  and  S3_4 
REMARK    3  A    between atoms: S3_4  and  C2_5 
REMARK    4  A    between atoms: C2_5  and  C3_6 
ROOT
HETATM    1  S3  UNL     1       1.250   1.092  -0.506  1.00  0.00    -0.071 SA
ENDROOT
BRANCH   1   2
HETATM    2  S2  UNL     1      -0.517   2.078  -0.252  1.00  0.00    -0.023 SA
BRANCH   2   3
HETATM    3  S1  UNL     1      -1.316   0.955   1.252  1.00  0.00    -0.070 SA
HETATM    4  C1  UNL     1      -0.711   1.783   2.748  1.00  0.00     0.082 C 
ENDBRANCH   2   3
ENDBRANCH   1   2
BRANCH   1   5
HETATM    5  C2  UNL     1       0.895  -0.035  -1.885  1.00  0.00     0.069 C 
BRANCH   5   6
HETATM    6  C3  UNL     1      -0.168  -1.062  -1.492  1.00  0.00     0.013 C 
HETATM    7  C4  UNL     1       0.281  -1.965  -0.342  1.00  0.00     0.001 C 
ENDBRANCH   5   6
ENDBRANCH   1   5
TORSDOF 4
