REMARK  15 active torsions:
REMARK  status: ('A' for Active; 'I' for Inactive)
REMARK    1  A    between atoms: C4_5  and  O2_6 
REMARK    2  A    between atoms: C4_5  and  C6_8 
REMARK    3  A    between atoms: C6_8  and  C7_9 
REMARK    4  A    between atoms: C7_9  and  C8_10 
REMARK    5  A    between atoms: C8_10  and  C9_11 
REMARK    6  A    between atoms: C9_11  and  O3_12 
REMARK    7  A    between atoms: O3_12  and  C10_13 
REMARK    8  A    between atoms: C11_15  and  C15_22 
REMARK    9  A    between atoms: C30_38  and  O9_40 
REMARK   10  A    between atoms: O9_40  and  C32_41 
REMARK   11  A    between atoms: C33_43  and  C49_70 
REMARK   12  A    between atoms: C34_44  and  O17_59 
REMARK   13  A    between atoms: C36_46  and  O11_47 
REMARK   14  A    between atoms: O11_47  and  C37_48 
REMARK   15  A    between atoms: O17_59  and  C43_60 
ROOT
HETATM    1  C1  UNL     1      -5.684  -1.156   1.832  1.00  0.00     0.054 C 
HETATM    2  C2  UNL     1      -6.305  -2.502   1.385  1.00  0.00     0.032 C 
HETATM    3  C3  UNL     1      -6.541  -2.293  -0.117  1.00  0.00     0.118 C 
HETATM    4  O1  UNL     1      -6.078  -0.990  -0.397  1.00  0.00    -0.337 OA
HETATM    5  C4  UNL     1      -6.170  -0.185   0.752  1.00  0.00     0.187 C 
HETATM    6  C17 UNL     1      -5.740  -3.340  -0.887  1.00  0.00     0.030 C 
HETATM    7  C18 UNL     1      -4.776  -3.980   0.115  1.00  0.00     0.003 C 
HETATM    8  C19 UNL     1      -5.481  -3.809   1.484  1.00  0.00     0.003 C 
HETATM    9  C20 UNL     1      -4.514  -3.859   2.691  1.00  0.00     0.000 C 
HETATM   10  C21 UNL     1      -3.340  -4.795   2.375  1.00  0.00     0.000 C 
HETATM   11  C22 UNL     1      -2.537  -4.338   1.131  1.00  0.00     0.004 C 
HETATM   12  C23 UNL     1      -3.344  -3.424   0.180  1.00  0.00     0.005 C 
HETATM   13  C24 UNL     1      -2.607  -3.377  -1.168  1.00  0.00     0.025 C 
HETATM   14  C25 UNL     1      -1.162  -2.973  -0.988  1.00  0.00    -0.035 C 
HETATM   15  C26 UNL     1      -0.510  -3.109   0.187  1.00  0.00    -0.047 C 
HETATM   16  C27 UNL     1      -1.133  -3.744   1.430  1.00  0.00     0.015 C 
HETATM   17  C28 UNL     1      -1.164  -2.629   2.504  1.00  0.00     0.006 C 
HETATM   18  C29 UNL     1       0.234  -2.031   2.768  1.00  0.00     0.030 C 
HETATM   19  C30 UNL     1       0.896  -1.519   1.471  1.00  0.00     0.122 C 
HETATM   20  C31 UNL     1       0.898  -2.582   0.355  1.00  0.00     0.051 C 
HETATM   21  C50 UNL     1      -0.227  -4.889   1.910  1.00  0.00     0.004 C 
HETATM   22  C51 UNL     1      -6.492  -4.957   1.563  1.00  0.00     0.000 C 
HETATM   23  C52 UNL     1      -6.053  -0.781   3.268  1.00  0.00     0.005 C 
ENDROOT
BRANCH  19  24
HETATM   24  O9  UNL     1       2.227  -1.127   1.746  1.00  0.00    -0.331 OA
BRANCH  24  25
HETATM   25  C32 UNL     1       2.752  -0.232   0.787  1.00  0.00     0.267 C 
HETATM   26  O10 UNL     1       2.088   1.016   0.926  1.00  0.00    -0.326 OA
HETATM   27  C33 UNL     1       2.477   2.012  -0.010  1.00  0.00     0.181 C 
HETATM   28  C34 UNL     1       3.979   2.326   0.172  1.00  0.00     0.180 C 
HETATM   29  C35 UNL     1       4.838   1.047   0.062  1.00  0.00     0.214 C 
HETATM   30  C36 UNL     1       4.277  -0.047   1.000  1.00  0.00     0.207 C 
HETATM   31  O16 UNL     1       6.182   1.340   0.414  1.00  0.00    -0.218 OA
BRANCH  27  32
HETATM   32  C49 UNL     1       1.578   3.227   0.238  1.00  0.00     0.214 C 
HETATM   33  O22 UNL     1       0.238   2.826   0.064  1.00  0.00    -0.218 OA
ENDBRANCH  27  32
BRANCH  28  34
HETATM   34  O17 UNL     1       4.371   3.256  -0.822  1.00  0.00    -0.326 OA
BRANCH  34  35
HETATM   35  C43 UNL     1       4.535   4.570  -0.324  1.00  0.00     0.270 C 
HETATM   36  O18 UNL     1       5.699   4.600   0.490  1.00  0.00    -0.329 OA
HETATM   37  C44 UNL     1       5.969   5.852   1.107  1.00  0.00     0.151 C 
HETATM   38  C45 UNL     1       6.207   6.920   0.016  1.00  0.00     0.212 C 
HETATM   39  C48 UNL     1       7.186   5.643   2.014  1.00  0.00     0.035 C 
HETATM   40  C46 UNL     1       5.018   6.992  -0.969  1.00  0.00     0.220 C 
HETATM   41  O21 UNL     1       6.389   8.178   0.643  1.00  0.00    -0.218 OA
HETATM   42  C47 UNL     1       4.680   5.578  -1.494  1.00  0.00     0.241 C 
HETATM   43  O20 UNL     1       5.342   7.844  -2.055  1.00  0.00    -0.218 OA
HETATM   44  O19 UNL     1       3.467   5.625  -2.227  1.00  0.00    -0.215 OA
ENDBRANCH  34  35
ENDBRANCH  28  34
BRANCH  30  45
HETATM   45  O11 UNL     1       4.941  -1.273   0.738  1.00  0.00    -0.324 OA
BRANCH  45  46
HETATM   46  C37 UNL     1       4.992  -2.129   1.863  1.00  0.00     0.270 C 
HETATM   47  O12 UNL     1       4.518  -3.410   1.475  1.00  0.00    -0.329 OA
HETATM   48  C38 UNL     1       4.461  -4.373   2.518  1.00  0.00     0.151 C 
HETATM   49  C39 UNL     1       5.885  -4.615   3.066  1.00  0.00     0.212 C 
HETATM   50  C42 UNL     1       3.830  -5.635   1.922  1.00  0.00     0.035 C 
HETATM   51  C40 UNL     1       6.545  -3.293   3.520  1.00  0.00     0.220 C 
HETATM   52  O15 UNL     1       5.803  -5.512   4.162  1.00  0.00    -0.218 OA
HETATM   53  C41 UNL     1       6.445  -2.242   2.393  1.00  0.00     0.241 C 
HETATM   54  O14 UNL     1       7.906  -3.523   3.846  1.00  0.00    -0.218 OA
HETATM   55  O13 UNL     1       6.863  -0.980   2.889  1.00  0.00    -0.215 OA
ENDBRANCH  45  46
ENDBRANCH  30  45
ENDBRANCH  24  25
ENDBRANCH  19  24
BRANCH   5  56
HETATM   56  O2  UNL     1      -7.506   0.232   0.980  1.00  0.00    -0.332 OA
HETATM   57  C5  UNL     1      -8.063   0.938  -0.107  1.00  0.00     0.177 C 
ENDBRANCH   5  56
BRANCH   5  58
HETATM   58  C6  UNL     1      -5.303   1.053   0.572  1.00  0.00     0.056 C 
BRANCH  58  59
HETATM   59  C7  UNL     1      -5.008   1.258  -0.914  1.00  0.00     0.007 C 
BRANCH  59  60
HETATM   60  C8  UNL     1      -4.303   2.584  -1.199  1.00  0.00     0.030 C 
HETATM   61  C16 UNL     1      -5.180   3.797  -0.887  1.00  0.00     0.003 C 
BRANCH  60  62
HETATM   62  C9  UNL     1      -3.693   2.641  -2.600  1.00  0.00     0.145 C 
BRANCH  62  63
HETATM   63  O3  UNL     1      -2.645   1.703  -2.662  1.00  0.00    -0.329 OA
BRANCH  63  64
HETATM   64  C10 UNL     1      -2.031   1.637  -3.936  1.00  0.00     0.270 C 
HETATM   65  O4  UNL     1      -1.354   2.863  -4.172  1.00  0.00    -0.326 OA
HETATM   66  C11 UNL     1      -0.725   2.969  -5.442  1.00  0.00     0.184 C 
HETATM   67  C12 UNL     1       0.357   1.875  -5.568  1.00  0.00     0.215 C 
HETATM   68  C13 UNL     1      -0.232   0.469  -5.318  1.00  0.00     0.220 C 
HETATM   69  O7  UNL     1       0.916   1.936  -6.869  1.00  0.00    -0.218 OA
HETATM   70  C14 UNL     1      -1.025   0.459  -3.992  1.00  0.00     0.241 C 
HETATM   71  O6  UNL     1       0.812  -0.490  -5.264  1.00  0.00    -0.218 OA
HETATM   72  O5  UNL     1      -1.731  -0.768  -3.877  1.00  0.00    -0.215 OA
BRANCH  66  73
HETATM   73  C15 UNL     1      -0.154   4.387  -5.535  1.00  0.00     0.214 C 
HETATM   74  O8  UNL     1      -1.231   5.295  -5.584  1.00  0.00    -0.218 OA
ENDBRANCH  66  73
ENDBRANCH  63  64
ENDBRANCH  62  63
ENDBRANCH  60  62
ENDBRANCH  59  60
ENDBRANCH  58  59
ENDBRANCH   5  58
TORSDOF 15
