REMARK  2 active torsions:
REMARK  status: ('A' for Active; 'I' for Inactive)
REMARK    1  A    between atoms: C4_4  and  C7_8 
REMARK    2  A    between atoms: C7_8  and  O2_9 
ROOT
HETATM    1  C1  UNL     1       1.649   1.258  -0.827  1.00  0.00     0.133 A 
HETATM    2  C2  UNL     1       2.184   0.013  -0.495  1.00  0.00     0.028 A 
HETATM    3  C3  UNL     1       1.336  -1.057  -0.211  1.00  0.00     0.009 A 
HETATM    4  C4  UNL     1      -0.047  -0.882  -0.260  1.00  0.00     0.089 A 
HETATM    5  C5  UNL     1      -0.582   0.362  -0.592  1.00  0.00     0.138 A 
HETATM    6  C6  UNL     1       0.266   1.433  -0.876  1.00  0.00     0.055 A 
HETATM    7  O1  UNL     1      -1.925   0.532  -0.639  1.00  0.00    -0.190 OA
HETATM    8  O4  UNL     1       2.474   2.298  -1.103  1.00  0.00    -0.190 OA
ENDROOT
BRANCH   4   9
HETATM    9  C7  UNL     1      -0.869  -1.919   0.015  1.00  0.00     0.298 C 
HETATM   10  O3  UNL     1      -0.881  -2.888  -0.706  1.00  0.00    -0.259 OA
BRANCH   9  11
HETATM   11  O2  UNL     1      -1.670  -1.872   1.086  1.00  0.00    -0.296 OA
HETATM   12  C8  UNL     1      -1.656  -0.747   1.923  1.00  0.00     0.185 C 
ENDBRANCH   9  11
ENDBRANCH   4   9
TORSDOF 2
