REMARK  3 active torsions:
REMARK  status: ('A' for Active; 'I' for Inactive)
REMARK    1  A    between atoms: C3_3  and  C15_15 
REMARK    2  A    between atoms: C9_9  and  C11_11 
REMARK    3  A    between atoms: C15_15  and  O2_17 
ROOT
HETATM    1  C1  UNL     1      -2.279   1.380   0.781  1.00  0.00     0.026 C 
HETATM    2  C2  UNL     1      -2.481  -0.103   0.833  1.00  0.00    -0.025 C 
HETATM    3  C3  UNL     1      -1.444  -0.946   0.877  1.00  0.00     0.036 C 
HETATM    4  C4  UNL     1      -0.033  -0.447   0.877  1.00  0.00     0.028 C 
HETATM    5  C5  UNL     1      -0.033   1.076   0.877  1.00  0.00     0.004 C 
HETATM    6  C6  UNL     1      -1.206   1.584   1.705  1.00  0.00     0.005 C 
HETATM    7  C7  UNL     1      -0.162   1.584  -0.553  1.00  0.00     0.001 C 
HETATM    8  C8  UNL     1       1.124   1.291  -1.314  1.00  0.00     0.004 C 
HETATM    9  C9  UNL     1       1.772   0.035  -0.765  1.00  0.00     0.019 C 
HETATM   10  C10 UNL     1       0.685  -0.954  -0.366  1.00  0.00     0.009 C 
HETATM   11  C14 UNL     1       1.271   1.584   1.480  1.00  0.00     0.000 C 
ENDROOT
BRANCH   3  12
HETATM   12  C15 UNL     1      -1.675  -2.276   0.923  1.00  0.00     0.291 C 
HETATM   13  O1  UNL     1      -0.748  -3.050   0.920  1.00  0.00    -0.260 OA
BRANCH  12  14
HETATM   14  O2  UNL     1      -2.930  -2.736   0.971  1.00  0.00    -0.296 OA
HETATM   15  C16 UNL     1      -4.006  -1.837   0.974  1.00  0.00     0.185 C 
ENDBRANCH  12  14
ENDBRANCH   3  12
BRANCH   9  16
HETATM   16  C11 UNL     1       2.647  -0.577  -1.814  1.00  0.00    -0.044 C 
HETATM   17  C12 UNL     1       4.111  -0.753  -1.559  1.00  0.00     0.026 C 
HETATM   18  C13 UNL     1       2.119  -0.967  -2.979  1.00  0.00    -0.009 C 
ENDBRANCH   9  16
TORSDOF 3
