REMARK  17 active torsions:
REMARK  status: ('A' for Active; 'I' for Inactive)
REMARK    1  A    between atoms: C2_2  and  O4_27 
REMARK    2  A    between atoms: C6_6  and  C7_7 
REMARK    3  A    between atoms: C7_7  and  C8_8 
REMARK    4  A    between atoms: C8_8  and  O1_9 
REMARK    5  A    between atoms: C8_8  and  C11_13 
REMARK    6  A    between atoms: O1_9  and  C9_10 
REMARK    7  A    between atoms: C11_13  and  C12_14 
REMARK    8  A    between atoms: C12_14  and  C13_15 
REMARK    9  A    between atoms: C13_15  and  C14_16 
REMARK   10  A    between atoms: C14_16  and  C15_17 
REMARK   11  A    between atoms: C15_17  and  C16_18 
REMARK   12  A    between atoms: C16_18  and  C17_19 
REMARK   13  A    between atoms: C17_19  and  C18_20 
REMARK   14  A    between atoms: C18_20  and  C19_21 
REMARK   15  A    between atoms: C19_21  and  C20_22 
REMARK   16  A    between atoms: C20_22  and  C21_23 
REMARK   17  A    between atoms: C21_23  and  C22_24 
ROOT
HETATM    1  C8  UNL     1      -4.147  -1.182  -1.010  1.00  0.00     0.129 C 
ENDROOT
BRANCH   1   2
HETATM    2  C7  UNL     1      -4.715  -1.234   0.410  1.00  0.00     0.060 C 
BRANCH   2   3
HETATM    3  C6  UNL     1      -6.172  -0.850   0.459  1.00  0.00     0.024 A 
HETATM    4  C1  UNL     1      -7.217  -1.898   0.406  1.00  0.00     0.214 A 
HETATM    5  C2  UNL     1      -8.643  -1.504   0.449  1.00  0.00     0.136 A 
HETATM    6  O5  UNL     1      -6.912  -3.066   0.330  1.00  0.00    -0.285 OA
HETATM    7  C3  UNL     1      -8.975  -0.201   0.539  1.00  0.00     0.070 A 
HETATM    8  C4  UNL     1      -7.938   0.848   0.602  1.00  0.00     0.198 A 
HETATM    9  C5  UNL     1      -6.518   0.449   0.553  1.00  0.00     0.041 A 
HETATM   10  O3  UNL     1      -8.246   2.014   0.691  1.00  0.00    -0.286 OA
BRANCH   5  11
HETATM   11  O4  UNL     1      -9.596  -2.432   0.397  1.00  0.00    -0.325 OA
HETATM   12  C24 UNL     1     -10.401  -2.447   1.566  1.00  0.00     0.181 C 
ENDBRANCH   5  11
ENDBRANCH   2   3
ENDBRANCH   1   2
BRANCH   1  13
HETATM   13  O1  UNL     1      -4.906  -2.033  -1.855  1.00  0.00    -0.304 OA
BRANCH  13  14
HETATM   14  C9  UNL     1      -4.690  -1.791  -3.145  1.00  0.00     0.272 C 
HETATM   15  C10 UNL     1      -5.383  -2.726  -4.098  1.00  0.00     0.106 C 
HETATM   16  O2  UNL     1      -3.990  -0.892  -3.553  1.00  0.00    -0.264 OA
ENDBRANCH  13  14
ENDBRANCH   1  13
BRANCH   1  17
HETATM   17  C11 UNL     1      -2.674  -1.588  -1.070  1.00  0.00     0.031 C 
BRANCH  17  18
HETATM   18  C12 UNL     1      -1.740  -0.504  -0.533  1.00  0.00     0.003 C 
BRANCH  18  19
HETATM   19  C13 UNL     1      -0.264  -0.877  -0.664  1.00  0.00     0.000 C 
BRANCH  19  20
HETATM   20  C14 UNL     1       0.670   0.209  -0.127  1.00  0.00     0.000 C 
BRANCH  20  21
HETATM   21  C15 UNL     1       2.146  -0.166  -0.260  1.00  0.00     0.000 C 
BRANCH  21  22
HETATM   22  C16 UNL     1       3.080   0.920   0.277  1.00  0.00     0.000 C 
BRANCH  22  23
HETATM   23  C17 UNL     1       4.557   0.545   0.147  1.00  0.00     0.000 C 
BRANCH  23  24
HETATM   24  C18 UNL     1       5.490   1.631   0.682  1.00  0.00     0.000 C 
BRANCH  24  25
HETATM   25  C19 UNL     1       6.967   1.258   0.551  1.00  0.00     0.000 C 
BRANCH  25  26
HETATM   26  C20 UNL     1       7.900   2.342   1.088  1.00  0.00     0.000 C 
BRANCH  26  27
HETATM   27  C21 UNL     1       9.377   1.969   0.957  1.00  0.00     0.000 C 
BRANCH  27  28
HETATM   28  C22 UNL     1      10.311   3.055   1.492  1.00  0.00     0.000 C 
HETATM   29  C23 UNL     1      11.789   2.680   1.361  1.00  0.00     0.000 C 
ENDBRANCH  27  28
ENDBRANCH  26  27
ENDBRANCH  25  26
ENDBRANCH  24  25
ENDBRANCH  23  24
ENDBRANCH  22  23
ENDBRANCH  21  22
ENDBRANCH  20  21
ENDBRANCH  19  20
ENDBRANCH  18  19
ENDBRANCH  17  18
ENDBRANCH   1  17
TORSDOF 17
