REMARK  2 active torsions:
REMARK  status: ('A' for Active; 'I' for Inactive)
REMARK    1  A    between atoms: C4_4  and  C19_22 
REMARK    2  A    between atoms: C19_22  and  O4_23 
ROOT
HETATM    1  C1  UNL     1      -1.222  -1.906   0.118  1.00  0.00     0.026 C 
HETATM    2  C2  UNL     1      -2.712  -1.947  -0.215  1.00  0.00     0.005 C 
HETATM    3  C3  UNL     1      -3.466  -0.906   0.597  1.00  0.00     0.014 C 
HETATM    4  C4  UNL     1      -2.980   0.491   0.229  1.00  0.00     0.097 C 
HETATM    5  C5  UNL     1      -1.474   0.618   0.219  1.00  0.00    -0.018 A 
HETATM    6  C6  UNL     1      -0.627  -0.513   0.150  1.00  0.00    -0.022 A 
HETATM    7  C7  UNL     1       0.777  -0.330   0.152  1.00  0.00     0.040 A 
HETATM    8  C8  UNL     1       1.304   0.993   0.162  1.00  0.00     0.026 A 
HETATM    9  C9  UNL     1       0.453   2.104   0.180  1.00  0.00     0.002 A 
HETATM   10  C10 UNL     1      -0.925   1.912   0.216  1.00  0.00    -0.004 A 
HETATM   11  C11 UNL     1       2.693   1.190   0.148  1.00  0.00     0.103 A 
HETATM   12  C12 UNL     1       3.585   0.143   0.292  1.00  0.00     0.063 A 
HETATM   13  C13 UNL     1       3.153  -1.252   0.547  1.00  0.00     0.236 C 
HETATM   14  C14 UNL     1       1.735  -1.509   0.009  1.00  0.00     0.234 C 
HETATM   15  O1  UNL     1       1.407  -2.560  -0.488  1.00  0.00    -0.283 OA
HETATM   16  O2  UNL     1       3.829  -2.082   1.107  1.00  0.00    -0.283 OA
HETATM   17  C15 UNL     1       4.883   0.705   0.218  1.00  0.00     0.008 A 
HETATM   18  C16 UNL     1       4.699   2.059   0.053  1.00  0.00     0.118 A 
HETATM   19  O3  UNL     1       3.374   2.365   0.025  1.00  0.00    -0.305 OA
HETATM   20  C17 UNL     1       6.188  -0.024   0.300  1.00  0.00     0.033 C 
HETATM   21  C18 UNL     1      -3.542   1.480   1.241  1.00  0.00     0.014 C 
ENDROOT
BRANCH   4  22
HETATM   22  C19 UNL     1      -3.460   0.775  -1.173  1.00  0.00     0.275 C 
HETATM   23  O5  UNL     1      -4.205   1.703  -1.380  1.00  0.00    -0.264 OA
BRANCH  22  24
HETATM   24  O4  UNL     1      -3.061  -0.001  -2.188  1.00  0.00    -0.299 OA
HETATM   25  C20 UNL     1      -2.196  -1.078  -1.948  1.00  0.00     0.184 C 
ENDBRANCH  22  24
ENDBRANCH   4  22
TORSDOF 2
