REMARK  0 active torsions:
REMARK  status: ('A' for Active; 'I' for Inactive)
ROOT
HETATM    1  C1  UNL     1      -3.988  -1.262   0.788  1.00  0.00     0.000 A 
HETATM    2  C2  UNL     1      -4.429  -0.200   0.001  1.00  0.00     0.002 A 
HETATM    3  C3  UNL     1      -3.521   0.683  -0.593  1.00  0.00     0.019 A 
HETATM    4  C4  UNL     1      -2.157   0.459  -0.371  1.00  0.00     0.081 A 
HETATM    5  C5  UNL     1      -1.686  -0.600   0.412  1.00  0.00     0.015 A 
HETATM    6  C6  UNL     1      -2.621  -1.473   1.002  1.00  0.00     0.001 A 
HETATM    7  C7  UNL     1      -0.270  -0.512   0.412  1.00  0.00    -0.003 A 
HETATM    8  C8  UNL     1       0.086   0.577  -0.356  1.00  0.00     0.075 A 
HETATM    9  N1  UNL     1      -1.057   1.162  -0.821  1.00  0.00    -0.248 NA
HETATM   10  C9  UNL     1       1.472   1.023  -0.652  1.00  0.00     0.117 C 
HETATM   11  N2  UNL     1       2.419   0.413   0.297  1.00  0.00    -0.363 N 
HETATM   12  C10 UNL     1       2.164  -1.034   0.475  1.00  0.00     0.102 C 
HETATM   13  C11 UNL     1       0.771  -1.340   1.082  1.00  0.00     0.051 C 
HETATM   14  C12 UNL     1       3.465   1.135   0.970  1.00  0.00     0.121 C 
HETATM   15  C13 UNL     1       1.842   0.605  -2.069  1.00  0.00     0.030 C 
ENDROOT
TORSDOF 0
