REMARK  4 active torsions:
REMARK  status: ('A' for Active; 'I' for Inactive)
REMARK    1  A    between atoms: C3_5  and  C5_7 
REMARK    2  A    between atoms: C5_7  and  C6_8 
REMARK    3  A    between atoms: C6_8  and  C7_9 
REMARK    4  A    between atoms: C7_9  and  C8_10 
ROOT
HETATM    1  C5  UNL     1      -0.160   1.394  -0.542  1.00  0.00     0.226 C 
HETATM    2  O4  UNL     1      -1.026   1.179  -1.623  1.00  0.00    -0.214 OA
ENDROOT
BRANCH   1   3
HETATM    3  C3  UNL     1       0.953   0.394  -0.589  1.00  0.00     0.111 A 
HETATM    4  N2  UNL     1       0.648  -0.923  -0.527  1.00  0.00    -0.243 NA
HETATM    5  C2  UNL     1       1.709  -1.762  -0.574  1.00  0.00     0.113 A 
HETATM    6  C1  UNL     1       3.012  -1.305  -0.679  1.00  0.00     0.079 A 
HETATM    7  N1  UNL     1       3.317   0.012  -0.741  1.00  0.00    -0.245 NA
HETATM    8  C9  UNL     1       4.125  -2.305  -0.726  1.00  0.00     0.054 C 
HETATM    9  C4  UNL     1       2.256   0.850  -0.694  1.00  0.00     0.116 A 
ENDBRANCH   1   3
BRANCH   1  10
HETATM   10  C6  UNL     1      -0.928   1.237   0.763  1.00  0.00     0.221 C 
HETATM   11  O3  UNL     1      -0.869   2.437   1.486  1.00  0.00    -0.217 OA
BRANCH  10  12
HETATM   12  C7  UNL     1      -2.382   0.899   0.461  1.00  0.00     0.218 C 
HETATM   13  O2  UNL     1      -2.567   0.835  -0.928  1.00  0.00    -0.218 OA
BRANCH  12  14
HETATM   14  C8  UNL     1      -2.731  -0.447   1.081  1.00  0.00     0.218 C 
HETATM   15  O1  UNL     1      -3.777  -0.282   2.000  1.00  0.00    -0.218 OA
ENDBRANCH  12  14
ENDBRANCH  10  12
ENDBRANCH   1  10
TORSDOF 4
