REMARK  0 active torsions:
REMARK  status: ('A' for Active; 'I' for Inactive)
ROOT
HETATM    1  C1  UNL     1       1.548  -1.067   0.471  1.00  0.00     0.031 C 
HETATM    2  C2  UNL     1       0.425  -1.786   0.352  1.00  0.00     0.006 C 
HETATM    3  C3  UNL     1      -0.902  -1.248   0.522  1.00  0.00    -0.003 C 
HETATM    4  C4  UNL     1      -1.145   0.070   0.497  1.00  0.00    -0.015 C 
HETATM    5  C5  UNL     1      -0.099   1.129   0.321  1.00  0.00     0.074 C 
HETATM    6  S1  UNL     1       1.560   0.620   0.855  1.00  0.00    -0.109 SA
HETATM    7  C6  UNL     1      -0.035   1.498  -1.155  1.00  0.00     0.016 C 
ENDROOT
TORSDOF 0
