REMARK  5 active torsions:
REMARK  status: ('A' for Active; 'I' for Inactive)
REMARK    1  A    between atoms: S1_2  and  C2_3 
REMARK    2  A    between atoms: C2_3  and  C3_4 
REMARK    3  A    between atoms: C3_4  and  C4_5 
REMARK    4  A    between atoms: C4_5  and  N1_6 
REMARK    5  A    between atoms: C5_7  and  C6_8 
ROOT
HETATM    1  C4  UNL     1       1.078  -0.264   0.000  1.00  0.00     0.127 C 
ENDROOT
BRANCH   1   2
HETATM    2  C3  UNL     1      -0.241   0.497   0.000  1.00  0.00     0.038 C 
BRANCH   2   3
HETATM    3  C2  UNL     1      -1.399  -0.492   0.000  1.00  0.00     0.060 C 
BRANCH   3   4
HETATM    4  S1  UNL     1      -2.971   0.416   0.000  1.00  0.00    -0.139 SA
HETATM    5  C1  UNL     1      -4.543  -0.492   0.000  1.00  0.00     0.069 C 
ENDBRANCH   3   4
ENDBRANCH   2   3
ENDBRANCH   1   2
BRANCH   1   6
HETATM    6  N1  UNL     1       2.196   0.691   0.000  1.00  0.00    -0.268 NA
HETATM    7  C5  UNL     1       3.383   0.270   0.000  1.00  0.00     0.105 C 
BRANCH   7   8
HETATM    8  C6  UNL     1       4.411   1.147   0.000  1.00  0.00     0.085 C 
HETATM    9  S2  UNL     1       5.896   0.621   0.000  1.00  0.00    -0.076 SA
ENDBRANCH   7   8
ENDBRANCH   1   6
TORSDOF 5
