REMARK  5 active torsions:
REMARK  status: ('A' for Active; 'I' for Inactive)
REMARK    1  A    between atoms: C2_2  and  C3_3 
REMARK    2  A    between atoms: C3_3  and  S1_4 
REMARK    3  A    between atoms: C3_3  and  S2_6 
REMARK    4  A    between atoms: S2_6  and  S3_7 
REMARK    5  A    between atoms: S3_7  and  C5_8 
ROOT
HETATM    1  C3  UNL     1      -1.730  -1.016  -0.327  1.00  0.00     0.105 C 
ENDROOT
BRANCH   1   2
HETATM    2  C2  UNL     1      -2.239  -2.452  -0.327  1.00  0.00     0.023 C 
HETATM    3  C1  UNL     1      -3.762  -2.452  -0.327  1.00  0.00     0.002 C 
ENDBRANCH   1   2
BRANCH   1   4
HETATM    4  S1  UNL     1      -2.334  -0.160   1.155  1.00  0.00    -0.128 SA
HETATM    5  C4  UNL     1      -1.895   1.578   1.441  1.00  0.00     0.070 C 
ENDBRANCH   1   4
BRANCH   1   6
HETATM    6  S2  UNL     1       0.085  -1.018  -0.326  1.00  0.00    -0.068 SA
BRANCH   6   7
HETATM    7  S3  UNL     1       1.099   0.734  -0.326  1.00  0.00    -0.054 SA
BRANCH   7   8
HETATM    8  C5  UNL     1       2.913   0.732  -0.325  1.00  0.00     0.037 C 
HETATM    9  C6  UNL     1       3.583   1.889  -0.324  1.00  0.00    -0.018 C 
HETATM   10  C7  UNL     1       5.080   1.887  -0.324  1.00  0.00     0.031 C 
ENDBRANCH   7   8
ENDBRANCH   6   7
ENDBRANCH   1   6
TORSDOF 5
