REMARK  6 active torsions:
REMARK  status: ('A' for Active; 'I' for Inactive)
REMARK    1  A    between atoms: C15_15  and  C18_18 
REMARK    2  A    between atoms: C18_18  and  C19_19 
REMARK    3  A    between atoms: C18_18  and  C25_25 
REMARK    4  A    between atoms: C19_19  and  C20_20 
REMARK    5  A    between atoms: C20_20  and  C21_21 
REMARK    6  A    between atoms: C25_25  and  O1_26 
ROOT
HETATM    1  C1  UNL     1      -2.962  -2.415  -2.991  1.00  0.00     0.027 C 
HETATM    2  C2  UNL     1      -1.275  -2.553  -0.823  1.00  0.00     0.097 A 
HETATM    3  C3  UNL     1      -2.231  -2.384   0.351  1.00  0.00     0.023 C 
HETATM    4  C4  UNL     1      -3.653  -2.229  -0.171  1.00  0.00     0.005 C 
HETATM    5  C5  UNL     1      -3.729  -1.013  -1.085  1.00  0.00     0.000 C 
HETATM    6  C6  UNL     1      -4.047  -1.464  -2.505  1.00  0.00     0.002 C 
HETATM    7  C7  UNL     1      -2.414  -0.296  -1.073  1.00  0.00     0.004 C 
HETATM    8  C8  UNL     1      -1.257  -0.965  -1.073  1.00  0.00     0.048 A 
HETATM    9  C9  UNL     1      -1.220  -2.462  -1.085  1.00  0.00     0.115 A 
HETATM   10  C10 UNL     1      -4.045  -3.476  -0.952  1.00  0.00     0.030 C 
HETATM   11  C11 UNL     1       0.058  -0.248  -1.073  1.00  0.00     0.004 C 
HETATM   12  C12 UNL     1      -0.045   1.000  -0.206  1.00  0.00     0.001 C 
HETATM   13  C13 UNL     1      -0.901   2.041  -0.915  1.00  0.00     0.000 C 
HETATM   14  C14 UNL     1      -2.451   1.200  -1.047  1.00  0.00     0.000 C 
HETATM   15  C15 UNL     1       1.390   1.502  -0.112  1.00  0.00     0.009 C 
HETATM   16  C16 UNL     1       2.083  -0.088   0.206  1.00  0.00     0.001 C 
HETATM   17  C17 UNL     1       1.102  -1.103  -0.366  1.00  0.00     0.000 C 
HETATM   18  C27 UNL     1      -0.671   0.729   1.156  1.00  0.00     0.000 C 
HETATM   19  C28 UNL     1       0.421   0.060  -2.519  1.00  0.00     0.000 C 
HETATM   20  C29 UNL     1      -4.823  -0.075  -0.593  1.00  0.00     0.000 C 
HETATM   21  C30 UNL     1      -1.844  -1.143   1.145  1.00  0.00     0.002 C 
HETATM   22  C31 UNL     1      -2.151  -3.609   1.252  1.00  0.00     0.002 C 
HETATM   23  O3  UNL     1      -0.622  -3.793  -0.768  1.00  0.00    -0.361 OA
ENDROOT
BRANCH  15  24
HETATM   24  C18 UNL     1       1.603   2.482   1.034  1.00  0.00     0.087 C 
BRANCH  24  25
HETATM   25  C19 UNL     1       3.087   2.799   1.162  1.00  0.00     0.015 C 
BRANCH  25  26
HETATM   26  C20 UNL     1       3.858   1.516   1.443  1.00  0.00     0.026 C 
BRANCH  26  27
HETATM   27  C21 UNL     1       5.317   1.827   1.569  1.00  0.00    -0.035 C 
HETATM   28  C22 UNL     1       6.191   0.846   1.817  1.00  0.00    -0.048 C 
HETATM   29  C23 UNL     1       7.649   1.157   1.942  1.00  0.00     0.026 C 
HETATM   30  C24 UNL     1       5.710  -0.564   1.970  1.00  0.00     0.026 C 
ENDBRANCH  26  27
ENDBRANCH  25  26
ENDBRANCH  24  25
BRANCH  24  31
HETATM   31  C25 UNL     1       0.839   3.753   0.755  1.00  0.00     0.271 C 
HETATM   32  O2  UNL     1       1.427   4.805   0.668  1.00  0.00    -0.264 OA
BRANCH  31  33
HETATM   33  O1  UNL     1      -0.490   3.716   0.605  1.00  0.00    -0.299 OA
HETATM   34  C26 UNL     1      -1.200   4.897   0.346  1.00  0.00     0.184 C 
ENDBRANCH  31  33
ENDBRANCH  24  31
ENDBRANCH  15  24
TORSDOF 6
