REMARK  5 active torsions:
REMARK  status: ('A' for Active; 'I' for Inactive)
REMARK    1  A    between atoms: C4_4  and  C8_10 
REMARK    2  A    between atoms: C6_6  and  C7_7 
REMARK    3  A    between atoms: C8_10  and  O3_12 
REMARK    4  A    between atoms: O3_12  and  C10_13 
REMARK    5  A    between atoms: C11_15  and  C15_22 
ROOT
HETATM    1  C1  UNL     1      -1.472   2.159  -1.586  1.00  0.00     0.036 C 
HETATM    2  C2  UNL     1      -1.472   0.636  -1.586  1.00  0.00     0.033 C 
HETATM    3  C3  UNL     1      -0.462   0.129  -0.565  1.00  0.00     0.005 C 
HETATM    4  C4  UNL     1       0.906   0.727  -0.864  1.00  0.00     0.028 C 
HETATM    5  C5  UNL     1       0.714   2.069  -0.403  1.00  0.00     0.035 C 
HETATM    6  C6  UNL     1      -0.036   2.667  -1.586  1.00  0.00     0.157 C 
HETATM    7  O2  UNL     1       0.594   2.287  -2.780  1.00  0.00    -0.223 OA
HETATM    8  C17 UNL     1      -2.879   0.268  -1.135  1.00  0.00     0.155 C 
HETATM    9  C18 UNL     1      -3.133   1.397  -0.030  1.00  0.00     0.180 C 
HETATM   10  C19 UNL     1      -2.141   2.528  -0.268  1.00  0.00     0.038 C 
HETATM   11  O9  UNL     1      -2.940   0.859   1.251  1.00  0.00    -0.221 OA
HETATM   12  O10 UNL     1      -2.925  -1.019  -0.580  1.00  0.00    -0.223 OA
HETATM   13  C20 UNL     1      -3.915   0.226  -2.251  1.00  0.00     0.036 C 
ENDROOT
BRANCH   4  14
HETATM   14  C8  UNL     1       2.009   0.020  -0.088  1.00  0.00     0.096 C 
HETATM   15  C9  UNL     1       3.064  -0.494  -1.059  1.00  0.00     0.030 C 
HETATM   16  C16 UNL     1       2.651   0.997   0.888  1.00  0.00     0.030 C 
BRANCH  14  17
HETATM   17  O3  UNL     1       1.463  -1.058   0.623  1.00  0.00    -0.334 OA
BRANCH  17  18
HETATM   18  C10 UNL     1       2.289  -1.865   1.418  1.00  0.00     0.270 C 
HETATM   19  O4  UNL     1       2.223  -3.195   0.979  1.00  0.00    -0.326 OA
HETATM   20  C11 UNL     1       0.866  -3.495   0.799  1.00  0.00     0.184 C 
HETATM   21  C12 UNL     1       0.241  -3.636   2.181  1.00  0.00     0.215 C 
HETATM   22  C13 UNL     1       0.368  -2.320   2.930  1.00  0.00     0.220 C 
HETATM   23  O7  UNL     1       0.904  -4.645   2.893  1.00  0.00    -0.218 OA
HETATM   24  C14 UNL     1       1.810  -1.835   2.863  1.00  0.00     0.241 C 
HETATM   25  O6  UNL     1      -0.473  -1.365   2.343  1.00  0.00    -0.218 OA
HETATM   26  O5  UNL     1       2.622  -2.673   3.641  1.00  0.00    -0.215 OA
BRANCH  20  27
HETATM   27  C15 UNL     1       0.182  -2.371   0.032  1.00  0.00     0.214 C 
HETATM   28  O8  UNL     1      -0.372  -2.881  -1.151  1.00  0.00    -0.218 OA
ENDBRANCH  20  27
ENDBRANCH  17  18
ENDBRANCH  14  17
ENDBRANCH   4  14
BRANCH   6  29
HETATM   29  C7  UNL     1      -0.035   4.186  -1.472  1.00  0.00     0.212 C 
HETATM   30  O1  UNL     1       0.595   4.739  -2.595  1.00  0.00    -0.218 OA
ENDBRANCH   6  29
TORSDOF 5
