REMARK  5 active torsions:
REMARK  status: ('A' for Active; 'I' for Inactive)
REMARK    1  A    between atoms: C4_4  and  O2_8 
REMARK    2  A    between atoms: O2_8  and  C7_9 
REMARK    3  A    between atoms: C10_12  and  C13_15 
REMARK    4  A    between atoms: C13_15  and  C14_16 
REMARK    5  A    between atoms: C14_16  and  N1_17 
ROOT
HETATM    1  O2  UNL     1      -0.260  -1.963   0.435  1.00  0.00    -0.304 OA
ENDROOT
BRANCH   1   2
HETATM    2  C4  UNL     1      -1.242  -1.982  -0.566  1.00  0.00     0.274 C 
HETATM    3  C3  UNL     1      -2.060  -3.263  -0.465  1.00  0.00     0.241 C 
HETATM    4  C2  UNL     1      -3.110  -3.283  -1.568  1.00  0.00     0.220 C 
HETATM    5  O3  UNL     1      -1.212  -4.371  -0.607  1.00  0.00    -0.215 OA
HETATM    6  C1  UNL     1      -3.872  -1.964  -1.568  1.00  0.00     0.212 C 
HETATM    7  O4  UNL     1      -4.005  -4.339  -1.341  1.00  0.00    -0.218 OA
HETATM    8  C5  UNL     1      -2.882  -0.807  -1.568  1.00  0.00     0.151 C 
HETATM    9  O5  UNL     1      -4.677  -1.890  -2.713  1.00  0.00    -0.218 OA
HETATM   10  O1  UNL     1      -2.122  -0.901  -0.393  1.00  0.00    -0.329 OA
HETATM   11  C6  UNL     1      -1.971  -0.902  -2.784  1.00  0.00     0.035 C 
ENDBRANCH   1   2
BRANCH   1  12
HETATM   12  C7  UNL     1       0.587  -0.910   0.532  1.00  0.00     0.097 A 
HETATM   13  C8  UNL     1       1.565  -0.891   1.527  1.00  0.00     0.024 A 
HETATM   14  C9  UNL     1       2.436   0.194   1.627  1.00  0.00    -0.002 A 
HETATM   15  C10 UNL     1       2.331   1.258   0.732  1.00  0.00    -0.020 A 
HETATM   16  C11 UNL     1       1.354   1.239  -0.263  1.00  0.00    -0.002 A 
HETATM   17  C12 UNL     1       0.482   0.155  -0.363  1.00  0.00     0.024 A 
BRANCH  15  18
HETATM   18  C13 UNL     1       3.267   2.422   0.840  1.00  0.00     0.052 C 
BRANCH  18  19
HETATM   19  C14 UNL     1       2.897   3.261   2.056  1.00  0.00     0.125 C 
BRANCH  19  20
HETATM   20  N1  UNL     1       3.796   4.378   2.159  1.00  0.00    -0.293 NA
HETATM   21  C15 UNL     1       3.649   5.322   3.234  1.00  0.00     0.146 C 
ENDBRANCH  19  20
ENDBRANCH  18  19
ENDBRANCH  15  18
ENDBRANCH   1  12
TORSDOF 5
