REMARK  5 active torsions:
REMARK  status: ('A' for Active; 'I' for Inactive)
REMARK    1  A    between atoms: C6_6  and  O1_7 
REMARK    2  A    between atoms: C12_13  and  O2_14 
REMARK    3  A    between atoms: N1_17  and  C15_18 
REMARK    4  A    between atoms: C19_24  and  O6_30 
REMARK    5  A    between atoms: C21_26  and  O5_27 
ROOT
HETATM    1  C1  UNL     1      -3.112   1.297   1.606  1.00  0.00     0.030 C 
HETATM    2  C2  UNL     1      -3.652  -0.116   1.787  1.00  0.00     0.004 C 
HETATM    3  C3  UNL     1      -2.495  -1.105   1.787  1.00  0.00     0.025 C 
HETATM    4  C4  UNL     1      -1.176  -0.344   1.787  1.00  0.00     0.036 C 
HETATM    5  C5  UNL     1      -1.050   0.453   0.495  1.00  0.00     0.049 C 
HETATM    6  C6  UNL     1      -2.308   1.285   0.287  1.00  0.00     0.117 C 
HETATM    7  C8  UNL     1       0.159   1.375   0.583  1.00  0.00     0.009 C 
HETATM    8  C9  UNL     1       1.392   0.562   0.956  1.00  0.00     0.058 C 
HETATM    9  C10 UNL     1       1.612  -0.801  -0.006  1.00  0.00     0.161 C 
HETATM   10  C11 UNL     1       0.263  -1.506   0.045  1.00  0.00     0.195 C 
HETATM   11  C12 UNL     1      -0.019  -1.332   1.724  1.00  0.00     0.147 C 
HETATM   12  C14 UNL     1      -0.803  -0.608  -0.570  1.00  0.00     0.112 C 
HETATM   13  N1  UNL     1      -2.006  -1.366  -0.779  1.00  0.00    -0.368 N 
HETATM   14  C17 UNL     1      -2.575  -1.981   0.543  1.00  0.00     0.097 C 
HETATM   15  O3  UNL     1       0.239  -2.773  -0.552  1.00  0.00    -0.219 OA
HETATM   16  O4  UNL     1       2.672  -1.611   0.424  1.00  0.00    -0.223 OA
HETATM   17  C18 UNL     1       1.906  -0.370  -1.437  1.00  0.00     0.063 C 
HETATM   18  C19 UNL     1       2.975   0.914  -1.632  1.00  0.00     0.120 C 
HETATM   19  C20 UNL     1       2.392   1.974  -0.707  1.00  0.00     0.055 C 
HETATM   20  C21 UNL     1       2.550   1.528   0.741  1.00  0.00     0.120 C 
HETATM   21  C23 UNL     1       0.483   1.922  -0.801  1.00  0.00     0.005 C 
ENDROOT
BRANCH   6  22
HETATM   22  O1  UNL     1      -3.085   0.719  -0.734  1.00  0.00    -0.354 OA
HETATM   23  C7  UNL     1      -3.388   1.467  -1.881  1.00  0.00     0.174 C 
ENDBRANCH   6  22
BRANCH  11  24
HETATM   24  O2  UNL     1       1.114  -0.820   2.372  1.00  0.00    -0.351 OA
HETATM   25  C13 UNL     1       1.701  -1.534   3.427  1.00  0.00     0.174 C 
ENDBRANCH  11  24
BRANCH  13  26
HETATM   26  C15 UNL     1      -2.622  -1.541  -2.067  1.00  0.00     0.097 C 
HETATM   27  C16 UNL     1      -3.874  -2.396  -1.920  1.00  0.00     0.026 C 
ENDBRANCH  13  26
BRANCH  20  28
HETATM   28  O5  UNL     1       3.779   0.881   0.931  1.00  0.00    -0.354 OA
HETATM   29  C22 UNL     1       4.684   1.365   1.887  1.00  0.00     0.174 C 
ENDBRANCH  20  28
BRANCH  18  30
HETATM   30  O6  UNL     1       2.996   1.358  -2.961  1.00  0.00    -0.354 OA
HETATM   31  C24 UNL     1       4.204   1.388  -3.672  1.00  0.00     0.174 C 
ENDBRANCH  18  30
TORSDOF 5
