REMARK  2 active torsions:
REMARK  status: ('A' for Active; 'I' for Inactive)
REMARK    1  A    between atoms: C4_4  and  C10_11 
REMARK    2  A    between atoms: C5_5  and  C7_8 
ROOT
HETATM    1  C1  UNL     1      -1.341   1.080  -0.113  1.00  0.00     0.055 C 
HETATM    2  C2  UNL     1      -1.341  -0.417  -0.113  1.00  0.00    -0.049 C 
HETATM    3  C3  UNL     1      -0.513  -1.102   0.930  1.00  0.00     0.026 C 
HETATM    4  C4  UNL     1       0.901  -0.538   0.906  1.00  0.00     0.028 C 
HETATM    5  C5  UNL     1       0.849   0.980   1.063  1.00  0.00     0.051 C 
HETATM    6  C6  UNL     1       0.095   1.587  -0.113  1.00  0.00     0.160 C 
HETATM    7  O1  UNL     1       0.722   1.216  -1.311  1.00  0.00    -0.223 OA
HETATM    8  C9  UNL     1       2.266   1.535   1.098  1.00  0.00     0.007 C 
HETATM    9  C13 UNL     1      -2.050  -1.114  -1.007  1.00  0.00    -0.051 C 
HETATM   10  C14 UNL     1      -2.027  -2.611  -0.979  1.00  0.00     0.026 C 
HETATM   11  C15 UNL     1      -2.866  -0.397  -2.037  1.00  0.00     0.026 C 
ENDROOT
BRANCH   4  12
HETATM   12  C10 UNL     1       1.553  -0.882  -0.397  1.00  0.00    -0.043 C 
HETATM   13  C11 UNL     1       2.671  -1.615  -0.412  1.00  0.00    -0.009 C 
HETATM   14  C12 UNL     1       0.952  -0.406  -1.683  1.00  0.00     0.026 C 
ENDBRANCH   4  12
BRANCH   5  15
HETATM   15  C7  UNL     1       0.143   1.325   2.338  1.00  0.00    -0.024 C 
HETATM   16  C8  UNL     1       0.779   2.021   3.285  1.00  0.00    -0.005 C 
ENDBRANCH   5  15
TORSDOF 2
