REMARK  1 active torsions:
REMARK  status: ('A' for Active; 'I' for Inactive)
REMARK    1  A    between atoms: C3_3  and  O3_8 
ROOT
HETATM    1  C1  UNL     1      -1.504   0.888  -0.707  1.00  0.00     0.214 C 
HETATM    2  C2  UNL     1      -0.743  -0.431  -0.707  1.00  0.00     0.217 C 
HETATM    3  C3  UNL     1       0.307  -0.411   0.396  1.00  0.00     0.207 C 
HETATM    4  C4  UNL     1       1.125   0.870   0.295  1.00  0.00     0.299 C 
HETATM    5  O1  UNL     1       0.245   1.951   0.468  1.00  0.00    -0.324 OA
HETATM    6  C5  UNL     1      -0.514   2.045  -0.707  1.00  0.00     0.181 C 
HETATM    7  O2  UNL     1       2.108   0.889   1.295  1.00  0.00    -0.187 OA
HETATM    8  O4  UNL     1      -1.637  -1.487  -0.481  1.00  0.00    -0.218 OA
HETATM    9  O5  UNL     1      -2.309   0.962  -1.853  1.00  0.00    -0.218 OA
ENDROOT
BRANCH   3  10
HETATM   10  O3  UNL     1       1.155  -1.519   0.254  1.00  0.00    -0.346 OA
HETATM   11  C6  UNL     1       1.257  -2.461   1.287  1.00  0.00     0.175 C 
ENDBRANCH   3  10
TORSDOF 1
