REMARK  0 active torsions:
REMARK  status: ('A' for Active; 'I' for Inactive)
ROOT
HETATM    1  C1  UNL     1      -0.942   1.076   0.096  1.00  0.00     0.032 C 
HETATM    2  C2  UNL     1      -1.336  -0.395   0.096  1.00  0.00     0.097 C 
HETATM    3  C3  UNL     1      -0.436  -1.161  -0.865  1.00  0.00     0.166 C 
HETATM    4  C4  UNL     1       1.000  -0.678  -0.710  1.00  0.00     0.086 C 
HETATM    5  C5  UNL     1       1.317  -0.493   0.768  1.00  0.00     0.131 C 
HETATM    6  C6  UNL     1       1.325   0.992   1.104  1.00  0.00     0.031 C 
HETATM    7  C7  UNL     1      -0.183   1.398   1.377  1.00  0.00     0.007 C 
HETATM    8  C8  UNL     1      -0.281   2.886   1.690  1.00  0.00     0.000 C 
HETATM    9  O1  UNL     1       2.633  -0.961   0.894  1.00  0.00    -0.301 OA
HETATM   10  C9  UNL     1       2.917  -1.950  -0.237  1.00  0.00     0.292 C 
HETATM   11  C10 UNL     1       1.939  -1.758  -1.150  1.00  0.00     0.045 C 
HETATM   12  C11 UNL     1       1.826  -2.441  -2.293  1.00  0.00     0.001 C 
HETATM   13  O2  UNL     1       3.828  -2.740  -0.301  1.00  0.00    -0.260 OA
HETATM   14  O3  UNL     1      -0.502  -2.531  -0.573  1.00  0.00    -0.223 OA
HETATM   15  C12 UNL     1      -2.732  -0.399  -0.477  1.00  0.00     0.175 C 
HETATM   16  C13 UNL     1      -3.249   0.990  -0.267  1.00  0.00     0.033 C 
HETATM   17  C14 UNL     1      -2.251   1.802   0.096  1.00  0.00    -0.023 C 
HETATM   18  O4  UNL     1      -3.309  -1.325  -0.995  1.00  0.00    -0.291 OA
ENDROOT
TORSDOF 0
