REMARK  5 active torsions:
REMARK  status: ('A' for Active; 'I' for Inactive)
REMARK    1  A    between atoms: C1_1  and  O6_21 
REMARK    2  A    between atoms: C3_3  and  O5_19 
REMARK    3  A    between atoms: C6_6  and  C7_7 
REMARK    4  A    between atoms: C7_7  and  C8_8 
REMARK    5  A    between atoms: C8_8  and  C9_9 
ROOT
HETATM    1  C1  UNL     1       1.221  -1.607   0.283  1.00  0.00     0.094 A 
HETATM    2  C2  UNL     1       2.340  -1.183   0.998  1.00  0.00     0.048 A 
HETATM    3  C3  UNL     1       2.328   0.055   1.645  1.00  0.00     0.098 A 
HETATM    4  C4  UNL     1       1.196   0.875   1.579  1.00  0.00     0.045 A 
HETATM    5  C5  UNL     1       0.076   0.445   0.861  1.00  0.00     0.103 A 
HETATM    6  C6  UNL     1       0.090  -0.793   0.215  1.00  0.00     0.026 A 
HETATM    7  O3  UNL     1      -1.075   1.171   0.737  1.00  0.00    -0.273 OA
HETATM    8  C12 UNL     1      -1.144   2.450   1.380  1.00  0.00     0.300 A 
HETATM    9  C13 UNL     1       0.063   2.899   2.147  1.00  0.00     0.069 A 
HETATM   10  C14 UNL     1       1.175   2.166   2.249  1.00  0.00     0.009 A 
HETATM   11  O4  UNL     1      -2.134   3.138   1.308  1.00  0.00    -0.259 OA
ENDROOT
BRANCH   6  12
HETATM   12  C7  UNL     1      -1.112  -1.248  -0.552  1.00  0.00     0.066 C 
BRANCH  12  13
HETATM   13  C8  UNL     1      -2.100  -0.096  -0.678  1.00  0.00     0.184 C 
HETATM   14  O2  UNL     1      -3.316  -0.458  -0.081  1.00  0.00    -0.221 OA
BRANCH  13  15
HETATM   15  C9  UNL     1      -2.333   0.216  -2.151  1.00  0.00     0.155 C 
HETATM   16  O1  UNL     1      -3.243   1.276  -2.267  1.00  0.00    -0.223 OA
HETATM   17  C10 UNL     1      -1.012   0.608  -2.800  1.00  0.00     0.036 C 
HETATM   18  C11 UNL     1      -2.896  -1.015  -2.848  1.00  0.00     0.036 C 
ENDBRANCH  13  15
ENDBRANCH  12  13
ENDBRANCH   6  12
BRANCH   1  19
HETATM   19  O6  UNL     1       1.232  -2.808  -0.344  1.00  0.00    -0.328 OA
HETATM   20  C16 UNL     1       2.369  -3.625  -0.275  1.00  0.00     0.181 C 
ENDBRANCH   1  19
BRANCH   3  21
HETATM   21  O5  UNL     1       3.418   0.464   2.338  1.00  0.00    -0.328 OA
HETATM   22  C15 UNL     1       3.409   1.706   2.989  1.00  0.00     0.181 C 
ENDBRANCH   3  21
TORSDOF 5
