REMARK  0 active torsions:
REMARK  status: ('A' for Active; 'I' for Inactive)
ROOT
HETATM    1  C1  UNL     1       0.476  -1.152  -0.115  1.00  0.00     0.017 C 
HETATM    2  C2  UNL     1      -0.963  -0.655  -0.115  1.00  0.00     0.082 C 
HETATM    3  C3  UNL     1      -0.974   0.868  -0.115  1.00  0.00     0.037 C 
HETATM    4  C4  UNL     1      -0.324   1.381   1.163  1.00  0.00     0.005 C 
HETATM    5  C5  UNL     1       1.127   0.924   1.192  1.00  0.00     0.031 C 
HETATM    6  C6  UNL     1       1.704   1.008  -0.215  1.00  0.00     0.129 A 
HETATM    7  C7  UNL     1       1.327  -0.244  -0.994  1.00  0.00     0.056 A 
HETATM    8  C8  UNL     1       2.640  -0.907  -1.273  1.00  0.00     0.043 A 
HETATM    9  C9  UNL     1       3.661  -0.200  -0.743  1.00  0.00     0.292 A 
HETATM   10  O1  UNL     1       3.100   0.931  -0.104  1.00  0.00    -0.301 OA
HETATM   11  O2  UNL     1       4.835  -0.479  -0.804  1.00  0.00    -0.260 OA
HETATM   12  C10 UNL     1       2.783  -2.048  -1.955  1.00  0.00     0.001 C 
HETATM   13  C11 UNL     1      -1.060   0.819   2.372  1.00  0.00     0.000 C 
HETATM   14  C12 UNL     1      -2.455   1.226  -0.110  1.00  0.00     0.123 C 
HETATM   15  C13 UNL     1      -3.008   0.521  -1.342  1.00  0.00     0.094 C 
HETATM   16  C14 UNL     1      -1.579  -1.024  -1.443  1.00  0.00     0.155 C 
HETATM   17  O3  UNL     1      -1.341  -1.884  -2.257  1.00  0.00    -0.296 OA
HETATM   18  O4  UNL     1      -2.960   0.564   1.018  1.00  0.00    -0.356 OA
HETATM   19  C15 UNL     1      -1.629  -1.028   1.202  1.00  0.00     0.149 C 
ENDROOT
TORSDOF 0
