REMARK  4 active torsions:
REMARK  status: ('A' for Active; 'I' for Inactive)
REMARK    1  A    between atoms: C8_8  and  C22_26 
REMARK    2  A    between atoms: C9_9  and  O1_10 
REMARK    3  A    between atoms: O1_10  and  C24_28 
REMARK    4  A    between atoms: C22_26  and  C23_27 
ROOT
HETATM    1  C1  UNL     1      -0.978  -0.797  -0.092  1.00  0.00     0.124 A 
HETATM    2  C2  UNL     1      -2.417  -0.299  -0.092  1.00  0.00     0.081 C 
HETATM    3  C3  UNL     1      -2.428   1.224  -0.092  1.00  0.00     0.019 C 
HETATM    4  C4  UNL     1      -2.783   1.729   1.300  1.00  0.00     0.042 C 
HETATM    5  C5  UNL     1      -1.521   0.990   1.731  1.00  0.00     0.051 C 
HETATM    6  C6  UNL     1      -0.591   1.543   0.658  1.00  0.00     0.071 A 
HETATM    7  C7  UNL     1      -0.030   0.393  -0.168  1.00  0.00     0.077 A 
HETATM    8  C8  UNL     1       1.279   0.044   0.529  1.00  0.00     0.059 A 
HETATM    9  C9  UNL     1       1.626   1.293   1.302  1.00  0.00     0.125 A 
HETATM   10  O1  UNL     1       0.532   2.074   1.308  1.00  0.00     0.000 OA
HETATM   11  O2  UNL     1       2.688   1.543   1.819  1.00  0.00    -0.356 OA
HETATM   12  C10 UNL     1       2.367  -0.174  -0.515  1.00  0.00     0.046 A 
HETATM   13  C11 UNL     1       3.733   0.023   0.127  1.00  0.00     0.013 A 
HETATM   14  C12 UNL     1       2.228   0.058  -1.365  1.00  0.00     0.053 A 
HETATM   15  C13 UNL     1       0.818   0.494  -0.990  1.00  0.00     0.072 A 
HETATM   16  C14 UNL     1      -0.108  -0.715  -1.006  1.00  0.00     0.105 A 
HETATM   17  C15 UNL     1       0.721  -1.991  -0.938  1.00  0.00     0.026 C 
HETATM   18  C16 UNL     1       2.202  -1.633  -0.919  1.00  0.00     0.009 C 
HETATM   19  C17 UNL     1       2.897  -2.405   0.195  1.00  0.00     0.007 C 
HETATM   20  C18 UNL     1       1.037  -1.074   1.534  1.00  0.00     0.006 C 
HETATM   21  C19 UNL     1       4.237  -1.700   0.350  1.00  0.00     0.052 C 
HETATM   22  C20 UNL     1       2.201   0.881  -1.581  1.00  0.00     0.073 A 
HETATM   23  O3  UNL     1       1.802   1.736  -2.335  1.00  0.00    -0.309 OA
HETATM   24  C21 UNL     1       0.423  -2.856  -2.155  1.00  0.00     0.002 C 
HETATM   25  O4  UNL     1      -0.823  -0.612   0.195  1.00  0.00     0.000 OA
HETATM   26  C22 UNL     1      -0.107   0.253   0.924  1.00  0.00     0.096 A 
HETATM   27  C23 UNL     1       0.798   0.946   0.437  1.00  0.00     0.080 A 
HETATM   28  C24 UNL     1       1.563   1.865   1.035  1.00  0.00     0.145 A 
HETATM   29  O5  UNL     1      -0.352   0.361   2.102  1.00  0.00    -0.345 OA
HETATM   30  C25 UNL     1      -2.742   3.241   1.472  1.00  0.00     0.006 C 
HETATM   31  C26 UNL     1      -3.526   1.578  -1.046  1.00  0.00     0.030 C 
HETATM   32  C27 UNL     1      -3.696   0.380  -1.954  1.00  0.00     0.011 C 
HETATM   33  C28 UNL     1      -3.033  -0.669  -1.420  1.00  0.00     0.170 C 
HETATM   34  O6  UNL     1      -2.944  -1.758  -1.936  1.00  0.00    -0.292 OA
HETATM   35  C29 UNL     1      -3.143  -0.886   1.111  1.00  0.00     0.010 C 
HETATM   36  O7  UNL     1      -0.771  -1.629  -1.202  1.00  0.00    -0.360 OA
ENDROOT
TORSDOF 4
