REMARK  1 active torsions:
REMARK  status: ('A' for Active; 'I' for Inactive)
REMARK    1  A    between atoms: C15_17  and  C18_20 
ROOT
HETATM    1  C1  UNL     1      -3.209   0.404  -1.168  1.00  0.00     0.003 C 
HETATM    2  C2  UNL     1      -4.701   0.049  -1.238  1.00  0.00     0.033 C 
HETATM    3  C3  UNL     1      -4.896  -1.459  -1.434  1.00  0.00     0.152 C 
HETATM    4  C4  UNL     1      -4.189  -2.250  -0.324  1.00  0.00     0.033 C 
HETATM    5  C5  UNL     1      -2.691  -1.903  -0.221  1.00  0.00     0.003 C 
HETATM    6  C6  UNL     1      -2.426  -0.373  -0.074  1.00  0.00     0.003 C 
HETATM    7  C7  UNL     1      -0.891  -0.033  -0.211  1.00  0.00     0.040 C 
HETATM    8  C8  UNL     1       0.010  -1.291  -0.074  1.00  0.00     0.031 C 
HETATM    9  C9  UNL     1      -0.367  -2.371  -1.125  1.00  0.00     0.003 C 
HETATM   10  C10 UNL     1      -1.875  -2.494  -1.377  1.00  0.00     0.000 C 
HETATM   11  C11 UNL     1       1.533  -0.994  -0.141  1.00  0.00     0.133 C 
HETATM   12  C12 UNL     1       1.994   0.172   0.768  1.00  0.00     0.084 C 
HETATM   13  C13 UNL     1       1.082   1.373   0.578  1.00  0.00     0.182 C 
HETATM   14  C14 UNL     1      -0.400   1.105   0.725  1.00  0.00     0.209 C 
HETATM   15  O1  UNL     1      -1.137   2.289   0.471  1.00  0.00    -0.215 OA
HETATM   16  O2  UNL     1       1.518   2.473   0.318  1.00  0.00    -0.293 OA
HETATM   17  C15 UNL     1       3.440   0.390   0.270  1.00  0.00     0.033 C 
HETATM   18  C16 UNL     1       3.272   0.365  -1.250  1.00  0.00     0.007 C 
HETATM   19  C17 UNL     1       2.061  -0.535  -1.516  1.00  0.00     0.031 C 
HETATM   20  C23 UNL     1       2.020  -0.203   2.252  1.00  0.00     0.010 C 
HETATM   21  O5  UNL     1       2.219  -2.192   0.215  1.00  0.00    -0.226 OA
HETATM   22  C24 UNL     1      -2.971   0.039   1.307  1.00  0.00     0.000 C 
HETATM   23  O6  UNL     1      -6.277  -1.758  -1.412  1.00  0.00    -0.224 OA
ENDROOT
BRANCH  17  24
HETATM   24  C18 UNL     1       4.147   1.619   0.791  1.00  0.00     0.003 A 
HETATM   25  C19 UNL     1       4.457   1.734   2.100  1.00  0.00     0.122 A 
HETATM   26  O3  UNL     1       5.090   2.799   2.650  1.00  0.00    -0.271 OA
HETATM   27  C20 UNL     1       5.438   3.816   1.826  1.00  0.00     0.300 A 
HETATM   28  C21 UNL     1       5.135   3.777   0.379  1.00  0.00     0.068 A 
HETATM   29  O4  UNL     1       6.008   4.795   2.244  1.00  0.00    -0.259 OA
HETATM   30  C22 UNL     1       4.506   2.705  -0.127  1.00  0.00     0.003 A 
ENDBRANCH  17  24
TORSDOF 1
