REMARK  2 active torsions:
REMARK  status: ('A' for Active; 'I' for Inactive)
REMARK    1  A    between atoms: C2_2  and  C20_23 
REMARK    2  A    between atoms: C41_50  and  N3_51 
ROOT
HETATM    1  C20 UNL     1       1.462  -1.048   1.687  1.00  0.00     0.238 A 
HETATM    2  O4  UNL     1       2.678  -0.365   1.541  1.00  0.00    -0.276 OA
HETATM    3  C21 UNL     1       3.831  -1.043   1.545  1.00  0.00     0.298 A 
HETATM    4  C22 UNL     1       3.824  -2.386   1.690  1.00  0.00     0.074 A 
HETATM    5  C23 UNL     1       5.026  -3.094   1.695  1.00  0.00     0.006 A 
HETATM    6  C24 UNL     1       5.019  -4.480   1.845  1.00  0.00     0.000 A 
HETATM    7  C25 UNL     1       3.809  -5.160   1.990  1.00  0.00     0.001 A 
HETATM    8  C26 UNL     1       2.607  -4.452   1.986  1.00  0.00     0.012 A 
HETATM    9  C27 UNL     1       2.615  -3.066   1.836  1.00  0.00     0.051 A 
HETATM   10  N1  UNL     1       1.455  -2.384   1.831  1.00  0.00    -0.171 NA
HETATM   11  C28 UNL     1       0.947  -1.905   0.653  1.00  0.00     0.222 A 
HETATM   12  O5  UNL     1      -0.094  -1.293   0.649  1.00  0.00    -0.278 OA
HETATM   13  C29 UNL     1       1.610  -2.119  -0.504  1.00  0.00     0.064 A 
HETATM   14  C30 UNL     1       1.092  -1.631  -1.704  1.00  0.00     0.088 A 
HETATM   15  C31 UNL     1       1.777  -1.851  -2.900  1.00  0.00     0.019 A 
HETATM   16  C32 UNL     1       2.979  -2.559  -2.895  1.00  0.00     0.002 A 
HETATM   17  C33 UNL     1       3.497  -3.046  -1.695  1.00  0.00     0.000 A 
HETATM   18  C34 UNL     1       2.812  -2.826  -0.500  1.00  0.00     0.005 A 
HETATM   19  O6  UNL     1       1.274  -1.378  -4.066  1.00  0.00     0.000 OA
HETATM   20  N2  UNL     1      -0.067  -0.949  -1.709  1.00  0.00    -0.211 NA
HETATM   21  C35 UNL     1      -0.575  -0.471  -2.887  1.00  0.00     0.262 A 
HETATM   22  O7  UNL     1      -1.616   0.142  -2.891  1.00  0.00    -0.270 OA
HETATM   23  C36 UNL     1       0.088  -0.684  -4.045  1.00  0.00     0.127 A 
HETATM   24  C37 UNL     1      -0.590  -1.189  -5.154  1.00  0.00    -0.015 A 
HETATM   25  C38 UNL     1       0.094  -1.409  -6.349  1.00  0.00    -0.004 A 
HETATM   26  C39 UNL     1       1.457  -1.125  -6.435  1.00  0.00    -0.003 A 
HETATM   27  C40 UNL     1       2.135  -0.619  -5.326  1.00  0.00    -0.004 A 
HETATM   28  C41 UNL     1       1.451  -0.399  -4.131  1.00  0.00     0.113 A 
HETATM   29  O8  UNL     1       4.879  -0.455   1.420  1.00  0.00    -0.259 OA
ENDROOT
BRANCH   1  30
HETATM   30  C2  UNL     1       0.331  -0.068   1.648  1.00  0.00     0.032 C 
HETATM   31  C1  UNL     1      -1.508  -0.549   1.454  1.00  0.00     0.205 C 
HETATM   32  C7  UNL     1      -2.831   0.156   1.722  1.00  0.00     0.199 C 
HETATM   33  O9  UNL     1      -1.610  -1.712   2.230  1.00  0.00    -0.216 OA
HETATM   34  C6  UNL     1      -2.956   1.366   0.806  1.00  0.00     0.101 C 
HETATM   35  C8  UNL     1      -3.982  -0.747   1.299  1.00  0.00     0.202 C 
HETATM   36  O2  UNL     1      -2.870   0.492   3.082  1.00  0.00    -0.219 OA
HETATM   37  C5  UNL     1      -1.565   1.888   0.538  1.00  0.00     0.160 C 
HETATM   38  C10 UNL     1      -3.530   0.806  -0.458  1.00  0.00    -0.023 C 
HETATM   39  C12 UNL     1      -3.735   2.463   1.518  1.00  0.00     0.013 C 
HETATM   40  C4  UNL     1      -0.707   2.174   1.746  1.00  0.00     0.080 C 
HETATM   41  O3  UNL     1      -1.160   2.067  -0.586  1.00  0.00    -0.295 OA
HETATM   42  C3  UNL     1       0.477   1.258   1.746  1.00  0.00    -0.021 C 
HETATM   43  C15 UNL     1      -0.308   3.626   1.746  1.00  0.00     0.011 A 
HETATM   44  C14 UNL     1      -1.390   4.658   1.626  1.00  0.00     0.001 A 
HETATM   45  C16 UNL     1      -0.681   4.463   2.933  1.00  0.00     0.001 A 
HETATM   46  C13 UNL     1      -2.815   4.185   1.513  1.00  0.00     0.001 C 
HETATM   47  C17 UNL     1       0.268   5.516   3.438  1.00  0.00     0.000 C 
HETATM   48  C18 UNL     1      -1.113   4.174   4.346  1.00  0.00     0.000 C 
HETATM   49  C9  UNL     1      -4.177  -0.340  -0.223  1.00  0.00    -0.015 C 
HETATM   50  C11 UNL     1      -4.961  -1.117  -1.235  1.00  0.00     0.029 C 
HETATM   51  C19 UNL     1      -5.080   2.631   0.823  1.00  0.00     0.001 C 
HETATM   52  O1  UNL     1      -5.137  -0.483   2.049  1.00  0.00    -0.216 OA
ENDBRANCH   1  30
BRANCH  28  53
HETATM   53  N3  UNL     1       2.066   0.059  -3.124  1.00  0.00    -0.363 N 
HETATM   54  C42 UNL     1       1.345   0.291  -1.864  1.00  0.00     0.121 C 
HETATM   55  C43 UNL     1       3.502   0.360  -3.215  1.00  0.00     0.121 C 
ENDBRANCH  28  53
TORSDOF 2
