REMARK  1 active torsions:
REMARK  status: ('A' for Active; 'I' for Inactive)
REMARK    1  A    between atoms: C12_13  and  C15_18 
ROOT
HETATM    1  C1  UNL     1      -2.832   2.562  -0.953  1.00  0.00     0.070 C 
HETATM    2  C2  UNL     1      -3.831   1.749  -0.147  1.00  0.00     0.012 C 
HETATM    3  C3  UNL     1      -3.552   0.261  -0.325  1.00  0.00     0.019 C 
HETATM    4  C4  UNL     1      -2.098  -0.102  -0.140  1.00  0.00    -0.020 A 
HETATM    5  C5  UNL     1      -1.067   0.860  -0.229  1.00  0.00     0.034 A 
HETATM    6  C6  UNL     1      -1.412   2.321  -0.444  1.00  0.00     0.173 C 
HETATM    7  O1  UNL     1      -0.631   3.217  -0.231  1.00  0.00    -0.291 OA
HETATM    8  C7  UNL     1       0.285   0.460  -0.050  1.00  0.00     0.047 A 
HETATM    9  C8  UNL     1       0.587  -0.900   0.182  1.00  0.00     0.042 A 
HETATM   10  C9  UNL     1      -0.450  -1.841   0.236  1.00  0.00     0.003 A 
HETATM   11  C10 UNL     1      -1.775  -1.447   0.076  1.00  0.00    -0.004 A 
HETATM   12  C11 UNL     1       2.004  -1.391   0.379  1.00  0.00     0.194 A 
HETATM   13  C12 UNL     1       3.055  -0.327   0.361  1.00  0.00     0.045 A 
HETATM   14  C13 UNL     1       2.784   0.966   0.145  1.00  0.00     0.169 A 
HETATM   15  C14 UNL     1       1.401   1.488  -0.107  1.00  0.00     0.221 A 
HETATM   16  O2  UNL     1       1.188   2.654  -0.340  1.00  0.00    -0.284 OA
HETATM   17  O3  UNL     1       3.812   1.848   0.154  1.00  0.00    -0.187 OA
HETATM   18  O4  UNL     1       2.267  -2.559   0.539  1.00  0.00    -0.287 OA
HETATM   19  C18 UNL     1      -4.376  -0.510   0.698  1.00  0.00     0.004 C 
HETATM   20  C19 UNL     1      -3.928  -0.100  -1.756  1.00  0.00     0.004 C 
ENDROOT
BRANCH  13  21
HETATM   21  C15 UNL     1       4.479  -0.727   0.597  1.00  0.00     0.028 C 
HETATM   22  C16 UNL     1       4.603  -1.375   1.970  1.00  0.00     0.005 C 
HETATM   23  C17 UNL     1       4.910  -1.720  -0.475  1.00  0.00     0.005 C 
ENDBRANCH  13  21
TORSDOF 1
