REMARK  4 active torsions:
REMARK  status: ('A' for Active; 'I' for Inactive)
REMARK    1  A    between atoms: O1_1  and  C2_3 
REMARK    2  A    between atoms: C3_4  and  O2_5 
REMARK    3  A    between atoms: C17_20  and  O4_25 
REMARK    4  A    between atoms: C18_21  and  O3_23 
ROOT
HETATM    1  C2  UNL     1       3.158   0.893   1.443  1.00  0.00     0.116 A 
HETATM    2  C3  UNL     1       2.904   2.043   0.660  1.00  0.00     0.116 A 
HETATM    3  C5  UNL     1       2.047   1.963  -0.461  1.00  0.00     0.024 A 
HETATM    4  C6  UNL     1       1.436   0.731  -0.807  1.00  0.00     0.007 A 
HETATM    5  C7  UNL     1       1.699  -0.430  -0.023  1.00  0.00    -0.020 A 
HETATM    6  C8  UNL     1       2.557  -0.340   1.102  1.00  0.00     0.022 A 
HETATM    7  C9  UNL     1       1.082  -1.734  -0.387  1.00  0.00     0.064 C 
HETATM    8  C10 UNL     1      -0.072  -1.611  -1.424  1.00  0.00     0.246 C 
HETATM    9  C11 UNL     1      -1.336  -1.146  -0.772  1.00  0.00     0.007 A 
HETATM   10  C12 UNL     1      -1.728   0.223  -0.854  1.00  0.00    -0.020 A 
HETATM   11  C13 UNL     1      -0.900   1.192  -1.623  1.00  0.00     0.064 C 
HETATM   12  C14 UNL     1       0.512   0.660  -1.982  1.00  0.00     0.246 C 
HETATM   13  N1  UNL     1       0.350  -0.709  -2.514  1.00  0.00     0.144 N 
HETATM   14  C15 UNL     1       1.508  -1.191  -3.264  1.00  0.00     0.286 C 
HETATM   15  C16 UNL     1      -2.910   0.656  -0.205  1.00  0.00     0.022 A 
HETATM   16  C17 UNL     1      -3.711  -0.264   0.510  1.00  0.00     0.116 A 
HETATM   17  C18 UNL     1      -3.330  -1.625   0.582  1.00  0.00     0.116 A 
HETATM   18  C19 UNL     1      -2.146  -2.062  -0.057  1.00  0.00     0.024 A 
ENDROOT
BRANCH   1  19
HETATM   19  O1  UNL     1       3.967   0.967   2.508  1.00  0.00    -0.326 OA
HETATM   20  C1  UNL     1       4.188  -0.215   3.264  1.00  0.00     0.181 C 
ENDBRANCH   1  19
BRANCH   2  21
HETATM   21  O2  UNL     1       3.477   3.215   0.978  1.00  0.00    -0.326 OA
HETATM   22  C4  UNL     1       3.194   4.338   0.160  1.00  0.00     0.181 C 
ENDBRANCH   2  21
BRANCH  17  23
HETATM   23  O3  UNL     1      -4.088  -2.500   1.256  1.00  0.00    -0.326 OA
HETATM   24  C20 UNL     1      -3.666  -3.855   1.295  1.00  0.00     0.181 C 
ENDBRANCH  17  23
BRANCH  16  25
HETATM   25  O4  UNL     1      -4.828   0.156   1.119  1.00  0.00    -0.326 OA
HETATM   26  C21 UNL     1      -5.139   1.541   1.062  1.00  0.00     0.181 C 
ENDBRANCH  16  25
TORSDOF 4
