REMARK  6 active torsions:
REMARK  status: ('A' for Active; 'I' for Inactive)
REMARK    1  A    between atoms: C4_4  and  O3_9 
REMARK    2  A    between atoms: C5_6  and  C6_7 
REMARK    3  A    between atoms: O3_9  and  C7_10 
REMARK    4  A    between atoms: N1_12  and  C12_17 
REMARK    5  A    between atoms: C12_17  and  C13_18 
REMARK    6  A    between atoms: C13_18  and  C14_19 
ROOT
HETATM    1  C7  UNL     1       0.577  -0.389   0.234  1.00  0.00     0.153 A 
HETATM    2  C8  UNL     1       1.515  -0.377   1.194  1.00  0.00     0.104 A 
HETATM    3  N1  UNL     1       2.393   0.666   1.330  1.00  0.00    -0.321 N 
HETATM    4  C9  UNL     1       2.365   1.754   0.497  1.00  0.00     0.080 A 
HETATM    5  C10 UNL     1       1.473   1.857  -0.500  1.00  0.00     0.063 A 
HETATM    6  C11 UNL     1       0.457   0.762  -0.741  1.00  0.00     0.221 A 
HETATM    7  O4  UNL     1      -0.367   0.803  -1.622  1.00  0.00    -0.284 OA
ENDROOT
BRANCH   1   8
HETATM    8  O3  UNL     1      -0.270  -1.442   0.137  1.00  0.00    -0.299 OA
BRANCH   8   9
HETATM    9  C4  UNL     1      -1.252  -1.462  -0.864  1.00  0.00     0.274 C 
HETATM   10  C3  UNL     1      -2.070  -2.742  -0.763  1.00  0.00     0.241 C 
HETATM   11  C2  UNL     1      -3.120  -2.762  -1.866  1.00  0.00     0.220 C 
HETATM   12  O7  UNL     1      -1.222  -3.850  -0.905  1.00  0.00    -0.215 OA
HETATM   13  C1  UNL     1      -3.881  -1.443  -1.866  1.00  0.00     0.215 C 
HETATM   14  O8  UNL     1      -4.014  -3.818  -1.639  1.00  0.00    -0.218 OA
HETATM   15  C5  UNL     1      -2.892  -0.286  -1.866  1.00  0.00     0.184 C 
HETATM   16  O9  UNL     1      -4.687  -1.369  -3.011  1.00  0.00    -0.218 OA
HETATM   17  O1  UNL     1      -2.132  -0.380  -0.691  1.00  0.00    -0.326 OA
BRANCH  15  18
HETATM   18  C6  UNL     1      -3.642   1.039  -1.894  1.00  0.00     0.214 C 
HETATM   19  O2  UNL     1      -3.265   1.767  -3.031  1.00  0.00    -0.218 OA
ENDBRANCH  15  18
ENDBRANCH   8   9
ENDBRANCH   1   8
BRANCH   3  20
HETATM   20  C12 UNL     1       3.397   0.617   2.403  1.00  0.00     0.157 C 
BRANCH  20  21
HETATM   21  C13 UNL     1       4.253   1.876   2.357  1.00  0.00     0.409 C 
HETATM   22  N2  UNL     1       5.628   1.512   2.149  1.00  0.00     0.630 N 
BRANCH  21  23
HETATM   23  C14 UNL     1       4.122   2.621   3.663  1.00  0.00     0.226 C 
HETATM   24  O5  UNL     1       4.726   3.654   3.831  1.00  0.00    -0.646 OA
HETATM   25  O6  UNL     1       3.338   2.139   4.633  1.00  0.00    -0.646 OA
ENDBRANCH  21  23
ENDBRANCH  20  21
ENDBRANCH   3  20
TORSDOF 6
