REMARK  0 active torsions:
REMARK  status: ('A' for Active; 'I' for Inactive)
REMARK       I    between atoms: N2_9  and  C12_14 
REMARK       I    between atoms: C12_14  and  N3_15 
ROOT
HETATM    1  C1  UNL     1      -1.895   1.697  -0.259  1.00  0.00     0.006 A 
HETATM    2  C2  UNL     1      -1.480   2.245   0.877  1.00  0.00     0.061 A 
HETATM    3  C3  UNL     1      -0.170   1.871   1.425  1.00  0.00     0.261 A 
HETATM    4  N1  UNL     1       0.629   0.916   0.750  1.00  0.00    -0.299 N 
HETATM    5  C4  UNL     1       0.148   0.389  -0.451  1.00  0.00     0.041 A 
HETATM    6  C5  UNL     1      -1.040   0.746  -0.946  1.00  0.00     0.013 A 
HETATM    7  C6  UNL     1       0.940  -0.559  -1.236  1.00  0.00     0.061 C 
HETATM    8  C7  UNL     1       1.764   0.325  -2.196  1.00  0.00     0.112 C 
HETATM    9  N2  UNL     1       2.868   1.040  -1.544  1.00  0.00    -0.302 N 
HETATM   10  C8  UNL     1       3.704   0.293  -0.677  1.00  0.00     0.108 C 
HETATM   11  C9  UNL     1       2.812  -0.493   0.400  1.00  0.00     0.046 C 
HETATM   12  C10 UNL     1       1.876   0.392   1.370  1.00  0.00     0.111 C 
HETATM   13  C11 UNL     1       1.887  -1.440  -0.362  1.00  0.00     0.012 C 
HETATM   14  C12 UNL     1       3.018   2.476  -1.598  1.00  0.00     0.324 C 
HETATM   15  N3  UNL     1       4.271   3.233  -1.351  1.00  0.00    -0.302 N 
HETATM   16  C13 UNL     1       4.143   4.619  -1.116  1.00  0.00     0.108 C 
HETATM   17  C14 UNL     1       5.267   5.132  -0.161  1.00  0.00     0.046 C 
HETATM   18  C15 UNL     1       5.231   4.430   1.254  1.00  0.00     0.111 C 
HETATM   19  N4  UNL     1       5.744   3.045   1.252  1.00  0.00    -0.299 N 
HETATM   20  C16 UNL     1       5.400   2.152   2.265  1.00  0.00     0.261 C 
HETATM   21  C17 UNL     1       6.159   0.909   2.425  1.00  0.00     0.061 C 
HETATM   22  C18 UNL     1       7.106   0.599   1.544  1.00  0.00     0.006 C 
HETATM   23  C19 UNL     1       7.320   1.468   0.408  1.00  0.00     0.013 C 
HETATM   24  C20 UNL     1       6.669   2.617   0.295  1.00  0.00     0.041 C 
HETATM   25  C21 UNL     1       6.812   3.339  -0.943  1.00  0.00     0.061 C 
HETATM   26  C22 UNL     1       6.643   4.874  -0.795  1.00  0.00     0.012 C 
HETATM   27  C23 UNL     1       5.639   2.735  -1.771  1.00  0.00     0.112 C 
HETATM   28  O1  UNL     1       4.571   2.479   3.122  1.00  0.00    -0.267 OA
HETATM   29  O2  UNL     1       2.007   3.135  -1.863  1.00  0.00    -0.247 OA
HETATM   30  O3  UNL     1       0.189   2.337   2.509  1.00  0.00    -0.267 OA
ENDROOT
TORSDOF 0
