REMARK  0 active torsions:
REMARK  status: ('A' for Active; 'I' for Inactive)
ROOT
HETATM    1  C1  UNL     1      -0.062   0.944  -0.781  1.00  0.00     0.036 C 
HETATM    2  C2  UNL     1      -0.062  -0.579  -0.781  1.00  0.00     0.159 C 
HETATM    3  C3  UNL     1       0.327  -1.087   0.602  1.00  0.00     0.085 C 
HETATM    4  C4  UNL     1       1.901  -0.461   0.720  1.00  0.00     0.035 C 
HETATM    5  C5  UNL     1       2.058   1.040   0.517  1.00  0.00     0.118 C 
HETATM    6  C6  UNL     1       1.374   1.452  -0.781  1.00  0.00     0.032 C 
HETATM    7  O1  UNL     1       1.387   1.681   1.568  1.00  0.00    -0.333 OA
HETATM    8  C7  UNL     1       0.085   1.132   1.657  1.00  0.00     0.237 C 
HETATM    9  C8  UNL     1      -0.779   1.452   0.463  1.00  0.00     0.064 C 
HETATM   10  O2  UNL     1      -0.295   0.473   2.596  1.00  0.00    -0.304 OA
HETATM   11  C9  UNL     1       2.426  -0.795   2.110  1.00  0.00     0.003 C 
HETATM   12  C10 UNL     1      -0.586  -0.526   1.685  1.00  0.00     0.273 C 
HETATM   13  O3  UNL     1      -1.154  -1.583   2.410  1.00  0.00    -0.190 OA
HETATM   14  C11 UNL     1       0.224  -2.596   0.780  1.00  0.00     0.008 C 
HETATM   15  C12 UNL     1      -1.511  -0.948  -1.068  1.00  0.00     0.180 C 
HETATM   16  C13 UNL     1      -1.777   0.224  -2.298  1.00  0.00     0.036 C 
HETATM   17  C14 UNL     1      -0.730   1.312  -2.099  1.00  0.00     0.005 C 
HETATM   18  C15 UNL     1      -1.387   2.683  -2.007  1.00  0.00     0.000 C 
HETATM   19  O4  UNL     1      -1.649  -2.261  -1.538  1.00  0.00    -0.221 OA
HETATM   20  O5  UNL     1       0.837  -1.127  -1.708  1.00  0.00    -0.223 OA
ENDROOT
TORSDOF 0
