REMARK  6 active torsions:
REMARK  status: ('A' for Active; 'I' for Inactive)
REMARK    1  A    between atoms: C3_3  and  C7_8 
REMARK    2  A    between atoms: C7_8  and  C8_9 
REMARK    3  A    between atoms: C8_9  and  N1_10 
REMARK    4  A    between atoms: C9_11  and  C10_12 
REMARK    5  A    between atoms: C13_15  and  C17_22 
REMARK    6  A    between atoms: C14_17  and  C16_19 
ROOT
HETATM    1  C10 UNL     1       0.464  -1.021  -0.145  1.00  0.00     0.016 C 
HETATM    2  C11 UNL     1       0.539  -1.984  -1.069  1.00  0.00    -0.016 C 
HETATM    3  C12 UNL     1       1.111  -3.382  -0.794  1.00  0.00     0.062 C 
HETATM    4  C13 UNL     1       0.273  -4.470  -1.465  1.00  0.00     0.194 C 
HETATM    5  N2  UNL     1       0.127  -4.162  -2.882  1.00  0.00    -0.255 NA
HETATM    6  C14 UNL     1      -0.099  -2.871  -3.291  1.00  0.00     0.141 C 
HETATM    7  C15 UNL     1       0.073  -1.814  -2.488  1.00  0.00     0.021 C 
ENDROOT
BRANCH   1   8
HETATM    8  C9  UNL     1       0.901  -1.250   1.097  1.00  0.00     0.093 C 
HETATM    9  N1  UNL     1       0.828  -0.313   1.995  1.00  0.00    -0.269 NA
BRANCH   9  10
HETATM   10  C8  UNL     1       0.253   1.025   1.638  1.00  0.00     0.130 C 
BRANCH  10  11
HETATM   11  C7  UNL     1       0.282   1.934   2.860  1.00  0.00     0.053 C 
BRANCH  11  12
HETATM   12  C3  UNL     1      -0.292   3.270   2.503  1.00  0.00    -0.020 A 
HETATM   13  C2  UNL     1       0.557   4.340   2.219  1.00  0.00    -0.002 A 
HETATM   14  C1  UNL     1       0.022   5.585   1.887  1.00  0.00     0.027 A 
HETATM   15  C6  UNL     1      -1.361   5.759   1.838  1.00  0.00     0.131 A 
HETATM   16  C5  UNL     1      -2.209   4.689   2.122  1.00  0.00     0.027 A 
HETATM   17  O1  UNL     1      -1.881   6.968   1.515  1.00  0.00    -0.190 OA
HETATM   18  C4  UNL     1      -1.675   3.444   2.454  1.00  0.00    -0.002 A 
ENDBRANCH  11  12
ENDBRANCH  10  11
ENDBRANCH   9  10
ENDBRANCH   1   8
BRANCH   4  19
HETATM   19  C17 UNL     1       0.962  -5.804  -1.308  1.00  0.00     0.209 C 
HETATM   20  O4  UNL     1       0.385  -6.739  -0.711  1.00  0.00    -0.646 OA
HETATM   21  O5  UNL     1       2.109  -5.974  -1.775  1.00  0.00    -0.646 OA
ENDBRANCH   4  19
BRANCH   6  22
HETATM   22  C16 UNL     1      -0.513  -2.658  -4.559  1.00  0.00     0.229 C 
HETATM   23  O2  UNL     1      -0.743  -1.411  -4.987  1.00  0.00    -0.643 OA
HETATM   24  O3  UNL     1      -0.677  -3.593  -5.306  1.00  0.00    -0.643 OA
ENDBRANCH   6  22
TORSDOF 6
