REMARK  6 active torsions:
REMARK  status: ('A' for Active; 'I' for Inactive)
REMARK    1  A    between atoms: C4_4  and  O3_9 
REMARK    2  A    between atoms: C5_6  and  C6_7 
REMARK    3  A    between atoms: O3_9  and  C7_10 
REMARK    4  A    between atoms: C7_10  and  C8_11 
REMARK    5  A    between atoms: C8_11  and  C9_12 
REMARK    6  A    between atoms: C9_12  and  N1_13 
ROOT
HETATM    1  C1  UNL     1      -2.929  -0.148  -1.072  1.00  0.00     0.215 C 
HETATM    2  C2  UNL     1      -2.167  -1.467  -1.072  1.00  0.00     0.220 C 
HETATM    3  C3  UNL     1      -1.117  -1.447   0.031  1.00  0.00     0.241 C 
HETATM    4  C4  UNL     1      -0.299  -0.166  -0.070  1.00  0.00     0.270 C 
HETATM    5  O1  UNL     1      -1.180   0.915   0.103  1.00  0.00    -0.326 OA
HETATM    6  C5  UNL     1      -1.939   1.010  -1.072  1.00  0.00     0.184 C 
HETATM    7  O6  UNL     1      -0.270  -2.554  -0.111  1.00  0.00    -0.215 OA
HETATM    8  O7  UNL     1      -3.062  -2.522  -0.846  1.00  0.00    -0.218 OA
HETATM    9  O8  UNL     1      -3.734  -0.074  -2.217  1.00  0.00    -0.218 OA
ENDROOT
BRANCH   4  10
HETATM   10  O3  UNL     1       0.683  -0.147   0.930  1.00  0.00    -0.329 OA
BRANCH  10  11
HETATM   11  C7  UNL     1       2.038  -0.059   0.581  1.00  0.00     0.147 C 
BRANCH  11  12
HETATM   12  C8  UNL     1       2.889  -0.056   1.843  1.00  0.00     0.063 C 
BRANCH  12  13
HETATM   13  C9  UNL     1       4.361   0.039   1.464  1.00  0.00     0.179 C 
BRANCH  13  14
HETATM   14  N1  UNL     1       5.165   0.042   2.656  1.00  0.00    -0.138 N 
HETATM   15  O4  UNL     1       6.292   0.107   2.578  1.00  0.00    -0.536 OA
HETATM   16  O5  UNL     1       4.671  -0.021   3.672  1.00  0.00    -0.536 OA
ENDBRANCH  13  14
ENDBRANCH  12  13
ENDBRANCH  11  12
ENDBRANCH  10  11
ENDBRANCH   4  10
BRANCH   6  17
HETATM   17  C6  UNL     1      -2.690   2.335  -1.100  1.00  0.00     0.214 C 
HETATM   18  O2  UNL     1      -2.312   3.062  -2.238  1.00  0.00    -0.218 OA
ENDBRANCH   6  17
TORSDOF 6
