REMARK  4 active torsions:
REMARK  status: ('A' for Active; 'I' for Inactive)
REMARK    1  A    between atoms: C4_4  and  C7_7 
REMARK    2  A    between atoms: C15_17  and  O3_18 
REMARK    3  A    between atoms: O3_18  and  C16_19 
REMARK    4  A    between atoms: C17_21  and  C21_28 
ROOT
HETATM    1  C7  UNL     1       0.931  -1.821   0.464  1.00  0.00     0.064 A 
HETATM    2  C8  UNL     1       0.226  -0.687   0.541  1.00  0.00     0.126 A 
HETATM    3  O1  UNL     1       0.253   0.325  -0.390  1.00  0.00    -0.303 OA
HETATM    4  C9  UNL     1       1.067   0.169  -1.490  1.00  0.00     0.129 A 
HETATM    5  C10 UNL     1       1.857  -0.970  -1.692  1.00  0.00     0.089 A 
HETATM    6  C11 UNL     1       1.845  -2.091  -0.688  1.00  0.00     0.202 A 
HETATM    7  O2  UNL     1       2.501  -3.099  -0.801  1.00  0.00    -0.286 OA
HETATM    8  C12 UNL     1       2.658  -1.051  -2.839  1.00  0.00     0.138 A 
HETATM    9  C13 UNL     1       2.665  -0.007  -3.767  1.00  0.00     0.057 A 
HETATM   10  C14 UNL     1       1.874   1.123  -3.557  1.00  0.00     0.157 A 
HETATM   11  C15 UNL     1       1.075   1.211  -2.417  1.00  0.00     0.145 A 
HETATM   12  O9  UNL     1       1.884   2.134  -4.458  1.00  0.00    -0.188 OA
HETATM   13  O10 UNL     1       3.428  -2.145  -3.049  1.00  0.00    -0.190 OA
ENDROOT
BRANCH  11  14
HETATM   14  O3  UNL     1       0.306   2.308  -2.212  1.00  0.00    -0.299 OA
BRANCH  14  15
HETATM   15  C16 UNL     1      -0.498   2.396  -1.066  1.00  0.00     0.274 C 
HETATM   16  O4  UNL     1      -1.199   3.610  -1.066  1.00  0.00    -0.326 OA
HETATM   17  C17 UNL     1      -1.739   3.766   0.218  1.00  0.00     0.184 C 
HETATM   18  C18 UNL     1      -2.897   2.786   0.349  1.00  0.00     0.215 C 
HETATM   19  C19 UNL     1      -2.380   1.367   0.192  1.00  0.00     0.220 C 
HETATM   20  O7  UNL     1      -3.489   2.930   1.612  1.00  0.00    -0.218 OA
HETATM   21  C20 UNL     1      -1.527   1.273  -1.066  1.00  0.00     0.241 C 
HETATM   22  O6  UNL     1      -3.464   0.483   0.087  1.00  0.00    -0.218 OA
HETATM   23  O5  UNL     1      -2.348   1.392  -2.197  1.00  0.00    -0.215 OA
BRANCH  17  24
HETATM   24  C21 UNL     1      -0.679   3.461   1.268  1.00  0.00     0.214 C 
HETATM   25  O8  UNL     1      -0.489   4.587   2.082  1.00  0.00    -0.218 OA
ENDBRANCH  17  24
ENDBRANCH  14  15
ENDBRANCH  11  14
BRANCH   1  26
HETATM   26  C4  UNL     1       0.817  -2.731   1.437  1.00  0.00     0.005 A 
HETATM   27  C3  UNL     1      -0.032  -2.493   2.518  1.00  0.00     0.002 A 
HETATM   28  C2  UNL     1      -0.151  -3.442   3.533  1.00  0.00     0.027 A 
HETATM   29  C1  UNL     1       0.578  -4.629   3.467  1.00  0.00     0.131 A 
HETATM   30  C6  UNL     1       1.427  -4.867   2.386  1.00  0.00     0.027 A 
HETATM   31  O11 UNL     1       0.462  -5.551   4.453  1.00  0.00    -0.190 OA
HETATM   32  C5  UNL     1       1.546  -3.918   1.371  1.00  0.00     0.002 A 
ENDBRANCH   1  26
TORSDOF 4
