REMARK  6 active torsions:
REMARK  status: ('A' for Active; 'I' for Inactive)
REMARK    1  A    between atoms: C1_1  and  C2_3 
REMARK    2  A    between atoms: C2_3  and  C3_4 
REMARK    3  A    between atoms: C12_13  and  C14_15 
REMARK    4  A    between atoms: C14_15  and  C15_16 
REMARK    5  A    between atoms: C16_17  and  C17_18 
REMARK    6  A    between atoms: C17_18  and  C18_19 
ROOT
HETATM    1  C3  UNL     1      -3.860   1.721  -0.102  1.00  0.00    -0.027 A 
HETATM    2  C4  UNL     1      -3.469   2.234  -1.349  1.00  0.00    -0.026 A 
HETATM    3  C5  UNL     1      -4.356   3.208  -2.061  1.00  0.00     0.031 C 
HETATM    4  C6  UNL     1      -2.261   1.845  -1.932  1.00  0.00    -0.009 A 
HETATM    5  C7  UNL     1      -1.457   0.953  -1.243  1.00  0.00    -0.020 A 
HETATM    6  C8  UNL     1      -1.847   0.441   0.000  1.00  0.00     0.026 A 
HETATM    7  C9  UNL     1      -3.049   0.811   0.580  1.00  0.00    -0.024 A 
HETATM    8  C10 UNL     1      -3.467   0.251   1.903  1.00  0.00     0.031 C 
HETATM    9  C11 UNL     1      -0.837  -0.536   0.514  1.00  0.00     0.173 C 
HETATM   10  C12 UNL     1       0.387  -0.177  -0.342  1.00  0.00     0.071 C 
HETATM   11  C13 UNL     1      -0.150   0.365  -1.674  1.00  0.00     0.034 C 
HETATM   12  O4  UNL     1      -0.952  -1.379   1.371  1.00  0.00    -0.291 OA
ENDROOT
BRANCH  10  13
HETATM   13  C14 UNL     1       1.239  -1.416  -0.585  1.00  0.00     0.034 C 
BRANCH  13  14
HETATM   14  C15 UNL     1       2.620  -1.185  -0.056  1.00  0.00    -0.026 A 
HETATM   15  C16 UNL     1       3.586  -2.197  -0.170  1.00  0.00    -0.023 A 
HETATM   16  C19 UNL     1       4.881  -2.003   0.316  1.00  0.00    -0.002 A 
HETATM   17  C20 UNL     1       5.187  -0.785   0.899  1.00  0.00     0.030 A 
HETATM   18  C21 UNL     1       4.224   0.224   1.013  1.00  0.00    -0.019 A 
HETATM   19  C25 UNL     1       6.480  -0.359   1.520  1.00  0.00     0.173 C 
HETATM   20  C22 UNL     1       2.935   0.036   0.545  1.00  0.00    -0.009 A 
HETATM   21  C23 UNL     1       4.785   1.417   1.720  1.00  0.00     0.035 C 
HETATM   22  C24 UNL     1       6.293   1.164   1.583  1.00  0.00     0.074 C 
HETATM   23  O3  UNL     1       7.419  -1.031   1.876  1.00  0.00    -0.291 OA
BRANCH  15  24
HETATM   24  C17 UNL     1       3.225  -3.497  -0.819  1.00  0.00     0.062 C 
BRANCH  24  25
HETATM   25  C18 UNL     1       1.768  -3.457  -1.259  1.00  0.00     0.187 C 
HETATM   26  O2  UNL     1       1.429  -4.675  -1.867  1.00  0.00    -0.220 OA
ENDBRANCH  24  25
ENDBRANCH  15  24
ENDBRANCH  13  14
ENDBRANCH  10  13
BRANCH   1  27
HETATM   27  C2  UNL     1      -5.160   2.152   0.503  1.00  0.00     0.061 C 
BRANCH  27  28
HETATM   28  C1  UNL     1      -6.002   0.926   0.828  1.00  0.00     0.187 C 
HETATM   29  O1  UNL     1      -7.219   1.330   1.394  1.00  0.00    -0.220 OA
ENDBRANCH  27  28
ENDBRANCH   1  27
TORSDOF 6
