REMARK  7 active torsions:
REMARK  status: ('A' for Active; 'I' for Inactive)
REMARK    1  A    between atoms: C2_2  and  C7_8 
REMARK    2  A    between atoms: C7_8  and  C8_9 
REMARK    3  A    between atoms: C8_9  and  C9_10 
REMARK    4  A    between atoms: C9_10  and  O2_11 
REMARK    5  A    between atoms: O2_11  and  C10_12 
REMARK    6  A    between atoms: C10_12  and  C11_13 
REMARK    7  A    between atoms: C11_13  and  C12_15 
ROOT
HETATM    1  C8  UNL     1      -0.425   0.260   0.068  1.00  0.00     0.101 C 
ENDROOT
BRANCH   1   2
HETATM    2  C7  UNL     1      -0.775   1.675   0.507  1.00  0.00     0.037 C 
BRANCH   2   3
HETATM    3  C2  UNL     1      -2.259   1.863   0.455  1.00  0.00    -0.021 A 
HETATM    4  C1  UNL     1      -2.794   3.107   0.122  1.00  0.00    -0.002 A 
HETATM    5  C6  UNL     1      -4.177   3.282   0.073  1.00  0.00     0.027 A 
HETATM    6  C5  UNL     1      -5.025   2.212   0.357  1.00  0.00     0.131 A 
HETATM    7  C4  UNL     1      -4.491   0.967   0.690  1.00  0.00     0.027 A 
HETATM    8  O1  UNL     1      -6.369   2.381   0.310  1.00  0.00    -0.190 OA
HETATM    9  C3  UNL     1      -3.108   0.792   0.738  1.00  0.00    -0.002 A 
ENDBRANCH   2   3
ENDBRANCH   1   2
BRANCH   1  10
HETATM   10  C9  UNL     1       1.071   0.071   0.120  1.00  0.00     0.272 C 
HETATM   11  O5  UNL     1       1.782   0.981   0.474  1.00  0.00    -0.264 OA
BRANCH  10  12
HETATM   12  O2  UNL     1       1.610  -1.104  -0.225  1.00  0.00    -0.299 OA
BRANCH  12  13
HETATM   13  C10 UNL     1       3.000  -1.280  -0.176  1.00  0.00     0.187 C 
BRANCH  13  14
HETATM   14  C11 UNL     1       3.349  -2.695  -0.615  1.00  0.00     0.215 C 
HETATM   15  O3  UNL     1       2.899  -2.903  -1.926  1.00  0.00    -0.218 OA
BRANCH  14  16
HETATM   16  C12 UNL     1       4.860  -2.884  -0.562  1.00  0.00     0.218 C 
HETATM   17  O4  UNL     1       5.171  -3.921   0.328  1.00  0.00    -0.218 OA
ENDBRANCH  14  16
ENDBRANCH  13  14
ENDBRANCH  12  13
ENDBRANCH  10  12
ENDBRANCH   1  10
TORSDOF 7
