REMARK  19 active torsions:
REMARK  status: ('A' for Active; 'I' for Inactive)
REMARK    1  A    between atoms: C1_1  and  C2_2 
REMARK    2  A    between atoms: C1_1  and  O3_6 
REMARK    3  A    between atoms: C2_2  and  C3_4 
REMARK    4  A    between atoms: O3_6  and  C4_7 
REMARK    5  A    between atoms: C4_7  and  C5_9 
REMARK    6  A    between atoms: C5_9  and  C6_10 
REMARK    7  A    between atoms: C6_10  and  C7_11 
REMARK    8  A    between atoms: C7_11  and  C8_12 
REMARK    9  A    between atoms: C8_12  and  C9_13 
REMARK   10  A    between atoms: C9_13  and  C10_14 
REMARK   11  A    between atoms: C10_14  and  C11_15 
REMARK   12  A    between atoms: C11_15  and  C12_16 
REMARK   13  A    between atoms: C13_17  and  C14_18 
REMARK   14  A    between atoms: C14_18  and  C15_19 
REMARK   15  A    between atoms: C15_19  and  C16_20 
REMARK   16  A    between atoms: C16_20  and  C17_21 
REMARK   17  A    between atoms: C17_21  and  C18_22 
REMARK   18  A    between atoms: C18_22  and  C19_23 
REMARK   19  A    between atoms: C19_23  and  C20_24 
ROOT
HETATM    1  C9  UNL     1       0.868  -0.367   1.300  1.00  0.00     0.000 C 
ENDROOT
BRANCH   1   2
HETATM    2  C8  UNL     1       2.026  -1.356   1.300  1.00  0.00     0.000 C 
BRANCH   2   3
HETATM    3  C7  UNL     1       1.480  -2.778   1.300  1.00  0.00     0.001 C 
BRANCH   3   4
HETATM    4  C6  UNL     1       2.639  -3.767   1.300  1.00  0.00     0.010 C 
BRANCH   4   5
HETATM    5  C5  UNL     1       2.093  -5.189   1.300  1.00  0.00     0.096 C 
BRANCH   5   6
HETATM    6  C4  UNL     1       3.240  -6.169   1.300  1.00  0.00     0.272 C 
HETATM    7  O4  UNL     1       4.379  -5.766   1.300  1.00  0.00    -0.264 OA
BRANCH   6   8
HETATM    8  O3  UNL     1       2.997  -7.484   1.300  1.00  0.00    -0.299 OA
BRANCH   8   9
HETATM    9  C1  UNL     1       1.675  -7.952   1.300  1.00  0.00     0.187 C 
BRANCH   9  10
HETATM   10  C2  UNL     1       1.675  -9.476   1.300  1.00  0.00     0.215 C 
HETATM   11  O1  UNL     1       2.336  -9.944   2.445  1.00  0.00    -0.218 OA
BRANCH  10  12
HETATM   12  C3  UNL     1       0.239  -9.982   1.301  1.00  0.00     0.218 C 
HETATM   13  O2  UNL     1       0.017 -10.761   0.157  1.00  0.00    -0.218 OA
ENDBRANCH  10  12
ENDBRANCH   9  10
ENDBRANCH   8   9
ENDBRANCH   6   8
ENDBRANCH   5   6
ENDBRANCH   4   5
ENDBRANCH   3   4
ENDBRANCH   2   3
ENDBRANCH   1   2
BRANCH   1  14
HETATM   14  C10 UNL     1       1.414   1.055   1.300  1.00  0.00     0.005 C 
BRANCH  14  15
HETATM   15  C11 UNL     1       0.256   2.044   1.300  1.00  0.00     0.026 C 
BRANCH  15  16
HETATM   16  C12 UNL     1       0.792   3.442   1.300  1.00  0.00    -0.031 C 
HETATM   17  C13 UNL     1      -0.049   4.481   1.300  1.00  0.00    -0.028 C 
BRANCH  17  18
HETATM   18  C14 UNL     1      -1.528   4.246   1.300  1.00  0.00     0.059 C 
BRANCH  18  19
HETATM   19  C15 UNL     1      -2.254   5.585   1.300  1.00  0.00     0.157 C 
HETATM   20  O5  UNL     1      -3.639   5.364   1.299  1.00  0.00    -0.223 OA
BRANCH  19  21
HETATM   21  C16 UNL     1      -1.866   6.374   0.057  1.00  0.00     0.033 C 
BRANCH  21  22
HETATM   22  C17 UNL     1      -2.255   5.586  -1.187  1.00  0.00     0.003 C 
BRANCH  22  23
HETATM   23  C18 UNL     1      -1.866   6.376  -2.431  1.00  0.00     0.000 C 
BRANCH  23  24
HETATM   24  C19 UNL     1      -2.255   5.588  -3.675  1.00  0.00     0.000 C 
BRANCH  24  25
HETATM   25  C20 UNL     1      -1.867   6.377  -4.918  1.00  0.00     0.000 C 
HETATM   26  C21 UNL     1      -2.255   5.589  -6.162  1.00  0.00     0.000 C 
ENDBRANCH  24  25
ENDBRANCH  23  24
ENDBRANCH  22  23
ENDBRANCH  21  22
ENDBRANCH  19  21
ENDBRANCH  18  19
ENDBRANCH  17  18
ENDBRANCH  15  16
ENDBRANCH  14  15
ENDBRANCH   1  14
TORSDOF 19
