REMARK  9 active torsions:
REMARK  status: ('A' for Active; 'I' for Inactive)
REMARK    1  A    between atoms: C3_3  and  C32_37 
REMARK    2  A    between atoms: C18_21  and  C19_22 
REMARK    3  A    between atoms: C19_22  and  C20_23 
REMARK    4  A    between atoms: C20_23  and  C21_24 
REMARK    5  A    between atoms: C21_24  and  C22_25 
REMARK    6  A    between atoms: C22_25  and  C23_26 
REMARK    7  A    between atoms: C23_26  and  C24_27 
REMARK    8  A    between atoms: C24_27  and  C25_28 
REMARK    9  A    between atoms: C25_28  and  C26_29 
ROOT
HETATM    1  C1  UNL     1       1.184  -1.246  -3.544  1.00  0.00     0.237 C 
HETATM    2  C2  UNL     1       2.554  -1.911  -3.544  1.00  0.00     0.308 C 
HETATM    3  C3  UNL     1       3.501  -0.922  -2.743  1.00  0.00     0.203 A 
HETATM    4  C4  UNL     1       3.492   0.368  -2.045  1.00  0.00     0.152 A 
HETATM    5  C5  UNL     1       2.256   0.753  -1.277  1.00  0.00     0.081 A 
HETATM    6  C6  UNL     1       1.019   0.816  -2.163  1.00  0.00     0.105 C 
HETATM    7  C7  UNL     1       1.355   0.267  -3.544  1.00  0.00     0.070 C 
HETATM    8  C8  UNL     1       0.337   0.747  -4.532  1.00  0.00     0.030 C 
HETATM    9  C9  UNL     1       0.008  -0.417  -5.413  1.00  0.00    -0.006 C 
HETATM   10  C10 UNL     1       0.529  -1.540  -4.871  1.00  0.00     0.198 C 
HETATM   11  O1  UNL     1       0.476  -2.633  -5.381  1.00  0.00    -0.289 OA
HETATM   12  C11 UNL     1      -0.772  -0.348  -6.688  1.00  0.00     0.029 C 
HETATM   13  C12 UNL     1      -0.093  -0.018  -1.542  1.00  0.00     0.028 C 
HETATM   14  C13 UNL     1      -0.025   1.615  -0.550  1.00  0.00     0.043 A 
HETATM   15  C14 UNL     1       1.046   2.639  -0.198  1.00  0.00     0.143 A 
HETATM   16  C15 UNL     1       2.420   2.075  -0.538  1.00  0.00     0.147 A 
HETATM   17  O2  UNL     1       2.952   3.002  -1.445  1.00  0.00    -0.320 OA
HETATM   18  C16 UNL     1       1.315   2.866  -1.281  1.00  0.00     0.219 A 
HETATM   19  O3  UNL     1       0.931   4.176  -1.602  1.00  0.00    -0.320 OA
HETATM   20  C17 UNL     1       0.983   2.217   0.056  1.00  0.00     0.106 A 
HETATM   21  C18 UNL     1       1.540   0.799   0.085  1.00  0.00     0.045 A 
HETATM   22  O4  UNL     1       0.680   2.168  -2.318  1.00  0.00    -0.324 OA
HETATM   23  C28 UNL     1       0.865   3.027   1.237  1.00  0.00     0.038 A 
HETATM   24  C29 UNL     1       1.423   2.161   2.323  1.00  0.00     0.003 C 
HETATM   25  C30 UNL     1       0.205   4.147   1.547  1.00  0.00     0.003 C 
HETATM   26  C31 UNL     1      -1.334  -0.277  -2.386  1.00  0.00     0.003 C 
HETATM   27  O5  UNL     1       3.331   0.323  -3.470  1.00  0.00    -0.349 OA
HETATM   28  O7  UNL     1       2.494  -3.157  -2.904  1.00  0.00    -0.187 OA
HETATM   29  O8  UNL     1       3.022  -2.144  -4.845  1.00  0.00    -0.187 OA
HETATM   30  O9  UNL     1       0.457  -1.703  -2.436  1.00  0.00    -0.213 OA
ENDROOT
BRANCH  21  31
HETATM   31  C19 UNL     1       1.208   0.150   1.423  1.00  0.00     0.003 C 
BRANCH  31  32
HETATM   32  C20 UNL     1      -0.303   0.105   1.605  1.00  0.00     0.000 C 
BRANCH  32  33
HETATM   33  C21 UNL     1      -0.635  -0.544   2.942  1.00  0.00     0.000 C 
BRANCH  33  34
HETATM   34  C22 UNL     1      -2.147  -0.589   3.125  1.00  0.00     0.000 C 
BRANCH  34  35
HETATM   35  C23 UNL     1      -2.478  -1.238   4.462  1.00  0.00     0.000 C 
BRANCH  35  36
HETATM   36  C24 UNL     1      -3.990  -1.282   4.644  1.00  0.00     0.000 C 
BRANCH  36  37
HETATM   37  C25 UNL     1      -4.321  -1.931   5.982  1.00  0.00     0.000 C 
BRANCH  37  38
HETATM   38  C26 UNL     1      -5.832  -1.976   6.164  1.00  0.00     0.000 C 
HETATM   39  C27 UNL     1      -6.390  -0.559   6.136  1.00  0.00     0.000 C 
ENDBRANCH  37  38
ENDBRANCH  36  37
ENDBRANCH  35  36
ENDBRANCH  34  35
ENDBRANCH  33  34
ENDBRANCH  32  33
ENDBRANCH  31  32
ENDBRANCH  21  31
BRANCH   3  40
HETATM   40  C32 UNL     1       4.261  -2.095  -2.186  1.00  0.00     0.217 C 
HETATM   41  O6  UNL     1       5.480  -2.229  -2.864  1.00  0.00    -0.218 OA
ENDBRANCH   3  40
TORSDOF 9
