REMARK  2 active torsions:
REMARK  status: ('A' for Active; 'I' for Inactive)
REMARK    1  A    between atoms: C4_4  and  O4_18 
REMARK    2  A    between atoms: C7_8  and  C9_10 
ROOT
HETATM    1  C1  UNL     1      -1.562  -0.873  -0.741  1.00  0.00     0.027 A 
HETATM    2  C2  UNL     1      -2.780  -0.199  -0.925  1.00  0.00     0.095 A 
HETATM    3  C3  UNL     1      -2.889   1.194  -0.907  1.00  0.00     0.048 A 
HETATM    4  C4  UNL     1      -1.766   1.990  -0.657  1.00  0.00     0.098 A 
HETATM    5  C5  UNL     1      -0.529   1.358  -0.446  1.00  0.00     0.047 A 
HETATM    6  C6  UNL     1      -0.468  -0.033  -0.499  1.00  0.00     0.100 A 
HETATM    7  O1  UNL     1       0.817  -0.446  -0.289  1.00  0.00    -0.307 OA
HETATM    8  C7  UNL     1       1.571   0.666  -0.094  1.00  0.00     0.100 A 
HETATM    9  C8  UNL     1       0.794   1.798  -0.180  1.00  0.00     0.029 A 
HETATM   10  O5  UNL     1      -3.918  -0.919  -1.190  1.00  0.00    -0.327 OA
HETATM   11  C16 UNL     1      -4.398  -1.562  -0.004  1.00  0.00     0.171 C 
HETATM   12  C17 UNL     1      -3.646  -2.812   0.364  1.00  0.00    -0.018 C 
HETATM   13  C18 UNL     1      -2.409  -3.166  -0.021  1.00  0.00    -0.027 C 
HETATM   14  C19 UNL     1      -1.453  -2.366  -0.864  1.00  0.00     0.056 C 
HETATM   15  C20 UNL     1      -4.360  -3.773   1.262  1.00  0.00     0.029 C 
ENDROOT
BRANCH   8  16
HETATM   16  C9  UNL     1       2.885   0.662   0.148  1.00  0.00     0.027 A 
HETATM   17  C10 UNL     1       3.779   1.056  -0.848  1.00  0.00     0.029 A 
HETATM   18  C11 UNL     1       5.151   1.051  -0.595  1.00  0.00     0.133 A 
HETATM   19  C12 UNL     1       5.629   0.652   0.653  1.00  0.00     0.055 A 
HETATM   20  O3  UNL     1       6.019   1.433  -1.562  1.00  0.00    -0.190 OA
HETATM   21  C13 UNL     1       4.735   0.258   1.649  1.00  0.00     0.133 A 
HETATM   22  C14 UNL     1       3.363   0.263   1.396  1.00  0.00     0.029 A 
HETATM   23  O2  UNL     1       5.199  -0.130   2.861  1.00  0.00    -0.190 OA
ENDBRANCH   8  16
BRANCH   4  24
HETATM   24  O4  UNL     1      -1.869   3.341  -0.620  1.00  0.00    -0.328 OA
HETATM   25  C15 UNL     1      -0.720   4.135  -0.741  1.00  0.00     0.181 C 
ENDBRANCH   4  24
TORSDOF 2
