REMARK  3 active torsions:
REMARK  status: ('A' for Active; 'I' for Inactive)
REMARK    1  A    between atoms: C7_9  and  C25_34 
REMARK    2  A    between atoms: C8_10  and  C10_13 
REMARK    3  A    between atoms: C16_20  and  C19_24 
ROOT
HETATM    1  C1  UNL     1      -2.406  -2.728  -0.179  1.00  0.00     0.002 A 
HETATM    2  C2  UNL     1      -1.290  -2.749  -1.017  1.00  0.00     0.131 A 
HETATM    3  C3  UNL     1      -0.587  -1.567  -1.290  1.00  0.00     0.078 A 
HETATM    4  C4  UNL     1      -1.035  -0.363  -0.735  1.00  0.00     0.077 A 
HETATM    5  C5  UNL     1      -2.143  -0.347   0.113  1.00  0.00     0.053 A 
HETATM    6  C6  UNL     1      -2.831  -1.529   0.389  1.00  0.00     0.034 A 
HETATM    7  O1  UNL     1      -3.909  -1.510   1.209  1.00  0.00     0.000 OA
HETATM    8  O2  UNL     1      -0.421   0.844  -0.945  1.00  0.00    -0.332 OA
HETATM    9  C7  UNL     1       0.484   0.867  -2.052  1.00  0.00     0.154 C 
HETATM   10  C8  UNL     1       1.428  -0.323  -2.041  1.00  0.00     0.120 C 
HETATM   11  C9  UNL     1       0.614  -1.599  -2.191  1.00  0.00     0.183 C 
HETATM   12  O3  UNL     1       0.894  -2.510  -2.932  1.00  0.00    -0.291 OA
HETATM   13  C19 UNL     1      -1.928  -0.700   1.470  1.00  0.00     0.059 A 
HETATM   14  C20 UNL     1      -2.548  -0.662   0.221  1.00  0.00     0.022 A 
HETATM   15  C21 UNL     1      -3.938  -0.731   0.130  1.00  0.00     0.039 A 
HETATM   16  C22 UNL     1      -4.708  -0.838   1.288  1.00  0.00     0.186 A 
HETATM   17  C23 UNL     1      -4.088  -0.875   2.536  1.00  0.00     0.201 A 
HETATM   18  C24 UNL     1      -2.698  -0.806   2.627  1.00  0.00    -0.012 C 
HETATM   19  O6  UNL     1      -4.837  -0.979   3.661  1.00  0.00    -0.216 OA
HETATM   20  O7  UNL     1      -6.059  -0.904   1.199  1.00  0.00    -0.220 OA
HETATM   21  O11 UNL     1      -0.883  -3.917  -1.569  1.00  0.00    -0.190 OA
ENDROOT
BRANCH   9  22
HETATM   22  C25 UNL     1       1.292   2.126  -1.988  1.00  0.00     0.006 A 
HETATM   23  C26 UNL     1       1.223   3.053  -3.028  1.00  0.00     0.000 A 
HETATM   24  C27 UNL     1       1.976   4.225  -2.968  1.00  0.00     0.027 A 
HETATM   25  C28 UNL     1       2.798   4.471  -1.868  1.00  0.00     0.131 A 
HETATM   26  C29 UNL     1       2.867   3.544  -0.828  1.00  0.00     0.027 A 
HETATM   27  O10 UNL     1       3.530   5.609  -1.810  1.00  0.00    -0.190 OA
HETATM   28  C30 UNL     1       2.114   2.371  -0.888  1.00  0.00     0.000 A 
ENDBRANCH   9  22
BRANCH  10  29
HETATM   29  C10 UNL     1       2.179  -0.356  -0.746  1.00  0.00     0.036 A 
HETATM   30  C11 UNL     1       3.572  -0.282  -0.744  1.00  0.00     0.132 A 
HETATM   31  C12 UNL     1       4.270  -0.313   0.463  1.00  0.00     0.055 A 
HETATM   32  O9  UNL     1       4.247  -0.180  -1.915  1.00  0.00    -0.190 OA
HETATM   33  C13 UNL     1       3.577  -0.418   1.671  1.00  0.00     0.138 A 
HETATM   34  C14 UNL     1       2.178  -0.493   1.679  1.00  0.00     0.087 A 
HETATM   35  O8  UNL     1       4.261  -0.448   2.840  1.00  0.00    -0.190 OA
HETATM   36  C15 UNL     1       1.487  -0.461   0.461  1.00  0.00     0.103 A 
HETATM   37  C18 UNL     1       1.426  -0.606   2.977  1.00  0.00     0.201 A 
HETATM   38  O4  UNL     1       0.113  -0.529   0.382  1.00  0.00    -0.311 OA
HETATM   39  C16 UNL     1      -0.595  -0.634   1.557  1.00  0.00     0.084 A 
HETATM   40  C17 UNL     1      -0.054  -0.674   2.779  1.00  0.00     0.063 A 
HETATM   41  O5  UNL     1       1.960  -0.639   4.060  1.00  0.00    -0.286 OA
ENDBRANCH  10  29
TORSDOF 3
