REMARK  1 active torsions:
REMARK  status: ('A' for Active; 'I' for Inactive)
REMARK    1  A    between atoms: C7_8  and  C10_13 
ROOT
HETATM    1  C1  UNL     1      -3.947   1.701  -0.068  1.00  0.00     0.135 A 
HETATM    2  C2  UNL     1      -3.429   2.996  -0.036  1.00  0.00     0.055 A 
HETATM    3  C3  UNL     1      -2.047   3.198  -0.014  1.00  0.00     0.138 A 
HETATM    4  C4  UNL     1      -1.173   2.103  -0.024  1.00  0.00     0.089 A 
HETATM    5  C5  UNL     1      -1.704   0.807  -0.056  1.00  0.00     0.107 A 
HETATM    6  C6  UNL     1      -3.084   0.605  -0.078  1.00  0.00     0.052 A 
HETATM    7  O1  UNL     1      -0.913  -0.321  -0.068  1.00  0.00    -0.305 OA
HETATM    8  C7  UNL     1       0.452  -0.152  -0.048  1.00  0.00     0.130 A 
HETATM    9  C8  UNL     1       1.079   1.028  -0.016  1.00  0.00     0.192 A 
HETATM   10  C9  UNL     1       0.316   2.314  -0.001  1.00  0.00     0.227 A 
HETATM   11  O2  UNL     1       0.839   3.403   0.028  1.00  0.00    -0.284 OA
HETATM   12  O3  UNL     1       2.434   1.060   0.002  1.00  0.00    -0.185 OA
HETATM   13  O6  UNL     1      -1.550   4.458   0.017  1.00  0.00    -0.190 OA
HETATM   14  O7  UNL     1      -5.288   1.508  -0.089  1.00  0.00    -0.190 OA
ENDROOT
BRANCH   8  15
HETATM   15  C10 UNL     1       1.210  -1.254  -0.060  1.00  0.00     0.051 A 
HETATM   16  C11 UNL     1       0.834  -2.351  -0.835  1.00  0.00     0.006 A 
HETATM   17  C12 UNL     1       1.625  -3.499  -0.847  1.00  0.00     0.028 A 
HETATM   18  C13 UNL     1       2.791  -3.552  -0.084  1.00  0.00     0.133 A 
HETATM   19  C14 UNL     1       3.167  -2.455   0.691  1.00  0.00     0.055 A 
HETATM   20  O5  UNL     1       3.559  -4.668  -0.096  1.00  0.00    -0.190 OA
HETATM   21  C15 UNL     1       2.376  -1.306   0.703  1.00  0.00     0.135 A 
HETATM   22  O4  UNL     1       2.741  -0.240   1.457  1.00  0.00    -0.190 OA
ENDBRANCH   8  15
TORSDOF 1
