REMARK  5 active torsions:
REMARK  status: ('A' for Active; 'I' for Inactive)
REMARK    1  A    between atoms: C4_4  and  O2_8 
REMARK    2  A    between atoms: O2_8  and  C7_9 
REMARK    3  A    between atoms: C7_9  and  C8_10 
REMARK    4  A    between atoms: C12_14  and  O4_16 
REMARK    5  A    between atoms: O4_16  and  C13_17 
ROOT
HETATM    1  C8  UNL     1       0.807   3.116   0.399  1.00  0.00     0.180 C 
HETATM    2  C9  UNL     1       1.638   4.391   0.462  1.00  0.00     0.215 C 
HETATM    3  C10 UNL     1       2.464   4.396   1.742  1.00  0.00     0.220 C 
HETATM    4  C11 UNL     1       3.206   3.072   1.871  1.00  0.00     0.241 C 
HETATM    5  C12 UNL     1       2.229   1.921   1.673  1.00  0.00     0.274 C 
HETATM    6  O3  UNL     1       1.697   2.033   0.378  1.00  0.00    -0.326 OA
HETATM    7  O9  UNL     1       3.781   2.982   3.147  1.00  0.00    -0.215 OA
HETATM    8  O10 UNL     1       3.390   5.447   1.696  1.00  0.00    -0.218 OA
HETATM    9  O11 UNL     1       0.786   5.504   0.452  1.00  0.00    -0.218 OA
ENDROOT
BRANCH   5  10
HETATM   10  O4  UNL     1       2.900   0.697   1.809  1.00  0.00    -0.301 OA
BRANCH  10  11
HETATM   11  C13 UNL     1       2.220  -0.467   1.671  1.00  0.00     0.122 A 
HETATM   12  C14 UNL     1       2.886  -1.685   1.807  1.00  0.00     0.156 A 
HETATM   13  C15 UNL     1       2.196  -2.899   1.656  1.00  0.00     0.069 A 
HETATM   14  O8  UNL     1       4.212  -1.697   2.087  1.00  0.00    -0.188 OA
HETATM   15  C16 UNL     1       0.820  -2.880   1.376  1.00  0.00     0.044 A 
HETATM   16  C22 UNL     1       2.939  -4.200   1.841  1.00  0.00     0.198 C 
HETATM   17  C17 UNL     1       0.159  -1.648   1.253  1.00  0.00     0.005 A 
HETATM   18  C19 UNL     1       0.030  -4.161   1.250  1.00  0.00     0.198 C 
HETATM   19  C18 UNL     1       0.856  -0.449   1.394  1.00  0.00     0.026 A 
HETATM   20  C20 UNL     1       0.855  -5.408   1.038  1.00  0.00     0.067 A 
HETATM   21  O7  UNL     1      -1.176  -4.186   1.316  1.00  0.00    -0.286 OA
HETATM   22  C21 UNL     1       2.231  -5.426   1.317  1.00  0.00     0.044 A 
HETATM   23  C26 UNL     1       0.226  -6.581   0.592  1.00  0.00     0.130 A 
HETATM   24  C23 UNL     1       2.953  -6.618   1.146  1.00  0.00     0.003 A 
HETATM   25  C24 UNL     1       2.320  -7.775   0.692  1.00  0.00    -0.002 A 
HETATM   26  C25 UNL     1       0.956  -7.756   0.415  1.00  0.00     0.004 A 
HETATM   27  C27 UNL     1       0.273  -8.996  -0.072  1.00  0.00     0.033 C 
HETATM   28  O6  UNL     1      -1.104  -6.572   0.330  1.00  0.00    -0.190 OA
HETATM   29  O5  UNL     1       4.023  -4.256   2.372  1.00  0.00    -0.286 OA
ENDBRANCH  10  11
ENDBRANCH   5  10
BRANCH   1  30
HETATM   30  C7  UNL     1      -0.045   3.113  -0.864  1.00  0.00     0.177 C 
BRANCH  30  31
HETATM   31  O2  UNL     1      -1.399   3.025  -0.514  1.00  0.00    -0.326 OA
BRANCH  31  32
HETATM   32  C4  UNL     1      -2.382   3.006  -1.514  1.00  0.00     0.270 C 
HETATM   33  C3  UNL     1      -3.200   1.725  -1.413  1.00  0.00     0.241 C 
HETATM   34  C2  UNL     1      -4.250   1.705  -2.517  1.00  0.00     0.220 C 
HETATM   35  O12 UNL     1      -2.352   0.618  -1.556  1.00  0.00    -0.215 OA
HETATM   36  C1  UNL     1      -5.011   3.024  -2.517  1.00  0.00     0.212 C 
HETATM   37  O13 UNL     1      -3.620   1.529  -3.757  1.00  0.00    -0.218 OA
HETATM   38  C5  UNL     1      -4.021   4.182  -2.517  1.00  0.00     0.151 C 
HETATM   39  O14 UNL     1      -5.816   3.098  -1.371  1.00  0.00    -0.218 OA
HETATM   40  O1  UNL     1      -3.262   4.087  -1.342  1.00  0.00    -0.329 OA
HETATM   41  C6  UNL     1      -3.110   4.086  -3.733  1.00  0.00     0.035 C 
ENDBRANCH  31  32
ENDBRANCH  30  31
ENDBRANCH   1  30
TORSDOF 5
