REMARK  1 active torsions:
REMARK  status: ('A' for Active; 'I' for Inactive)
REMARK    1  A    between atoms: C12_12  and  C15_16 
ROOT
HETATM    1  C1  UNL     1      -0.320  -1.087  -0.062  1.00  0.00     0.000 C 
HETATM    2  C2  UNL     1       0.057  -2.571   0.002  1.00  0.00     0.002 C 
HETATM    3  C3  UNL     1       1.457  -2.868  -0.589  1.00  0.00     0.026 C 
HETATM    4  C4  UNL     1       2.515  -1.973   0.132  1.00  0.00     0.127 C 
HETATM    5  C5  UNL     1       2.147  -0.465   0.065  1.00  0.00     0.028 C 
HETATM    6  C6  UNL     1       0.736  -0.225   0.640  1.00  0.00     0.002 C 
HETATM    7  C7  UNL     1       3.223   0.545   0.597  1.00  0.00     0.005 C 
HETATM    8  C8  UNL     1       4.573   0.192  -0.071  1.00  0.00     0.001 C 
HETATM    9  C9  UNL     1       4.982  -1.259   0.212  1.00  0.00     0.003 C 
HETATM   10  C10 UNL     1       3.940  -2.215  -0.386  1.00  0.00     0.030 C 
HETATM   11  C11 UNL     1       5.700   1.189   0.250  1.00  0.00     0.006 C 
HETATM   12  C12 UNL     1       5.379   2.647  -0.157  1.00  0.00     0.047 C 
HETATM   13  C13 UNL     1       3.991   3.050   0.370  1.00  0.00     0.156 C 
HETATM   14  C14 UNL     1       2.897   1.999   0.145  1.00  0.00     0.033 C 
HETATM   15  O1  UNL     1       4.055   3.381   1.738  1.00  0.00    -0.223 OA
HETATM   16  C17 UNL     1       5.397   2.774  -1.698  1.00  0.00     0.007 C 
HETATM   17  C18 UNL     1       3.281   0.519   2.142  1.00  0.00     0.000 C 
HETATM   18  O2  UNL     1       2.516  -2.376   1.479  1.00  0.00    -0.226 OA
HETATM   19  C19 UNL     1       1.722  -4.382  -0.375  1.00  0.00     0.002 C 
HETATM   20  C20 UNL     1       1.412  -2.668  -2.124  1.00  0.00     0.002 C 
ENDROOT
BRANCH  12  21
HETATM   21  C15 UNL     1       6.445   3.545   0.465  1.00  0.00    -0.024 C 
HETATM   22  C16 UNL     1       7.068   4.585  -0.108  1.00  0.00    -0.005 C 
ENDBRANCH  12  21
TORSDOF 1
