REMARK  4 active torsions:
REMARK  status: ('A' for Active; 'I' for Inactive)
REMARK    1  A    between atoms: C2_2  and  O7_35 
REMARK    2  A    between atoms: C15_17  and  C18_20 
REMARK    3  A    between atoms: C18_20  and  C19_21 
REMARK    4  A    between atoms: O7_35  and  S1_36 
ROOT
HETATM    1  C1  UNL     1       0.684  -2.365   2.943  1.00  0.00     0.096 C 
HETATM    2  C2  UNL     1       0.654  -3.892   2.861  1.00  0.00     0.147 C 
HETATM    3  C3  UNL     1       0.172  -4.364   1.480  1.00  0.00     0.065 C 
HETATM    4  C4  UNL     1       0.819  -3.672   0.254  1.00  0.00     0.162 C 
HETATM    5  C5  UNL     1       0.718  -2.129   0.355  1.00  0.00     0.080 C 
HETATM    6  C6  UNL     1       1.371  -1.815   1.704  1.00  0.00     0.155 C 
HETATM    7  O1  UNL     1       2.437  -1.258   1.816  1.00  0.00    -0.296 OA
HETATM    8  C7  UNL     1       1.413  -1.457  -0.868  1.00  0.00     0.011 C 
HETATM    9  C8  UNL     1       2.772  -2.053  -1.296  1.00  0.00     0.030 C 
HETATM   10  C9  UNL     1       3.201  -3.329  -0.578  1.00  0.00     0.145 A 
HETATM   11  C10 UNL     1       2.280  -4.127   0.113  1.00  0.00     0.171 A 
HETATM   12  O2  UNL     1       2.578  -4.510  -1.346  1.00  0.00    -0.352 OA
HETATM   13  C11 UNL     1       3.923  -1.040  -1.491  1.00  0.00     0.005 C 
HETATM   14  C12 UNL     1       3.591   0.206  -2.351  1.00  0.00     0.026 C 
HETATM   15  C13 UNL     1       2.147   0.696  -2.053  1.00  0.00     0.002 C 
HETATM   16  C14 UNL     1       1.444   0.082  -0.833  1.00  0.00     0.001 C 
HETATM   17  C15 UNL     1       4.787   1.179  -2.031  1.00  0.00     0.129 C 
HETATM   18  C16 UNL     1       5.471   0.653  -0.751  1.00  0.00     0.031 C 
HETATM   19  C17 UNL     1       4.594  -0.487  -0.229  1.00  0.00     0.003 C 
HETATM   20  O5  UNL     1       5.753   0.941  -3.034  1.00  0.00    -0.226 OA
HETATM   21  C27 UNL     1       3.578  -0.194  -3.856  1.00  0.00     0.002 C 
HETATM   22  C28 UNL     1      -0.750  -1.629   0.400  1.00  0.00     0.010 C 
HETATM   23  O6  UNL     1       0.055  -4.092  -0.864  1.00  0.00    -0.223 OA
ENDROOT
BRANCH  17  24
HETATM   24  C18 UNL     1       4.524   2.716  -2.033  1.00  0.00     0.056 C 
HETATM   25  C26 UNL     1       5.754   3.498  -2.568  1.00  0.00     0.005 C 
BRANCH  24  26
HETATM   26  C19 UNL     1       4.092   3.387  -0.701  1.00  0.00     0.131 C 
HETATM   27  O3  UNL     1       3.289   2.543   0.062  1.00  0.00    -0.301 OA
HETATM   28  C20 UNL     1       2.581   3.078   1.096  1.00  0.00     0.291 C 
HETATM   29  C21 UNL     1       2.533   4.534   1.397  1.00  0.00     0.034 C 
HETATM   30  O4  UNL     1       1.945   2.337   1.841  1.00  0.00    -0.260 OA
HETATM   31  C22 UNL     1       2.951   5.351   0.410  1.00  0.00    -0.040 C 
HETATM   32  C25 UNL     1       1.992   4.978   2.733  1.00  0.00     0.036 C 
HETATM   33  C23 UNL     1       3.418   4.750  -0.892  1.00  0.00     0.052 C 
HETATM   34  C24 UNL     1       2.910   6.859   0.450  1.00  0.00     0.026 C 
ENDBRANCH  24  26
ENDBRANCH  17  24
BRANCH   2  35
HETATM   35  O7  UNL     1       1.943  -4.383   3.109  1.00  0.00    -0.240 OA
BRANCH  35  36
HETATM   36  S1  UNL     1       2.162  -5.415   4.399  1.00  0.00     0.252 S 
HETATM   37  O8  UNL     1       3.728  -5.973   4.399  1.00  0.00    -0.572 OA
HETATM   38  O9  UNL     1       1.904  -4.709   5.642  1.00  0.00    -0.572 OA
HETATM   39  O10 UNL     1       1.369  -6.617   4.209  1.00  0.00    -0.572 OA
ENDBRANCH  35  36
ENDBRANCH   2  35
TORSDOF 4
