REMARK  2 active torsions:
REMARK  status: ('A' for Active; 'I' for Inactive)
REMARK    1  A    between atoms: C15_17  and  C18_20 
REMARK    2  A    between atoms: C18_20  and  C19_21 
ROOT
HETATM    1  C1  UNL     1      -4.286  -2.374  -4.628  1.00  0.00     0.035 C 
HETATM    2  C2  UNL     1      -4.465  -3.650  -4.255  1.00  0.00     0.012 C 
HETATM    3  C3  UNL     1      -4.061  -4.171  -2.912  1.00  0.00     0.202 C 
HETATM    4  C4  UNL     1      -3.035  -3.260  -2.243  1.00  0.00     0.156 A 
HETATM    5  C5  UNL     1      -3.174  -1.726  -2.330  1.00  0.00     0.084 C 
HETATM    6  C6  UNL     1      -3.670  -1.357  -3.744  1.00  0.00     0.174 C 
HETATM    7  O1  UNL     1      -3.577  -0.221  -4.194  1.00  0.00    -0.291 OA
HETATM    8  C7  UNL     1      -1.840  -0.937  -2.082  1.00  0.00     0.013 C 
HETATM    9  C8  UNL     1      -0.975  -1.582  -0.978  1.00  0.00     0.021 C 
HETATM   10  C9  UNL     1      -0.646  -3.026  -1.372  1.00  0.00     0.036 C 
HETATM   11  C10 UNL     1      -1.843  -3.881  -1.728  1.00  0.00     0.143 A 
HETATM   12  O2  UNL     1      -2.828  -3.778  -0.733  1.00  0.00    -0.353 OA
HETATM   13  C11 UNL     1       0.266  -0.770  -0.692  1.00  0.00    -0.049 C 
HETATM   14  C12 UNL     1       0.147   0.710  -0.415  1.00  0.00     0.015 C 
HETATM   15  C13 UNL     1      -0.684   1.314  -1.562  1.00  0.00     0.004 C 
HETATM   16  C14 UNL     1      -2.015   0.572  -1.776  1.00  0.00     0.001 C 
HETATM   17  C15 UNL     1       1.643   1.158  -0.464  1.00  0.00     0.010 C 
HETATM   18  C16 UNL     1       2.479  -0.106  -0.172  1.00  0.00     0.026 C 
HETATM   19  C17 UNL     1       1.527  -1.202  -0.561  1.00  0.00    -0.035 C 
HETATM   20  C27 UNL     1      -0.532   0.910   0.952  1.00  0.00     0.004 C 
HETATM   21  C28 UNL     1      -4.287  -1.251  -1.367  1.00  0.00     0.010 C 
HETATM   22  O5  UNL     1      -5.213  -4.332  -2.089  1.00  0.00    -0.216 OA
ENDROOT
BRANCH  17  23
HETATM   23  C18 UNL     1       2.051   2.454   0.278  1.00  0.00     0.029 C 
HETATM   24  C26 UNL     1       3.248   3.131  -0.417  1.00  0.00     0.003 C 
BRANCH  23  25
HETATM   25  C19 UNL     1       2.265   2.314   1.800  1.00  0.00     0.129 C 
HETATM   26  O3  UNL     1       1.590   3.347   2.455  1.00  0.00    -0.301 OA
HETATM   27  C20 UNL     1       1.794   3.452   3.798  1.00  0.00     0.291 C 
HETATM   28  C21 UNL     1       2.783   2.622   4.543  1.00  0.00     0.034 C 
HETATM   29  O4  UNL     1       1.121   4.251   4.445  1.00  0.00    -0.260 OA
HETATM   30  C22 UNL     1       3.724   2.008   3.797  1.00  0.00    -0.040 C 
HETATM   31  C25 UNL     1       2.669   2.557   6.046  1.00  0.00     0.036 C 
HETATM   32  C23 UNL     1       3.705   2.197   2.299  1.00  0.00     0.052 C 
HETATM   33  C24 UNL     1       4.878   1.195   4.330  1.00  0.00     0.026 C 
ENDBRANCH  23  25
ENDBRANCH  17  23
TORSDOF 2
