REMARK  9 active torsions:
REMARK  status: ('A' for Active; 'I' for Inactive)
REMARK    1  A    between atoms: C5_5  and  C7_7 
REMARK    2  A    between atoms: C7_7  and  O1_8 
REMARK    3  A    between atoms: O1_8  and  C8_9 
REMARK    4  A    between atoms: C11_12  and  O6_37 
REMARK    5  A    between atoms: C14_15  and  O3_21 
REMARK    6  A    between atoms: O3_21  and  C19_22 
REMARK    7  A    between atoms: C19_22  and  C20_23 
REMARK    8  A    between atoms: C21_24  and  C22_25 
REMARK    9  A    between atoms: O6_37  and  C32_38 
ROOT
HETATM    1  C8  UNL     1       1.056  -0.401  -0.044  1.00  0.00     0.128 C 
HETATM    2  C9  UNL     1       2.364  -1.195   0.161  1.00  0.00     0.035 C 
HETATM    3  C10 UNL     1       2.211  -2.729   0.274  1.00  0.00     0.058 C 
HETATM    4  C11 UNL     1       1.459  -3.166  -0.979  1.00  0.00     0.154 C 
HETATM    5  C12 UNL     1       0.051  -2.719  -0.543  1.00  0.00     0.148 C 
HETATM    6  C13 UNL     1      -0.072  -1.172  -0.815  1.00  0.00     0.079 C 
HETATM    7  C14 UNL     1      -1.488  -0.702  -0.365  1.00  0.00     0.129 C 
HETATM    8  C15 UNL     1      -2.622  -1.487  -1.021  1.00  0.00     0.033 C 
HETATM    9  C16 UNL     1      -2.481  -2.980  -0.704  1.00  0.00     0.035 C 
HETATM   10  C17 UNL     1      -1.122  -3.551  -1.130  1.00  0.00     0.152 C 
HETATM   11  C18 UNL     1      -1.111  -3.785  -2.649  1.00  0.00     0.035 C 
HETATM   12  O2  UNL     1      -1.069  -4.844  -0.572  1.00  0.00    -0.224 OA
HETATM   13  C28 UNL     1       0.115  -0.757  -2.305  1.00  0.00     0.007 C 
HETATM   14  O5  UNL     1       0.004  -2.849   0.868  1.00  0.00    -0.359 OA
HETATM   15  C29 UNL     1       1.255  -3.194   1.374  1.00  0.00     0.095 C 
HETATM   16  C30 UNL     1       1.287  -4.707   1.673  1.00  0.00     0.030 C 
HETATM   17  C31 UNL     1       1.511  -2.550   2.746  1.00  0.00     0.030 C 
ENDROOT
BRANCH   7  18
HETATM   18  O3  UNL     1      -1.644   0.662  -0.637  1.00  0.00    -0.301 OA
BRANCH  18  19
HETATM   19  C19 UNL     1      -2.273   1.473   0.264  1.00  0.00     0.296 C 
HETATM   20  O4  UNL     1      -2.938   1.010   1.187  1.00  0.00    -0.259 OA
BRANCH  19  21
HETATM   21  C20 UNL     1      -2.038   2.936   0.197  1.00  0.00     0.068 C 
HETATM   22  C21 UNL     1      -2.372   3.800   1.185  1.00  0.00     0.005 C 
BRANCH  22  23
HETATM   23  C22 UNL     1      -2.104   5.247   1.170  1.00  0.00     0.000 A 
HETATM   24  C23 UNL     1      -2.414   5.999   2.317  1.00  0.00     0.000 A 
HETATM   25  C24 UNL     1      -2.175   7.373   2.368  1.00  0.00     0.000 A 
HETATM   26  C25 UNL     1      -1.622   8.028   1.266  1.00  0.00     0.000 A 
HETATM   27  C26 UNL     1      -1.309   7.299   0.119  1.00  0.00     0.000 A 
HETATM   28  C27 UNL     1      -1.547   5.923   0.072  1.00  0.00     0.000 A 
ENDBRANCH  22  23
ENDBRANCH  19  21
ENDBRANCH  18  19
ENDBRANCH   7  18
BRANCH   1  29
HETATM   29  O1  UNL     1       0.574   0.082   1.178  1.00  0.00    -0.311 OA
BRANCH  29  30
HETATM   30  C7  UNL     1       1.052   1.237   1.718  1.00  0.00     0.228 C 
HETATM   31  O8  UNL     1       0.576   1.651   2.881  1.00  0.00    -0.163 OA
BRANCH  30  32
HETATM   32  C5  UNL     1       2.092   2.156   1.090  1.00  0.00     0.044 C 
HETATM   33  C4  UNL     1       1.748   2.931   0.032  1.00  0.00    -0.022 C 
HETATM   34  C3  UNL     1       2.721   3.907  -0.554  1.00  0.00     0.031 C 
HETATM   35  C2  UNL     1       4.020   4.099   0.194  1.00  0.00     0.031 C 
HETATM   36  C1  UNL     1       4.336   3.150   1.306  1.00  0.00    -0.026 C 
HETATM   37  C6  UNL     1       3.418   2.248   1.728  1.00  0.00    -0.001 C 
ENDBRANCH  30  32
ENDBRANCH  29  30
ENDBRANCH   1  29
BRANCH   4  38
HETATM   38  O6  UNL     1       1.595  -4.535  -1.217  1.00  0.00    -0.302 OA
BRANCH  38  39
HETATM   39  C32 UNL     1       2.542  -5.066  -2.043  1.00  0.00     0.272 C 
HETATM   40  O7  UNL     1       2.606  -6.257  -2.267  1.00  0.00    -0.264 OA
HETATM   41  C33 UNL     1       3.542  -4.103  -2.660  1.00  0.00     0.106 C 
ENDBRANCH  38  39
ENDBRANCH   4  38
TORSDOF 9
