REMARK  6 active torsions:
REMARK  status: ('A' for Active; 'I' for Inactive)
REMARK    1  A    between atoms: C16_18  and  C17_19 
REMARK    2  A    between atoms: C17_19  and  C18_20 
REMARK    3  A    between atoms: C18_20  and  C19_21 
REMARK    4  A    between atoms: C19_21  and  C20_22 
REMARK    5  A    between atoms: C20_22  and  C21_23 
REMARK    6  A    between atoms: C21_23  and  C22_24 
ROOT
HETATM    1  C1  UNL     1      -3.638  -2.781  -4.734  1.00  0.00     0.033 C 
HETATM    2  C2  UNL     1      -4.441  -3.901  -4.084  1.00  0.00     0.152 C 
HETATM    3  C3  UNL     1      -3.789  -4.404  -2.793  1.00  0.00     0.036 C 
HETATM    4  C4  UNL     1      -2.597  -3.541  -2.328  1.00  0.00     0.036 C 
HETATM    5  C5  UNL     1      -2.942  -2.027  -2.320  1.00  0.00     0.005 C 
HETATM    6  C6  UNL     1      -3.313  -1.619  -3.778  1.00  0.00     0.003 C 
HETATM    7  C7  UNL     1      -1.686  -1.234  -1.833  1.00  0.00     0.031 C 
HETATM    8  C8  UNL     1      -1.071  -1.730  -0.505  1.00  0.00     0.159 C 
HETATM    9  C9  UNL     1      -0.797  -3.233  -0.559  1.00  0.00     0.210 C 
HETATM   10  C10 UNL     1      -2.024  -4.025  -0.994  1.00  0.00     0.185 C 
HETATM   11  O1  UNL     1      -1.694  -5.394  -1.064  1.00  0.00    -0.221 OA
HETATM   12  O2  UNL     1       0.289  -3.491  -1.419  1.00  0.00    -0.218 OA
HETATM   13  C11 UNL     1       0.195  -0.907  -0.217  1.00  0.00     0.064 C 
HETATM   14  C12 UNL     1       0.004   0.629  -0.104  1.00  0.00     0.007 C 
HETATM   15  C13 UNL     1      -0.540   1.060  -1.483  1.00  0.00     0.000 C 
HETATM   16  C14 UNL     1      -1.833   0.304  -1.857  1.00  0.00     0.003 C 
HETATM   17  C15 UNL     1      -0.952   1.108   1.011  1.00  0.00     0.000 C 
HETATM   18  C16 UNL     1       1.462   1.065   0.250  1.00  0.00     0.033 C 
HETATM   19  C25 UNL     1       1.939  -0.051   1.209  1.00  0.00     0.182 C 
HETATM   20  C26 UNL     1       1.050  -1.272   0.987  1.00  0.00     0.185 C 
HETATM   21  O4  UNL     1       1.835  -2.411   0.727  1.00  0.00    -0.221 OA
HETATM   22  O5  UNL     1       1.836   0.319   2.564  1.00  0.00    -0.221 OA
HETATM   23  O6  UNL     1      -1.965  -1.541   0.557  1.00  0.00    -0.223 OA
HETATM   24  C27 UNL     1      -4.170  -1.736  -1.421  1.00  0.00     0.000 C 
HETATM   25  O7  UNL     1      -5.757  -3.460  -3.845  1.00  0.00    -0.224 OA
ENDROOT
BRANCH  18  26
HETATM   26  C17 UNL     1       1.721   2.509   0.750  1.00  0.00     0.003 C 
HETATM   27  C24 UNL     1       1.274   3.571  -0.273  1.00  0.00     0.000 C 
BRANCH  26  28
HETATM   28  C18 UNL     1       3.197   2.785   1.139  1.00  0.00     0.000 C 
BRANCH  28  29
HETATM   29  C19 UNL     1       3.312   3.962   2.129  1.00  0.00     0.000 C 
BRANCH  29  30
HETATM   30  C20 UNL     1       4.700   4.120   2.765  1.00  0.00     0.003 C 
BRANCH  30  31
HETATM   31  C21 UNL     1       4.873   5.416   3.590  1.00  0.00     0.033 C 
HETATM   32  C23 UNL     1       6.285   5.445   4.208  1.00  0.00     0.003 C 
BRANCH  31  33
HETATM   33  C22 UNL     1       3.831   5.601   4.698  1.00  0.00     0.182 C 
HETATM   34  O3  UNL     1       2.598   6.050   4.170  1.00  0.00    -0.221 OA
ENDBRANCH  31  33
ENDBRANCH  30  31
ENDBRANCH  29  30
ENDBRANCH  28  29
ENDBRANCH  26  28
ENDBRANCH  18  26
TORSDOF 6
