REMARK  4 active torsions:
REMARK  status: ('A' for Active; 'I' for Inactive)
REMARK    1  A    between atoms: C2_2  and  O3_17 
REMARK    2  A    between atoms: C8_8  and  C11_12 
REMARK    3  A    between atoms: O3_17  and  C15_18 
REMARK    4  A    between atoms: C15_18  and  C16_19 
ROOT
HETATM    1  C1  UNL     1       1.348   0.648  -0.271  1.00  0.00     0.063 C 
HETATM    2  C2  UNL     1       0.094   0.008  -0.911  1.00  0.00     0.148 C 
HETATM    3  C3  UNL     1      -0.547  -1.036  -0.026  1.00  0.00    -0.005 C 
HETATM    4  C4  UNL     1      -1.140  -0.842   1.161  1.00  0.00    -0.046 C 
HETATM    5  C5  UNL     1      -1.275   0.486   1.857  1.00  0.00     0.024 C 
HETATM    6  C6  UNL     1      -0.393   1.656   1.405  1.00  0.00     0.035 C 
HETATM    7  C7  UNL     1       1.093   1.469   1.044  1.00  0.00     0.136 C 
HETATM    8  C8  UNL     1       2.103   0.968   2.116  1.00  0.00     0.086 C 
HETATM    9  C9  UNL     1       3.101   0.189   1.276  1.00  0.00     0.153 C 
HETATM   10  C10 UNL     1       2.360  -0.450   0.131  1.00  0.00     0.070 C 
HETATM   11  O1  UNL     1       4.291   0.109   1.470  1.00  0.00    -0.296 OA
HETATM   12  O2  UNL     1       1.499   2.806   0.811  1.00  0.00    -0.225 OA
HETATM   13  C14 UNL     1      -1.783  -1.999   1.895  1.00  0.00     0.026 C 
HETATM   14  C20 UNL     1       2.053   1.521  -1.349  1.00  0.00     0.006 C 
ENDROOT
BRANCH   2  15
HETATM   15  O3  UNL     1       0.441  -0.617  -2.133  1.00  0.00    -0.297 OA
BRANCH  15  16
HETATM   16  C15 UNL     1       0.024  -0.106  -3.328  1.00  0.00     0.292 C 
HETATM   17  O4  UNL     1      -0.816   0.788  -3.360  1.00  0.00    -0.260 OA
BRANCH  16  18
HETATM   18  C16 UNL     1       0.651  -0.473  -4.633  1.00  0.00     0.037 C 
HETATM   19  C17 UNL     1       0.224   0.322  -5.849  1.00  0.00     0.036 C 
HETATM   20  C18 UNL     1       1.577  -1.450  -4.752  1.00  0.00    -0.025 C 
HETATM   21  C19 UNL     1       2.134  -2.362  -3.691  1.00  0.00     0.030 C 
ENDBRANCH  16  18
ENDBRANCH  15  16
ENDBRANCH   2  15
BRANCH   8  22
HETATM   22  C11 UNL     1       1.625   0.150   3.334  1.00  0.00     0.009 C 
HETATM   23  C12 UNL     1       2.738  -0.719   3.957  1.00  0.00     0.001 C 
HETATM   24  C13 UNL     1       1.079   1.061   4.452  1.00  0.00     0.001 C 
ENDBRANCH   8  22
TORSDOF 4
