REMARK  4 active torsions:
REMARK  status: ('A' for Active; 'I' for Inactive)
REMARK    1  A    between atoms: C7_7  and  C8_8 
REMARK    2  A    between atoms: C8_8  and  C9_9 
REMARK    3  A    between atoms: C9_9  and  C10_10 
REMARK    4  A    between atoms: C10_10  and  C11_11 
ROOT
HETATM    1  C1  UNL     1      -3.379  -0.216   0.853  1.00  0.00     0.024 C 
HETATM    2  C2  UNL     1      -3.282  -1.658   1.275  1.00  0.00    -0.048 C 
HETATM    3  C3  UNL     1      -2.076  -2.200   1.501  1.00  0.00    -0.032 C 
HETATM    4  C4  UNL     1      -0.791  -1.436   1.318  1.00  0.00     0.055 C 
HETATM    5  C5  UNL     1      -0.926   0.066   1.556  1.00  0.00     0.119 A 
HETATM    6  C6  UNL     1      -2.348   0.614   1.629  1.00  0.00     0.034 C 
HETATM    7  C7  UNL     1       0.227   0.974   1.272  1.00  0.00     0.116 A 
HETATM    8  C14 UNL     1       0.042   2.475   1.087  1.00  0.00     0.032 C 
HETATM    9  O1  UNL     1      -0.067   0.553   2.613  1.00  0.00    -0.359 OA
HETATM   10  C15 UNL     1      -4.562  -2.448   1.364  1.00  0.00     0.026 C 
ENDROOT
BRANCH   7  11
HETATM   11  C8  UNL     1       1.535   0.408   0.720  1.00  0.00     0.030 C 
BRANCH  11  12
HETATM   12  C9  UNL     1       1.730   0.595  -0.794  1.00  0.00     0.007 C 
BRANCH  12  13
HETATM   13  C10 UNL     1       3.079   0.031  -1.271  1.00  0.00     0.022 C 
BRANCH  13  14
HETATM   14  C11 UNL     1       3.300   0.216  -2.757  1.00  0.00    -0.044 C 
HETATM   15  C12 UNL     1       3.326  -0.828  -3.601  1.00  0.00    -0.009 C 
HETATM   16  C13 UNL     1       3.498   1.630  -3.250  1.00  0.00     0.026 C 
ENDBRANCH  13  14
ENDBRANCH  12  13
ENDBRANCH  11  12
ENDBRANCH   7  11
TORSDOF 4
