REMARK  0 active torsions:
REMARK  status: ('A' for Active; 'I' for Inactive)
ROOT
HETATM    1  C1  UNL     1      -0.174   1.561   1.108  1.00  0.00     0.028 A 
HETATM    2  C2  UNL     1      -0.250   0.048   1.109  1.00  0.00    -0.016 A 
HETATM    3  C3  UNL     1       0.904  -0.819   1.146  1.00  0.00     0.158 A 
HETATM    4  C4  UNL     1       1.153  -1.462  -0.117  1.00  0.00     0.122 A 
HETATM    5  C5  UNL     1       0.572  -1.023  -1.464  1.00  0.00     0.028 C 
HETATM    6  C6  UNL     1       0.836   0.409  -1.986  1.00  0.00     0.002 C 
HETATM    7  C7  UNL     1      -0.031   1.575  -1.479  1.00  0.00     0.000 C 
HETATM    8  C8  UNL     1       0.351   2.270  -0.159  1.00  0.00     0.004 C 
HETATM    9  C9  UNL     1       1.812   2.755  -0.091  1.00  0.00     0.000 C 
HETATM   10  C10 UNL     1      -0.871  -1.493  -1.716  1.00  0.00     0.003 C 
HETATM   11  O1  UNL     1       2.064  -0.326   0.533  1.00  0.00    -0.352 OA
HETATM   12  C11 UNL     1       1.816  -2.833  -0.064  1.00  0.00     0.033 C 
HETATM   13  C12 UNL     1      -1.476  -0.430   1.400  1.00  0.00     0.007 A 
HETATM   14  C13 UNL     1      -2.423   0.685   1.586  1.00  0.00     0.169 A 
HETATM   15  C14 UNL     1      -1.646   1.970   1.393  1.00  0.00     0.073 A 
HETATM   16  O2  UNL     1      -3.610   0.593   1.859  1.00  0.00    -0.292 OA
HETATM   17  C15 UNL     1      -1.866  -1.860   1.644  1.00  0.00     0.033 C 
ENDROOT
TORSDOF 0
