REMARK  1 active torsions:
REMARK  status: ('A' for Active; 'I' for Inactive)
REMARK    1  A    between atoms: C12_12  and  C15_17 
ROOT
HETATM    1  C1  UNL     1      -2.486  -0.438  -0.374  1.00  0.00     0.000 C 
HETATM    2  C2  UNL     1      -2.587  -1.831   0.250  1.00  0.00     0.000 C 
HETATM    3  C3  UNL     1      -1.312  -2.668  -0.016  1.00  0.00     0.004 C 
HETATM    4  C4  UNL     1      -0.075  -1.732  -0.140  1.00  0.00     0.026 C 
HETATM    5  C5  UNL     1      -0.101  -0.427   0.696  1.00  0.00     0.026 C 
HETATM    6  C6  UNL     1      -1.346   0.386   0.251  1.00  0.00     0.004 C 
HETATM    7  C7  UNL     1       1.191   0.368   0.459  1.00  0.00     0.022 C 
HETATM    8  C8  UNL     1       2.351  -0.263   0.139  1.00  0.00     0.037 C 
HETATM    9  C9  UNL     1       2.397  -1.721   0.041  1.00  0.00    -0.002 C 
HETATM   10  C10 UNL     1       1.256  -2.427  -0.045  1.00  0.00    -0.026 C 
HETATM   11  C11 UNL     1       3.623   0.484  -0.066  1.00  0.00     0.193 C 
HETATM   12  C12 UNL     1       3.571   1.972  -0.118  1.00  0.00     0.045 C 
HETATM   13  C13 UNL     1       2.432   2.600   0.246  1.00  0.00     0.168 C 
HETATM   14  C14 UNL     1       1.241   1.833   0.692  1.00  0.00     0.217 C 
HETATM   15  O1  UNL     1       0.322   2.489   1.169  1.00  0.00    -0.285 OA
HETATM   16  O2  UNL     1       2.246   3.948   0.237  1.00  0.00    -0.187 OA
HETATM   17  O3  UNL     1       4.669  -0.120  -0.277  1.00  0.00    -0.287 OA
HETATM   18  C18 UNL     1      -0.126  -0.692   2.217  1.00  0.00     0.005 C 
HETATM   19  C19 UNL     1      -1.186  -3.739   1.091  1.00  0.00     0.000 C 
HETATM   20  C20 UNL     1      -1.496  -3.434  -1.352  1.00  0.00     0.000 C 
ENDROOT
BRANCH  12  21
HETATM   21  C15 UNL     1       4.791   2.725  -0.628  1.00  0.00     0.028 C 
HETATM   22  C16 UNL     1       4.497   3.347  -2.003  1.00  0.00     0.005 C 
HETATM   23  C17 UNL     1       5.343   3.764   0.361  1.00  0.00     0.005 C 
ENDBRANCH  12  21
TORSDOF 1
