REMARK  4 active torsions:
REMARK  status: ('A' for Active; 'I' for Inactive)
REMARK    1  A    between atoms: C1_1  and  C15_18 
REMARK    2  A    between atoms: C3_3  and  C10_12 
REMARK    3  A    between atoms: C10_12  and  C11_13 
REMARK    4  A    between atoms: C15_18  and  C16_19 
ROOT
HETATM    1  C1  UNL     1       1.446   0.972   0.553  1.00  0.00     0.007 A 
HETATM    2  C2  UNL     1       0.429   0.148   0.231  1.00  0.00     0.126 A 
HETATM    3  C3  UNL     1      -0.801   0.661   0.020  1.00  0.00     0.030 A 
HETATM    4  C4  UNL     1      -1.040   1.988   0.108  1.00  0.00     0.102 A 
HETATM    5  C5  UNL     1      -0.014   2.800   0.433  1.00  0.00     0.023 A 
HETATM    6  C6  UNL     1       1.208   2.289   0.656  1.00  0.00     0.000 A 
HETATM    7  C7  UNL     1      -0.222   4.125   0.528  1.00  0.00     0.007 A 
HETATM    8  C8  UNL     1      -1.434   4.649   0.297  1.00  0.00     0.069 A 
HETATM    9  C9  UNL     1      -2.461   3.827  -0.032  1.00  0.00     0.300 A 
HETATM   10  O1  UNL     1      -2.298   2.477  -0.131  1.00  0.00    -0.273 OA
HETATM   11  O2  UNL     1      -3.550   4.322  -0.241  1.00  0.00    -0.259 OA
HETATM   12  O3  UNL     1       0.649  -1.191   0.112  1.00  0.00    -0.191 OA
ENDROOT
BRANCH   1  13
HETATM   13  C15 UNL     1       2.841   0.429   0.795  1.00  0.00     0.054 C 
BRANCH  13  14
HETATM   14  C16 UNL     1       2.833  -0.537   1.954  1.00  0.00    -0.030 C 
HETATM   15  C17 UNL     1       3.232  -1.822   1.955  1.00  0.00    -0.048 C 
HETATM   16  C18 UNL     1       3.120  -2.665   3.206  1.00  0.00     0.026 C 
HETATM   17  C19 UNL     1       3.814  -2.560   0.773  1.00  0.00     0.026 C 
ENDBRANCH  13  14
ENDBRANCH   1  13
BRANCH   3  18
HETATM   18  C10 UNL     1      -1.936  -0.286  -0.342  1.00  0.00     0.056 C 
BRANCH  18  19
HETATM   19  C11 UNL     1      -1.922  -0.597  -1.818  1.00  0.00    -0.030 C 
HETATM   20  C12 UNL     1      -2.962  -1.041  -2.547  1.00  0.00    -0.048 C 
HETATM   21  C13 UNL     1      -2.809  -1.351  -4.018  1.00  0.00     0.026 C 
HETATM   22  C14 UNL     1      -4.346  -1.289  -1.999  1.00  0.00     0.026 C 
ENDBRANCH  18  19
ENDBRANCH   3  18
TORSDOF 4
