REMARK  2 active torsions:
REMARK  status: ('A' for Active; 'I' for Inactive)
REMARK    1  A    between atoms: C1_1  and  O6_23 
REMARK    2  A    between atoms: C8_9  and  C11_13 
ROOT
HETATM    1  C1  UNL     1      -2.795   1.413  -0.014  1.00  0.00     0.090 A 
HETATM    2  C2  UNL     1      -2.264   2.659   0.018  1.00  0.00     0.026 A 
HETATM    3  C3  UNL     1      -0.935   2.883   0.041  1.00  0.00     0.134 A 
HETATM    4  C4  UNL     1      -0.102   1.823   0.033  1.00  0.00     0.087 A 
HETATM    5  C5  UNL     1      -0.592   0.570   0.003  1.00  0.00     0.103 A 
HETATM    6  C6  UNL     1      -1.932   0.366  -0.020  1.00  0.00     0.023 A 
HETATM    7  C7  UNL     1      -2.395  -1.083  -0.054  1.00  0.00     0.035 C 
HETATM    8  O1  UNL     1       0.234  -0.520  -0.006  1.00  0.00    -0.307 OA
HETATM    9  C8  UNL     1       1.586  -0.343   0.016  1.00  0.00     0.103 A 
HETATM   10  C9  UNL     1       2.062   0.914   0.047  1.00  0.00     0.067 A 
HETATM   11  C10 UNL     1       1.250   2.004   0.056  1.00  0.00     0.202 A 
HETATM   12  O2  UNL     1       1.796   3.086   0.084  1.00  0.00    -0.286 OA
HETATM   13  O5  UNL     1      -0.455   4.159   0.073  1.00  0.00    -0.190 OA
HETATM   14  C17 UNL     1      -3.244   3.828   0.025  1.00  0.00     0.035 C 
ENDROOT
BRANCH   9  15
HETATM   15  C11 UNL     1       2.390  -1.438   0.005  1.00  0.00     0.025 A 
HETATM   16  C12 UNL     1       1.821  -2.662  -0.029  1.00  0.00     0.004 A 
HETATM   17  C13 UNL     1       2.547  -3.789  -0.044  1.00  0.00     0.030 A 
HETATM   18  C14 UNL     1       3.887  -3.750  -0.025  1.00  0.00     0.156 A 
HETATM   19  C15 UNL     1       4.487  -2.548   0.011  1.00  0.00     0.156 A 
HETATM   20  O4  UNL     1       4.637  -4.884  -0.041  1.00  0.00    -0.188 OA
HETATM   21  C16 UNL     1       3.739  -1.430   0.024  1.00  0.00     0.032 A 
HETATM   22  O3  UNL     1       5.846  -2.481   0.030  1.00  0.00    -0.188 OA
ENDBRANCH   9  15
BRANCH   1  23
HETATM   23  O6  UNL     1      -4.178   1.389  -0.034  1.00  0.00    -0.329 OA
HETATM   24  C18 UNL     1      -4.966   0.228  -0.056  1.00  0.00     0.181 C 
ENDBRANCH   1  23
TORSDOF 2
