REMARK  6 active torsions:
REMARK  status: ('A' for Active; 'I' for Inactive)
REMARK    1  A    between atoms: C1_1  and  O7_27 
REMARK    2  A    between atoms: C2_2  and  C16_22 
REMARK    3  A    between atoms: C7_8  and  C10_13 
REMARK    4  A    between atoms: C16_22  and  C17_23 
REMARK    5  A    between atoms: O7_27  and  C21_28 
REMARK    6  A    between atoms: C22_30  and  C26_37 
ROOT
HETATM    1  C1  UNL     1       0.050   0.561   0.139  1.00  0.00     0.097 A 
HETATM    2  C2  UNL     1       0.231  -0.505   0.961  1.00  0.00     0.030 A 
HETATM    3  C3  UNL     1       1.075  -1.514   0.612  1.00  0.00     0.134 A 
HETATM    4  C4  UNL     1       1.789  -1.465  -0.538  1.00  0.00     0.085 A 
HETATM    5  C5  UNL     1       1.676  -0.394  -1.350  1.00  0.00     0.101 A 
HETATM    6  C6  UNL     1       0.794   0.548  -0.983  1.00  0.00     0.048 A 
HETATM    7  O1  UNL     1       2.337  -0.227  -2.541  1.00  0.00    -0.326 OA
HETATM    8  C7  UNL     1       2.724  -1.408  -3.182  1.00  0.00     0.181 C 
HETATM    9  C8  UNL     1       3.456  -2.279  -2.188  1.00  0.00     0.245 C 
HETATM   10  C9  UNL     1       2.657  -2.454  -0.903  1.00  0.00     0.210 C 
HETATM   11  O2  UNL     1       2.885  -3.460  -0.273  1.00  0.00    -0.288 OA
HETATM   12  O3  UNL     1       3.738  -3.509  -2.834  1.00  0.00    -0.212 OA
HETATM   13  O6  UNL     1       1.183  -2.561   1.488  1.00  0.00    -0.190 OA
ENDROOT
BRANCH   1  14
HETATM   14  O7  UNL     1      -0.752   1.685   0.224  1.00  0.00    -0.304 OA
BRANCH  14  15
HETATM   15  C21 UNL     1      -1.668   1.964   1.250  1.00  0.00     0.274 C 
HETATM   16  O8  UNL     1      -2.026   3.311   0.995  1.00  0.00    -0.326 OA
HETATM   17  C22 UNL     1      -2.886   3.848   1.971  1.00  0.00     0.184 C 
HETATM   18  C23 UNL     1      -4.161   3.014   2.087  1.00  0.00     0.215 C 
HETATM   19  C24 UNL     1      -3.870   1.531   2.207  1.00  0.00     0.220 C 
HETATM   20  O11 UNL     1      -4.928   3.385   3.206  1.00  0.00    -0.218 OA
HETATM   21  C25 UNL     1      -2.907   1.110   1.119  1.00  0.00     0.241 C 
HETATM   22  O10 UNL     1      -5.070   0.802   2.136  1.00  0.00    -0.218 OA
HETATM   23  O9  UNL     1      -3.465   1.310  -0.160  1.00  0.00    -0.215 OA
BRANCH  17  24
HETATM   24  C26 UNL     1      -2.146   4.090   3.284  1.00  0.00     0.214 C 
HETATM   25  O12 UNL     1      -2.719   5.182   3.977  1.00  0.00    -0.218 OA
ENDBRANCH  17  24
ENDBRANCH  14  15
ENDBRANCH   1  14
BRANCH   2  26
HETATM   26  C16 UNL     1      -0.445  -0.708   2.319  1.00  0.00     0.056 C 
BRANCH  26  27
HETATM   27  C17 UNL     1      -1.556  -1.730   2.290  1.00  0.00    -0.030 C 
HETATM   28  C18 UNL     1      -2.445  -1.953   3.275  1.00  0.00    -0.048 C 
HETATM   29  C19 UNL     1      -3.531  -2.993   3.129  1.00  0.00     0.026 C 
HETATM   30  C20 UNL     1      -2.451  -1.224   4.597  1.00  0.00     0.026 C 
ENDBRANCH  26  27
ENDBRANCH   2  26
BRANCH   8  31
HETATM   31  C10 UNL     1       3.656  -1.162  -4.355  1.00  0.00     0.010 A 
HETATM   32  C11 UNL     1       3.523  -1.856  -5.498  1.00  0.00     0.000 A 
HETATM   33  C12 UNL     1       4.391  -1.680  -6.504  1.00  0.00     0.029 A 
HETATM   34  C13 UNL     1       5.415  -0.817  -6.398  1.00  0.00     0.156 A 
HETATM   35  C14 UNL     1       5.561  -0.119  -5.258  1.00  0.00     0.156 A 
HETATM   36  O5  UNL     1       6.308  -0.643  -7.410  1.00  0.00    -0.188 OA
HETATM   37  C15 UNL     1       4.684  -0.302  -4.258  1.00  0.00     0.028 A 
HETATM   38  O4  UNL     1       6.598   0.751  -5.124  1.00  0.00    -0.188 OA
ENDBRANCH   8  31
TORSDOF 6
