REMARK  7 active torsions:
REMARK  status: ('A' for Active; 'I' for Inactive)
REMARK    1  A    between atoms: C1_1  and  C15_18 
REMARK    2  A    between atoms: C5_5  and  C10_12 
REMARK    3  A    between atoms: C7_7  and  O1_8 
REMARK    4  A    between atoms: O1_8  and  C8_9 
REMARK    5  A    between atoms: C10_12  and  C11_13 
REMARK    6  A    between atoms: C11_13  and  C12_14 
REMARK    7  A    between atoms: C15_18  and  C16_19 
ROOT
HETATM    1  C1  UNL     1      -1.421   1.047   0.634  1.00  0.00     0.060 C 
HETATM    2  C2  UNL     1      -2.613   0.194   0.175  1.00  0.00     0.008 C 
HETATM    3  C3  UNL     1      -2.230  -1.129  -0.498  1.00  0.00     0.004 C 
HETATM    4  C4  UNL     1      -1.155  -0.992  -1.591  1.00  0.00     0.018 C 
HETATM    5  C5  UNL     1       0.266  -0.940  -1.029  1.00  0.00    -0.046 C 
HETATM    6  C6  UNL     1       0.587  -0.455   0.186  1.00  0.00    -0.005 C 
HETATM    7  C7  UNL     1      -0.289   0.205   1.237  1.00  0.00     0.150 C 
HETATM    8  C14 UNL     1      -1.373  -2.142  -2.600  1.00  0.00     0.004 C 
ENDROOT
BRANCH   1   9
HETATM    9  C15 UNL     1      -1.935   2.128   1.575  1.00  0.00     0.045 C 
HETATM   10  C17 UNL     1      -2.369   1.825   2.817  1.00  0.00     0.002 C 
BRANCH   9  11
HETATM   11  C16 UNL     1      -1.968   3.547   1.135  1.00  0.00     0.207 C 
HETATM   12  O4  UNL     1      -1.533   3.941  -0.080  1.00  0.00    -0.644 OA
HETATM   13  O5  UNL     1      -2.391   4.432   1.871  1.00  0.00    -0.644 OA
ENDBRANCH   9  11
ENDBRANCH   1   9
BRANCH   7  14
HETATM   14  O1  UNL     1       0.499   1.078   2.024  1.00  0.00    -0.299 OA
BRANCH  14  15
HETATM   15  C8  UNL     1       1.305   0.541   2.979  1.00  0.00     0.273 C 
HETATM   16  C9  UNL     1       2.034   1.643   3.721  1.00  0.00     0.106 C 
HETATM   17  O2  UNL     1       1.420  -0.642   3.209  1.00  0.00    -0.264 OA
ENDBRANCH  14  15
ENDBRANCH   7  14
BRANCH   5  18
HETATM   18  C10 UNL     1       1.355  -1.414  -1.984  1.00  0.00     0.029 C 
BRANCH  18  19
HETATM   19  C11 UNL     1       2.827  -1.269  -1.561  1.00  0.00     0.069 C 
BRANCH  19  20
HETATM   20  C12 UNL     1       3.817  -1.716  -2.629  1.00  0.00     0.151 C 
HETATM   21  C13 UNL     1       5.278  -1.773  -2.219  1.00  0.00     0.072 C 
HETATM   22  O3  UNL     1       3.471  -2.014  -3.749  1.00  0.00    -0.296 OA
ENDBRANCH  19  20
ENDBRANCH  18  19
ENDBRANCH   5  18
TORSDOF 7
