REMARK  2 active torsions:
REMARK  status: ('A' for Active; 'I' for Inactive)
REMARK    1  A    between atoms: C2_2  and  C12_15 
REMARK    2  A    between atoms: C7_8  and  C10_12 
ROOT
HETATM    1  C1  UNL     1      -1.959  -0.612   1.833  1.00  0.00     0.005 A 
HETATM    2  C2  UNL     1      -1.530  -1.807   1.240  1.00  0.00     0.035 A 
HETATM    3  C3  UNL     1      -0.391  -1.774   0.423  1.00  0.00     0.008 A 
HETATM    4  C4  UNL     1       0.293  -0.571   0.212  1.00  0.00     0.057 A 
HETATM    5  C5  UNL     1      -0.106   0.631   0.827  1.00  0.00     0.097 A 
HETATM    6  C6  UNL     1      -1.260   0.578   1.615  1.00  0.00     0.024 A 
HETATM    7  O1  UNL     1       0.507   1.831   0.589  1.00  0.00    -0.333 OA
HETATM    8  C7  UNL     1       1.144   1.962  -0.644  1.00  0.00     0.136 C 
HETATM    9  C8  UNL     1       2.138   0.810  -0.829  1.00  0.00     0.100 C 
HETATM   10  C9  UNL     1       1.493  -0.550  -0.657  1.00  0.00     0.177 C 
HETATM   11  O2  UNL     1       1.950  -1.552  -1.194  1.00  0.00    -0.291 OA
HETATM   12  C11 UNL     1       0.089   1.984  -1.761  1.00  0.00     0.033 C 
ENDROOT
BRANCH   2  13
HETATM   13  C12 UNL     1      -2.293  -3.062   1.480  1.00  0.00     0.173 C 
HETATM   14  C13 UNL     1      -1.810  -4.359   0.856  1.00  0.00     0.077 C 
HETATM   15  O4  UNL     1      -3.304  -3.069   2.173  1.00  0.00    -0.291 OA
ENDBRANCH   2  13
BRANCH   8  16
HETATM   16  C10 UNL     1       1.881   3.302  -0.611  1.00  0.00     0.210 C 
HETATM   17  O3  UNL     1       2.568   3.522  -1.826  1.00  0.00    -0.218 OA
ENDBRANCH   8  16
TORSDOF 2
