REMARK  6 active torsions:
REMARK  status: ('A' for Active; 'I' for Inactive)
REMARK    1  A    between atoms: C4_4  and  C21_27 
REMARK    2  A    between atoms: C10_10  and  O1_11 
REMARK    3  A    between atoms: O1_11  and  C11_12 
REMARK    4  A    between atoms: C15_18  and  C17_20 
REMARK    5  A    between atoms: C21_27  and  O7_28 
REMARK    6  A    between atoms: O7_28  and  C22_29 
ROOT
HETATM    1  C1  UNL     1      -2.473   0.244   0.590  1.00  0.00     0.005 C 
HETATM    2  C2  UNL     1      -2.550  -1.050  -0.214  1.00  0.00     0.030 C 
HETATM    3  C3  UNL     1      -1.268  -1.888  -0.184  1.00  0.00     0.127 A 
HETATM    4  C4  UNL     1       0.113  -1.129  -0.405  1.00  0.00     0.105 C 
HETATM    5  C5  UNL     1       0.079   0.220   0.405  1.00  0.00     0.142 C 
HETATM    6  C6  UNL     1      -1.221   1.012   0.153  1.00  0.00     0.031 C 
HETATM    7  C7  UNL     1       1.325   1.168   0.332  1.00  0.00     0.107 C 
HETATM    8  C8  UNL     1       2.686   0.432   0.186  1.00  0.00     0.014 C 
HETATM    9  C9  UNL     1       2.604  -1.055   0.544  1.00  0.00     0.031 C 
HETATM   10  C10 UNL     1       1.394  -1.889   0.076  1.00  0.00     0.131 C 
HETATM   11  C13 UNL     1       3.599   0.671  -1.032  1.00  0.00     0.001 C 
HETATM   12  C14 UNL     1       1.214   2.312  -0.682  1.00  0.00     0.274 C 
HETATM   13  O3  UNL     1       1.732   3.462  -0.174  1.00  0.00    -0.300 OA
HETATM   14  C15 UNL     1       2.051   3.349   1.186  1.00  0.00     0.149 C 
HETATM   15  C16 UNL     1       1.394   2.046   1.619  1.00  0.00     0.047 C 
HETATM   16  O5  UNL     1       0.756   2.244  -1.801  1.00  0.00    -0.264 OA
HETATM   17  O6  UNL     1       0.006  -0.203   1.750  1.00  0.00    -0.225 OA
HETATM   18  O9  UNL     1      -1.506  -3.086  -1.247  1.00  0.00    -0.354 OA
HETATM   19  C24 UNL     1      -1.424  -3.293   0.134  1.00  0.00     0.169 A 
ENDROOT
BRANCH   4  20
HETATM   20  C21 UNL     1       0.128  -0.938  -1.953  1.00  0.00     0.159 C 
BRANCH  20  21
HETATM   21  O7  UNL     1       1.275  -0.348  -2.487  1.00  0.00    -0.301 OA
BRANCH  21  22
HETATM   22  C22 UNL     1       1.193   0.004  -3.808  1.00  0.00     0.272 C 
HETATM   23  C23 UNL     1       2.464   0.669  -4.295  1.00  0.00     0.106 C 
HETATM   24  O8  UNL     1       0.233  -0.194  -4.519  1.00  0.00    -0.264 OA
ENDBRANCH  21  22
ENDBRANCH  20  21
ENDBRANCH   4  20
BRANCH  14  25
HETATM   25  C17 UNL     1       3.531   3.401   1.449  1.00  0.00     0.032 A 
HETATM   26  C18 UNL     1       4.137   3.231   2.659  1.00  0.00     0.121 A 
HETATM   27  O4  UNL     1       5.491   3.338   2.550  1.00  0.00    -0.303 OA
HETATM   28  C19 UNL     1       5.747   3.589   1.235  1.00  0.00     0.122 A 
HETATM   29  C20 UNL     1       4.592   3.644   0.516  1.00  0.00     0.027 A 
ENDBRANCH  14  25
BRANCH  10  30
HETATM   30  O1  UNL     1       1.093  -2.723   1.165  1.00  0.00    -0.304 OA
BRANCH  30  31
HETATM   31  C11 UNL     1       1.926  -3.764   1.440  1.00  0.00     0.272 C 
HETATM   32  C12 UNL     1       1.448  -4.496   2.679  1.00  0.00     0.106 C 
HETATM   33  O2  UNL     1       2.908  -4.065   0.801  1.00  0.00    -0.264 OA
ENDBRANCH  30  31
ENDBRANCH  10  30
TORSDOF 6
