REMARK  4 active torsions:
REMARK  status: ('A' for Active; 'I' for Inactive)
REMARK    1  A    between atoms: C2_2  and  O5_29 
REMARK    2  A    between atoms: C3_3  and  O4_27 
REMARK    3  A    between atoms: C9_10  and  C10_11 
REMARK    4  A    between atoms: C10_11  and  C11_12 
ROOT
HETATM    1  C1  UNL     1      -1.095   0.969   0.269  1.00  0.00     0.026 A 
HETATM    2  C2  UNL     1      -1.197  -0.402  -0.011  1.00  0.00     0.116 A 
HETATM    3  C3  UNL     1       0.004  -1.146  -0.049  1.00  0.00     0.114 A 
HETATM    4  C4  UNL     1       1.233  -0.467   0.103  1.00  0.00     0.023 A 
HETATM    5  C5  UNL     1       1.314   0.898   0.409  1.00  0.00     0.001 A 
HETATM    6  C6  UNL     1       0.115   1.615   0.491  1.00  0.00     0.002 A 
HETATM    7  C7  UNL     1       2.639   1.544   0.514  1.00  0.00     0.015 A 
HETATM    8  C8  UNL     1       3.752   0.950  -0.081  1.00  0.00     0.056 A 
HETATM    9  N1  UNL     1       3.566  -0.351  -0.644  1.00  0.00    -0.344 N 
HETATM   10  C9  UNL     1       2.553  -1.197   0.024  1.00  0.00     0.113 C 
HETATM   11  C13 UNL     1       4.195  -0.671  -1.942  1.00  0.00     0.126 C 
HETATM   12  C14 UNL     1       5.005   1.664  -0.116  1.00  0.00     0.018 A 
HETATM   13  C15 UNL     1       5.076   2.979   0.405  1.00  0.00     0.004 A 
HETATM   14  C16 UNL     1       3.926   3.552   1.020  1.00  0.00     0.000 A 
HETATM   15  C17 UNL     1       2.757   2.839   1.098  1.00  0.00     0.001 A 
HETATM   16  C18 UNL     1       6.288   3.741   0.396  1.00  0.00     0.026 A 
HETATM   17  C19 UNL     1       7.419   3.128  -0.075  1.00  0.00     0.119 A 
HETATM   18  C20 UNL     1       7.392   1.788  -0.511  1.00  0.00     0.119 A 
HETATM   19  C21 UNL     1       6.237   1.048  -0.521  1.00  0.00     0.028 A 
HETATM   20  O2  UNL     1       8.678   1.407  -0.846  1.00  0.00    -0.300 OA
HETATM   21  C22 UNL     1       9.539   2.534  -0.635  1.00  0.00     0.304 A 
HETATM   22  O3  UNL     1       8.713   3.601  -0.151  1.00  0.00    -0.300 OA
ENDROOT
BRANCH  10  23
HETATM   23  C10 UNL     1       3.018  -1.597   1.441  1.00  0.00     0.091 C 
BRANCH  23  24
HETATM   24  C11 UNL     1       3.940  -2.806   1.492  1.00  0.00     0.153 C 
HETATM   25  C12 UNL     1       5.329  -2.687   0.899  1.00  0.00     0.072 C 
HETATM   26  O1  UNL     1       3.580  -3.837   2.015  1.00  0.00    -0.296 OA
ENDBRANCH  23  24
ENDBRANCH  10  23
BRANCH   3  27
HETATM   27  O4  UNL     1       0.002  -2.468  -0.417  1.00  0.00    -0.326 OA
HETATM   28  C23 UNL     1      -0.107  -3.381   0.652  1.00  0.00     0.181 C 
ENDBRANCH   3  27
BRANCH   2  29
HETATM   29  O5  UNL     1      -2.467  -0.864  -0.276  1.00  0.00    -0.326 OA
HETATM   30  C24 UNL     1      -2.672  -1.957  -1.139  1.00  0.00     0.181 C 
ENDBRANCH   2  29
TORSDOF 4
