REMARK  1 active torsions:
REMARK  status: ('A' for Active; 'I' for Inactive)
REMARK    1  A    between atoms: C1_1  and  C12_14 
ROOT
HETATM    1  C1  UNL     1      -1.531  -1.625   0.943  1.00  0.00     0.035 A 
HETATM    2  C2  UNL     1      -1.952  -0.414   1.489  1.00  0.00     0.005 A 
HETATM    3  C3  UNL     1      -1.226   0.752   1.227  1.00  0.00     0.024 A 
HETATM    4  C4  UNL     1      -0.072   0.752   0.433  1.00  0.00     0.097 A 
HETATM    5  C5  UNL     1       0.307  -0.481  -0.129  1.00  0.00     0.057 A 
HETATM    6  C6  UNL     1      -0.403  -1.664   0.127  1.00  0.00     0.008 A 
HETATM    7  C7  UNL     1       1.540  -0.526  -0.947  1.00  0.00     0.177 C 
HETATM    8  C8  UNL     1       2.333   0.768  -0.920  1.00  0.00     0.097 C 
HETATM    9  C9  UNL     1       1.397   1.983  -0.955  1.00  0.00     0.106 C 
HETATM   10  O1  UNL     1       0.578   1.931   0.178  1.00  0.00    -0.335 OA
HETATM   11  C10 UNL     1       2.221   3.284  -0.849  1.00  0.00     0.031 C 
HETATM   12  C11 UNL     1       0.522   1.964  -2.225  1.00  0.00     0.031 C 
HETATM   13  O2  UNL     1       1.915  -1.513  -1.567  1.00  0.00    -0.291 OA
ENDROOT
BRANCH   1  14
HETATM   14  C12 UNL     1      -2.294  -2.901   1.240  1.00  0.00     0.173 C 
HETATM   15  C13 UNL     1      -1.651  -3.846   2.238  1.00  0.00     0.077 C 
HETATM   16  O3  UNL     1      -3.379  -3.132   0.738  1.00  0.00    -0.291 OA
ENDBRANCH   1  14
TORSDOF 1
