REMARK  5 active torsions:
REMARK  status: ('A' for Active; 'I' for Inactive)
REMARK    1  A    between atoms: C3_3  and  C10_12 
REMARK    2  A    between atoms: C4_5  and  C5_6 
REMARK    3  A    between atoms: C5_6  and  C6_7 
REMARK    4  A    between atoms: C6_7  and  C7_8 
REMARK    5  A    between atoms: C7_8  and  C8_9 
ROOT
HETATM    1  C1  UNL     1       1.208  -1.173   0.131  1.00  0.00     0.221 C 
HETATM    2  C2  UNL     1       2.716  -1.084   0.238  1.00  0.00     0.221 C 
HETATM    3  C3  UNL     1       2.879   0.248   0.954  1.00  0.00     0.322 C 
HETATM    4  N1  UNL     1       1.882   1.109   0.319  1.00  0.00     0.346 N 
HETATM    5  C4  UNL     1       0.825   0.260  -0.248  1.00  0.00     0.319 C 
HETATM    6  O3  UNL     1       3.248  -2.138   0.997  1.00  0.00    -0.218 OA
HETATM    7  O4  UNL     1       0.848  -2.115  -0.846  1.00  0.00    -0.218 OA
ENDROOT
BRANCH   5   8
HETATM    8  C5  UNL     1      -0.560   0.699   0.231  1.00  0.00     0.189 C 
HETATM    9  O1  UNL     1      -0.630   2.105   0.177  1.00  0.00    -0.221 OA
BRANCH   8  10
HETATM   10  C6  UNL     1      -1.687   0.091  -0.607  1.00  0.00     0.035 C 
BRANCH  10  11
HETATM   11  C7  UNL     1      -3.093   0.534  -0.170  1.00  0.00     0.003 C 
BRANCH  11  12
HETATM   12  C8  UNL     1      -4.190  -0.116  -1.029  1.00  0.00     0.000 C 
HETATM   13  C9  UNL     1      -5.594   0.351  -0.619  1.00  0.00     0.000 C 
ENDBRANCH  11  12
ENDBRANCH  10  11
ENDBRANCH   8  10
ENDBRANCH   5   8
BRANCH   3  14
HETATM   14  C10 UNL     1       4.288   0.813   0.849  1.00  0.00     0.221 C 
HETATM   15  O2  UNL     1       5.203  -0.185   1.254  1.00  0.00    -0.218 OA
ENDBRANCH   3  14
TORSDOF 5
