REMARK  8 active torsions:
REMARK  status: ('A' for Active; 'I' for Inactive)
REMARK    1  A    between atoms: C3_3  and  O7_28 
REMARK    2  A    between atoms: C4_4  and  O5_24 
REMARK    3  A    between atoms: C13_14  and  C14_15 
REMARK    4  A    between atoms: O5_24  and  C20_25 
REMARK    5  A    between atoms: O7_28  and  C22_29 
REMARK    6  A    between atoms: C25_34  and  C27_36 
REMARK    7  A    between atoms: C28_37  and  C29_38 
REMARK    8  A    between atoms: C29_38  and  O10_39 
ROOT
HETATM    1  C1  UNL     1      -0.381  -0.273   0.466  1.00  0.00     0.034 A 
HETATM    2  C2  UNL     1      -0.240  -1.791   0.445  1.00  0.00     0.058 C 
HETATM    3  C3  UNL     1       1.080  -2.383   0.968  1.00  0.00     0.154 C 
HETATM    4  C4  UNL     1       2.276  -1.421   0.926  1.00  0.00     0.154 C 
HETATM    5  C5  UNL     1       1.949  -0.012   1.512  1.00  0.00     0.054 C 
HETATM    6  C6  UNL     1       0.879   0.574   0.545  1.00  0.00     0.007 C 
HETATM    7  C7  UNL     1       0.782   2.091   0.740  1.00  0.00     0.000 C 
HETATM    8  C8  UNL     1       2.059   2.785   0.229  1.00  0.00     0.005 C 
HETATM    9  C9  UNL     1       3.380   1.998   0.456  1.00  0.00     0.055 C 
HETATM   10  C10 UNL     1       3.174   0.950   1.558  1.00  0.00     0.132 A 
HETATM   11  C11 UNL     1       4.246   0.668   2.470  1.00  0.00     0.226 A 
HETATM   12  C12 UNL     1       5.559   1.177   2.054  1.00  0.00     0.302 C 
HETATM   13  O1  UNL     1       5.627   2.336   1.343  1.00  0.00    -0.298 OA
HETATM   14  C13 UNL     1       4.481   3.001   0.876  1.00  0.00     0.151 C 
HETATM   15  O3  UNL     1       6.556   0.564   2.377  1.00  0.00    -0.261 OA
HETATM   16  O4  UNL     1       3.393   1.656   2.988  1.00  0.00    -0.346 OA
HETATM   17  C18 UNL     1       3.857   1.330  -0.859  1.00  0.00     0.005 C 
HETATM   18  C19 UNL     1       1.294  -0.155   2.913  1.00  0.00     0.005 C 
HETATM   19  C24 UNL     1      -0.836  -2.147  -0.930  1.00  0.00     0.096 C 
HETATM   20  O9  UNL     1      -1.738  -1.107  -1.227  1.00  0.00    -0.360 OA
HETATM   21  C25 UNL     1      -1.421   0.097  -0.559  1.00  0.00     0.111 A 
HETATM   22  C26 UNL     1      -1.736   0.198   0.918  1.00  0.00     0.034 A 
HETATM   23  C31 UNL     1      -1.652  -3.449  -0.900  1.00  0.00     0.030 C 
HETATM   24  C32 UNL     1       0.212  -2.251  -2.044  1.00  0.00     0.030 C 
ENDROOT
BRANCH  21  25
HETATM   25  C27 UNL     1      -1.741   1.344  -1.285  1.00  0.00     0.006 C 
HETATM   26  C28 UNL     1      -1.293   1.779  -2.477  1.00  0.00     0.066 C 
BRANCH  26  27
HETATM   27  C29 UNL     1      -0.260   1.143  -3.335  1.00  0.00     0.296 C 
HETATM   28  O11 UNL     1       0.702   0.617  -2.790  1.00  0.00    -0.259 OA
BRANCH  27  29
HETATM   29  O10 UNL     1      -0.274   1.336  -4.686  1.00  0.00    -0.296 OA
HETATM   30  C30 UNL     1       0.897   1.007  -5.394  1.00  0.00     0.185 C 
ENDBRANCH  27  29
ENDBRANCH  26  27
ENDBRANCH  21  25
BRANCH   3  31
HETATM   31  O7  UNL     1       1.399  -3.567   0.294  1.00  0.00    -0.302 OA
BRANCH  31  32
HETATM   32  C22 UNL     1       1.647  -4.770   0.891  1.00  0.00     0.272 C 
HETATM   33  O8  UNL     1       1.982  -5.742   0.247  1.00  0.00    -0.264 OA
HETATM   34  C23 UNL     1       1.456  -4.868   2.395  1.00  0.00     0.106 C 
ENDBRANCH  31  32
ENDBRANCH   3  31
BRANCH   4  35
HETATM   35  O5  UNL     1       3.313  -2.041   1.636  1.00  0.00    -0.302 OA
BRANCH  35  36
HETATM   36  C20 UNL     1       4.542  -2.159   1.064  1.00  0.00     0.272 C 
HETATM   37  C21 UNL     1       5.461  -2.958   1.965  1.00  0.00     0.106 C 
HETATM   38  O6  UNL     1       4.859  -1.697  -0.008  1.00  0.00    -0.264 OA
ENDBRANCH  35  36
ENDBRANCH   4  35
BRANCH  14  39
HETATM   39  C14 UNL     1       4.879   3.981  -0.200  1.00  0.00     0.032 A 
HETATM   40  C15 UNL     1       4.307   5.188  -0.473  1.00  0.00     0.121 A 
HETATM   41  O2  UNL     1       4.940   5.810  -1.508  1.00  0.00    -0.303 OA
HETATM   42  C16 UNL     1       5.948   4.978  -1.893  1.00  0.00     0.122 A 
HETATM   43  C17 UNL     1       5.963   3.850  -1.131  1.00  0.00     0.027 A 
ENDBRANCH  14  39
TORSDOF 8
