REMARK  2 active torsions:
REMARK  status: ('A' for Active; 'I' for Inactive)
REMARK    1  A    between atoms: C4_4  and  O1_7 
REMARK    2  A    between atoms: O1_7  and  C7_8 
ROOT
HETATM    1  C7  UNL     1       3.437  -0.422   0.596  1.00  0.00     0.207 C 
HETATM    2  O2  UNL     1       2.763  -1.527   0.155  1.00  0.00    -0.285 OA
HETATM    3  C8  UNL     1       1.398  -1.508   0.220  1.00  0.00     0.110 A 
HETATM    4  C9  UNL     1       0.638  -0.333   0.364  1.00  0.00     0.089 A 
HETATM    5  C10 UNL     1       1.388   0.937   0.532  1.00  0.00     0.204 C 
HETATM    6  C11 UNL     1       2.841   0.775   0.769  1.00  0.00     0.093 C 
HETATM    7  O3  UNL     1       0.865   2.046   0.573  1.00  0.00    -0.286 OA
HETATM    8  C12 UNL     1      -0.767  -0.357   0.392  1.00  0.00     0.163 A 
HETATM    9  C13 UNL     1      -1.423  -1.589   0.285  1.00  0.00     0.182 A 
HETATM   10  C14 UNL     1      -0.700  -2.775   0.149  1.00  0.00     0.160 A 
HETATM   11  C15 UNL     1       0.695  -2.711   0.110  1.00  0.00     0.054 A 
HETATM   12  O4  UNL     1      -1.367  -3.954   0.055  1.00  0.00    -0.188 OA
HETATM   13  O5  UNL     1      -2.781  -1.631   0.321  1.00  0.00    -0.186 OA
HETATM   14  O6  UNL     1      -1.542   0.753   0.528  1.00  0.00    -0.188 OA
ENDROOT
BRANCH   1  15
HETATM   15  O1  UNL     1       4.769  -0.632   0.842  1.00  0.00    -0.285 OA
BRANCH  15  16
HETATM   16  C4  UNL     1       5.642   0.254   0.274  1.00  0.00     0.102 A 
HETATM   17  C3  UNL     1       6.663   0.834   1.037  1.00  0.00     0.027 A 
HETATM   18  C2  UNL     1       7.584   1.724   0.482  1.00  0.00     0.029 A 
HETATM   19  C1  UNL     1       7.525   2.076  -0.869  1.00  0.00     0.131 A 
HETATM   20  C6  UNL     1       6.511   1.499  -1.638  1.00  0.00     0.029 A 
HETATM   21  O7  UNL     1       8.419   2.938  -1.421  1.00  0.00    -0.190 OA
HETATM   22  C5  UNL     1       5.597   0.602  -1.082  1.00  0.00     0.027 A 
ENDBRANCH  15  16
ENDBRANCH   1  15
TORSDOF 2
