REMARK  1 active torsions:
REMARK  status: ('A' for Active; 'I' for Inactive)
REMARK    1  A    between atoms: C7_7  and  C18_18 
ROOT
HETATM    1  C1  UNL     1      -1.366   1.201  -0.788  1.00  0.00     0.000 C 
HETATM    2  C2  UNL     1       0.007   1.639  -0.275  1.00  0.00     0.004 C 
HETATM    3  C3  UNL     1       0.615   0.604   0.703  1.00  0.00     0.023 C 
HETATM    4  C4  UNL     1       2.141   0.642   0.672  1.00  0.00    -0.021 A 
HETATM    5  C5  UNL     1       2.853   1.836   0.496  1.00  0.00     0.023 A 
HETATM    6  C6  UNL     1       4.250   1.905   0.491  1.00  0.00     0.127 A 
HETATM    7  C7  UNL     1       4.987   0.726   0.695  1.00  0.00     0.003 A 
HETATM    8  C8  UNL     1       4.291  -0.462   0.927  1.00  0.00    -0.003 A 
HETATM    9  C9  UNL     1       2.891  -0.512   0.928  1.00  0.00    -0.004 A 
HETATM   10  C10 UNL     1       2.208  -1.763   1.263  1.00  0.00    -0.005 C 
HETATM   11  C11 UNL     1       0.889  -1.891   1.045  1.00  0.00    -0.026 C 
HETATM   12  C12 UNL     1       0.060  -0.815   0.390  1.00  0.00     0.026 C 
HETATM   13  C13 UNL     1      -0.216  -1.100  -1.112  1.00  0.00     0.004 C 
HETATM   14  C14 UNL     1      -1.287  -0.089  -1.633  1.00  0.00     0.000 C 
HETATM   15  C15 UNL     1      -2.724  -0.637  -1.759  1.00  0.00     0.000 C 
HETATM   16  C16 UNL     1      -0.683  -2.566  -1.300  1.00  0.00     0.000 C 
HETATM   17  C17 UNL     1       1.084  -0.994  -1.949  1.00  0.00     0.000 C 
HETATM   18  O1  UNL     1       4.855   3.108   0.301  1.00  0.00    -0.191 OA
HETATM   19  C21 UNL     1       0.216   0.988   2.149  1.00  0.00     0.005 C 
ENDROOT
BRANCH   7  20
HETATM   20  C18 UNL     1       6.507   0.732   0.675  1.00  0.00     0.024 C 
HETATM   21  C19 UNL     1       7.102   0.212   1.994  1.00  0.00     0.005 C 
HETATM   22  C20 UNL     1       7.028  -0.071  -0.527  1.00  0.00     0.005 C 
ENDBRANCH   7  20
TORSDOF 1
