REMARK  1 active torsions:
REMARK  status: ('A' for Active; 'I' for Inactive)
REMARK    1  A    between atoms: C13_16  and  O3_19 
ROOT
HETATM    1  C1  UNL     1      -0.199  -1.520   0.674  1.00  0.00     0.119 A 
HETATM    2  C2  UNL     1      -0.951  -0.520   0.071  1.00  0.00     0.119 A 
HETATM    3  C3  UNL     1      -0.348   0.634  -0.417  1.00  0.00     0.026 A 
HETATM    4  C4  UNL     1       1.043   0.760  -0.284  1.00  0.00     0.039 A 
HETATM    5  C5  UNL     1       1.812  -0.259   0.312  1.00  0.00    -0.012 A 
HETATM    6  C6  UNL     1       1.180  -1.407   0.817  1.00  0.00     0.022 A 
HETATM    7  C7  UNL     1       3.302   0.003   0.484  1.00  0.00     0.097 C 
HETATM    8  C8  UNL     1       3.744   0.791  -0.763  1.00  0.00     0.235 C 
HETATM    9  N1  UNL     1       3.127   2.088  -0.531  1.00  0.00     0.171 N 
HETATM   10  C9  UNL     1       1.699   2.019  -0.814  1.00  0.00     0.390 C 
HETATM   11  O1  UNL     1       1.524   2.095  -2.227  1.00  0.00    -0.182 OA
HETATM   12  C10 UNL     1       3.398   2.388   0.870  1.00  0.00     0.287 C 
HETATM   13  C11 UNL     1       3.425   1.046   1.606  1.00  0.00     0.195 C 
HETATM   14  O2  UNL     1       4.637   0.899   2.307  1.00  0.00    -0.221 OA
HETATM   15  C12 UNL     1       5.273   0.858  -0.897  1.00  0.00     0.068 C 
HETATM   16  C13 UNL     1       5.859  -0.550  -1.044  1.00  0.00     0.139 C 
HETATM   17  C14 UNL     1       5.305  -1.452   0.035  1.00  0.00    -0.001 C 
HETATM   18  C15 UNL     1       4.165  -1.213   0.701  1.00  0.00    -0.020 C 
HETATM   19  O4  UNL     1      -2.284  -0.882   0.081  1.00  0.00    -0.300 OA
HETATM   20  C17 UNL     1      -2.379  -2.163   0.719  1.00  0.00     0.304 A 
HETATM   21  O5  UNL     1      -1.044  -2.534   1.084  1.00  0.00    -0.300 OA
ENDROOT
BRANCH  16  22
HETATM   22  O3  UNL     1       7.266  -0.420  -1.005  1.00  0.00    -0.350 OA
HETATM   23  C16 UNL     1       7.968  -1.586  -1.378  1.00  0.00     0.175 C 
ENDBRANCH  16  22
TORSDOF 1
