REMARK  1 active torsions:
REMARK  status: ('A' for Active; 'I' for Inactive)
REMARK    1  A    between atoms: C13_14  and  O2_15 
ROOT
HETATM    1  C1  UNL     1      -2.346  -0.118  -0.027  1.00  0.00     0.028 A 
HETATM    2  C2  UNL     1      -2.216  -1.509  -0.055  1.00  0.00     0.133 A 
HETATM    3  C3  UNL     1      -0.921  -2.037  -0.060  1.00  0.00     0.052 A 
HETATM    4  C4  UNL     1       0.233  -1.244  -0.040  1.00  0.00     0.105 A 
HETATM    5  C5  UNL     1       0.066   0.142  -0.007  1.00  0.00     0.062 A 
HETATM    6  C6  UNL     1      -1.220   0.703  -0.003  1.00  0.00     0.007 A 
HETATM    7  C7  UNL     1       1.267   1.014   0.023  1.00  0.00     0.201 A 
HETATM    8  C8  UNL     1       2.612   0.364   0.011  1.00  0.00     0.086 A 
HETATM    9  C9  UNL     1       2.581  -1.060  -0.031  1.00  0.00     0.107 A 
HETATM   10  O1  UNL     1       1.454  -1.835  -0.048  1.00  0.00    -0.307 OA
HETATM   11  C10 UNL     1       3.776  -1.792  -0.061  1.00  0.00     0.051 A 
HETATM   12  C11 UNL     1       4.981  -1.112  -0.040  1.00  0.00     0.123 A 
HETATM   13  C12 UNL     1       4.992   0.271   0.025  1.00  0.00     0.141 A 
HETATM   14  C13 UNL     1       3.849   1.081   0.044  1.00  0.00     0.123 A 
HETATM   15  O3  UNL     1       6.318   0.682   0.054  1.00  0.00    -0.298 OA
HETATM   16  C15 UNL     1       7.152  -0.480  -0.004  1.00  0.00     0.304 A 
HETATM   17  O4  UNL     1       6.268  -1.604  -0.060  1.00  0.00    -0.299 OA
HETATM   18  O5  UNL     1       1.056   2.220   0.053  1.00  0.00    -0.286 OA
HETATM   19  O6  UNL     1      -3.302  -2.325  -0.074  1.00  0.00    -0.190 OA
ENDROOT
BRANCH  14  20
HETATM   20  O2  UNL     1       4.184   2.416   0.086  1.00  0.00    -0.326 OA
HETATM   21  C14 UNL     1       3.286   3.489   0.082  1.00  0.00     0.181 C 
ENDBRANCH  14  20
TORSDOF 1
