REMARK  0 active torsions:
REMARK  status: ('A' for Active; 'I' for Inactive)
ROOT
HETATM    1  C1  UNL     1       2.264  -2.173   0.075  1.00  0.00     0.131 A 
HETATM    2  C2  UNL     1       1.153  -2.529  -0.695  1.00  0.00     0.025 A 
HETATM    3  C3  UNL     1       0.099  -1.645  -0.947  1.00  0.00     0.003 A 
HETATM    4  C4  UNL     1       0.134  -0.335  -0.435  1.00  0.00     0.090 A 
HETATM    5  C5  UNL     1       1.219  -0.000   0.392  1.00  0.00     0.024 A 
HETATM    6  C6  UNL     1       2.275  -0.892   0.622  1.00  0.00     0.029 A 
HETATM    7  C7  UNL     1       1.266   1.354   0.943  1.00  0.00    -0.000 C 
HETATM    8  C8  UNL     1       0.167   2.118   0.831  1.00  0.00     0.001 C 
HETATM    9  C9  UNL     1      -1.112   1.581   0.232  1.00  0.00     0.117 C 
HETATM   10  O1  UNL     1      -0.890   0.539  -0.684  1.00  0.00    -0.332 OA
HETATM   11  C10 UNL     1      -1.833   2.701  -0.528  1.00  0.00     0.035 C 
HETATM   12  C11 UNL     1      -2.008   1.058   1.361  1.00  0.00     0.035 C 
HETATM   13  C12 UNL     1      -1.052  -2.132  -1.798  1.00  0.00     0.033 C 
HETATM   14  O2  UNL     1       3.292  -3.036   0.291  1.00  0.00    -0.190 OA
ENDROOT
TORSDOF 0
