REMARK  7 active torsions:
REMARK  status: ('A' for Active; 'I' for Inactive)
REMARK    1  A    between atoms: C4_4  and  C16_22 
REMARK    2  A    between atoms: C5_6  and  O2_7 
REMARK    3  A    between atoms: O2_7  and  C6_8 
REMARK    4  A    between atoms: C8_11  and  C15_19 
REMARK    5  A    between atoms: C16_22  and  O7_23 
REMARK    6  A    between atoms: O7_23  and  C17_24 
REMARK    7  A    between atoms: C19_27  and  C21_30 
ROOT
HETATM    1  C1  UNL     1       2.932  -1.332  -0.463  1.00  0.00     0.241 C 
HETATM    2  C2  UNL     1       1.879  -2.201  -1.124  1.00  0.00     0.220 C 
HETATM    3  C3  UNL     1       1.105  -2.950  -0.064  1.00  0.00     0.215 C 
HETATM    4  C4  UNL     1       0.619  -2.054   1.067  1.00  0.00     0.180 C 
HETATM    5  O1  UNL     1       1.660  -1.288   1.623  1.00  0.00    -0.326 OA
HETATM    6  C5  UNL     1       2.449  -0.520   0.731  1.00  0.00     0.272 C 
HETATM    7  O12 UNL     1       1.933  -3.958   0.473  1.00  0.00    -0.218 OA
HETATM    8  O13 UNL     1       1.014  -1.420  -1.906  1.00  0.00    -0.218 OA
HETATM    9  O14 UNL     1       3.937  -2.203   0.017  1.00  0.00    -0.215 OA
ENDROOT
BRANCH   6  10
HETATM   10  O2  UNL     1       1.759   0.705   0.537  1.00  0.00    -0.304 OA
BRANCH  10  11
HETATM   11  C6  UNL     1       2.057   1.436  -0.627  1.00  0.00     0.244 C 
HETATM   12  O3  UNL     1       3.456   1.619  -0.704  1.00  0.00    -0.304 OA
HETATM   13  C7  UNL     1       4.028   2.800  -0.315  1.00  0.00     0.121 C 
HETATM   14  C8  UNL     1       3.370   3.875   0.157  1.00  0.00     0.066 C 
HETATM   15  C9  UNL     1       1.875   3.804   0.293  1.00  0.00     0.038 C 
HETATM   16  C10 UNL     1       1.338   2.766  -0.690  1.00  0.00     0.089 C 
HETATM   17  C13 UNL     1       1.001   5.021  -0.071  1.00  0.00     0.007 C 
HETATM   18  C11 UNL     1      -0.176   2.915  -0.516  1.00  0.00     0.132 C 
HETATM   19  C12 UNL     1      -0.314   4.442  -0.652  1.00  0.00     0.031 C 
HETATM   20  O4  UNL     1      -0.829   2.245  -1.558  1.00  0.00    -0.226 OA
HETATM   21  C14 UNL     1      -0.793   2.481   0.814  1.00  0.00     0.033 C 
BRANCH  14  22
HETATM   22  C15 UNL     1       4.067   4.979   0.540  1.00  0.00     0.209 C 
HETATM   23  O5  UNL     1       5.411   5.088   0.448  1.00  0.00    -0.644 OA
HETATM   24  O6  UNL     1       3.493   5.939   1.000  1.00  0.00    -0.644 OA
ENDBRANCH  14  22
ENDBRANCH  10  11
ENDBRANCH   6  10
BRANCH   4  25
HETATM   25  C16 UNL     1      -0.630  -1.229   0.758  1.00  0.00     0.177 C 
BRANCH  25  26
HETATM   26  O7  UNL     1      -1.664  -2.033   0.247  1.00  0.00    -0.326 OA
BRANCH  26  27
HETATM   27  C17 UNL     1      -2.518  -2.579   1.228  1.00  0.00     0.270 C 
HETATM   28  O8  UNL     1      -3.449  -1.563   1.546  1.00  0.00    -0.326 OA
HETATM   29  C18 UNL     1      -4.747  -2.048   1.306  1.00  0.00     0.181 C 
HETATM   30  C19 UNL     1      -4.638  -3.136   0.252  1.00  0.00     0.217 C 
HETATM   31  C20 UNL     1      -3.292  -3.729   0.623  1.00  0.00     0.241 C 
HETATM   32  O11 UNL     1      -5.633  -4.104   0.452  1.00  0.00    -0.218 OA
HETATM   33  O9  UNL     1      -2.647  -4.264  -0.504  1.00  0.00    -0.215 OA
BRANCH  30  34
HETATM   34  C21 UNL     1      -4.778  -2.624  -1.174  1.00  0.00     0.218 C 
HETATM   35  O10 UNL     1      -3.795  -1.654  -1.467  1.00  0.00    -0.218 OA
ENDBRANCH  30  34
ENDBRANCH  26  27
ENDBRANCH  25  26
ENDBRANCH   4  25
TORSDOF 7
