REMARK  5 active torsions:
REMARK  status: ('A' for Active; 'I' for Inactive)
REMARK    1  A    between atoms: C3_3  and  C7_8 
REMARK    2  A    between atoms: C8_9  and  C9_10 
REMARK    3  A    between atoms: C9_10  and  O3_12 
REMARK    4  A    between atoms: O3_12  and  C10_13 
REMARK    5  A    between atoms: C13_16  and  O7_25 
ROOT
HETATM    1  C10 UNL     1      -0.006   1.703  -0.803  1.00  0.00     0.128 C 
HETATM    2  C11 UNL     1       0.812   1.415   0.462  1.00  0.00     0.040 C 
HETATM    3  C12 UNL     1       2.131   2.194   0.511  1.00  0.00     0.064 C 
HETATM    4  C13 UNL     1       3.085   1.478   1.447  1.00  0.00     0.237 C 
HETATM    5  O4  UNL     1       3.434   0.244   0.868  1.00  0.00    -0.306 OA
HETATM    6  C14 UNL     1       2.358  -0.667   0.872  1.00  0.00     0.240 C 
HETATM    7  C15 UNL     1       1.032  -0.103   0.397  1.00  0.00     0.090 C 
HETATM    8  C16 UNL     1       0.945  -0.496  -1.079  1.00  0.00     0.161 C 
HETATM    9  C17 UNL     1       0.636   0.787  -1.853  1.00  0.00     0.063 C 
HETATM   10  O5  UNL     1      -0.090  -1.426  -1.287  1.00  0.00    -0.223 OA
HETATM   11  C18 UNL     1       2.288  -1.153  -1.338  1.00  0.00     0.175 C 
HETATM   12  O6  UNL     1       2.711  -1.641  -0.089  1.00  0.00    -0.328 OA
ENDROOT
BRANCH   1  13
HETATM   13  O3  UNL     1      -1.320   1.272  -0.584  1.00  0.00    -0.301 OA
BRANCH  13  14
HETATM   14  C9  UNL     1      -2.385   2.026  -0.967  1.00  0.00     0.296 C 
HETATM   15  O2  UNL     1      -2.236   3.213  -1.169  1.00  0.00    -0.259 OA
BRANCH  14  16
HETATM   16  C8  UNL     1      -3.595   1.501  -1.309  1.00  0.00     0.068 C 
HETATM   17  C7  UNL     1      -4.050   0.234  -1.258  1.00  0.00     0.005 C 
BRANCH  17  18
HETATM   18  C3  UNL     1      -3.605  -0.922  -0.719  1.00  0.00     0.000 A 
HETATM   19  C2  UNL     1      -4.156  -2.080  -1.141  1.00  0.00     0.002 A 
HETATM   20  C1  UNL     1      -3.767  -3.273  -0.667  1.00  0.00     0.027 A 
HETATM   21  C6  UNL     1      -2.826  -3.374   0.284  1.00  0.00     0.131 A 
HETATM   22  C5  UNL     1      -2.325  -2.226   0.765  1.00  0.00     0.027 A 
HETATM   23  O1  UNL     1      -2.442  -4.584   0.770  1.00  0.00    -0.190 OA
HETATM   24  C4  UNL     1      -2.710  -1.036   0.279  1.00  0.00     0.002 A 
ENDBRANCH  17  18
ENDBRANCH  14  16
ENDBRANCH  13  14
ENDBRANCH   1  13
BRANCH   4  25
HETATM   25  O7  UNL     1       4.294   2.205   1.533  1.00  0.00    -0.328 OA
HETATM   26  C19 UNL     1       5.067   1.854   2.660  1.00  0.00     0.177 C 
ENDBRANCH   4  25
TORSDOF 5
