REMARK  4 active torsions:
REMARK  status: ('A' for Active; 'I' for Inactive)
REMARK    1  A    between atoms: C5_6  and  C6_7 
REMARK    2  A    between atoms: C6_7  and  O1_8 
REMARK    3  A    between atoms: O1_8  and  C7_9 
REMARK    4  A    between atoms: C8_11  and  C12_18 
ROOT
HETATM    1  C7  UNL     1      -0.478   1.620  -0.479  1.00  0.00     0.270 C 
HETATM    2  O2  UNL     1       0.740   2.331  -0.413  1.00  0.00    -0.326 OA
HETATM    3  C8  UNL     1       1.622   2.101  -1.481  1.00  0.00     0.184 C 
HETATM    4  C9  UNL     1       0.976   2.408  -2.825  1.00  0.00     0.215 C 
HETATM    5  C10 UNL     1      -0.328   1.656  -2.974  1.00  0.00     0.220 C 
HETATM    6  C11 UNL     1      -1.209   1.909  -1.770  1.00  0.00     0.241 C 
HETATM    7  O3  UNL     1      -2.355   1.099  -1.887  1.00  0.00    -0.215 OA
HETATM    8  O4  UNL     1      -0.997   2.112  -4.124  1.00  0.00    -0.218 OA
HETATM    9  O5  UNL     1       0.705   3.784  -2.950  1.00  0.00    -0.218 OA
ENDROOT
BRANCH   1  10
HETATM   10  O1  UNL     1      -0.218   0.240  -0.357  1.00  0.00    -0.327 OA
BRANCH  10  11
HETATM   11  C6  UNL     1       0.163  -0.156   0.937  1.00  0.00     0.184 C 
BRANCH  11  12
HETATM   12  C5  UNL     1       0.439  -1.663   0.930  1.00  0.00     0.319 C 
HETATM   13  C1  UNL     1      -0.779  -2.530   0.603  1.00  0.00     0.221 C 
HETATM   14  C2  UNL     1      -1.748  -2.705   1.765  1.00  0.00     0.217 C 
HETATM   15  O9  UNL     1      -0.306  -3.798   0.208  1.00  0.00    -0.218 OA
HETATM   16  C3  UNL     1      -1.055  -2.996   3.087  1.00  0.00     0.221 C 
HETATM   17  O8  UNL     1      -2.533  -1.542   1.904  1.00  0.00    -0.218 OA
HETATM   18  C4  UNL     1       0.134  -2.075   3.329  1.00  0.00     0.326 C 
HETATM   19  O7  UNL     1      -0.584  -4.323   3.097  1.00  0.00    -0.218 OA
HETATM   20  N1  UNL     1       1.038  -2.124   2.183  1.00  0.00     0.345 N 
ENDBRANCH  11  12
ENDBRANCH  10  11
ENDBRANCH   1  10
BRANCH   3  21
HETATM   21  C12 UNL     1       2.877   2.934  -1.258  1.00  0.00     0.214 C 
HETATM   22  O6  UNL     1       3.566   2.461  -0.117  1.00  0.00    -0.218 OA
ENDBRANCH   3  21
TORSDOF 4
