REMARK  5 active torsions:
REMARK  status: ('A' for Active; 'I' for Inactive)
REMARK    1  A    between atoms: O1_2  and  C2_3 
REMARK    2  A    between atoms: C3_4  and  O2_5 
REMARK    3  A    between atoms: C7_9  and  C9_11 
REMARK    4  A    between atoms: C19_21  and  O3_23 
REMARK    5  A    between atoms: C23_29  and  O7_30 
ROOT
HETATM    1  C2  UNL     1      -2.807  -1.491  -0.279  1.00  0.00     0.112 A 
HETATM    2  C3  UNL     1      -2.393  -1.078  -1.545  1.00  0.00     0.094 A 
HETATM    3  C5  UNL     1      -1.411  -0.095  -1.672  1.00  0.00     0.051 A 
HETATM    4  C6  UNL     1      -0.842   0.473  -0.533  1.00  0.00     0.025 A 
HETATM    5  C7  UNL     1      -1.256   0.060   0.734  1.00  0.00    -0.042 A 
HETATM    6  C8  UNL     1      -2.238  -0.922   0.861  1.00  0.00     0.017 A 
HETATM    7  C9  UNL     1      -0.645   0.670   1.957  1.00  0.00     0.022 A 
HETATM    8  C10 UNL     1       0.878   0.670   1.957  1.00  0.00     0.022 A 
HETATM    9  C11 UNL     1       0.878   2.193   1.957  1.00  0.00     0.004 A 
HETATM   10  C12 UNL     1      -0.645   2.193   1.957  1.00  0.00     0.004 A 
HETATM   11  C13 UNL     1      -1.266   2.814   3.201  1.00  0.00     0.000 C 
HETATM   12  C14 UNL     1       1.499   2.814   3.201  1.00  0.00     0.000 C 
HETATM   13  C15 UNL     1       1.488   0.060   0.734  1.00  0.00    -0.036 A 
HETATM   14  C16 UNL     1       1.070   0.478  -0.533  1.00  0.00     0.075 A 
HETATM   15  C17 UNL     1       1.660  -0.112  -1.630  1.00  0.00     0.103 A 
HETATM   16  C18 UNL     1       2.628  -1.080  -1.498  1.00  0.00     0.137 A 
HETATM   17  C19 UNL     1       3.060  -1.512  -0.262  1.00  0.00     0.117 A 
HETATM   18  C20 UNL     1       2.478  -0.930   0.868  1.00  0.00     0.018 A 
HETATM   19  O4  UNL     1       3.079  -1.530  -2.699  1.00  0.00    -0.298 OA
HETATM   20  C22 UNL     1       2.283  -0.735  -3.602  1.00  0.00     0.304 A 
HETATM   21  O5  UNL     1       1.380   0.168  -2.930  1.00  0.00    -0.304 OA
HETATM   22  O6  UNL     1       0.117   1.431  -0.677  1.00  0.00     0.000 OA
HETATM   23  C23 UNL     1      -1.231   1.063  -0.788  1.00  0.00     0.011 A 
HETATM   24  O7  UNL     1       0.112   1.427  -0.656  1.00  0.00     0.000 OA
HETATM   25  C24 UNL     1       0.803   1.879   0.478  1.00  0.00     0.000 A 
ENDROOT
BRANCH   1  26
HETATM   26  O1  UNL     1      -3.761  -2.445  -0.156  1.00  0.00    -0.327 OA
HETATM   27  C1  UNL     1      -4.451  -2.897  -1.289  1.00  0.00     0.181 C 
ENDBRANCH   1  26
BRANCH   2  28
HETATM   28  O2  UNL     1      -2.946  -1.630  -2.652  1.00  0.00    -0.330 OA
HETATM   29  C4  UNL     1      -2.230  -1.651  -3.857  1.00  0.00     0.181 C 
ENDBRANCH   2  28
BRANCH  17  30
HETATM   30  O3  UNL     1       4.015  -2.466  -0.147  1.00  0.00    -0.326 OA
HETATM   31  C21 UNL     1       4.324  -3.000   1.112  1.00  0.00     0.181 C 
ENDBRANCH  17  30
TORSDOF 5
