REMARK  11 active torsions:
REMARK  status: ('A' for Active; 'I' for Inactive)
REMARK    1  A    between atoms: C4_4  and  O3_9 
REMARK    2  A    between atoms: C5_6  and  C6_7 
REMARK    3  A    between atoms: O3_9  and  C7_10 
REMARK    4  A    between atoms: C7_10  and  C8_11 
REMARK    5  A    between atoms: C12_15  and  O5_17 
REMARK    6  A    between atoms: O5_17  and  C13_18 
REMARK    7  A    between atoms: C17_23  and  O7_24 
REMARK    8  A    between atoms: O7_24  and  C18_25 
REMARK    9  A    between atoms: C22_29  and  O9_31 
REMARK   10  A    between atoms: O9_31  and  C23_32 
REMARK   11  A    between atoms: C38_47  and  C47_56 
ROOT
HETATM    1  C18 UNL     1       4.916   1.122   0.122  1.00  0.00     0.242 C 
HETATM    2  C19 UNL     1       6.008   2.019  -0.445  1.00  0.00     0.097 C 
HETATM    3  C20 UNL     1       6.556   1.405  -1.726  1.00  0.00     0.193 C 
HETATM    4  C21 UNL     1       5.400   1.044  -2.650  1.00  0.00     0.238 C 
HETATM    5  C22 UNL     1       4.363   0.241  -1.876  1.00  0.00     0.271 C 
HETATM    6  O8  UNL     1       3.890   1.053  -0.831  1.00  0.00    -0.304 OA
HETATM    7  O12 UNL     1       5.880   0.277  -3.721  1.00  0.00    -0.215 OA
HETATM    8  O13 UNL     1       7.394   2.329  -2.366  1.00  0.00    -0.220 OA
ENDROOT
BRANCH   1   9
HETATM    9  O7  UNL     1       4.423   1.665   1.317  1.00  0.00    -0.304 OA
BRANCH   9  10
HETATM   10  C17 UNL     1       4.495   0.926   2.506  1.00  0.00     0.268 C 
HETATM   11  C13 UNL     1       3.897   1.730   3.653  1.00  0.00     0.207 C 
HETATM   12  C14 UNL     1       4.000   0.927   4.943  1.00  0.00     0.217 C 
HETATM   13  C15 UNL     1       3.454  -0.476   4.712  1.00  0.00     0.212 C 
HETATM   14  O15 UNL     1       5.343   0.846   5.337  1.00  0.00    -0.218 OA
HETATM   15  C16 UNL     1       4.097  -1.072   3.466  1.00  0.00     0.151 C 
HETATM   16  O14 UNL     1       2.065  -0.414   4.536  1.00  0.00    -0.218 OA
HETATM   17  O6  UNL     1       3.748  -0.257   2.381  1.00  0.00    -0.329 OA
HETATM   18  C53 UNL     1       5.611  -1.103   3.627  1.00  0.00     0.035 C 
BRANCH  11  19
HETATM   19  O5  UNL     1       4.601   2.934   3.796  1.00  0.00    -0.324 OA
BRANCH  19  20
HETATM   20  C12 UNL     1       3.930   4.158   3.660  1.00  0.00     0.270 C 
HETATM   21  C11 UNL     1       4.907   5.309   3.858  1.00  0.00     0.241 C 
HETATM   22  C10 UNL     1       4.165   6.633   3.728  1.00  0.00     0.220 C 
HETATM   23  O16 UNL     1       5.482   5.220   5.134  1.00  0.00    -0.215 OA
HETATM   24  C9  UNL     1       3.339   6.628   2.449  1.00  0.00     0.215 C 
HETATM   25  O17 UNL     1       5.091   7.685   3.682  1.00  0.00    -0.218 OA
HETATM   26  C8  UNL     1       2.508   5.353   2.385  1.00  0.00     0.180 C 
HETATM   27  O18 UNL     1       2.487   7.742   2.439  1.00  0.00    -0.218 OA
HETATM   28  O4  UNL     1       3.399   4.271   2.364  1.00  0.00    -0.326 OA
BRANCH  26  29
HETATM   29  C7  UNL     1       1.657   5.351   1.123  1.00  0.00     0.177 C 
BRANCH  29  30
HETATM   30  O3  UNL     1       0.302   5.263   1.472  1.00  0.00    -0.326 OA
BRANCH  30  31
HETATM   31  C4  UNL     1      -0.680   5.243   0.472  1.00  0.00     0.270 C 
HETATM   32  C3  UNL     1      -1.498   3.963   0.573  1.00  0.00     0.241 C 
HETATM   33  C2  UNL     1      -2.548   3.943  -0.530  1.00  0.00     0.220 C 
HETATM   34  O19 UNL     1      -0.651   2.855   0.431  1.00  0.00    -0.215 OA
HETATM   35  C1  UNL     1      -3.310   5.262  -0.530  1.00  0.00     0.215 C 
HETATM   36  O20 UNL     1      -3.443   2.887  -0.304  1.00  0.00    -0.218 OA
HETATM   37  C5  UNL     1      -2.320   6.419  -0.530  1.00  0.00     0.184 C 
HETATM   38  O21 UNL     1      -4.115   5.336  -1.675  1.00  0.00    -0.218 OA
HETATM   39  O1  UNL     1      -1.561   6.325   0.645  1.00  0.00    -0.326 OA
BRANCH  37  40
HETATM   40  C6  UNL     1      -3.071   7.744  -0.558  1.00  0.00     0.214 C 
HETATM   41  O2  UNL     1      -2.693   8.472  -1.696  1.00  0.00    -0.218 OA
ENDBRANCH  37  40
ENDBRANCH  30  31
ENDBRANCH  29  30
ENDBRANCH  26  29
ENDBRANCH  19  20
ENDBRANCH  11  19
ENDBRANCH   9  10
ENDBRANCH   1   9
BRANCH   5  42
HETATM   42  O9  UNL     1       3.303  -0.112  -2.723  1.00  0.00    -0.332 OA
BRANCH  42  43
HETATM   43  C23 UNL     1       2.226  -0.859  -2.225  1.00  0.00     0.118 C 
HETATM   44  C24 UNL     1       0.934  -0.072  -2.399  1.00  0.00     0.025 C 
HETATM   45  C25 UNL     1      -0.228  -0.871  -1.824  1.00  0.00     0.002 C 
HETATM   46  C51 UNL     1       0.690   0.184  -3.880  1.00  0.00     0.002 C 
HETATM   47  C52 UNL     1       1.047   1.258  -1.665  1.00  0.00     0.002 C 
HETATM   48  C26 UNL     1      -0.338  -2.204  -2.552  1.00  0.00     0.001 C 
HETATM   49  C32 UNL     1      -1.522  -0.087  -2.003  1.00  0.00     0.000 C 
HETATM   50  C27 UNL     1       0.968  -2.974  -2.400  1.00  0.00     0.003 C 
HETATM   51  C29 UNL     1      -1.479  -3.017  -1.955  1.00  0.00     0.005 C 
HETATM   52  C50 UNL     1      -0.611  -1.954  -4.029  1.00  0.00     0.000 C 
HETATM   53  C28 UNL     1       2.110  -2.158  -2.991  1.00  0.00     0.030 C 
HETATM   54  C30 UNL     1      -2.176  -2.197  -0.877  1.00  0.00     0.004 C 
HETATM   55  C36 UNL     1      -0.924  -4.296  -1.342  1.00  0.00     0.025 C 
HETATM   56  C31 UNL     1      -2.691  -0.898  -1.481  1.00  0.00     0.000 C 
HETATM   57  C33 UNL     1      -3.344  -2.993  -0.311  1.00  0.00     0.015 C 
HETATM   58  C49 UNL     1      -1.188  -1.882   0.239  1.00  0.00     0.000 C 
HETATM   59  C34 UNL     1      -3.250  -4.414  -0.771  1.00  0.00    -0.049 C 
HETATM   60  C40 UNL     1      -4.654  -2.388  -0.798  1.00  0.00     0.004 C 
HETATM   61  C48 UNL     1      -3.300  -2.948   1.211  1.00  0.00     0.004 C 
HETATM   62  C35 UNL     1      -2.073  -5.043  -0.852  1.00  0.00    -0.035 C 
HETATM   63  C37 UNL     1      -4.530  -5.106  -1.123  1.00  0.00     0.028 C 
HETATM   64  C38 UNL     1      -5.620  -4.686  -0.145  1.00  0.00     0.082 C 
HETATM   65  C44 UNL     1      -4.330  -6.614  -1.044  1.00  0.00     0.004 C 
HETATM   66  C39 UNL     1      -5.863  -3.188  -0.269  1.00  0.00     0.011 C 
HETATM   67  C41 UNL     1      -6.905  -5.437  -0.465  1.00  0.00     0.011 C 
HETATM   68  C42 UNL     1      -6.659  -6.936  -0.355  1.00  0.00     0.001 C 
HETATM   69  C43 UNL     1      -5.636  -7.317  -1.389  1.00  0.00     0.000 C 
HETATM   70  C45 UNL     1      -5.428  -8.826  -1.377  1.00  0.00     0.000 C 
HETATM   71  C46 UNL     1      -6.109  -6.904  -2.777  1.00  0.00     0.000 C 
BRANCH  64  72
HETATM   72  C47 UNL     1      -5.184  -5.011   1.263  1.00  0.00     0.184 C 
HETATM   73  O10 UNL     1      -4.011  -5.003   1.549  1.00  0.00    -0.647 OA
HETATM   74  O11 UNL     1      -6.098  -5.308   2.194  1.00  0.00    -0.647 OA
ENDBRANCH  64  72
ENDBRANCH  42  43
ENDBRANCH   5  42
TORSDOF 11
