REMARK  0 active torsions:
REMARK  status: ('A' for Active; 'I' for Inactive)
ROOT
HETATM    1  C1  UNL     1       2.053   1.752  -0.090  1.00  0.00     0.022 C 
HETATM    2  C2  UNL     1       2.900   0.525  -0.440  1.00  0.00     0.004 C 
HETATM    3  C3  UNL     1       2.596  -0.650   0.494  1.00  0.00     0.001 C 
HETATM    4  C4  UNL     1       1.111  -1.037   0.422  1.00  0.00     0.003 C 
HETATM    5  C5  UNL     1       0.174   0.158   0.748  1.00  0.00     0.015 C 
HETATM    6  C6  UNL     1       0.574   1.434   0.017  1.00  0.00    -0.049 C 
HETATM    7  C7  UNL     1      -0.334   2.277  -0.522  1.00  0.00    -0.034 C 
HETATM    8  C8  UNL     1      -1.826   2.053  -0.434  1.00  0.00     0.025 C 
HETATM    9  C9  UNL     1      -2.270   0.625  -0.121  1.00  0.00     0.004 A 
HETATM   10  C10 UNL     1      -1.260  -0.332   0.465  1.00  0.00     0.004 A 
HETATM   11  C11 UNL     1      -1.785  -0.553  -0.949  1.00  0.00     0.001 A 
HETATM   12  C12 UNL     1      -2.750  -1.717  -1.147  1.00  0.00     0.000 C 
HETATM   13  C13 UNL     1      -0.893  -0.277  -2.154  1.00  0.00     0.000 C 
HETATM   14  C14 UNL     1       0.184   0.479   2.250  1.00  0.00     0.004 C 
HETATM   15  C15 UNL     1       0.834  -2.262   1.305  1.00  0.00     0.000 C 
ENDROOT
TORSDOF 0
