REMARK  3 active torsions:
REMARK  status: ('A' for Active; 'I' for Inactive)
REMARK    1  A    between atoms: C8_9  and  C10_11 
REMARK    2  A    between atoms: C11_12  and  O2_13 
REMARK    3  A    between atoms: C14_16  and  O3_19 
ROOT
HETATM    1  C1  UNL     1      -4.167   0.863  -1.601  1.00  0.00     0.133 A 
HETATM    2  C2  UNL     1      -4.167  -0.474  -1.601  1.00  0.00     0.027 A 
HETATM    3  C3  UNL     1      -3.009  -1.143  -1.601  1.00  0.00    -0.000 A 
HETATM    4  C4  UNL     1      -1.851  -0.474  -1.601  1.00  0.00     0.001 A 
HETATM    5  C5  UNL     1      -1.851   0.863  -1.601  1.00  0.00     0.092 A 
HETATM    6  C6  UNL     1      -3.009   1.531  -1.601  1.00  0.00     0.051 A 
HETATM    7  O1  UNL     1      -0.732   1.626  -1.613  1.00  0.00    -0.331 OA
HETATM    8  C7  UNL     1       0.315   0.964  -2.269  1.00  0.00     0.153 C 
HETATM    9  C8  UNL     1       0.605  -0.299  -1.481  1.00  0.00     0.059 C 
HETATM   10  C9  UNL     1      -0.574  -1.254  -1.614  1.00  0.00     0.035 C 
HETATM   11  O5  UNL     1      -5.341   1.540  -1.601  1.00  0.00    -0.190 OA
ENDROOT
BRANCH   9  12
HETATM   12  C10 UNL     1       0.809   0.046  -0.039  1.00  0.00     0.005 A 
HETATM   13  C11 UNL     1       2.019  -0.253   0.586  1.00  0.00     0.117 A 
HETATM   14  C13 UNL     1       2.209   0.069   1.930  1.00  0.00     0.175 A 
HETATM   15  C14 UNL     1       1.188   0.690   2.649  1.00  0.00     0.121 A 
HETATM   16  O4  UNL     1       3.385  -0.221   2.537  1.00  0.00    -0.186 OA
HETATM   17  C15 UNL     1      -0.023   0.988   2.025  1.00  0.00     0.026 A 
HETATM   18  C16 UNL     1      -0.213   0.666   0.681  1.00  0.00    -0.000 A 
BRANCH  13  19
HETATM   19  O2  UNL     1       3.012  -0.856  -0.113  1.00  0.00    -0.326 OA
HETATM   20  C12 UNL     1       2.868  -2.187  -0.527  1.00  0.00     0.181 C 
ENDBRANCH  13  19
BRANCH  15  21
HETATM   21  O3  UNL     1       1.372   1.002   3.955  1.00  0.00    -0.326 OA
HETATM   22  C17 UNL     1       2.589   0.702   4.583  1.00  0.00     0.181 C 
ENDBRANCH  15  21
ENDBRANCH   9  12
TORSDOF 3
