REMARK  3 active torsions:
REMARK  status: ('A' for Active; 'I' for Inactive)
REMARK    1  A    between atoms: C9_10  and  O3_18 
REMARK    2  A    between atoms: C11_12  and  C13_14 
REMARK    3  A    between atoms: C13_14  and  O2_16 
ROOT
HETATM    1  C1  UNL     1       4.084  -0.522  -0.289  1.00  0.00     0.000 A 
HETATM    2  C2  UNL     1       4.442   0.349   0.777  1.00  0.00     0.002 A 
HETATM    3  C3  UNL     1       3.438   1.045   1.504  1.00  0.00     0.019 A 
HETATM    4  C4  UNL     1       2.084   0.851   1.145  1.00  0.00     0.081 A 
HETATM    5  C5  UNL     1       1.742   0.000   0.100  1.00  0.00     0.019 A 
HETATM    6  C6  UNL     1       2.723  -0.707  -0.641  1.00  0.00     0.002 A 
HETATM    7  C7  UNL     1       0.401  -0.002  -0.035  1.00  0.00     0.021 A 
HETATM    8  C8  UNL     1      -0.148   0.851   0.918  1.00  0.00     0.103 A 
HETATM    9  N1  UNL     1       0.902   1.404   1.680  1.00  0.00    -0.244 NA
HETATM   10  C9  UNL     1      -1.547   1.058   1.020  1.00  0.00     0.112 A 
HETATM   11  C10 UNL     1      -2.367   0.349   0.098  1.00  0.00     0.031 A 
HETATM   12  C11 UNL     1      -1.807  -0.526  -0.877  1.00  0.00     0.065 A 
HETATM   13  C12 UNL     1      -0.404  -0.713  -0.953  1.00  0.00     0.007 A 
ENDROOT
BRANCH  12  14
HETATM   14  C13 UNL     1      -2.695  -1.242  -1.814  1.00  0.00     0.296 C 
HETATM   15  O1  UNL     1      -3.902  -1.217  -1.885  1.00  0.00    -0.259 OA
BRANCH  14  16
HETATM   16  O2  UNL     1      -1.922  -1.965  -2.619  1.00  0.00    -0.296 OA
HETATM   17  C14 UNL     1      -2.668  -2.656  -3.609  1.00  0.00     0.185 C 
ENDBRANCH  14  16
ENDBRANCH  12  14
BRANCH  10  18
HETATM   18  O3  UNL     1      -2.203   1.846   1.883  1.00  0.00    -0.327 OA
HETATM   19  C15 UNL     1      -1.533   2.234   3.072  1.00  0.00     0.181 C 
ENDBRANCH  10  18
TORSDOF 3
