REMARK  0 active torsions:
REMARK  status: ('A' for Active; 'I' for Inactive)
ROOT
HETATM    1  C1  UNL     1       1.496   2.139  -0.229  1.00  0.00     0.029 C 
HETATM    2  C2  UNL     1       2.762   1.418  -0.459  1.00  0.00     0.172 C 
HETATM    3  C3  UNL     1       2.875  -0.012   0.014  1.00  0.00     0.070 C 
HETATM    4  C4  UNL     1       1.517  -0.728  -0.027  1.00  0.00     0.011 C 
HETATM    5  C5  UNL     1       0.424   0.080   0.721  1.00  0.00     0.016 C 
HETATM    6  C6  UNL     1       0.416   1.549   0.326  1.00  0.00    -0.042 C 
HETATM    7  C7  UNL     1      -0.856   2.326   0.592  1.00  0.00     0.022 C 
HETATM    8  C8  UNL     1      -2.076   1.713  -0.100  1.00  0.00     0.004 C 
HETATM    9  C9  UNL     1      -2.176   0.207   0.174  1.00  0.00     0.001 A 
HETATM   10  C10 UNL     1      -0.942  -0.611   0.517  1.00  0.00     0.004 A 
HETATM   11  C11 UNL     1      -1.614  -0.777  -0.840  1.00  0.00     0.000 A 
HETATM   12  C12 UNL     1      -0.955  -0.225  -2.100  1.00  0.00     0.000 C 
HETATM   13  C13 UNL     1      -2.401  -2.061  -1.070  1.00  0.00     0.000 C 
HETATM   14  C14 UNL     1       0.660   0.033   2.238  1.00  0.00     0.004 C 
HETATM   15  C15 UNL     1       1.640  -2.170   0.486  1.00  0.00     0.001 C 
HETATM   16  O1  UNL     1       3.683   1.969  -1.014  1.00  0.00    -0.291 OA
ENDROOT
TORSDOF 0
