REMARK  5 active torsions:
REMARK  status: ('A' for Active; 'I' for Inactive)
REMARK    1  A    between atoms: C3_3  and  C4_4 
REMARK    2  A    between atoms: C4_4  and  C5_5 
REMARK    3  A    between atoms: C11_13  and  C19_22 
REMARK    4  A    between atoms: C12_14  and  C14_17 
REMARK    5  A    between atoms: C14_17  and  C15_18 
ROOT
HETATM    1  C5  UNL     1      -3.285  -0.793   0.541  1.00  0.00     0.033 A 
HETATM    2  C6  UNL     1      -1.990  -1.334   0.736  1.00  0.00     0.134 A 
HETATM    3  C7  UNL     1      -0.848  -0.563   0.396  1.00  0.00     0.087 A 
HETATM    4  C8  UNL     1      -1.000   0.746  -0.133  1.00  0.00     0.107 A 
HETATM    5  C9  UNL     1      -2.295   1.279  -0.326  1.00  0.00     0.052 A 
HETATM    6  C10 UNL     1      -3.438   0.512   0.010  1.00  0.00     0.131 A 
HETATM    7  O1  UNL     1      -4.660   1.029  -0.178  1.00  0.00    -0.190 OA
HETATM    8  O2  UNL     1       0.086   1.480  -0.453  1.00  0.00    -0.307 OA
HETATM    9  C11 UNL     1       1.357   1.051  -0.301  1.00  0.00     0.101 A 
HETATM   10  C12 UNL     1       1.629  -0.184   0.195  1.00  0.00     0.044 A 
HETATM   11  C13 UNL     1       0.527  -1.096   0.586  1.00  0.00     0.198 A 
HETATM   12  O3  UNL     1       0.834  -2.184   1.021  1.00  0.00    -0.287 OA
HETATM   13  O6  UNL     1      -1.852  -2.570   1.238  1.00  0.00    -0.190 OA
ENDROOT
BRANCH   9  14
HETATM   14  C19 UNL     1       2.475   1.963  -0.691  1.00  0.00     0.048 A 
HETATM   15  C20 UNL     1       3.318   2.492   0.301  1.00  0.00     0.006 A 
HETATM   16  C21 UNL     1       4.373   3.350  -0.055  1.00  0.00     0.028 A 
HETATM   17  C22 UNL     1       4.588   3.684  -1.404  1.00  0.00     0.133 A 
HETATM   18  C23 UNL     1       3.742   3.152  -2.395  1.00  0.00     0.055 A 
HETATM   19  O5  UNL     1       5.576   4.488  -1.738  1.00  0.00    -0.190 OA
HETATM   20  C24 UNL     1       2.686   2.293  -2.045  1.00  0.00     0.135 A 
HETATM   21  O4  UNL     1       1.902   1.805  -2.986  1.00  0.00    -0.190 OA
ENDBRANCH   9  14
BRANCH  10  22
HETATM   22  C14 UNL     1       3.055  -0.658   0.361  1.00  0.00     0.057 C 
BRANCH  22  23
HETATM   23  C15 UNL     1       3.682  -0.932  -0.979  1.00  0.00    -0.030 C 
HETATM   24  C16 UNL     1       5.006  -1.149  -1.037  1.00  0.00    -0.048 C 
HETATM   25  C17 UNL     1       5.635  -1.397  -2.383  1.00  0.00     0.026 C 
HETATM   26  C18 UNL     1       5.791  -1.133   0.246  1.00  0.00     0.026 C 
ENDBRANCH  22  23
ENDBRANCH  10  22
BRANCH   1  27
HETATM   27  C4  UNL     1      -4.477  -1.588   0.891  1.00  0.00     0.056 C 
BRANCH  27  28
HETATM   28  C3  UNL     1      -5.488  -0.785   1.662  1.00  0.00    -0.030 C 
HETATM   29  C2  UNL     1      -6.719  -1.297   1.832  1.00  0.00    -0.048 C 
HETATM   30  C1  UNL     1      -7.846  -0.623   2.566  1.00  0.00     0.026 C 
HETATM   31  C25 UNL     1      -7.018  -2.654   1.252  1.00  0.00     0.026 C 
ENDBRANCH  27  28
ENDBRANCH   1  27
TORSDOF 5
