REMARK  3 active torsions:
REMARK  status: ('A' for Active; 'I' for Inactive)
REMARK    1  A    between atoms: C8_8  and  C9_10 
REMARK    2  A    between atoms: C15_17  and  C29_33 
REMARK    3  A    between atoms: C29_33  and  C30_34 
ROOT
HETATM    1  C9  UNL     1      -3.305  -0.486  -2.213  1.00  0.00     0.009 A 
HETATM    2  C10 UNL     1      -3.941   0.771  -2.144  1.00  0.00     0.025 A 
HETATM    3  C11 UNL     1      -3.334   1.842  -1.447  1.00  0.00     0.129 A 
HETATM    4  C12 UNL     1      -2.057   1.676  -0.832  1.00  0.00     0.029 A 
HETATM    5  C13 UNL     1      -1.441   0.385  -0.877  1.00  0.00     0.095 A 
HETATM    6  C14 UNL     1      -2.064  -0.682  -1.564  1.00  0.00     0.022 A 
HETATM    7  O2  UNL     1      -0.252   0.137  -0.285  1.00  0.00    -0.310 OA
HETATM    8  C15 UNL     1       0.342   1.076   0.615  1.00  0.00     0.202 C 
HETATM    9  C16 UNL     1       0.154   2.496   0.057  1.00  0.00     0.065 C 
HETATM   10  C17 UNL     1      -1.348   2.805  -0.141  1.00  0.00     0.053 C 
HETATM   11  C18 UNL     1      -1.500   4.170  -0.799  1.00  0.00    -0.030 C 
HETATM   12  C19 UNL     1      -0.512   4.779  -1.488  1.00  0.00    -0.048 C 
HETATM   13  C20 UNL     1       0.865   4.166  -1.664  1.00  0.00     0.026 C 
HETATM   14  C21 UNL     1       0.914   2.672  -1.279  1.00  0.00     0.034 C 
HETATM   15  C22 UNL     1       2.283   2.080  -1.236  1.00  0.00     0.001 A 
HETATM   16  C23 UNL     1       2.625   1.158  -0.203  1.00  0.00     0.095 A 
HETATM   17  O3  UNL     1       1.738   0.787   0.744  1.00  0.00    -0.310 OA
HETATM   18  C24 UNL     1       3.928   0.607  -0.152  1.00  0.00     0.051 A 
HETATM   19  C25 UNL     1       4.889   0.949  -1.131  1.00  0.00     0.133 A 
HETATM   20  C26 UNL     1       4.549   1.846  -2.168  1.00  0.00     0.027 A 
HETATM   21  C27 UNL     1       3.254   2.410  -2.221  1.00  0.00    -0.000 A 
HETATM   22  O4  UNL     1       6.119   0.422  -1.072  1.00  0.00    -0.190 OA
HETATM   23  C28 UNL     1      -0.750   6.133  -2.111  1.00  0.00     0.026 C 
HETATM   24  O7  UNL     1      -3.990   3.008  -1.381  1.00  0.00    -0.190 OA
ENDROOT
BRANCH   8  25
HETATM   25  C29 UNL     1      -0.295   0.904   2.002  1.00  0.00     0.085 C 
BRANCH  25  26
HETATM   26  C30 UNL     1      -0.045  -0.439   2.549  1.00  0.00     0.005 A 
HETATM   27  C31 UNL     1      -0.828  -1.533   2.108  1.00  0.00    -0.000 A 
HETATM   28  C32 UNL     1      -0.600  -2.830   2.627  1.00  0.00     0.027 A 
HETATM   29  C33 UNL     1       0.414  -3.039   3.592  1.00  0.00     0.133 A 
HETATM   30  C34 UNL     1       1.197  -1.943   4.033  1.00  0.00     0.047 A 
HETATM   31  O6  UNL     1       0.621  -4.270   4.080  1.00  0.00    -0.190 OA
HETATM   32  C35 UNL     1       0.975  -0.643   3.514  1.00  0.00     0.092 A 
HETATM   33  C38 UNL     1       2.256  -2.125   5.055  1.00  0.00     0.002 C 
HETATM   34  O5  UNL     1       1.715   0.404   3.944  1.00  0.00    -0.332 OA
HETATM   35  C36 UNL     1       2.979   0.217   4.604  1.00  0.00     0.117 C 
HETATM   36  C37 UNL     1       3.072  -1.098   5.360  1.00  0.00     0.001 C 
HETATM   37  C39 UNL     1       4.072   0.240   3.531  1.00  0.00     0.035 C 
HETATM   38  C40 UNL     1       3.174   1.391   5.567  1.00  0.00     0.035 C 
ENDBRANCH  25  26
ENDBRANCH   8  25
BRANCH   1  39
HETATM   39  C8  UNL     1      -3.932  -1.590  -2.955  1.00  0.00     0.148 A 
HETATM   40  C7  UNL     1      -4.461  -2.744  -2.039  1.00  0.00     0.063 A 
HETATM   41  C6  UNL     1      -3.750  -3.941  -2.619  1.00  0.00     0.003 A 
HETATM   42  C1  UNL     1      -3.820  -5.317  -2.275  1.00  0.00    -0.000 A 
HETATM   43  C5  UNL     1      -2.910  -3.510  -3.654  1.00  0.00     0.092 A 
HETATM   44  C2  UNL     1      -3.047  -6.274  -2.965  1.00  0.00     0.027 A 
HETATM   45  C3  UNL     1      -2.195  -5.854  -4.004  1.00  0.00     0.133 A 
HETATM   46  C4  UNL     1      -2.133  -4.483  -4.340  1.00  0.00     0.051 A 
HETATM   47  O8  UNL     1      -1.449  -6.746  -4.670  1.00  0.00    -0.190 OA
HETATM   48  O1  UNL     1      -2.973  -2.191  -3.844  1.00  0.00    -0.329 OA
ENDBRANCH   1  39
TORSDOF 3
