REMARK  4 active torsions:
REMARK  status: ('A' for Active; 'I' for Inactive)
REMARK    1  A    between atoms: C8_8  and  C9_10 
REMARK    2  A    between atoms: C11_12  and  O6_33 
REMARK    3  A    between atoms: O6_33  and  C28_34 
REMARK    4  A    between atoms: C28_34  and  C29_35 
ROOT
HETATM    1  C9  UNL     1       1.525  -0.424  -1.056  1.00  0.00     0.027 A 
HETATM    2  C10 UNL     1       1.466   1.059  -0.843  1.00  0.00     0.027 A 
HETATM    3  C11 UNL     1       0.300   1.735  -0.935  1.00  0.00     0.105 A 
HETATM    4  C12 UNL     1      -0.883   0.932  -1.243  1.00  0.00     0.046 A 
HETATM    5  C13 UNL     1      -0.823  -0.366  -1.448  1.00  0.00     0.096 A 
HETATM    6  C14 UNL     1       0.421  -1.095  -1.388  1.00  0.00     0.026 A 
HETATM    7  O2  UNL     1      -2.084  -0.983  -1.499  1.00  0.00    -0.328 OA
HETATM    8  C15 UNL     1      -3.115  -0.004  -1.423  1.00  0.00     0.151 C 
HETATM    9  C16 UNL     1      -2.236   1.203  -0.896  1.00  0.00     0.046 C 
HETATM   10  C17 UNL     1      -3.016   2.432  -0.575  1.00  0.00     0.196 C 
HETATM   11  C18 UNL     1      -4.287   2.143   0.356  1.00  0.00     0.153 C 
HETATM   12  O3  UNL     1      -3.836   1.652   1.675  1.00  0.00    -0.329 OA
HETATM   13  C19 UNL     1      -3.305   0.351   1.849  1.00  0.00     0.092 C 
HETATM   14  C20 UNL     1      -3.524  -0.571   0.895  1.00  0.00     0.003 C 
HETATM   15  C21 UNL     1      -4.287  -0.163  -0.335  1.00  0.00     0.059 C 
HETATM   16  C22 UNL     1      -4.957   0.981  -0.314  1.00  0.00     0.043 C 
HETATM   17  C23 UNL     1      -2.800  -1.839   0.900  1.00  0.00    -0.000 C 
HETATM   18  C24 UNL     1      -1.769  -2.001   1.710  1.00  0.00     0.027 C 
HETATM   19  C25 UNL     1      -1.416  -0.953   2.649  1.00  0.00     0.133 C 
HETATM   20  C26 UNL     1      -2.193   0.130   2.794  1.00  0.00     0.051 C 
HETATM   21  O4  UNL     1      -0.222  -1.064   3.344  1.00  0.00    -0.190 OA
HETATM   22  C27 UNL     1      -5.177   3.389   0.499  1.00  0.00     0.038 C 
HETATM   23  O5  UNL     1      -2.571   3.568  -0.744  1.00  0.00    -0.289 OA
ENDROOT
BRANCH   3  24
HETATM   24  O6  UNL     1       0.165   3.153  -0.669  1.00  0.00    -0.273 OA
BRANCH  24  25
HETATM   25  C28 UNL     1       1.346   3.905  -0.324  1.00  0.00     0.302 C 
HETATM   26  O9  UNL     1       2.464   3.384  -0.236  1.00  0.00    -0.259 OA
BRANCH  25  27
HETATM   27  C29 UNL     1       1.284   5.368  -0.142  1.00  0.00     0.089 A 
HETATM   28  C30 UNL     1       2.542   6.099   0.013  1.00  0.00     0.009 A 
HETATM   29  C31 UNL     1       2.545   7.424   0.126  1.00  0.00     0.028 A 
HETATM   30  C32 UNL     1       1.286   8.160   0.104  1.00  0.00     0.133 A 
HETATM   31  C33 UNL     1       0.134   7.503  -0.011  1.00  0.00     0.055 A 
HETATM   32  O8  UNL     1       1.292   9.547   0.195  1.00  0.00    -0.190 OA
HETATM   33  C34 UNL     1       0.128   6.042  -0.140  1.00  0.00     0.138 A 
HETATM   34  O7  UNL     1      -1.074   5.384  -0.266  1.00  0.00    -0.190 OA
ENDBRANCH  25  27
ENDBRANCH  24  25
ENDBRANCH   3  24
BRANCH   1  35
HETATM   35  C8  UNL     1       2.764  -1.194  -0.785  1.00  0.00     0.100 A 
HETATM   36  C7  UNL     1       3.932  -0.666  -0.393  1.00  0.00     0.027 A 
HETATM   37  C6  UNL     1       4.791  -1.823  -0.202  1.00  0.00     0.025 A 
HETATM   38  C1  UNL     1       6.183  -1.858   0.207  1.00  0.00     0.004 A 
HETATM   39  C5  UNL     1       4.113  -2.913  -0.462  1.00  0.00     0.102 A 
HETATM   40  C2  UNL     1       6.767  -3.058   0.309  1.00  0.00     0.028 A 
HETATM   41  C3  UNL     1       5.997  -4.309   0.014  1.00  0.00     0.133 A 
HETATM   42  C4  UNL     1       4.712  -4.237  -0.357  1.00  0.00     0.052 A 
HETATM   43  O10 UNL     1       6.625  -5.551   0.125  1.00  0.00    -0.190 OA
HETATM   44  O1  UNL     1       2.841  -2.590  -0.830  1.00  0.00    -0.307 OA
ENDBRANCH   1  35
TORSDOF 4
