REMARK  5 active torsions:
REMARK  status: ('A' for Active; 'I' for Inactive)
REMARK    1  A    between atoms: C8_8  and  C9_10 
REMARK    2  A    between atoms: C12_13  and  C15_17 
REMARK    3  A    between atoms: C16_18  and  C17_19 
REMARK    4  A    between atoms: C17_19  and  C18_21 
REMARK    5  A    between atoms: C29_34  and  C34_39 
ROOT
HETATM    1  C15 UNL     1       2.396  -0.652  -0.859  1.00  0.00     0.055 C 
HETATM    2  C16 UNL     1       1.150  -0.965  -1.730  1.00  0.00     0.075 C 
HETATM    3  C29 UNL     1       1.555  -1.613  -3.074  1.00  0.00     0.036 C 
HETATM    4  C30 UNL     1       2.490  -0.664  -3.846  1.00  0.00     0.027 C 
HETATM    5  C31 UNL     1       3.598  -0.072  -3.002  1.00  0.00    -0.048 C 
HETATM    6  C32 UNL     1       3.549  -0.061  -1.652  1.00  0.00    -0.030 C 
HETATM    7  C33 UNL     1       4.785   0.518  -3.719  1.00  0.00     0.026 C 
ENDROOT
BRANCH   1   8
HETATM    8  C12 UNL     1       2.053   0.219   0.297  1.00  0.00     0.033 A 
HETATM    9  C11 UNL     1       1.875   1.602   0.106  1.00  0.00     0.129 A 
HETATM   10  C10 UNL     1       1.551   2.422   1.201  1.00  0.00     0.029 A 
HETATM   11  O8  UNL     1       2.010   2.135  -1.092  1.00  0.00    -0.190 OA
HETATM   12  C9  UNL     1       1.404   1.865   2.484  1.00  0.00     0.027 A 
HETATM   13  C14 UNL     1       1.582   0.482   2.672  1.00  0.00     0.029 A 
HETATM   14  C13 UNL     1       1.908  -0.344   1.580  1.00  0.00     0.129 A 
HETATM   15  O2  UNL     1       2.072  -1.639   1.766  1.00  0.00    -0.190 OA
BRANCH  12  16
HETATM   16  C8  UNL     1       1.062   2.731   3.637  1.00  0.00     0.100 A 
HETATM   17  C7  UNL     1       0.842   4.129   3.662  1.00  0.00     0.027 A 
HETATM   18  C6  UNL     1       0.562   4.432   4.949  1.00  0.00     0.025 A 
HETATM   19  C1  UNL     1       0.268   5.699   5.504  1.00  0.00     0.004 A 
HETATM   20  C5  UNL     1       0.592   3.315   5.729  1.00  0.00     0.102 A 
HETATM   21  C2  UNL     1       0.000   5.772   6.901  1.00  0.00     0.028 A 
HETATM   22  C3  UNL     1       0.033   4.594   7.703  1.00  0.00     0.133 A 
HETATM   23  C4  UNL     1       0.336   3.334   7.115  1.00  0.00     0.052 A 
HETATM   24  O9  UNL     1      -0.221   4.672   9.016  1.00  0.00    -0.190 OA
HETATM   25  O1  UNL     1       0.902   2.209   4.957  1.00  0.00    -0.307 OA
ENDBRANCH  12  16
ENDBRANCH   1   8
BRANCH   2  26
HETATM   26  C17 UNL     1       0.121  -1.789  -0.990  1.00  0.00     0.175 C 
HETATM   27  O3  UNL     1       0.412  -2.854  -0.498  1.00  0.00    -0.291 OA
BRANCH  26  28
HETATM   28  C18 UNL     1      -1.186  -1.094  -0.990  1.00  0.00     0.060 A 
HETATM   29  C19 UNL     1      -1.238   0.295  -0.721  1.00  0.00     0.007 A 
HETATM   30  C20 UNL     1      -2.481   0.969  -0.719  1.00  0.00     0.024 A 
HETATM   31  C21 UNL     1      -3.676   0.256  -0.978  1.00  0.00     0.096 A 
HETATM   32  C22 UNL     1      -3.619  -1.133  -1.252  1.00  0.00     0.048 A 
HETATM   33  O5  UNL     1      -4.858   0.910  -0.980  1.00  0.00    -0.332 OA
HETATM   34  C23 UNL     1      -2.375  -1.816  -1.258  1.00  0.00     0.136 A 
HETATM   35  C24 UNL     1      -4.885  -1.850  -1.545  1.00  0.00     0.002 C 
HETATM   36  O4  UNL     1      -2.324  -3.133  -1.516  1.00  0.00    -0.190 OA
HETATM   37  C25 UNL     1      -6.059  -1.207  -1.402  1.00  0.00     0.001 C 
HETATM   38  C26 UNL     1      -6.110   0.211  -0.859  1.00  0.00     0.117 C 
HETATM   39  C27 UNL     1      -6.463   0.148   0.629  1.00  0.00     0.035 C 
HETATM   40  C28 UNL     1      -7.164   1.023  -1.611  1.00  0.00     0.035 C 
ENDBRANCH  26  28
ENDBRANCH   2  26
BRANCH   3  41
HETATM   41  C34 UNL     1       2.168  -2.957  -2.896  1.00  0.00     0.004 A 
HETATM   42  C35 UNL     1       3.563  -3.070  -2.758  1.00  0.00    -0.000 A 
HETATM   43  C36 UNL     1       4.152  -4.336  -2.590  1.00  0.00     0.027 A 
HETATM   44  C37 UNL     1       3.352  -5.490  -2.562  1.00  0.00     0.133 A 
HETATM   45  C38 UNL     1       1.957  -5.373  -2.703  1.00  0.00     0.054 A 
HETATM   46  O7  UNL     1       3.904  -6.676  -2.406  1.00  0.00    -0.190 OA
HETATM   47  C39 UNL     1       1.361  -4.111  -2.871  1.00  0.00     0.129 A 
HETATM   48  O6  UNL     1       0.053  -4.016  -3.002  1.00  0.00    -0.190 OA
ENDBRANCH   3  41
TORSDOF 5
