REMARK  0 active torsions:
REMARK  status: ('A' for Active; 'I' for Inactive)
ROOT
HETATM    1  C1  UNL     1       1.982  -1.219  -0.099  1.00  0.00    -0.018 A 
HETATM    2  C2  UNL     1       3.172  -0.483  -0.017  1.00  0.00    -0.002 A 
HETATM    3  C3  UNL     1       3.149   0.898   0.118  1.00  0.00     0.027 A 
HETATM    4  C4  UNL     1       1.948   1.618   0.180  1.00  0.00     0.134 A 
HETATM    5  C5  UNL     1       0.745   0.892   0.093  1.00  0.00     0.067 A 
HETATM    6  C6  UNL     1       0.765  -0.517  -0.044  1.00  0.00     0.042 A 
HETATM    7  C7  UNL     1      -0.517  -1.262  -0.131  1.00  0.00     0.220 A 
HETATM    8  C8  UNL     1      -1.795  -0.515  -0.076  1.00  0.00     0.169 A 
HETATM    9  C9  UNL     1      -1.823   0.827   0.057  1.00  0.00     0.046 A 
HETATM   10  C10 UNL     1      -0.562   1.607   0.150  1.00  0.00     0.196 A 
HETATM   11  O1  UNL     1      -0.639   2.824   0.271  1.00  0.00    -0.287 OA
HETATM   12  C11 UNL     1      -3.158   1.532   0.109  1.00  0.00     0.037 C 
HETATM   13  O2  UNL     1      -2.921  -1.276  -0.167  1.00  0.00    -0.187 OA
HETATM   14  O3  UNL     1      -0.634  -2.477  -0.246  1.00  0.00    -0.284 OA
HETATM   15  O4  UNL     1       2.038   2.971   0.312  1.00  0.00    -0.190 OA
HETATM   16  C12 UNL     1       2.087  -2.721  -0.242  1.00  0.00     0.031 C 
ENDROOT
TORSDOF 0
