REMARK  0 active torsions:
REMARK  status: ('A' for Active; 'I' for Inactive)
ROOT
HETATM    1  C1  UNL     1       3.883   1.563   0.504  1.00  0.00     0.000 C 
HETATM    2  C2  UNL     1       5.406   1.459   0.412  1.00  0.00     0.000 C 
HETATM    3  C3  UNL     1       5.871   0.068   0.846  1.00  0.00     0.000 C 
HETATM    4  C4  UNL     1       5.268  -1.027  -0.047  1.00  0.00     0.000 C 
HETATM    5  C5  UNL     1       3.709  -0.943  -0.068  1.00  0.00     0.004 C 
HETATM    6  C6  UNL     1       3.123   0.488  -0.318  1.00  0.00     0.004 C 
HETATM    7  C7  UNL     1       1.602   0.568   0.082  1.00  0.00     0.018 C 
HETATM    8  C8  UNL     1       0.883  -0.775   0.168  1.00  0.00    -0.049 C 
HETATM    9  C9  UNL     1       1.549  -1.799   0.746  1.00  0.00    -0.034 C 
HETATM   10  C10 UNL     1       2.998  -1.613   1.125  1.00  0.00     0.025 C 
HETATM   11  C11 UNL     1      -0.549  -0.852  -0.377  1.00  0.00     0.015 C 
HETATM   12  C12 UNL     1      -1.299   0.396   0.209  1.00  0.00     0.003 C 
HETATM   13  C13 UNL     1      -0.682   1.713  -0.350  1.00  0.00     0.001 C 
HETATM   14  C14 UNL     1       0.811   1.627  -0.721  1.00  0.00     0.004 C 
HETATM   15  C15 UNL     1      -2.822   0.336  -0.121  1.00  0.00     0.000 C 
HETATM   16  C16 UNL     1      -3.535  -0.982   0.346  1.00  0.00     0.000 C 
HETATM   17  C17 UNL     1      -2.520  -2.035   0.844  1.00  0.00     0.000 C 
HETATM   18  C18 UNL     1      -1.338  -2.178  -0.117  1.00  0.00     0.004 C 
HETATM   19  C19 UNL     1      -4.543  -0.695   1.477  1.00  0.00     0.000 C 
HETATM   20  C20 UNL     1      -5.627   0.328   1.084  1.00  0.00     0.000 C 
HETATM   21  C21 UNL     1      -5.100   1.504   0.225  1.00  0.00     0.000 C 
HETATM   22  C22 UNL     1      -3.572   1.611   0.356  1.00  0.00     0.000 C 
HETATM   23  C23 UNL     1      -5.746   2.816   0.690  1.00  0.00     0.000 C 
HETATM   24  C24 UNL     1      -5.473   1.303  -1.250  1.00  0.00     0.000 C 
HETATM   25  C25 UNL     1      -4.307  -1.598  -0.836  1.00  0.00     0.000 C 
HETATM   26  C26 UNL     1      -1.129   0.445   1.742  1.00  0.00     0.000 C 
HETATM   27  C27 UNL     1      -0.418  -0.746  -1.906  1.00  0.00     0.004 C 
HETATM   28  C28 UNL     1       3.313   0.809  -1.812  1.00  0.00     0.000 C 
HETATM   29  C29 UNL     1       5.817  -0.865  -1.471  1.00  0.00     0.000 C 
HETATM   30  C30 UNL     1       5.748  -2.397   0.447  1.00  0.00     0.000 C 
ENDROOT
TORSDOF 0
