REMARK  0 active torsions:
REMARK  status: ('A' for Active; 'I' for Inactive)
ROOT
HETATM    1  C1  UNL     1      -5.988  -0.283   0.164  1.00  0.00     0.000 C 
HETATM    2  C2  UNL     1      -5.178   0.984  -0.147  1.00  0.00     0.000 C 
HETATM    3  C3  UNL     1      -3.738   0.590  -0.602  1.00  0.00     0.003 C 
HETATM    4  C4  UNL     1      -3.162  -0.703   0.082  1.00  0.00     0.015 C 
HETATM    5  C5  UNL     1      -3.855  -0.938   1.445  1.00  0.00     0.004 C 
HETATM    6  C6  UNL     1      -5.387  -1.084   1.330  1.00  0.00     0.000 C 
HETATM    7  C7  UNL     1      -1.637  -0.604   0.168  1.00  0.00    -0.049 C 
HETATM    8  C8  UNL     1      -0.955   0.016  -1.045  1.00  0.00     0.018 C 
HETATM    9  C9  UNL     1      -1.420   1.488  -1.188  1.00  0.00     0.004 C 
HETATM   10  C10 UNL     1      -2.762   1.781  -0.500  1.00  0.00     0.001 C 
HETATM   11  C11 UNL     1       0.588  -0.240  -1.121  1.00  0.00     0.004 C 
HETATM   12  C12 UNL     1       1.264  -0.031   0.268  1.00  0.00     0.004 C 
HETATM   13  C13 UNL     1       0.582  -0.961   1.303  1.00  0.00     0.025 C 
HETATM   14  C14 UNL     1      -0.926  -1.020   1.240  1.00  0.00    -0.034 C 
HETATM   15  C15 UNL     1       2.797  -0.365   0.217  1.00  0.00     0.000 C 
HETATM   16  C16 UNL     1       3.512   0.027  -1.121  1.00  0.00     0.000 C 
HETATM   17  C17 UNL     1       2.699   1.090  -1.877  1.00  0.00     0.000 C 
HETATM   18  C18 UNL     1       1.268   0.635  -2.217  1.00  0.00     0.000 C 
HETATM   19  C19 UNL     1       4.938   0.568  -0.859  1.00  0.00     0.000 C 
HETATM   20  C20 UNL     1       5.697  -0.299   0.154  1.00  0.00     0.000 C 
HETATM   21  C21 UNL     1       5.020  -0.316   1.547  1.00  0.00     0.000 C 
HETATM   22  C22 UNL     1       3.555   0.170   1.459  1.00  0.00     0.000 C 
HETATM   23  C23 UNL     1       5.055  -1.740   2.117  1.00  0.00     0.000 C 
HETATM   24  C24 UNL     1       5.785   0.600   2.510  1.00  0.00     0.000 C 
HETATM   25  C25 UNL     1       3.651  -1.209  -2.027  1.00  0.00     0.000 C 
HETATM   26  C26 UNL     1       1.063   1.420   0.738  1.00  0.00     0.000 C 
HETATM   27  C27 UNL     1       0.770  -1.717  -1.524  1.00  0.00     0.000 C 
HETATM   28  C28 UNL     1      -3.443  -1.932  -0.799  1.00  0.00     0.004 C 
HETATM   29  C29 UNL     1      -5.873   1.770  -1.266  1.00  0.00     0.000 C 
HETATM   30  C30 UNL     1      -5.158   1.877   1.103  1.00  0.00     0.000 C 
ENDROOT
TORSDOF 0
