REMARK  7 active torsions:
REMARK  status: ('A' for Active; 'I' for Inactive)
REMARK    1  A    between atoms: C4_4  and  O3_9 
REMARK    2  A    between atoms: C5_6  and  C6_7 
REMARK    3  A    between atoms: O3_9  and  C7_10 
REMARK    4  A    between atoms: C10_13  and  C13_17 
REMARK    5  A    between atoms: C13_17  and  O5_18 
REMARK    6  A    between atoms: O5_18  and  C14_19 
REMARK    7  A    between atoms: C15_20  and  C23_32 
ROOT
HETATM    1  C13 UNL     1      -1.799   0.393  -0.090  1.00  0.00     0.181 C 
ENDROOT
BRANCH   1   2
HETATM    2  C10 UNL     1      -0.344  -0.039   0.139  1.00  0.00     0.178 C 
HETATM    3  C9  UNL     1      -0.189  -0.979   1.369  1.00  0.00     0.214 C 
HETATM    4  C8  UNL     1       0.994  -1.983   1.213  1.00  0.00     0.214 C 
HETATM    5  O11 UNL     1      -0.053  -0.149   2.512  1.00  0.00    -0.218 OA
HETATM    6  C7  UNL     1       2.074  -1.379   0.289  1.00  0.00     0.178 C 
HETATM    7  O12 UNL     1       1.537  -2.387   2.463  1.00  0.00    -0.218 OA
HETATM    8  C11 UNL     1       1.490  -0.984  -1.098  1.00  0.00     0.145 C 
HETATM    9  O4  UNL     1       0.090  -0.719  -1.029  1.00  0.00    -0.351 OA
HETATM   10  C12 UNL     1       2.182   0.248  -1.691  1.00  0.00     0.035 C 
BRANCH   6  11
HETATM   11  O3  UNL     1       3.141  -2.291   0.092  1.00  0.00    -0.326 OA
BRANCH  11  12
HETATM   12  C4  UNL     1       4.324  -1.670  -0.371  1.00  0.00     0.270 C 
HETATM   13  C3  UNL     1       5.490  -1.934   0.619  1.00  0.00     0.241 C 
HETATM   14  C2  UNL     1       6.113  -3.342   0.475  1.00  0.00     0.220 C 
HETATM   15  O13 UNL     1       6.500  -0.963   0.398  1.00  0.00    -0.215 OA
HETATM   16  C1  UNL     1       6.321  -3.740  -1.006  1.00  0.00     0.215 C 
HETATM   17  O14 UNL     1       5.250  -4.285   1.082  1.00  0.00    -0.218 OA
HETATM   18  C5  UNL     1       5.104  -3.402  -1.904  1.00  0.00     0.184 C 
HETATM   19  O15 UNL     1       7.467  -3.080  -1.508  1.00  0.00    -0.218 OA
HETATM   20  O1  UNL     1       4.666  -2.055  -1.707  1.00  0.00    -0.326 OA
BRANCH  18  21
HETATM   21  C6  UNL     1       3.930  -4.373  -1.725  1.00  0.00     0.214 C 
HETATM   22  O2  UNL     1       2.869  -3.940  -2.545  1.00  0.00    -0.218 OA
ENDBRANCH  18  21
ENDBRANCH  11  12
ENDBRANCH   6  11
ENDBRANCH   1   2
BRANCH   1  23
HETATM   23  O5  UNL     1      -2.226   1.211   0.988  1.00  0.00    -0.323 OA
BRANCH  23  24
HETATM   24  C14 UNL     1      -3.486   1.627   0.842  1.00  0.00     0.156 A 
HETATM   25  C15 UNL     1      -3.766   2.859   0.348  1.00  0.00     0.125 A 
HETATM   26  O6  UNL     1      -5.033   3.291   0.193  1.00  0.00    -0.305 OA
HETATM   27  C16 UNL     1      -6.121   2.555   0.514  1.00  0.00     0.107 A 
HETATM   28  C17 UNL     1      -5.967   1.248   1.043  1.00  0.00     0.089 A 
HETATM   29  C22 UNL     1      -7.416   3.088   0.322  1.00  0.00     0.052 A 
HETATM   30  C18 UNL     1      -4.590   0.717   1.232  1.00  0.00     0.224 A 
HETATM   31  C19 UNL     1      -7.105   0.475   1.383  1.00  0.00     0.138 A 
HETATM   32  O7  UNL     1      -4.279  -0.369   1.666  1.00  0.00    -0.284 OA
HETATM   33  C20 UNL     1      -8.400   1.014   1.189  1.00  0.00     0.055 A 
HETATM   34  O9  UNL     1      -6.977  -0.762   1.887  1.00  0.00    -0.190 OA
HETATM   35  C21 UNL     1      -8.555   2.318   0.660  1.00  0.00     0.135 A 
HETATM   36  O8  UNL     1      -9.783   2.824   0.477  1.00  0.00    -0.190 OA
BRANCH  25  37
HETATM   37  C23 UNL     1      -2.641   3.766  -0.041  1.00  0.00     0.025 A 
HETATM   38  C24 UNL     1      -1.482   3.832   0.754  1.00  0.00     0.004 A 
HETATM   39  C25 UNL     1      -0.428   4.686   0.387  1.00  0.00     0.028 A 
HETATM   40  C26 UNL     1      -0.523   5.475  -0.773  1.00  0.00     0.131 A 
HETATM   41  C27 UNL     1      -1.684   5.406  -1.566  1.00  0.00     0.028 A 
HETATM   42  O10 UNL     1       0.467   6.273  -1.115  1.00  0.00    -0.190 OA
HETATM   43  C28 UNL     1      -2.740   4.555  -1.203  1.00  0.00     0.004 A 
ENDBRANCH  25  37
ENDBRANCH  23  24
ENDBRANCH   1  23
TORSDOF 7
