REMARK  12 active torsions:
REMARK  status: ('A' for Active; 'I' for Inactive)
REMARK    1  A    between atoms: C2_2  and  C5_7 
REMARK    2  A    between atoms: C5_7  and  C6_9 
REMARK    3  A    between atoms: C6_9  and  C7_10 
REMARK    4  A    between atoms: C7_10  and  C8_11 
REMARK    5  A    between atoms: C8_11  and  C9_12 
REMARK    6  A    between atoms: C9_12  and  C10_13 
REMARK    7  A    between atoms: C10_13  and  C11_14 
REMARK    8  A    between atoms: C11_14  and  C12_15 
REMARK    9  A    between atoms: C12_15  and  C13_16 
REMARK   10  A    between atoms: C13_16  and  C14_17 
REMARK   11  A    between atoms: C14_17  and  C15_18 
REMARK   12  A    between atoms: C15_18  and  C16_19 
ROOT
HETATM    1  C7  UNL     1       1.342   1.695   2.207  1.00  0.00     0.003 C 
ENDROOT
BRANCH   1   2
HETATM    2  C6  UNL     1       1.019   2.272   3.586  1.00  0.00     0.035 C 
BRANCH   2   3
HETATM    3  C5  UNL     1       2.074   3.270   4.070  1.00  0.00     0.180 C 
HETATM    4  O3  UNL     1       3.262   2.559   4.340  1.00  0.00    -0.221 OA
BRANCH   3   5
HETATM    5  C2  UNL     1       1.602   3.920   5.367  1.00  0.00     0.155 C 
HETATM    6  C1  UNL     1       2.582   5.020   5.799  1.00  0.00     0.043 C 
HETATM    7  C4  UNL     1       2.031   6.209   5.020  1.00  0.00     0.098 C 
HETATM    8  C3  UNL     1       0.586   5.836   4.871  1.00  0.00     0.272 C 
HETATM    9  O1  UNL     1       0.344   4.557   5.143  1.00  0.00    -0.302 OA
HETATM   10  O2  UNL     1      -0.256   6.641   4.545  1.00  0.00    -0.264 OA
ENDBRANCH   3   5
ENDBRANCH   2   3
ENDBRANCH   1   2
BRANCH   1  11
HETATM   11  C8  UNL     1       0.246   0.766   1.688  1.00  0.00     0.000 C 
BRANCH  11  12
HETATM   12  C9  UNL     1       0.568   0.186   0.311  1.00  0.00     0.000 C 
BRANCH  12  13
HETATM   13  C10 UNL     1      -0.527  -0.744  -0.211  1.00  0.00     0.000 C 
BRANCH  13  14
HETATM   14  C11 UNL     1      -0.205  -1.324  -1.588  1.00  0.00     0.000 C 
BRANCH  14  15
HETATM   15  C12 UNL     1      -1.301  -2.256  -2.109  1.00  0.00     0.000 C 
BRANCH  15  16
HETATM   16  C13 UNL     1      -0.977  -2.834  -3.486  1.00  0.00     0.000 C 
BRANCH  16  17
HETATM   17  C14 UNL     1      -2.072  -3.766  -4.008  1.00  0.00     0.000 C 
BRANCH  17  18
HETATM   18  C15 UNL     1      -1.750  -4.344  -5.385  1.00  0.00     0.000 C 
BRANCH  18  19
HETATM   19  C16 UNL     1      -2.846  -5.275  -5.904  1.00  0.00     0.000 C 
HETATM   20  C17 UNL     1      -2.524  -5.854  -7.283  1.00  0.00     0.000 C 
ENDBRANCH  18  19
ENDBRANCH  17  18
ENDBRANCH  16  17
ENDBRANCH  15  16
ENDBRANCH  14  15
ENDBRANCH  13  14
ENDBRANCH  12  13
ENDBRANCH  11  12
ENDBRANCH   1  11
TORSDOF 12
