REMARK  3 active torsions:
REMARK  status: ('A' for Active; 'I' for Inactive)
REMARK    1  A    between atoms: C2_2  and  O4_18 
REMARK    2  A    between atoms: C3_3  and  C10_12 
REMARK    3  A    between atoms: C11_13  and  C12_14 
ROOT
HETATM    1  C1  UNL     1       1.356  -2.074  -0.912  1.00  0.00     0.024 A 
HETATM    2  C2  UNL     1       1.442  -0.750  -0.416  1.00  0.00     0.096 A 
HETATM    3  C3  UNL     1       0.260   0.010  -0.221  1.00  0.00     0.041 A 
HETATM    4  C4  UNL     1      -1.008  -0.551  -0.520  1.00  0.00     0.105 A 
HETATM    5  C5  UNL     1      -1.080  -1.881  -1.016  1.00  0.00     0.023 A 
HETATM    6  C6  UNL     1       0.096  -2.643  -1.213  1.00  0.00     0.004 A 
HETATM    7  C7  UNL     1      -2.418  -2.453  -1.322  1.00  0.00     0.007 A 
HETATM    8  C8  UNL     1      -3.512  -1.693  -1.119  1.00  0.00     0.069 A 
HETATM    9  C9  UNL     1      -3.371  -0.314  -0.602  1.00  0.00     0.300 A 
HETATM   10  O1  UNL     1      -2.139   0.168  -0.336  1.00  0.00    -0.273 OA
HETATM   11  O2  UNL     1      -4.371   0.342  -0.432  1.00  0.00    -0.259 OA
ENDROOT
BRANCH   3  12
HETATM   12  C10 UNL     1       0.350   1.393   0.297  1.00  0.00    -0.019 C 
HETATM   13  C11 UNL     1      -0.250   1.686   1.463  1.00  0.00     0.017 C 
HETATM   14  C13 UNL     1      -0.154   3.094   1.986  1.00  0.00     0.034 C 
HETATM   15  C14 UNL     1       1.084   2.488  -0.428  1.00  0.00     0.031 C 
BRANCH  13  16
HETATM   16  C12 UNL     1      -0.992   0.693   2.252  1.00  0.00     0.230 C 
HETATM   17  O3  UNL     1      -1.748   1.049   3.125  1.00  0.00    -0.283 OA
ENDBRANCH  13  16
ENDBRANCH   3  12
BRANCH   2  18
HETATM   18  O4  UNL     1       2.645  -0.228  -0.135  1.00  0.00    -0.328 OA
HETATM   19  C15 UNL     1       3.785  -1.057  -0.297  1.00  0.00     0.181 C 
ENDBRANCH   2  18
TORSDOF 3
