REMARK  4 active torsions:
REMARK  status: ('A' for Active; 'I' for Inactive)
REMARK    1  A    between atoms: C1_1  and  O5_19 
REMARK    2  A    between atoms: C6_6  and  C7_7 
REMARK    3  A    between atoms: C7_7  and  C8_8 
REMARK    4  A    between atoms: C8_8  and  C9_9 
ROOT
HETATM    1  C1  UNL     1       1.129  -1.062  -0.779  1.00  0.00     0.095 A 
HETATM    2  C2  UNL     1       1.045  -2.387  -1.275  1.00  0.00     0.024 A 
HETATM    3  C3  UNL     1      -0.213  -2.957  -1.576  1.00  0.00     0.004 A 
HETATM    4  C4  UNL     1      -1.388  -2.195  -1.379  1.00  0.00     0.023 A 
HETATM    5  C5  UNL     1      -1.314  -0.865  -0.883  1.00  0.00     0.104 A 
HETATM    6  C6  UNL     1      -0.051  -0.301  -0.582  1.00  0.00     0.056 A 
HETATM    7  O3  UNL     1      -2.445  -0.144  -0.699  1.00  0.00    -0.273 OA
HETATM    8  C12 UNL     1      -3.678  -0.625  -0.965  1.00  0.00     0.300 A 
HETATM    9  C13 UNL     1      -3.818  -2.006  -1.482  1.00  0.00     0.069 A 
HETATM   10  C14 UNL     1      -2.726  -2.766  -1.686  1.00  0.00     0.007 A 
HETATM   11  O4  UNL     1      -4.678   0.031  -0.793  1.00  0.00    -0.259 OA
ENDROOT
BRANCH   6  12
HETATM   12  C7  UNL     1       0.037   1.076  -0.066  1.00  0.00     0.212 C 
HETATM   13  O2  UNL     1       0.908   1.828  -0.883  1.00  0.00    -0.215 OA
BRANCH  12  14
HETATM   14  C8  UNL     1       0.574   1.110   1.363  1.00  0.00     0.205 C 
HETATM   15  O1  UNL     1      -0.306   0.375   2.182  1.00  0.00    -0.216 OA
BRANCH  14  16
HETATM   16  C9  UNL     1       0.705   2.510   1.897  1.00  0.00    -0.011 C 
HETATM   17  C10 UNL     1      -0.476   3.418   2.117  1.00  0.00     0.029 C 
HETATM   18  C11 UNL     1       1.932   2.973   2.191  1.00  0.00    -0.006 C 
ENDBRANCH  14  16
ENDBRANCH  12  14
ENDBRANCH   6  12
BRANCH   1  19
HETATM   19  O5  UNL     1       2.330  -0.537  -0.498  1.00  0.00    -0.328 OA
HETATM   20  C15 UNL     1       3.473  -1.363  -0.658  1.00  0.00     0.181 C 
ENDBRANCH   1  19
TORSDOF 4
