REMARK  1 active torsions:
REMARK  status: ('A' for Active; 'I' for Inactive)
REMARK    1  A    between atoms: C9_10  and  O1_15 
ROOT
HETATM    1  C1  UNL     1       3.805  -0.855  -0.754  1.00  0.00     0.000 A 
HETATM    2  C2  UNL     1       4.160   0.016   0.313  1.00  0.00     0.002 A 
HETATM    3  C3  UNL     1       3.158   0.709   1.039  1.00  0.00     0.019 A 
HETATM    4  C4  UNL     1       1.805   0.518   0.680  1.00  0.00     0.081 A 
HETATM    5  C5  UNL     1       1.463  -0.336  -0.365  1.00  0.00     0.019 A 
HETATM    6  C6  UNL     1       2.441  -1.043  -1.105  1.00  0.00     0.002 A 
HETATM    7  C7  UNL     1       0.121  -0.336  -0.498  1.00  0.00     0.021 A 
HETATM    8  C8  UNL     1      -0.428   0.516   0.453  1.00  0.00     0.103 A 
HETATM    9  N1  UNL     1       0.623   1.068   1.215  1.00  0.00    -0.244 NA
HETATM   10  C9  UNL     1      -1.826   0.723   0.555  1.00  0.00     0.111 A 
HETATM   11  C10 UNL     1      -2.645   0.014  -0.369  1.00  0.00     0.021 A 
HETATM   12  C11 UNL     1      -2.088  -0.861  -1.344  1.00  0.00    -0.020 A 
HETATM   13  C12 UNL     1      -0.686  -1.047  -1.418  1.00  0.00    -0.003 A 
HETATM   14  C13 UNL     1      -2.973  -1.576  -2.277  1.00  0.00     0.031 C 
ENDROOT
BRANCH  10  15
HETATM   15  O1  UNL     1      -2.484   1.510   1.416  1.00  0.00    -0.327 OA
HETATM   16  C14 UNL     1      -1.838   1.852   2.635  1.00  0.00     0.181 C 
ENDBRANCH  10  15
TORSDOF 1
