REMARK  0 active torsions:
REMARK  status: ('A' for Active; 'I' for Inactive)
ROOT
HETATM    1  C1  UNL     1       2.310   1.957   0.959  1.00  0.00     0.046 C 
HETATM    2  C2  UNL     1       2.885   1.439  -0.387  1.00  0.00     0.006 C 
HETATM    3  C3  UNL     1       2.437   0.051  -0.904  1.00  0.00     0.000 C 
HETATM    4  C4  UNL     1       2.453  -1.125   0.096  1.00  0.00     0.000 C 
HETATM    5  C5  UNL     1       1.240  -2.074  -0.065  1.00  0.00     0.000 C 
HETATM    6  C6  UNL     1       0.105  -1.752   0.928  1.00  0.00     0.000 C 
HETATM    7  C7  UNL     1      -1.344  -2.084   0.512  1.00  0.00     0.000 C 
HETATM    8  C8  UNL     1      -1.803  -1.787  -0.934  1.00  0.00     0.000 C 
HETATM    9  C9  UNL     1      -1.623  -0.369  -1.526  1.00  0.00     0.006 C 
HETATM   10  C10 UNL     1      -2.229   0.809  -0.709  1.00  0.00     0.046 C 
HETATM   11  C11 UNL     1      -1.358   1.316   0.402  1.00  0.00     0.059 A 
HETATM   12  N1  UNL     1      -0.031   1.555   0.158  1.00  0.00    -0.254 NA
HETATM   13  C12 UNL     1       0.822   1.877   1.176  1.00  0.00     0.059 A 
HETATM   14  C13 UNL     1       0.316   2.113   2.473  1.00  0.00     0.015 A 
HETATM   15  C14 UNL     1      -1.055   1.951   2.730  1.00  0.00     0.002 A 
HETATM   16  C15 UNL     1      -1.897   1.533   1.687  1.00  0.00     0.015 A 
HETATM   17  C16 UNL     1      -2.217  -0.354  -2.940  1.00  0.00     0.000 C 
ENDROOT
TORSDOF 0
