REMARK  2 active torsions:
REMARK  status: ('A' for Active; 'I' for Inactive)
REMARK    1  A    between atoms: O1_1  and  C2_3 
REMARK    2  A    between atoms: C3_4  and  O2_5 
ROOT
HETATM    1  C2  UNL     1      -3.045  -0.508   0.172  1.00  0.00     0.141 C 
HETATM    2  C3  UNL     1      -1.945  -1.375  -0.006  1.00  0.00     0.118 C 
HETATM    3  C5  UNL     1      -0.631  -0.889   0.180  1.00  0.00     0.026 C 
HETATM    4  C6  UNL     1      -0.473   0.444   0.613  1.00  0.00    -0.000 C 
HETATM    5  C7  UNL     1      -1.537   1.350   0.670  1.00  0.00     0.005 C 
HETATM    6  C8  UNL     1      -2.842   0.856   0.479  1.00  0.00     0.151 C 
HETATM    7  O3  UNL     1      -3.877   1.666   0.584  1.00  0.00    -0.188 OA
HETATM    8  C9  UNL     1      -1.277   2.821   0.914  1.00  0.00     0.029 C 
HETATM    9  C10 UNL     1       0.211   3.258   1.078  1.00  0.00     0.005 C 
HETATM   10  C11 UNL     1       1.152   3.014  -0.137  1.00  0.00     0.008 C 
HETATM   11  C12 UNL     1       2.560   2.496   0.266  1.00  0.00     0.065 C 
HETATM   12  C13 UNL     1       3.353   1.834  -0.852  1.00  0.00     0.151 C 
HETATM   13  C14 UNL     1       4.287   0.680  -0.506  1.00  0.00     0.069 C 
HETATM   14  C15 UNL     1       4.090  -0.639  -1.309  1.00  0.00     0.034 C 
HETATM   15  C16 UNL     1       2.965  -1.504  -0.811  1.00  0.00    -0.022 A 
HETATM   16  C17 UNL     1       3.144  -2.863  -0.484  1.00  0.00    -0.002 A 
HETATM   17  C18 UNL     1       2.070  -3.617   0.023  1.00  0.00     0.027 A 
HETATM   18  C19 UNL     1       0.812  -3.021   0.246  1.00  0.00     0.131 A 
HETATM   19  O4  UNL     1      -0.152  -3.750   0.771  1.00  0.00    -0.190 OA
HETATM   20  C20 UNL     1       0.617  -1.654  -0.070  1.00  0.00     0.027 A 
HETATM   21  C21 UNL     1       1.693  -0.945  -0.656  1.00  0.00    -0.002 A 
HETATM   22  O5  UNL     1       3.246   2.213  -1.994  1.00  0.00    -0.296 OA
ENDROOT
BRANCH   1  23
HETATM   23  O1  UNL     1      -4.272  -0.969   0.039  1.00  0.00    -0.324 OA
HETATM   24  C1  UNL     1      -5.268  -0.486   0.930  1.00  0.00     0.182 C 
ENDBRANCH   1  23
BRANCH   2  25
HETATM   25  O2  UNL     1      -2.168  -2.625  -0.365  1.00  0.00    -0.326 OA
HETATM   26  C4  UNL     1      -3.113  -2.863  -1.397  1.00  0.00     0.181 C 
ENDBRANCH   2  25
TORSDOF 2
