REMARK  6 active torsions:
REMARK  status: ('A' for Active; 'I' for Inactive)
REMARK    1  A    between atoms: C7_8  and  C17_24 
REMARK    2  A    between atoms: C8_9  and  O3_12 
REMARK    3  A    between atoms: O3_12  and  C10_13 
REMARK    4  A    between atoms: C10_13  and  C11_15 
REMARK    5  A    between atoms: C19_26  and  O10_32 
REMARK    6  A    between atoms: O10_32  and  S1_33 
ROOT
HETATM    1  C1  UNL     1      -5.012   1.215  -1.008  1.00  0.00     0.052 A 
HETATM    2  C2  UNL     1      -6.151   0.445  -0.670  1.00  0.00     0.135 A 
HETATM    3  C3  UNL     1      -5.994  -0.857  -0.141  1.00  0.00     0.055 A 
HETATM    4  C4  UNL     1      -4.701  -1.398   0.053  1.00  0.00     0.138 A 
HETATM    5  C5  UNL     1      -3.561  -0.625  -0.285  1.00  0.00     0.089 A 
HETATM    6  C6  UNL     1      -3.715   0.684  -0.815  1.00  0.00     0.107 A 
HETATM    7  O1  UNL     1      -2.629   1.418  -1.137  1.00  0.00    -0.305 OA
HETATM    8  C7  UNL     1      -1.360   0.986  -0.982  1.00  0.00     0.126 A 
HETATM    9  C8  UNL     1      -1.080  -0.246  -0.488  1.00  0.00     0.165 A 
HETATM   10  C9  UNL     1      -2.184  -1.156  -0.098  1.00  0.00     0.224 A 
HETATM   11  O2  UNL     1      -1.873  -2.242   0.336  1.00  0.00    -0.284 OA
HETATM   12  O14 UNL     1      -4.572  -2.635   0.557  1.00  0.00    -0.190 OA
HETATM   13  O15 UNL     1      -7.377   0.951  -0.854  1.00  0.00    -0.190 OA
ENDROOT
BRANCH   8  14
HETATM   14  C17 UNL     1      -0.235   1.895  -1.371  1.00  0.00     0.029 A 
HETATM   15  C18 UNL     1       0.910   1.982  -0.561  1.00  0.00     0.030 A 
HETATM   16  C19 UNL     1       1.967   2.836  -0.924  1.00  0.00     0.143 A 
HETATM   17  C20 UNL     1       1.879   3.602  -2.102  1.00  0.00     0.180 A 
HETATM   18  C21 UNL     1       0.734   3.512  -2.914  1.00  0.00     0.158 A 
HETATM   19  O9  UNL     1       2.871   4.400  -2.443  1.00  0.00    -0.186 OA
HETATM   20  C22 UNL     1      -0.322   2.658  -2.547  1.00  0.00     0.032 A 
HETATM   21  O8  UNL     1       0.646   4.227  -4.018  1.00  0.00    -0.188 OA
BRANCH  16  22
HETATM   22  O10 UNL     1       3.039   2.914  -0.160  1.00  0.00    -0.210 OA
BRANCH  22  23
HETATM   23  S1  UNL     1       3.113   2.137   1.166  1.00  0.00     0.257 S 
HETATM   24  O11 UNL     1       2.084   2.525   2.115  1.00  0.00    -0.572 OA
HETATM   25  O12 UNL     1       3.209   0.699   0.982  1.00  0.00    -0.572 OA
HETATM   26  O13 UNL     1       4.492   2.639   1.723  1.00  0.00    -0.572 OA
ENDBRANCH  22  23
ENDBRANCH  16  22
ENDBRANCH   8  14
BRANCH   9  27
HETATM   27  O3  UNL     1       0.180  -0.662  -0.342  1.00  0.00    -0.268 OA
BRANCH  27  28
HETATM   28  C10 UNL     1       0.408  -0.941   0.939  1.00  0.00     0.300 C 
HETATM   29  O4  UNL     1      -0.248  -0.498   1.852  1.00  0.00    -0.259 OA
BRANCH  28  30
HETATM   30  C11 UNL     1       1.557  -1.859   1.195  1.00  0.00     0.068 A 
HETATM   31  C12 UNL     1       2.295  -2.383   0.117  1.00  0.00     0.035 A 
HETATM   32  C13 UNL     1       3.377  -3.248   0.355  1.00  0.00     0.158 A 
HETATM   33  C14 UNL     1       3.723  -3.592   1.676  1.00  0.00     0.181 A 
HETATM   34  O7  UNL     1       4.064  -3.733  -0.658  1.00  0.00    -0.188 OA
HETATM   35  C15 UNL     1       2.984  -3.070   2.756  1.00  0.00     0.158 A 
HETATM   36  O6  UNL     1       4.736  -4.404   1.900  1.00  0.00    -0.186 OA
HETATM   37  C16 UNL     1       1.904  -2.205   2.512  1.00  0.00     0.035 A 
HETATM   38  O5  UNL     1       3.305  -3.391   3.992  1.00  0.00    -0.188 OA
ENDBRANCH  28  30
ENDBRANCH  27  28
ENDBRANCH   9  27
TORSDOF 6
