REMARK WARNING: 32 MAX_TORS EXCEEDED!!!
REMARK  44 active torsions:
REMARK  status: ('A' for Active; 'I' for Inactive)
REMARK    1  A    between atoms: C2_2  and  C3_3 
REMARK    2  A    between atoms: C3_3  and  C4_4 
REMARK    3  A    between atoms: C4_4  and  C5_5 
REMARK    4  A    between atoms: C5_5  and  C6_6 
REMARK    5  A    between atoms: C6_6  and  C7_7 
REMARK    6  A    between atoms: C7_7  and  C8_8 
REMARK    7  A    between atoms: C8_8  and  C9_9 
REMARK    8  A    between atoms: C9_9  and  C10_10 
REMARK    9  A    between atoms: C10_10  and  C11_11 
REMARK   10  A    between atoms: C11_11  and  C12_12 
REMARK   11  A    between atoms: C12_12  and  C13_13 
REMARK   12  A    between atoms: C13_13  and  C14_14 
REMARK   13  A    between atoms: C14_14  and  C15_15 
REMARK   14  A    between atoms: C15_15  and  C16_16 
REMARK   15  A    between atoms: C16_16  and  C17_17 
REMARK   16  A    between atoms: C17_17  and  C18_18 
REMARK   17  A    between atoms: C18_18  and  C19_19 
REMARK   18  A    between atoms: C19_19  and  C20_20 
REMARK   19  A    between atoms: C20_20  and  C21_21 
REMARK   20  A    between atoms: C21_21  and  C22_22 
REMARK   21  A    between atoms: C22_22  and  C23_23 
REMARK   22  A    between atoms: C23_23  and  C24_24 
REMARK   23  A    between atoms: C24_24  and  C25_25 
REMARK   24  A    between atoms: C25_25  and  C26_26 
REMARK   25  A    between atoms: C26_26  and  C27_27 
REMARK   26  A    between atoms: C27_27  and  C28_28 
REMARK   27  A    between atoms: C28_28  and  C29_29 
REMARK   28  A    between atoms: C29_29  and  C30_30 
REMARK   29  A    between atoms: C30_30  and  O1_31 
REMARK   30  A    between atoms: O1_31  and  C31_32 
REMARK   31  A    between atoms: C31_32  and  C32_33 
REMARK   32  A    between atoms: C32_33  and  C33_34 
REMARK   33  A    between atoms: C33_34  and  C34_35 
REMARK   34  A    between atoms: C34_35  and  C35_36 
REMARK   35  A    between atoms: C35_36  and  C36_37 
REMARK   36  A    between atoms: C36_37  and  C37_38 
REMARK   37  A    between atoms: C37_38  and  C38_39 
REMARK   38  A    between atoms: C38_39  and  C39_40 
REMARK   39  A    between atoms: C39_40  and  C40_41 
REMARK   40  A    between atoms: C40_41  and  C41_42 
REMARK   41  A    between atoms: C41_42  and  C42_43 
REMARK   42  A    between atoms: C42_43  and  C43_44 
REMARK   43  A    between atoms: C43_44  and  C44_45 
REMARK   44  A    between atoms: C44_45  and  C45_46 
ROOT
HETATM    1  C24 UNL     1      -0.947   0.308   0.208  1.00  0.00     0.000 C 
ENDROOT
BRANCH   1   2
HETATM    2  C23 UNL     1      -0.086   0.519  -1.038  1.00  0.00     0.000 C 
BRANCH   2   3
HETATM    3  C22 UNL     1      -0.630  -0.217  -2.263  1.00  0.00     0.000 C 
BRANCH   3   4
HETATM    4  C21 UNL     1       0.231  -0.006  -3.508  1.00  0.00     0.000 C 
BRANCH   4   5
HETATM    5  C20 UNL     1      -0.313  -0.741  -4.733  1.00  0.00     0.000 C 
BRANCH   5   6
HETATM    6  C19 UNL     1       0.548  -0.531  -5.979  1.00  0.00     0.000 C 
BRANCH   6   7
HETATM    7  C18 UNL     1       0.004  -1.266  -7.204  1.00  0.00     0.000 C 
BRANCH   7   8
HETATM    8  C17 UNL     1       0.865  -1.055  -8.450  1.00  0.00     0.000 C 
BRANCH   8   9
HETATM    9  C16 UNL     1       0.321  -1.791  -9.675  1.00  0.00     0.000 C 
BRANCH   9  10
HETATM   10  C15 UNL     1       1.182  -1.580 -10.921  1.00  0.00     0.000 C 
BRANCH  10  11
HETATM   11  C14 UNL     1       0.638  -2.315 -12.146  1.00  0.00     0.000 C 
BRANCH  11  12
HETATM   12  C13 UNL     1       1.499  -2.104 -13.391  1.00  0.00     0.000 C 
BRANCH  12  13
HETATM   13  C12 UNL     1       0.955  -2.840 -14.616  1.00  0.00     0.000 C 
BRANCH  13  14
HETATM   14  C11 UNL     1       1.816  -2.629 -15.862  1.00  0.00     0.000 C 
BRANCH  14  15
HETATM   15  C10 UNL     1       1.272  -3.364 -17.087  1.00  0.00     0.000 C 
BRANCH  15  16
HETATM   16  C9  UNL     1       2.133  -3.153 -18.333  1.00  0.00     0.000 C 
BRANCH  16  17
HETATM   17  C8  UNL     1       1.589  -3.889 -19.558  1.00  0.00     0.000 C 
BRANCH  17  18
HETATM   18  C7  UNL     1       2.450  -3.678 -20.803  1.00  0.00     0.000 C 
BRANCH  18  19
HETATM   19  C6  UNL     1       1.906  -4.414 -22.028  1.00  0.00     0.000 C 
BRANCH  19  20
HETATM   20  C5  UNL     1       2.767  -4.203 -23.274  1.00  0.00     0.000 C 
BRANCH  20  21
HETATM   21  C4  UNL     1       2.223  -4.938 -24.499  1.00  0.00     0.000 C 
BRANCH  21  22
HETATM   22  C3  UNL     1       3.084  -4.727 -25.745  1.00  0.00     0.000 C 
BRANCH  22  23
HETATM   23  C2  UNL     1       2.540  -5.463 -26.970  1.00  0.00     0.000 C 
HETATM   24  C1  UNL     1       3.391  -5.238 -28.220  1.00  0.00     0.000 C 
ENDBRANCH  22  23
ENDBRANCH  21  22
ENDBRANCH  20  21
ENDBRANCH  19  20
ENDBRANCH  18  19
ENDBRANCH  17  18
ENDBRANCH  16  17
ENDBRANCH  15  16
ENDBRANCH  14  15
ENDBRANCH  13  14
ENDBRANCH  12  13
ENDBRANCH  11  12
ENDBRANCH  10  11
ENDBRANCH   9  10
ENDBRANCH   8   9
ENDBRANCH   7   8
ENDBRANCH   6   7
ENDBRANCH   5   6
ENDBRANCH   4   5
ENDBRANCH   3   4
ENDBRANCH   2   3
ENDBRANCH   1   2
BRANCH   1  25
HETATM   25  C25 UNL     1      -0.403   1.043   1.433  1.00  0.00     0.000 C 
BRANCH  25  26
HETATM   26  C26 UNL     1      -1.264   0.832   2.679  1.00  0.00     0.000 C 
BRANCH  26  27
HETATM   27  C27 UNL     1      -0.720   1.568   3.904  1.00  0.00     0.000 C 
BRANCH  27  28
HETATM   28  C28 UNL     1      -1.581   1.357   5.149  1.00  0.00     0.003 C 
BRANCH  28  29
HETATM   29  C29 UNL     1      -1.037   2.092   6.374  1.00  0.00     0.033 C 
BRANCH  29  30
HETATM   30  C30 UNL     1      -1.898   1.882   7.620  1.00  0.00     0.152 C 
BRANCH  30  31
HETATM   31  O1  UNL     1      -1.333   2.592   8.712  1.00  0.00    -0.302 OA
BRANCH  31  32
HETATM   32  C31 UNL     1      -2.039   2.447   9.830  1.00  0.00     0.272 C 
HETATM   33  O2  UNL     1      -3.049   1.787   9.908  1.00  0.00    -0.264 OA
BRANCH  32  34
HETATM   34  C32 UNL     1      -1.495   3.175  11.030  1.00  0.00     0.096 C 
BRANCH  34  35
HETATM   35  C33 UNL     1      -1.929   2.533  12.348  1.00  0.00     0.010 C 
BRANCH  35  36
HETATM   36  C34 UNL     1      -1.392   3.277  13.571  1.00  0.00     0.001 C 
BRANCH  36  37
HETATM   37  C35 UNL     1      -1.848   2.652  14.889  1.00  0.00     0.000 C 
BRANCH  37  38
HETATM   38  C36 UNL     1      -1.308   3.393  16.113  1.00  0.00     0.000 C 
BRANCH  38  39
HETATM   39  C37 UNL     1      -1.764   2.767  17.431  1.00  0.00     0.000 C 
BRANCH  39  40
HETATM   40  C38 UNL     1      -1.224   3.508  18.654  1.00  0.00     0.000 C 
BRANCH  40  41
HETATM   41  C39 UNL     1      -1.680   2.882  19.972  1.00  0.00     0.000 C 
BRANCH  41  42
HETATM   42  C40 UNL     1      -1.140   3.623  21.196  1.00  0.00     0.000 C 
BRANCH  42  43
HETATM   43  C41 UNL     1      -1.596   2.998  22.514  1.00  0.00     0.000 C 
BRANCH  43  44
HETATM   44  C42 UNL     1      -1.056   3.739  23.737  1.00  0.00     0.000 C 
BRANCH  44  45
HETATM   45  C43 UNL     1      -1.512   3.113  25.056  1.00  0.00     0.000 C 
BRANCH  45  46
HETATM   46  C44 UNL     1      -0.971   3.854  26.279  1.00  0.00     0.000 C 
BRANCH  46  47
HETATM   47  C45 UNL     1      -1.428   3.228  27.597  1.00  0.00     0.000 C 
HETATM   48  C46 UNL     1      -0.887   3.969  28.821  1.00  0.00     0.000 C 
ENDBRANCH  46  47
ENDBRANCH  45  46
ENDBRANCH  44  45
ENDBRANCH  43  44
ENDBRANCH  42  43
ENDBRANCH  41  42
ENDBRANCH  40  41
ENDBRANCH  39  40
ENDBRANCH  38  39
ENDBRANCH  37  38
ENDBRANCH  36  37
ENDBRANCH  35  36
ENDBRANCH  34  35
ENDBRANCH  32  34
ENDBRANCH  31  32
ENDBRANCH  30  31
ENDBRANCH  29  30
ENDBRANCH  28  29
ENDBRANCH  27  28
ENDBRANCH  26  27
ENDBRANCH  25  26
ENDBRANCH   1  25
TORSDOF 44
