REMARK  1 active torsions:
REMARK  status: ('A' for Active; 'I' for Inactive)
REMARK    1  A    between atoms: C16_16  and  C25_25 
ROOT
HETATM    1  C1  UNL     1       4.727  -0.736  -0.936  1.00  0.00     0.033 C 
HETATM    2  C2  UNL     1       5.071  -0.971   0.545  1.00  0.00     0.152 C 
HETATM    3  C3  UNL     1       4.629   0.193   1.467  1.00  0.00     0.028 C 
HETATM    4  C4  UNL     1       3.129   0.475   1.188  1.00  0.00     0.002 C 
HETATM    5  C5  UNL     1       2.789   0.830  -0.299  1.00  0.00     0.001 C 
HETATM    6  C6  UNL     1       3.242  -0.387  -1.150  1.00  0.00     0.003 C 
HETATM    7  C7  UNL     1       1.264   1.227  -0.434  1.00  0.00     0.004 C 
HETATM    8  C8  UNL     1       0.395   0.738   0.762  1.00  0.00     0.018 C 
HETATM    9  C9  UNL     1       0.924   1.363   2.082  1.00  0.00     0.004 C 
HETATM   10  C10 UNL     1       2.461   1.480   2.139  1.00  0.00     0.000 C 
HETATM   11  C11 UNL     1      -1.117   0.898   0.580  1.00  0.00    -0.049 C 
HETATM   12  C12 UNL     1      -1.709   0.758  -0.818  1.00  0.00     0.015 C 
HETATM   13  C13 UNL     1      -0.658   0.152  -1.775  1.00  0.00     0.004 C 
HETATM   14  C14 UNL     1       0.623   0.996  -1.826  1.00  0.00     0.001 C 
HETATM   15  C15 UNL     1      -3.072  -0.031  -0.822  1.00  0.00     0.011 C 
HETATM   16  C16 UNL     1      -3.764  -0.158   0.563  1.00  0.00     0.063 C 
HETATM   17  C17 UNL     1      -3.447   1.098   1.400  1.00  0.00     0.033 C 
HETATM   18  C18 UNL     1      -1.949   1.148   1.619  1.00  0.00    -0.034 C 
HETATM   19  C19 UNL     1      -5.281  -0.369   0.326  1.00  0.00     0.008 C 
HETATM   20  C20 UNL     1      -5.603  -1.129  -0.988  1.00  0.00     0.000 C 
HETATM   21  C21 UNL     1      -4.496  -2.111  -1.449  1.00  0.00     0.000 C 
HETATM   22  C22 UNL     1      -3.123  -1.387  -1.572  1.00  0.00     0.001 C 
HETATM   23  C23 UNL     1      -4.885  -2.709  -2.805  1.00  0.00     0.000 C 
HETATM   24  C24 UNL     1      -4.420  -3.279  -0.457  1.00  0.00     0.000 C 
HETATM   25  C26 UNL     1      -1.988   2.205  -1.266  1.00  0.00     0.004 C 
HETATM   26  C27 UNL     1       3.596   2.049  -0.775  1.00  0.00     0.000 C 
HETATM   27  C28 UNL     1       4.811  -0.248   2.924  1.00  0.00     0.003 C 
HETATM   28  C29 UNL     1       5.487   1.451   1.254  1.00  0.00     0.003 C 
HETATM   29  O2  UNL     1       6.461  -1.209   0.660  1.00  0.00    -0.224 OA
ENDROOT
BRANCH  16  30
HETATM   30  C25 UNL     1      -3.232  -1.354   1.336  1.00  0.00     0.207 C 
HETATM   31  O1  UNL     1      -2.172  -1.859   1.049  1.00  0.00    -0.288 OA
ENDBRANCH  16  30
TORSDOF 1
