REMARK  13 active torsions:
REMARK  status: ('A' for Active; 'I' for Inactive)
REMARK    1  A    between atoms: C5_5  and  C9_9 
REMARK    2  A    between atoms: C10_10  and  C11_11 
REMARK    3  A    between atoms: C12_12  and  C13_13 
REMARK    4  A    between atoms: C14_14  and  C15_15 
REMARK    5  A    between atoms: C16_16  and  C17_17 
REMARK    6  A    between atoms: C18_18  and  C19_19 
REMARK    7  A    between atoms: C20_20  and  C21_21 
REMARK    8  A    between atoms: C22_22  and  C23_23 
REMARK    9  A    between atoms: C24_24  and  C25_25 
REMARK   10  A    between atoms: C26_26  and  C27_27 
REMARK   11  A    between atoms: C27_27  and  C28_28 
REMARK   12  A    between atoms: C27_27  and  O2_32 
REMARK   13  A    between atoms: O2_32  and  C31_33 
ROOT
HETATM    1  C19 UNL     1       2.363  -0.594  -0.459  1.00  0.00    -0.004 C 
HETATM    2  C20 UNL     1       2.588  -1.895  -0.707  1.00  0.00    -0.022 C 
HETATM    3  C38 UNL     1       2.295  -2.893   0.379  1.00  0.00     0.031 C 
ENDROOT
BRANCH   2   4
HETATM    4  C21 UNL     1       3.109  -2.328  -2.010  1.00  0.00    -0.004 C 
HETATM    5  C22 UNL     1       2.275  -2.568  -3.033  1.00  0.00    -0.001 C 
BRANCH   5   6
HETATM    6  C23 UNL     1       0.826  -2.402  -2.875  1.00  0.00    -0.004 C 
HETATM    7  C24 UNL     1       0.057  -2.055  -3.918  1.00  0.00    -0.022 C 
HETATM    8  C37 UNL     1      -1.424  -1.897  -3.701  1.00  0.00     0.031 C 
BRANCH   7   9
HETATM    9  C25 UNL     1       0.650  -1.830  -5.242  1.00  0.00    -0.006 C 
HETATM   10  C26 UNL     1       0.102  -0.957  -6.102  1.00  0.00     0.005 C 
BRANCH  10  11
HETATM   11  C27 UNL     1       0.750  -0.766  -7.445  1.00  0.00     0.168 C 
BRANCH  11  12
HETATM   12  C28 UNL     1       0.228  -1.754  -8.490  1.00  0.00     0.156 C 
HETATM   13  C29 UNL     1       0.768  -1.469  -9.893  1.00  0.00     0.036 C 
HETATM   14  O1  UNL     1      -1.152  -1.469  -8.483  1.00  0.00    -0.223 OA
HETATM   15  C30 UNL     1       0.420  -3.211  -8.070  1.00  0.00     0.036 C 
ENDBRANCH  11  12
BRANCH  11  16
HETATM   16  O2  UNL     1       0.494   0.541  -7.908  1.00  0.00    -0.325 OA
BRANCH  16  17
HETATM   17  C31 UNL     1       1.494   1.469  -7.537  1.00  0.00     0.270 C 
HETATM   18  O3  UNL     1       2.676   1.172  -8.266  1.00  0.00    -0.329 OA
HETATM   19  C32 UNL     1       3.795   1.994  -7.961  1.00  0.00     0.151 C 
HETATM   20  C33 UNL     1       3.459   3.463  -8.309  1.00  0.00     0.212 C 
HETATM   21  C36 UNL     1       4.979   1.447  -8.764  1.00  0.00     0.035 C 
HETATM   22  C34 UNL     1       2.170   3.930  -7.594  1.00  0.00     0.220 C 
HETATM   23  O6  UNL     1       4.547   4.281  -7.920  1.00  0.00    -0.218 OA
HETATM   24  C35 UNL     1       1.031   2.916  -7.846  1.00  0.00     0.241 C 
HETATM   25  O5  UNL     1       1.791   5.209  -8.070  1.00  0.00    -0.218 OA
HETATM   26  O4  UNL     1      -0.078   3.242  -7.024  1.00  0.00    -0.215 OA
ENDBRANCH  16  17
ENDBRANCH  11  16
ENDBRANCH  10  11
ENDBRANCH   7   9
ENDBRANCH   5   6
ENDBRANCH   2   4
BRANCH   1  27
HETATM   27  C18 UNL     1       1.842  -0.158   0.844  1.00  0.00    -0.000 C 
HETATM   28  C17 UNL     1       1.617   1.141   1.090  1.00  0.00    -0.000 C 
BRANCH  28  29
HETATM   29  C16 UNL     1       1.096   1.576   2.393  1.00  0.00    -0.004 C 
HETATM   30  C15 UNL     1       1.879   1.557   3.484  1.00  0.00    -0.022 C 
HETATM   31  C39 UNL     1       3.299   1.080   3.340  1.00  0.00     0.031 C 
BRANCH  30  32
HETATM   32  C14 UNL     1       1.412   1.979   4.811  1.00  0.00    -0.004 C 
HETATM   33  C13 UNL     1       0.543   1.225   5.502  1.00  0.00    -0.001 C 
BRANCH  33  34
HETATM   34  C12 UNL     1       0.039  -0.039   4.947  1.00  0.00    -0.004 C 
HETATM   35  C11 UNL     1      -0.953  -0.707   5.555  1.00  0.00    -0.022 C 
HETATM   36  C40 UNL     1      -1.432  -1.996   4.943  1.00  0.00     0.031 C 
BRANCH  35  37
HETATM   37  C10 UNL     1      -1.594  -0.236   6.789  1.00  0.00    -0.005 C 
HETATM   38  C9  UNL     1      -2.908  -0.432   6.996  1.00  0.00    -0.005 C 
BRANCH  38  39
HETATM   39  C5  UNL     1      -3.553   0.041   8.236  1.00  0.00    -0.030 C 
HETATM   40  C4  UNL     1      -4.213   1.225   8.256  1.00  0.00    -0.045 C 
HETATM   41  C3  UNL     1      -4.873   1.779   9.502  1.00  0.00     0.055 C 
HETATM   42  C41 UNL     1      -4.328   2.066   7.008  1.00  0.00     0.026 C 
HETATM   43  C2  UNL     1      -5.086   0.725  10.594  1.00  0.00     0.157 C 
HETATM   44  C1  UNL     1      -3.809  -0.102  10.774  1.00  0.00     0.037 C 
HETATM   45  O7  UNL     1      -5.414   1.363  11.811  1.00  0.00    -0.223 OA
HETATM   46  C6  UNL     1      -3.451  -0.848   9.473  1.00  0.00     0.021 C 
HETATM   47  C7  UNL     1      -2.027  -1.406   9.606  1.00  0.00     0.004 C 
HETATM   48  C8  UNL     1      -4.420  -2.020   9.276  1.00  0.00     0.004 C 
ENDBRANCH  38  39
ENDBRANCH  35  37
ENDBRANCH  33  34
ENDBRANCH  30  32
ENDBRANCH  28  29
ENDBRANCH   1  27
TORSDOF 13
