REMARK  1 active torsions:
REMARK  status: ('A' for Active; 'I' for Inactive)
REMARK    1  A    between atoms: C12_16  and  C15_21 
ROOT
HETATM    1  C1  UNL     1       3.225   1.820   0.656  1.00  0.00     0.034 C 
HETATM    2  C2  UNL     1       3.691   0.619  -0.176  1.00  0.00     0.012 C 
HETATM    3  C3  UNL     1       2.848  -0.609   0.199  1.00  0.00     0.081 C 
HETATM    4  C4  UNL     1       1.361  -0.264   0.430  1.00  0.00     0.046 C 
HETATM    5  C5  UNL     1       0.875   1.047  -0.229  1.00  0.00     0.050 C 
HETATM    6  C6  UNL     1       1.736   2.184   0.418  1.00  0.00     0.156 C 
HETATM    7  O1  UNL     1       1.680   3.352  -0.385  1.00  0.00    -0.223 OA
HETATM    8  C7  UNL     1      -0.627   1.137   0.025  1.00  0.00    -0.015 A 
HETATM    9  C8  UNL     1      -1.459  -0.070  -0.164  1.00  0.00     0.025 A 
HETATM   10  C9  UNL     1      -0.783  -1.353  -0.627  1.00  0.00     0.203 C 
HETATM   11  C10 UNL     1       0.670  -1.529  -0.119  1.00  0.00     0.160 C 
HETATM   12  O2  UNL     1       1.531  -2.080  -1.119  1.00  0.00    -0.301 OA
HETATM   13  C11 UNL     1       2.762  -1.631  -0.899  1.00  0.00     0.271 C 
HETATM   14  O3  UNL     1       3.736  -1.990  -1.520  1.00  0.00    -0.264 OA
HETATM   15  O4  UNL     1      -0.836  -1.390  -2.043  1.00  0.00    -0.216 OA
HETATM   16  C12 UNL     1      -2.795   0.000   0.072  1.00  0.00     0.079 A 
HETATM   17  O5  UNL     1      -3.432   1.121   0.486  1.00  0.00    -0.278 OA
HETATM   18  C13 UNL     1      -2.701   2.244   0.660  1.00  0.00     0.300 A 
HETATM   19  C14 UNL     1      -1.246   2.262   0.422  1.00  0.00     0.064 A 
HETATM   20  O6  UNL     1      -3.213   3.278   1.021  1.00  0.00    -0.259 OA
HETATM   21  C18 UNL     1       1.096   0.951  -1.752  1.00  0.00     0.007 C 
HETATM   22  C19 UNL     1       3.381  -1.279   1.465  1.00  0.00     0.010 C 
ENDROOT
BRANCH  16  23
HETATM   23  C15 UNL     1      -3.637  -1.232  -0.133  1.00  0.00     0.045 C 
HETATM   24  C16 UNL     1      -5.070  -0.898  -0.541  1.00  0.00     0.007 C 
HETATM   25  C17 UNL     1      -3.570  -2.189   1.059  1.00  0.00     0.007 C 
ENDBRANCH  16  23
TORSDOF 1
