REMARK  1 active torsions:
REMARK  status: ('A' for Active; 'I' for Inactive)
REMARK    1  A    between atoms: C12_16  and  C15_21 
ROOT
HETATM    1  C1  UNL     1       2.278   3.150  -0.400  1.00  0.00     0.173 A 
HETATM    2  C2  UNL     1       3.279   2.006  -0.180  1.00  0.00     0.190 C 
HETATM    3  C3  UNL     1       2.758   0.721   0.551  1.00  0.00     0.111 C 
HETATM    4  C4  UNL     1       1.221   0.537   0.545  1.00  0.00     0.048 C 
HETATM    5  C5  UNL     1       0.422   1.271  -0.555  1.00  0.00     0.049 C 
HETATM    6  C6  UNL     1       0.772   2.775  -0.584  1.00  0.00     0.149 A 
HETATM    7  O1  UNL     1       1.319   3.264   0.607  1.00  0.00    -0.351 OA
HETATM    8  C7  UNL     1      -1.039   0.893  -0.373  1.00  0.00    -0.015 A 
HETATM    9  C8  UNL     1      -1.375  -0.531  -0.164  1.00  0.00     0.025 A 
HETATM   10  C9  UNL     1      -0.236  -1.543  -0.141  1.00  0.00     0.203 C 
HETATM   11  C10 UNL     1       1.067  -0.994   0.496  1.00  0.00     0.160 C 
HETATM   12  O2  UNL     1       2.240  -1.512  -0.129  1.00  0.00    -0.301 OA
HETATM   13  C11 UNL     1       3.211  -0.613   0.006  1.00  0.00     0.274 C 
HETATM   14  O3  UNL     1       4.367  -0.826  -0.283  1.00  0.00    -0.264 OA
HETATM   15  O4  UNL     1      -0.008  -1.986  -1.465  1.00  0.00    -0.216 OA
HETATM   16  C12 UNL     1      -2.676  -0.885  -0.004  1.00  0.00     0.079 A 
HETATM   17  O5  UNL     1      -3.705  -0.006  -0.014  1.00  0.00    -0.278 OA
HETATM   18  C13 UNL     1      -3.428   1.305  -0.197  1.00  0.00     0.300 A 
HETATM   19  C14 UNL     1      -2.045   1.781  -0.385  1.00  0.00     0.064 A 
HETATM   20  O6  UNL     1      -4.305   2.137  -0.213  1.00  0.00    -0.259 OA
HETATM   21  C18 UNL     1       0.875   0.832  -1.953  1.00  0.00     0.007 C 
HETATM   22  C19 UNL     1       3.176   0.768   2.021  1.00  0.00     0.013 C 
HETATM   23  O7  UNL     1       3.772   1.701  -1.471  1.00  0.00    -0.220 OA
ENDROOT
BRANCH  16  24
HETATM   24  C15 UNL     1      -3.014  -2.342   0.193  1.00  0.00     0.045 C 
HETATM   25  C16 UNL     1      -4.398  -2.697  -0.344  1.00  0.00     0.007 C 
HETATM   26  C17 UNL     1      -2.807  -2.799   1.639  1.00  0.00     0.007 C 
ENDBRANCH  16  24
TORSDOF 1
