REMARK  1 active torsions:
REMARK  status: ('A' for Active; 'I' for Inactive)
REMARK    1  A    between atoms: C12_14  and  C15_19 
ROOT
HETATM    1  C1  UNL     1       3.178  -2.139   0.375  1.00  0.00     0.001 C 
HETATM    2  C2  UNL     1       3.750  -1.035  -0.527  1.00  0.00     0.009 C 
HETATM    3  C3  UNL     1       2.914   0.254  -0.641  1.00  0.00     0.081 C 
HETATM    4  C4  UNL     1       1.406  -0.043  -0.648  1.00  0.00     0.045 C 
HETATM    5  C5  UNL     1       0.906  -1.033   0.441  1.00  0.00     0.022 C 
HETATM    6  C6  UNL     1       1.666  -2.344   0.164  1.00  0.00     0.004 C 
HETATM    7  C7  UNL     1      -0.608  -1.041   0.352  1.00  0.00    -0.019 C 
HETATM    8  C8  UNL     1      -1.279   0.274   0.348  1.00  0.00    -0.001 C 
HETATM    9  C9  UNL     1      -0.584   1.406   0.096  1.00  0.00     0.001 C 
HETATM   10  C10 UNL     1       0.879   1.363  -0.310  1.00  0.00     0.147 C 
HETATM   11  O1  UNL     1       1.773   1.859   0.688  1.00  0.00    -0.300 OA
HETATM   12  C11 UNL     1       2.953   1.260   0.481  1.00  0.00     0.271 C 
HETATM   13  O2  UNL     1       3.957   1.479   1.119  1.00  0.00    -0.264 OA
HETATM   14  C12 UNL     1      -2.768   0.277   0.656  1.00  0.00     0.146 C 
HETATM   15  O3  UNL     1      -3.440  -0.879   0.131  1.00  0.00    -0.296 OA
HETATM   16  C13 UNL     1      -2.818  -2.074   0.170  1.00  0.00     0.296 C 
HETATM   17  C14 UNL     1      -1.350  -2.160   0.293  1.00  0.00     0.064 C 
HETATM   18  O4  UNL     1      -3.436  -3.109   0.088  1.00  0.00    -0.259 OA
HETATM   19  C18 UNL     1       1.207  -0.600   1.889  1.00  0.00     0.004 C 
HETATM   20  C19 UNL     1       3.297   0.984  -1.930  1.00  0.00     0.010 C 
ENDROOT
BRANCH  14  21
HETATM   21  C15 UNL     1      -3.514   1.516   0.150  1.00  0.00     0.032 C 
HETATM   22  C16 UNL     1      -3.502   1.629  -1.375  1.00  0.00     0.003 C 
HETATM   23  C17 UNL     1      -4.920   1.641   0.740  1.00  0.00     0.003 C 
ENDBRANCH  14  21
TORSDOF 1
