REMARK  1 active torsions:
REMARK  status: ('A' for Active; 'I' for Inactive)
REMARK    1  A    between atoms: N1_13  and  C13_15 
ROOT
HETATM    1  C1  UNL     1      -2.219   2.455   0.934  1.00  0.00     0.033 C 
HETATM    2  C2  UNL     1      -3.275   1.434   0.514  1.00  0.00     0.005 C 
HETATM    3  C3  UNL     1      -2.775  -0.037   0.553  1.00  0.00     0.032 C 
HETATM    4  C4  UNL     1      -1.324  -0.137   1.105  1.00  0.00     0.006 C 
HETATM    5  C5  UNL     1      -0.383   0.766   0.262  1.00  0.00     0.058 C 
HETATM    6  C6  UNL     1      -0.879   2.242   0.213  1.00  0.00     0.154 C 
HETATM    7  O1  UNL     1      -0.986   2.695  -1.123  1.00  0.00    -0.223 OA
HETATM    8  C7  UNL     1       1.098   0.670   0.736  1.00  0.00     0.009 C 
HETATM    9  C8  UNL     1       1.527  -0.764   0.307  1.00  0.00     0.034 C 
HETATM   10  C9  UNL     1       0.207  -1.324  -0.252  1.00  0.00     0.034 C 
HETATM   11  C10 UNL     1      -0.760  -1.553   0.914  1.00  0.00     0.002 C 
HETATM   12  C11 UNL     1      -0.351  -0.100  -1.008  1.00  0.00     0.222 C 
HETATM   13  N1  UNL     1      -1.658  -0.264  -1.684  1.00  0.00     0.135 N 
HETATM   14  C12 UNL     1      -2.805  -0.668  -0.863  1.00  0.00     0.250 C 
HETATM   15  C15 UNL     1       2.334  -1.561   1.373  1.00  0.00     0.171 C 
HETATM   16  C16 UNL     1       3.735  -1.045   1.197  1.00  0.00    -0.012 C 
HETATM   17  C17 UNL     1       3.807  -0.186  -0.029  1.00  0.00     0.051 C 
HETATM   18  C18 UNL     1       3.555   1.307   0.299  1.00  0.00     0.156 C 
HETATM   19  C19 UNL     1       2.068   1.727   0.160  1.00  0.00     0.034 C 
HETATM   20  O2  UNL     1       4.324   2.113  -0.572  1.00  0.00    -0.223 OA
HETATM   21  C20 UNL     1       2.615  -0.740  -0.807  1.00  0.00     0.009 C 
HETATM   22  C21 UNL     1       4.778  -1.316   2.002  1.00  0.00    -0.007 C 
HETATM   23  O3  UNL     1       1.895  -1.354   2.705  1.00  0.00    -0.219 OA
HETATM   24  C22 UNL     1      -3.650  -0.859   1.514  1.00  0.00     0.002 C 
ENDROOT
BRANCH  13  25
HETATM   25  C13 UNL     1      -1.551  -1.053  -2.906  1.00  0.00     0.250 C 
HETATM   26  C14 UNL     1      -2.754  -0.795  -3.815  1.00  0.00     0.037 C 
ENDBRANCH  13  25
TORSDOF 1
