REMARK  0 active torsions:
REMARK  status: ('A' for Active; 'I' for Inactive)
ROOT
HETATM    1  C1  UNL     1       2.496   0.525  -0.041  1.00  0.00     0.000 A 
HETATM    2  C2  UNL     1       2.393  -0.887   0.000  1.00  0.00     0.000 A 
HETATM    3  C3  UNL     1       1.121  -1.508   0.033  1.00  0.00     0.000 A 
HETATM    4  C4  UNL     1      -0.053  -0.713   0.023  1.00  0.00     0.000 A 
HETATM    5  C5  UNL     1       0.053   0.713  -0.022  1.00  0.00     0.000 A 
HETATM    6  C6  UNL     1       1.330   1.326  -0.051  1.00  0.00     0.000 A 
HETATM    7  C7  UNL     1      -1.121   1.506  -0.037  1.00  0.00     0.000 A 
HETATM    8  C8  UNL     1      -2.393   0.886  -0.004  1.00  0.00     0.000 A 
HETATM    9  C9  UNL     1      -2.496  -0.524   0.045  1.00  0.00     0.000 A 
HETATM   10  C10 UNL     1      -1.330  -1.327   0.058  1.00  0.00     0.000 A 
ENDROOT
TORSDOF 0
