REMARK  0 active torsions:
REMARK  status: ('A' for Active; 'I' for Inactive)
ROOT
HETATM    1  C1  UNL     1      -4.658   0.225  -1.197  1.00  0.00     0.002 A 
HETATM    2  C2  UNL     1      -4.608   1.115  -0.104  1.00  0.00     0.028 A 
HETATM    3  C3  UNL     1      -3.414   1.258   0.641  1.00  0.00     0.134 A 
HETATM    4  C4  UNL     1      -2.258   0.518   0.275  1.00  0.00     0.069 A 
HETATM    5  C5  UNL     1      -2.313  -0.373  -0.830  1.00  0.00     0.044 A 
HETATM    6  C6  UNL     1      -3.516  -0.523  -1.557  1.00  0.00     0.003 A 
HETATM    7  C7  UNL     1      -1.117  -1.156  -1.234  1.00  0.00     0.194 A 
HETATM    8  C8  UNL     1       0.127  -0.953  -0.459  1.00  0.00     0.042 A 
HETATM    9  C9  UNL     1       0.209  -0.066   0.561  1.00  0.00     0.132 A 
HETATM   10  C10 UNL     1      -0.990   0.666   1.045  1.00  0.00     0.220 A 
HETATM   11  O1  UNL     1      -0.832   1.338   2.039  1.00  0.00    -0.284 OA
HETATM   12  O2  UNL     1       1.377   0.178   1.191  1.00  0.00    -0.333 OA
HETATM   13  C11 UNL     1       2.654   0.002   0.531  1.00  0.00     0.099 C 
HETATM   14  C12 UNL     1       2.547  -0.795  -0.795  1.00  0.00     0.033 C 
HETATM   15  C13 UNL     1       1.363  -1.746  -0.793  1.00  0.00     0.034 C 
HETATM   16  C14 UNL     1       3.228   1.406   0.252  1.00  0.00     0.030 C 
HETATM   17  C15 UNL     1       3.574  -0.715   1.533  1.00  0.00     0.030 C 
HETATM   18  O3  UNL     1      -1.061  -1.947  -2.150  1.00  0.00    -0.287 OA
HETATM   19  O4  UNL     1      -3.389   2.098   1.684  1.00  0.00    -0.190 OA
ENDROOT
TORSDOF 0
