REMARK  0 active torsions:
REMARK  status: ('A' for Active; 'I' for Inactive)
ROOT
HETATM    1  C1  UNL     1      -5.133  -2.486   0.260  1.00  0.00     0.000 A 
HETATM    2  C2  UNL     1      -4.459  -3.408  -0.588  1.00  0.00     0.002 A 
HETATM    3  C3  UNL     1      -3.201  -3.070  -1.154  1.00  0.00     0.019 A 
HETATM    4  C4  UNL     1      -2.647  -1.805  -0.853  1.00  0.00     0.081 A 
HETATM    5  C5  UNL     1      -3.299  -0.914  -0.031  1.00  0.00     0.015 A 
HETATM    6  C6  UNL     1      -4.553  -1.225   0.547  1.00  0.00     0.001 A 
HETATM    7  C7  UNL     1      -2.598   0.229   0.129  1.00  0.00    -0.003 A 
HETATM    8  C8  UNL     1      -1.430   0.078  -0.639  1.00  0.00     0.075 A 
HETATM    9  N1  UNL     1      -1.459  -1.201  -1.248  1.00  0.00    -0.248 NA
HETATM   10  C9  UNL     1      -0.359   1.164  -0.756  1.00  0.00     0.124 C 
HETATM   11  N2  UNL     1      -0.477   2.049   0.445  1.00  0.00    -0.313 N 
HETATM   12  C10 UNL     1      -1.842   2.619   0.666  1.00  0.00     0.109 C 
HETATM   13  C11 UNL     1      -2.881   1.488   0.949  1.00  0.00     0.052 C 
HETATM   14  C12 UNL     1       0.566   2.262   1.324  1.00  0.00     0.256 C 
HETATM   15  C13 UNL     1       1.859   1.555   1.149  1.00  0.00     0.061 C 
HETATM   16  C14 UNL     1       1.887   0.342   0.229  1.00  0.00     0.052 C 
HETATM   17  C15 UNL     1       1.078   0.672  -1.039  1.00  0.00     0.037 C 
HETATM   18  C16 UNL     1       3.318  -0.111  -0.010  1.00  0.00    -0.015 C 
HETATM   19  C17 UNL     1       4.215   0.031   1.199  1.00  0.00     0.171 C 
HETATM   20  O1  UNL     1       4.180   1.369   1.699  1.00  0.00    -0.325 OA
HETATM   21  C18 UNL     1       2.981   1.973   1.781  1.00  0.00     0.117 C 
HETATM   22  C19 UNL     1       3.762  -0.596  -1.191  1.00  0.00    -0.032 C 
HETATM   23  C20 UNL     1       5.188  -1.033  -1.398  1.00  0.00     0.030 C 
HETATM   24  O2  UNL     1       0.420   3.018   2.258  1.00  0.00    -0.268 OA
ENDROOT
TORSDOF 0
