REMARK  4 active torsions:
REMARK  status: ('A' for Active; 'I' for Inactive)
REMARK    1  A    between atoms: C3_3  and  O4_23 
REMARK    2  A    between atoms: C5_5  and  C7_7 
REMARK    3  A    between atoms: C8_9  and  C13_14 
REMARK    4  A    between atoms: C15_16  and  O3_21 
ROOT
HETATM    1  C7  UNL     1      -1.152   0.438  -0.121  1.00  0.00     0.138 C 
HETATM    2  O1  UNL     1       0.213   0.334   0.197  1.00  0.00    -0.350 OA
HETATM    3  C8  UNL     1       0.947   0.016  -0.959  1.00  0.00     0.138 C 
HETATM    4  C9  UNL     1      -0.031  -0.818  -1.817  1.00  0.00     0.034 C 
HETATM    5  C10 UNL     1      -1.354  -0.781  -1.024  1.00  0.00     0.034 C 
HETATM    6  C11 UNL     1      -2.623  -0.678  -1.869  1.00  0.00     0.003 C 
HETATM    7  C12 UNL     1      -0.143  -0.189  -3.207  1.00  0.00     0.003 C 
ENDROOT
BRANCH   1   8
HETATM    8  C5  UNL     1      -1.977   0.426   1.117  1.00  0.00     0.007 A 
HETATM    9  C4  UNL     1      -2.895   1.463   1.361  1.00  0.00     0.024 A 
HETATM   10  C3  UNL     1      -3.676   1.459   2.531  1.00  0.00     0.119 A 
HETATM   11  C2  UNL     1      -3.539   0.410   3.459  1.00  0.00     0.153 A 
HETATM   12  C1  UNL     1      -2.621  -0.627   3.215  1.00  0.00     0.029 A 
HETATM   13  O5  UNL     1      -4.268   0.397   4.559  1.00  0.00    -0.188 OA
HETATM   14  C6  UNL     1      -1.842  -0.619   2.047  1.00  0.00     0.000 A 
BRANCH  10  15
HETATM   15  O4  UNL     1      -4.533   2.434   2.752  1.00  0.00    -0.326 OA
HETATM   16  C20 UNL     1      -4.633   3.467   1.783  1.00  0.00     0.181 C 
ENDBRANCH  10  15
ENDBRANCH   1   8
BRANCH   3  17
HETATM   17  C13 UNL     1       2.197  -0.699  -0.584  1.00  0.00     0.007 A 
HETATM   18  C14 UNL     1       3.449  -0.146  -0.906  1.00  0.00     0.024 A 
HETATM   19  C15 UNL     1       4.633  -0.818  -0.553  1.00  0.00     0.119 A 
HETATM   20  C16 UNL     1       4.564  -2.049   0.127  1.00  0.00     0.153 A 
HETATM   21  C17 UNL     1       3.313  -2.600   0.449  1.00  0.00     0.029 A 
HETATM   22  O2  UNL     1       5.668  -2.686   0.463  1.00  0.00    -0.188 OA
HETATM   23  C18 UNL     1       2.131  -1.928   0.096  1.00  0.00     0.000 A 
BRANCH  19  24
HETATM   24  O3  UNL     1       5.803  -0.293  -0.859  1.00  0.00    -0.326 OA
HETATM   25  C19 UNL     1       5.818   0.889  -1.647  1.00  0.00     0.181 C 
ENDBRANCH  19  24
ENDBRANCH   3  17
TORSDOF 4
