REMARK  5 active torsions:
REMARK  status: ('A' for Active; 'I' for Inactive)
REMARK    1  A    between atoms: C2_2  and  C9_12 
REMARK    2  A    between atoms: C5_5  and  O2_9 
REMARK    3  A    between atoms: C6_6  and  C7_7 
REMARK    4  A    between atoms: C9_12  and  C10_13 
REMARK    5  A    between atoms: C11_14  and  C12_15 
ROOT
HETATM    1  C1  UNL     1      -0.416   2.717  -0.216  1.00  0.00     0.011 C 
HETATM    2  C2  UNL     1      -0.019   1.681   0.633  1.00  0.00     0.065 C 
HETATM    3  C3  UNL     1      -0.968   0.844   1.229  1.00  0.00     0.136 C 
HETATM    4  C4  UNL     1      -2.316   1.110   0.965  1.00  0.00     0.052 C 
HETATM    5  C5  UNL     1      -2.764   2.188   0.191  1.00  0.00     0.099 C 
HETATM    6  C6  UNL     1      -1.775   2.939  -0.477  1.00  0.00     0.065 C 
HETATM    7  O3  UNL     1      -0.617  -0.184   2.046  1.00  0.00    -0.190 OA
ENDROOT
BRANCH   2   8
HETATM    8  C9  UNL     1       1.450   1.473   0.880  1.00  0.00     0.198 C 
HETATM    9  O5  UNL     1       2.136   2.402   1.292  1.00  0.00    -0.286 OA
BRANCH   8  10
HETATM   10  C10 UNL     1       2.056   0.143   0.612  1.00  0.00     0.042 C 
HETATM   11  C11 UNL     1       1.453  -0.841  -0.095  1.00  0.00     0.003 C 
BRANCH  11  12
HETATM   12  C12 UNL     1       2.029  -2.165  -0.376  1.00  0.00     0.000 A 
HETATM   13  C13 UNL     1       1.210  -3.147  -0.959  1.00  0.00     0.002 A 
HETATM   14  C14 UNL     1       1.707  -4.415  -1.260  1.00  0.00     0.027 A 
HETATM   15  C15 UNL     1       3.039  -4.755  -1.001  1.00  0.00     0.131 A 
HETATM   16  C16 UNL     1       3.858  -3.772  -0.441  1.00  0.00     0.027 A 
HETATM   17  O4  UNL     1       3.530  -5.987  -1.296  1.00  0.00    -0.190 OA
HETATM   18  C17 UNL     1       3.370  -2.499  -0.134  1.00  0.00     0.002 A 
ENDBRANCH  11  12
ENDBRANCH   8  10
ENDBRANCH   2   8
BRANCH   6  19
HETATM   19  C7  UNL     1      -2.150   4.013  -1.432  1.00  0.00     0.236 C 
HETATM   20  O1  UNL     1      -1.332   4.707  -2.020  1.00  0.00    -0.283 OA
ENDBRANCH   6  19
BRANCH   5  21
HETATM   21  O2  UNL     1      -4.100   2.320  -0.084  1.00  0.00    -0.328 OA
HETATM   22  C8  UNL     1      -4.774   3.190   0.797  1.00  0.00     0.181 C 
ENDBRANCH   5  21
TORSDOF 5
