REMARK  3 active torsions:
REMARK  status: ('A' for Active; 'I' for Inactive)
REMARK    1  A    between atoms: C8_9  and  C10_12 
REMARK    2  A    between atoms: C14_16  and  C16_18 
REMARK    3  A    between atoms: C16_18  and  C17_19 
ROOT
HETATM    1  C1  UNL     1      -5.991  -1.046   0.178  1.00  0.00     0.133 A 
HETATM    2  C2  UNL     1      -5.435   0.132  -0.325  1.00  0.00     0.028 A 
HETATM    3  C3  UNL     1      -4.064   0.228  -0.565  1.00  0.00     0.007 A 
HETATM    4  C4  UNL     1      -3.233  -0.868  -0.301  1.00  0.00     0.062 A 
HETATM    5  C5  UNL     1      -3.749  -2.068   0.211  1.00  0.00     0.105 A 
HETATM    6  C6  UNL     1      -5.130  -2.120   0.431  1.00  0.00     0.052 A 
HETATM    7  O1  UNL     1      -2.975  -3.163   0.464  1.00  0.00    -0.305 OA
HETATM    8  C7  UNL     1      -1.621  -3.019   0.404  1.00  0.00     0.126 C 
HETATM    9  C8  UNL     1      -0.977  -1.934  -0.078  1.00  0.00     0.064 C 
HETATM   10  C9  UNL     1      -1.776  -0.770  -0.545  1.00  0.00     0.199 C 
HETATM   11  O2  UNL     1      -1.278   0.195  -1.117  1.00  0.00    -0.286 OA
HETATM   12  O4  UNL     1      -7.326  -1.156   0.410  1.00  0.00    -0.190 OA
ENDROOT
BRANCH   9  13
HETATM   13  C10 UNL     1       0.505  -1.857  -0.107  1.00  0.00     0.005 A 
HETATM   14  C11 UNL     1       1.276  -2.982  -0.420  1.00  0.00     0.002 A 
HETATM   15  C12 UNL     1       2.666  -2.893  -0.461  1.00  0.00     0.027 A 
HETATM   16  C13 UNL     1       3.342  -1.696  -0.201  1.00  0.00     0.127 A 
HETATM   17  C14 UNL     1       2.582  -0.562   0.129  1.00  0.00     0.008 A 
HETATM   18  O3  UNL     1       4.701  -1.669  -0.256  1.00  0.00    -0.191 OA
HETATM   19  C15 UNL     1       1.187  -0.670   0.193  1.00  0.00    -0.002 A 
BRANCH  17  20
HETATM   20  C16 UNL     1       3.225   0.773   0.450  1.00  0.00     0.054 C 
BRANCH  20  21
HETATM   21  C17 UNL     1       2.626   1.911  -0.340  1.00  0.00    -0.030 C 
HETATM   22  C18 UNL     1       2.809   3.219  -0.085  1.00  0.00    -0.048 C 
HETATM   23  C19 UNL     1       2.140   4.284  -0.924  1.00  0.00     0.026 C 
HETATM   24  C20 UNL     1       3.676   3.744   1.033  1.00  0.00     0.026 C 
ENDBRANCH  20  21
ENDBRANCH  17  20
ENDBRANCH   9  13
TORSDOF 3
