REMARK  3 active torsions:
REMARK  status: ('A' for Active; 'I' for Inactive)
REMARK    1  A    between atoms: C7_8  and  C25_32 
REMARK    2  A    between atoms: C8_9  and  C10_12 
REMARK    3  A    between atoms: C14_17  and  C15_18 
ROOT
HETATM    1  C1  UNL     1      -0.377  -3.281   3.522  1.00  0.00     0.135 A 
HETATM    2  C2  UNL     1       0.883  -2.715   3.822  1.00  0.00     0.055 A 
HETATM    3  C3  UNL     1       1.191  -1.400   3.395  1.00  0.00     0.138 A 
HETATM    4  C4  UNL     1       0.232  -0.652   2.662  1.00  0.00     0.083 A 
HETATM    5  C5  UNL     1      -1.049  -1.211   2.395  1.00  0.00     0.101 A 
HETATM    6  C6  UNL     1      -1.340  -2.531   2.809  1.00  0.00     0.052 A 
HETATM    7  O1  UNL     1      -2.000  -0.500   1.750  1.00  0.00    -0.328 OA
HETATM    8  C7  UNL     1      -1.906   0.928   1.682  1.00  0.00     0.151 C 
HETATM    9  C8  UNL     1      -0.483   1.358   1.258  1.00  0.00     0.104 C 
HETATM   10  C9  UNL     1       0.555   0.715   2.158  1.00  0.00     0.180 C 
HETATM   11  O2  UNL     1       1.555   1.354   2.391  1.00  0.00    -0.291 OA
HETATM   12  O9  UNL     1       2.394  -0.885   3.684  1.00  0.00    -0.190 OA
HETATM   13  O10 UNL     1      -0.660  -4.531   3.916  1.00  0.00    -0.190 OA
ENDROOT
BRANCH   9  14
HETATM   14  C10 UNL     1      -0.168   1.006  -0.199  1.00  0.00     0.104 C 
HETATM   15  C11 UNL     1       0.971   1.879  -0.693  1.00  0.00     0.180 C 
HETATM   16  C12 UNL     1       2.346   1.332  -0.506  1.00  0.00     0.083 A 
HETATM   17  O7  UNL     1       0.676   2.942  -1.191  1.00  0.00    -0.291 OA
HETATM   18  C13 UNL     1       2.508   0.008  -0.010  1.00  0.00     0.101 A 
HETATM   19  C24 UNL     1       3.486   2.121  -0.807  1.00  0.00     0.138 A 
HETATM   20  O3  UNL     1       1.443  -0.789   0.229  1.00  0.00    -0.328 OA
HETATM   21  C21 UNL     1       3.809  -0.492   0.238  1.00  0.00     0.052 A 
HETATM   22  C14 UNL     1       0.162  -0.496  -0.348  1.00  0.00     0.151 C 
HETATM   23  C22 UNL     1       4.943   0.303  -0.045  1.00  0.00     0.135 A 
HETATM   24  C23 UNL     1       4.781   1.602  -0.576  1.00  0.00     0.055 A 
HETATM   25  O6  UNL     1       6.172  -0.180   0.184  1.00  0.00    -0.190 OA
HETATM   26  O5  UNL     1       3.357   3.361  -1.303  1.00  0.00    -0.190 OA
BRANCH  22  27
HETATM   27  C15 UNL     1       0.133  -0.951  -1.769  1.00  0.00     0.006 A 
HETATM   28  C16 UNL     1      -0.998  -0.699  -2.566  1.00  0.00     0.000 A 
HETATM   29  C17 UNL     1      -1.026  -1.129  -3.904  1.00  0.00     0.027 A 
HETATM   30  C18 UNL     1       0.078  -1.809  -4.451  1.00  0.00     0.131 A 
HETATM   31  C19 UNL     1       1.209  -2.059  -3.652  1.00  0.00     0.027 A 
HETATM   32  O4  UNL     1       0.053  -2.209  -5.707  1.00  0.00    -0.190 OA
HETATM   33  C20 UNL     1       1.236  -1.631  -2.314  1.00  0.00     0.000 A 
ENDBRANCH  22  27
ENDBRANCH   9  14
BRANCH   8  34
HETATM   34  C25 UNL     1      -2.971   1.449   0.781  1.00  0.00     0.006 A 
HETATM   35  C26 UNL     1      -3.319   2.811   0.818  1.00  0.00     0.000 A 
HETATM   36  C27 UNL     1      -4.324   3.301  -0.031  1.00  0.00     0.027 A 
HETATM   37  C28 UNL     1      -4.985   2.434  -0.920  1.00  0.00     0.131 A 
HETATM   38  C29 UNL     1      -4.635   1.072  -0.955  1.00  0.00     0.027 A 
HETATM   39  O8  UNL     1      -5.928   2.897  -1.717  1.00  0.00    -0.190 OA
HETATM   40  C30 UNL     1      -3.629   0.580  -0.105  1.00  0.00     0.000 A 
ENDBRANCH   8  34
TORSDOF 3
