REMARK  7 active torsions:
REMARK  status: ('A' for Active; 'I' for Inactive)
REMARK    1  A    between atoms: C1_1  and  O12_35 
REMARK    2  A    between atoms: C7_8  and  C18_27 
REMARK    3  A    between atoms: C8_9  and  O3_12 
REMARK    4  A    between atoms: O3_12  and  C10_13 
REMARK    5  A    between atoms: C11_15  and  C15_22 
REMARK    6  A    between atoms: C15_22  and  O8_23 
REMARK    7  A    between atoms: O8_23  and  C16_24 
ROOT
HETATM    1  C1  UNL     1      -6.061  -0.297  -0.717  1.00  0.00     0.098 A 
HETATM    2  C2  UNL     1      -5.904  -1.600  -0.188  1.00  0.00     0.052 A 
HETATM    3  C3  UNL     1      -4.611  -2.139   0.006  1.00  0.00     0.138 A 
HETATM    4  C4  UNL     1      -3.471  -1.365  -0.332  1.00  0.00     0.089 A 
HETATM    5  C5  UNL     1      -3.625  -0.059  -0.863  1.00  0.00     0.107 A 
HETATM    6  C6  UNL     1      -4.922   0.473  -1.055  1.00  0.00     0.049 A 
HETATM    7  O1  UNL     1      -2.539   0.676  -1.184  1.00  0.00    -0.305 OA
HETATM    8  C7  UNL     1      -1.270   0.244  -1.029  1.00  0.00     0.125 A 
HETATM    9  C8  UNL     1      -0.990  -0.988  -0.535  1.00  0.00     0.158 A 
HETATM   10  C9  UNL     1      -2.094  -1.899  -0.145  1.00  0.00     0.224 A 
HETATM   11  O2  UNL     1      -1.783  -2.984   0.289  1.00  0.00    -0.284 OA
HETATM   12  O11 UNL     1      -4.483  -3.375   0.510  1.00  0.00    -0.190 OA
ENDROOT
BRANCH   9  13
HETATM   13  O3  UNL     1       0.270  -1.404  -0.389  1.00  0.00    -0.298 OA
BRANCH  13  14
HETATM   14  C10 UNL     1       0.932  -0.756   0.689  1.00  0.00     0.274 C 
HETATM   15  O4  UNL     1       2.311  -0.635   0.371  1.00  0.00    -0.326 OA
HETATM   16  C11 UNL     1       3.094   0.043   1.346  1.00  0.00     0.181 C 
HETATM   17  C12 UNL     1       3.043  -0.736   2.680  1.00  0.00     0.215 C 
HETATM   18  C13 UNL     1       1.586  -0.969   3.142  1.00  0.00     0.220 C 
HETATM   19  O7  UNL     1       3.748  -0.002   3.664  1.00  0.00    -0.218 OA
HETATM   20  C14 UNL     1       0.764  -1.576   1.984  1.00  0.00     0.241 C 
HETATM   21  O6  UNL     1       1.568  -1.846   4.258  1.00  0.00    -0.218 OA
HETATM   22  O5  UNL     1      -0.609  -1.604   2.328  1.00  0.00    -0.215 OA
BRANCH  16  23
HETATM   23  C15 UNL     1       4.510   0.156   0.773  1.00  0.00     0.184 C 
BRANCH  23  24
HETATM   24  O8  UNL     1       4.463   0.832  -0.475  1.00  0.00    -0.299 OA
BRANCH  24  25
HETATM   25  C16 UNL     1       5.664   0.943  -1.035  1.00  0.00     0.273 C 
HETATM   26  O9  UNL     1       6.693   0.611  -0.494  1.00  0.00    -0.264 OA
HETATM   27  C17 UNL     1       5.670   1.521  -2.426  1.00  0.00     0.106 C 
ENDBRANCH  24  25
ENDBRANCH  23  24
ENDBRANCH  16  23
ENDBRANCH  13  14
ENDBRANCH   9  13
BRANCH   8  28
HETATM   28  C18 UNL     1      -0.148   1.150  -1.418  1.00  0.00     0.025 A 
HETATM   29  C19 UNL     1       0.969   0.635  -2.100  1.00  0.00     0.004 A 
HETATM   30  C20 UNL     1       2.023   1.490  -2.465  1.00  0.00     0.028 A 
HETATM   31  C21 UNL     1       1.969   2.859  -2.149  1.00  0.00     0.131 A 
HETATM   32  C22 UNL     1       0.852   3.371  -1.467  1.00  0.00     0.028 A 
HETATM   33  O10 UNL     1       2.959   3.658  -2.492  1.00  0.00    -0.190 OA
HETATM   34  C23 UNL     1      -0.205   2.520  -1.102  1.00  0.00     0.004 A 
ENDBRANCH   8  28
BRANCH   1  35
HETATM   35  O12 UNL     1      -7.287   0.211  -0.901  1.00  0.00    -0.328 OA
HETATM   36  C24 UNL     1      -8.403  -0.629  -0.635  1.00  0.00     0.181 C 
ENDBRANCH   1  35
TORSDOF 7
