REMARK  15 active torsions:
REMARK  status: ('A' for Active; 'I' for Inactive)
REMARK    1  A    between atoms: C2_2  and  C37_49 
REMARK    2  A    between atoms: C3_3  and  O8_37 
REMARK    3  A    between atoms: C6_6  and  O3_12 
REMARK    4  A    between atoms: C7_7  and  O1_8 
REMARK    5  A    between atoms: O1_8  and  C8_9 
REMARK    6  A    between atoms: O3_12  and  C10_13 
REMARK    7  A    between atoms: C14_18  and  O5_21 
REMARK    8  A    between atoms: O5_21  and  C17_22 
REMARK    9  A    between atoms: C17_22  and  C18_23 
REMARK   10  A    between atoms: C18_23  and  C19_24 
REMARK   11  A    between atoms: C19_24  and  N1_25 
REMARK   12  A    between atoms: C19_24  and  C22_28 
REMARK   13  A    between atoms: O8_37  and  C29_38 
REMARK   14  A    between atoms: C32_42  and  O10_45 
REMARK   15  A    between atoms: O10_45  and  C35_46 
ROOT
HETATM    1  C1  UNL     1      -1.574  -2.606  -0.730  1.00  0.00    -0.016 C 
HETATM    2  C2  UNL     1      -1.666  -1.231  -1.334  1.00  0.00     0.071 C 
HETATM    3  C3  UNL     1      -0.316  -0.574  -1.689  1.00  0.00     0.134 C 
HETATM    4  C4  UNL     1       0.867  -0.844  -0.697  1.00  0.00     0.054 C 
HETATM    5  C5  UNL     1       1.645  -2.197  -0.914  1.00  0.00     0.062 C 
HETATM    6  C6  UNL     1       0.799  -3.440  -0.502  1.00  0.00     0.158 C 
HETATM    7  C7  UNL     1      -0.570  -3.633  -1.180  1.00  0.00     0.170 C 
HETATM    8  C12 UNL     1       2.967  -2.234  -0.045  1.00  0.00     0.158 C 
HETATM    9  C13 UNL     1       2.959  -1.221   1.119  1.00  0.00     0.068 C 
HETATM   10  C14 UNL     1       2.805   0.225   0.617  1.00  0.00     0.145 C 
HETATM   11  C15 UNL     1       1.904   0.269  -0.598  1.00  0.00    -0.015 C 
HETATM   12  C16 UNL     1       2.070   1.230  -1.525  1.00  0.00    -0.007 C 
HETATM   13  O7  UNL     1       4.133  -1.981  -0.814  1.00  0.00    -0.223 OA
HETATM   14  C28 UNL     1       1.988  -2.350  -2.412  1.00  0.00     0.005 C 
HETATM   15  C31 UNL     1      -2.435  -0.449  -0.240  1.00  0.00     0.043 C 
HETATM   16  C32 UNL     1      -3.277  -1.525   0.463  1.00  0.00     0.142 C 
HETATM   17  C33 UNL     1      -2.477  -2.774   0.244  1.00  0.00    -0.022 C 
HETATM   18  C34 UNL     1      -2.682  -4.031   1.049  1.00  0.00     0.028 C 
ENDROOT
BRANCH  10  19
HETATM   19  O5  UNL     1       2.262   1.037   1.648  1.00  0.00    -0.300 OA
BRANCH  19  20
HETATM   20  C17 UNL     1       2.656   2.303   1.559  1.00  0.00     0.274 C 
HETATM   21  O6  UNL     1       3.453   2.703   0.740  1.00  0.00    -0.264 OA
BRANCH  20  22
HETATM   22  C18 UNL     1       2.037   3.240   2.561  1.00  0.00     0.134 C 
BRANCH  22  23
HETATM   23  C19 UNL     1       1.781   4.631   1.977  1.00  0.00     0.252 C 
BRANCH  23  24
HETATM   24  N1  UNL     1       0.471   4.686   1.352  1.00  0.00     0.144 N 
HETATM   25  C20 UNL     1       0.152   6.047   0.953  1.00  0.00     0.286 C 
HETATM   26  C21 UNL     1       0.416   3.795   0.205  1.00  0.00     0.286 C 
ENDBRANCH  23  24
BRANCH  23  27
HETATM   27  C22 UNL     1       1.942   5.693   3.004  1.00  0.00     0.009 A 
HETATM   28  C23 UNL     1       2.820   6.766   2.775  1.00  0.00    -0.002 A 
HETATM   29  C24 UNL     1       2.973   7.770   3.746  1.00  0.00    -0.000 A 
HETATM   30  C25 UNL     1       2.246   7.703   4.947  1.00  0.00    -0.000 A 
HETATM   31  C26 UNL     1       1.367   6.631   5.178  1.00  0.00    -0.000 A 
HETATM   32  C27 UNL     1       1.215   5.625   4.207  1.00  0.00    -0.002 A 
ENDBRANCH  23  27
ENDBRANCH  22  23
ENDBRANCH  20  22
ENDBRANCH  19  20
ENDBRANCH  10  19
BRANCH   3  33
HETATM   33  O8  UNL     1      -0.568   0.824  -1.803  1.00  0.00    -0.304 OA
BRANCH  33  34
HETATM   34  C29 UNL     1      -0.422   1.266  -3.047  1.00  0.00     0.272 C 
HETATM   35  C30 UNL     1      -0.701   2.730  -3.244  1.00  0.00     0.106 C 
HETATM   36  O9  UNL     1      -0.090   0.566  -3.975  1.00  0.00    -0.264 OA
ENDBRANCH  33  34
ENDBRANCH   3  33
BRANCH   6  37
HETATM   37  O3  UNL     1       0.606  -3.434   0.908  1.00  0.00    -0.301 OA
BRANCH  37  38
HETATM   38  C10 UNL     1       1.246  -4.430   1.512  1.00  0.00     0.272 C 
HETATM   39  C11 UNL     1       0.664  -5.799   1.281  1.00  0.00     0.106 C 
HETATM   40  O4  UNL     1       2.227  -4.281   2.203  1.00  0.00    -0.264 OA
ENDBRANCH  37  38
ENDBRANCH   6  37
BRANCH   2  41
HETATM   41  C37 UNL     1      -2.584  -1.277  -2.557  1.00  0.00     0.132 C 
HETATM   42  C38 UNL     1      -3.756  -2.221  -2.279  1.00  0.00     0.033 C 
HETATM   43  C39 UNL     1      -3.039   0.141  -2.906  1.00  0.00     0.033 C 
HETATM   44  O12 UNL     1      -1.855  -1.789  -3.648  1.00  0.00    -0.226 OA
ENDBRANCH   2  41
BRANCH   7  45
HETATM   45  O1  UNL     1      -0.445  -3.598  -2.596  1.00  0.00    -0.298 OA
BRANCH  45  46
HETATM   46  C8  UNL     1       0.043  -4.733  -3.090  1.00  0.00     0.273 C 
HETATM   47  C9  UNL     1       0.172  -4.774  -4.588  1.00  0.00     0.106 C 
HETATM   48  O2  UNL     1       0.367  -5.678  -2.410  1.00  0.00    -0.264 OA
ENDBRANCH  45  46
ENDBRANCH   7  45
BRANCH  16  49
HETATM   49  O10 UNL     1      -3.420  -1.229   1.846  1.00  0.00    -0.300 OA
BRANCH  49  50
HETATM   50  C35 UNL     1      -4.434  -1.887   2.402  1.00  0.00     0.273 C 
HETATM   51  O11 UNL     1      -5.168  -2.629   1.795  1.00  0.00    -0.264 OA
HETATM   52  C36 UNL     1      -4.619  -1.645   3.875  1.00  0.00     0.106 C 
ENDBRANCH  49  50
ENDBRANCH  16  49
TORSDOF 15
