REMARK  0 active torsions:
REMARK  status: ('A' for Active; 'I' for Inactive)
ROOT
HETATM    1  C1  UNL     1      -3.479  -0.734  -3.166  1.00  0.00     0.004 C 
HETATM    2  C2  UNL     1      -3.857  -1.310  -1.789  1.00  0.00     0.018 C 
HETATM    3  C3  UNL     1      -3.209  -0.459  -0.650  1.00  0.00     0.006 C 
HETATM    4  C4  UNL     1      -1.656  -0.654  -0.422  1.00  0.00     0.031 C 
HETATM    5  C5  UNL     1      -0.773  -0.736  -1.703  1.00  0.00     0.152 C 
HETATM    6  O1  UNL     1      -1.049  -1.918  -2.434  1.00  0.00    -0.224 OA
HETATM    7  C6  UNL     1       0.736  -0.809  -1.416  1.00  0.00     0.033 C 
HETATM    8  C7  UNL     1       1.232   0.291  -0.463  1.00  0.00     0.003 C 
HETATM    9  C8  UNL     1       0.420   0.248   0.863  1.00  0.00     0.000 C 
HETATM   10  C9  UNL     1      -1.109   0.438   0.565  1.00  0.00     0.002 C 
HETATM   11  C10 UNL     1      -1.916   0.375   1.887  1.00  0.00     0.000 C 
HETATM   12  C11 UNL     1      -3.430   0.465   1.686  1.00  0.00     0.000 C 
HETATM   13  C12 UNL     1      -3.957  -0.596   0.705  1.00  0.00     0.001 C 
HETATM   14  C13 UNL     1      -5.463  -0.359   0.516  1.00  0.00     0.004 C 
HETATM   15  C14 UNL     1      -6.094  -1.389  -0.418  1.00  0.00     0.022 C 
HETATM   16  C15 UNL     1      -5.375  -1.457  -1.742  1.00  0.00    -0.044 C 
HETATM   17  C16 UNL     1      -6.100  -1.650  -2.863  1.00  0.00    -0.009 C 
HETATM   18  C17 UNL     1      -3.742  -1.996   1.307  1.00  0.00     0.000 C 
HETATM   19  C18 UNL     1      -1.334   1.826  -0.062  1.00  0.00     0.000 C 
HETATM   20  C19 UNL     1       0.951   1.358   1.805  1.00  0.00     0.000 C 
HETATM   21  C20 UNL     1       2.461   1.272   2.035  1.00  0.00     0.000 C 
HETATM   22  C21 UNL     1       3.254   1.336   0.717  1.00  0.00     0.002 C 
HETATM   23  C22 UNL     1       2.787   0.254  -0.291  1.00  0.00     0.000 C 
HETATM   24  C23 UNL     1       3.463   0.514  -1.674  1.00  0.00     0.003 C 
HETATM   25  C24 UNL     1       4.762   1.338  -1.615  1.00  0.00     0.033 C 
HETATM   26  C25 UNL     1       5.594   1.053  -0.355  1.00  0.00     0.152 C 
HETATM   27  C26 UNL     1       4.801   1.367   0.953  1.00  0.00     0.028 C 
HETATM   28  C27 UNL     1       5.213   0.426   2.102  1.00  0.00     0.003 C 
HETATM   29  C28 UNL     1       5.174   2.783   1.414  1.00  0.00     0.003 C 
HETATM   30  O2  UNL     1       6.026  -0.295  -0.418  1.00  0.00    -0.224 OA
HETATM   31  C29 UNL     1       3.223  -1.129   0.225  1.00  0.00     0.000 C 
HETATM   32  C30 UNL     1       0.635  -1.109   1.561  1.00  0.00     0.000 C 
ENDROOT
TORSDOF 0
