REMARK  3 active torsions:
REMARK  status: ('A' for Active; 'I' for Inactive)
REMARK    1  A    between atoms: C3_3  and  C4_4 
REMARK    2  A    between atoms: C4_4  and  C5_5 
REMARK    3  A    between atoms: C6_6  and  O1_7 
ROOT
HETATM    1  C5  UNL     1       1.844  -0.141  -0.762  1.00  0.00     0.030 A 
HETATM    2  C6  UNL     1       0.451   0.035  -0.562  1.00  0.00     0.096 A 
HETATM    3  C8  UNL     1      -0.049   1.324  -0.240  1.00  0.00     0.068 A 
HETATM    4  C9  UNL     1       0.838   2.441  -0.111  1.00  0.00     0.109 A 
HETATM    5  C10 UNL     1       2.223   2.246  -0.314  1.00  0.00     0.052 A 
HETATM    6  C11 UNL     1       2.726   0.963  -0.637  1.00  0.00     0.131 A 
HETATM    7  O2  UNL     1       4.043   0.801  -0.824  1.00  0.00    -0.190 OA
HETATM    8  O3  UNL     1       0.383   3.687   0.199  1.00  0.00    -0.273 OA
HETATM    9  C12 UNL     1      -0.922   3.992   0.412  1.00  0.00     0.302 A 
HETATM   10  C13 UNL     1      -1.893   2.881   0.291  1.00  0.00     0.088 A 
HETATM   11  C14 UNL     1      -1.500   1.586  -0.019  1.00  0.00     0.109 A 
HETATM   12  O4  UNL     1      -2.537   0.631  -0.102  1.00  0.00    -0.307 OA
HETATM   13  C15 UNL     1      -3.629   1.453   0.191  1.00  0.00     0.102 A 
HETATM   14  C16 UNL     1      -3.240   2.762   0.418  1.00  0.00     0.030 A 
HETATM   15  C17 UNL     1      -4.192   3.760   0.731  1.00  0.00     0.004 A 
HETATM   16  C18 UNL     1      -5.559   3.381   0.805  1.00  0.00     0.028 A 
HETATM   17  C19 UNL     1      -5.951   2.031   0.568  1.00  0.00     0.133 A 
HETATM   18  C20 UNL     1      -4.979   1.043   0.256  1.00  0.00     0.052 A 
HETATM   19  O5  UNL     1      -7.244   1.689   0.641  1.00  0.00    -0.190 OA
HETATM   20  O6  UNL     1      -1.303   5.105   0.688  1.00  0.00    -0.259 OA
ENDROOT
BRANCH   1  21
HETATM   21  C4  UNL     1       2.377  -1.473  -1.098  1.00  0.00     0.056 C 
BRANCH  21  22
HETATM   22  C3  UNL     1       3.137  -2.084   0.049  1.00  0.00    -0.030 C 
HETATM   23  C1  UNL     1       3.648  -3.317  -0.107  1.00  0.00    -0.048 C 
HETATM   24  C2  UNL     1       3.527  -4.156  -1.350  1.00  0.00     0.026 C 
HETATM   25  C21 UNL     1       4.406  -3.930   1.039  1.00  0.00     0.026 C 
ENDBRANCH  21  22
ENDBRANCH   1  21
BRANCH   2  26
HETATM   26  O1  UNL     1      -0.377  -1.014  -0.684  1.00  0.00    -0.328 OA
HETATM   27  C7  UNL     1      -0.647  -1.785   0.479  1.00  0.00     0.181 C 
ENDBRANCH   2  26
TORSDOF 3
