REMARK  9 active torsions:
REMARK  status: ('A' for Active; 'I' for Inactive)
REMARK    1  A    between atoms: C16_19  and  O8_38 
REMARK    2  A    between atoms: C17_20  and  O3_21 
REMARK    3  A    between atoms: O3_21  and  C18_22 
REMARK    4  A    between atoms: C18_22  and  C19_23 
REMARK    5  A    between atoms: C19_23  and  C20_24 
REMARK    6  A    between atoms: C19_23  and  C27_31 
REMARK    7  A    between atoms: C20_24  and  C21_25 
REMARK    8  A    between atoms: C27_31  and  C28_32 
REMARK    9  A    between atoms: C28_32  and  O4_33 
ROOT
HETATM    1  O1  UNL     1       2.470  12.151  -0.031  1.00  0.00    -0.300 OA
HETATM    2  C1  UNL     1       1.060  12.164  -0.310  1.00  0.00     0.304 A 
HETATM    3  O2  UNL     1       0.778  10.752  -0.426  1.00  0.00    -0.300 OA
HETATM    4  C2  UNL     1       1.909  10.065  -0.230  1.00  0.00     0.119 A 
HETATM    5  C3  UNL     1       2.891  10.884  -0.001  1.00  0.00     0.119 A 
HETATM    6  C4  UNL     1       4.210  10.426   0.256  1.00  0.00     0.022 A 
HETATM    7  C5  UNL     1       4.470   9.115   0.235  1.00  0.00    -0.018 A 
HETATM    8  C6  UNL     1       3.316   8.112  -0.053  1.00  0.00    -0.002 A 
HETATM    9  C7  UNL     1       2.093   8.620  -0.253  1.00  0.00     0.026 A 
HETATM   10  C8  UNL     1       3.477   6.601  -0.072  1.00  0.00     0.035 C 
HETATM   11  C9  UNL     1       4.803   5.830  -0.190  1.00  0.00     0.233 C 
HETATM   12  N1  UNL     1       6.006   6.224   0.567  1.00  0.00     0.141 N 
HETATM   13  C10 UNL     1       6.547   7.511   0.096  1.00  0.00     0.256 C 
HETATM   14  C11 UNL     1       5.893   8.783   0.608  1.00  0.00     0.062 C 
HETATM   15  C12 UNL     1       6.955   5.181   0.090  1.00  0.00     0.251 C 
HETATM   16  C13 UNL     1       6.678   5.064  -1.444  1.00  0.00     0.038 C 
HETATM   17  C14 UNL     1       5.381   5.884  -1.615  1.00  0.00     0.042 C 
HETATM   18  C15 UNL     1       4.389   4.415   0.025  1.00  0.00     0.035 C 
HETATM   19  C16 UNL     1       3.072   4.340   0.064  1.00  0.00     0.115 C 
HETATM   20  C17 UNL     1       2.456   5.702  -0.015  1.00  0.00     0.123 C 
ENDROOT
BRANCH  20  21
HETATM   21  O3  UNL     1       1.009   6.021   0.091  1.00  0.00    -0.273 OA
BRANCH  21  22
HETATM   22  C18 UNL     1       0.059   4.921  -0.070  1.00  0.00     0.305 C 
HETATM   23  O7  UNL     1       0.421   3.840  -0.521  1.00  0.00    -0.261 OA
BRANCH  22  24
HETATM   24  C19 UNL     1      -1.421   5.068   0.323  1.00  0.00     0.217 C 
HETATM   25  O6  UNL     1      -1.569   6.284   1.070  1.00  0.00    -0.215 OA
BRANCH  24  26
HETATM   26  C20 UNL     1      -2.358   5.032  -0.962  1.00  0.00     0.067 C 
BRANCH  26  27
HETATM   27  C21 UNL     1      -3.869   5.020  -0.646  1.00  0.00    -0.019 A 
HETATM   28  C22 UNL     1      -4.579   3.925  -0.938  1.00  0.00    -0.004 A 
HETATM   29  C23 UNL     1      -6.008   3.857  -0.628  1.00  0.00    -0.000 A 
HETATM   30  C24 UNL     1      -6.615   4.897  -0.062  1.00  0.00    -0.000 A 
HETATM   31  C25 UNL     1      -5.854   6.111   0.241  1.00  0.00    -0.000 A 
HETATM   32  C26 UNL     1      -4.551   6.172  -0.036  1.00  0.00    -0.004 A 
ENDBRANCH  26  27
ENDBRANCH  24  26
BRANCH  24  33
HETATM   33  C27 UNL     1      -1.826   3.823   1.223  1.00  0.00     0.136 C 
BRANCH  33  34
HETATM   34  C28 UNL     1      -1.761   2.436   0.538  1.00  0.00     0.275 C 
HETATM   35  O5  UNL     1      -1.490   2.314  -0.664  1.00  0.00    -0.264 OA
BRANCH  34  36
HETATM   36  O4  UNL     1      -2.046   1.293   1.277  1.00  0.00    -0.299 OA
HETATM   37  C29 UNL     1      -1.948   0.141   0.429  1.00  0.00     0.184 C 
ENDBRANCH  34  36
ENDBRANCH  33  34
ENDBRANCH  24  33
ENDBRANCH  22  24
ENDBRANCH  21  22
ENDBRANCH  20  21
BRANCH  19  38
HETATM   38  O8  UNL     1       2.400   3.127   0.270  1.00  0.00    -0.326 OA
HETATM   39  C30 UNL     1       3.321   2.030   0.365  1.00  0.00     0.181 C 
ENDBRANCH  19  38
TORSDOF 9
