REMARK  2 active torsions:
REMARK  status: ('A' for Active; 'I' for Inactive)
REMARK    1  A    between atoms: C3_3  and  C20_20 
REMARK    2  A    between atoms: C12_12  and  C16_16 
ROOT
HETATM    1  C1  UNL     1       3.227   1.535   0.853  1.00  0.00     0.001 C 
HETATM    2  C2  UNL     1       3.713   0.773  -0.375  1.00  0.00     0.010 C 
HETATM    3  C3  UNL     1       3.094  -0.641  -0.461  1.00  0.00     0.079 C 
HETATM    4  C4  UNL     1       1.691  -0.711   0.238  1.00  0.00     0.014 C 
HETATM    5  C5  UNL     1       0.885   0.615   0.166  1.00  0.00     0.004 C 
HETATM    6  C6  UNL     1       1.711   1.783   0.783  1.00  0.00     0.000 C 
HETATM    7  C7  UNL     1      -0.430   0.449   0.982  1.00  0.00     0.018 C 
HETATM    8  C8  UNL     1      -1.207  -0.807   0.641  1.00  0.00    -0.049 C 
HETATM    9  C9  UNL     1      -0.613  -1.904   0.133  1.00  0.00    -0.035 C 
HETATM   10  C10 UNL     1       0.859  -1.943  -0.207  1.00  0.00     0.026 C 
HETATM   11  C11 UNL     1      -2.697  -0.760   0.892  1.00  0.00     0.026 C 
HETATM   12  C12 UNL     1      -3.381   0.344   0.047  1.00  0.00     0.022 C 
HETATM   13  C13 UNL     1      -2.471   1.596  -0.111  1.00  0.00     0.005 C 
HETATM   14  C14 UNL     1      -1.365   1.687   0.959  1.00  0.00     0.004 C 
HETATM   15  C15 UNL     1      -3.732  -0.207  -1.340  1.00  0.00     0.005 C 
HETATM   16  C18 UNL     1       0.564   0.924  -1.305  1.00  0.00     0.000 C 
HETATM   17  C19 UNL     1       3.037  -1.041  -1.944  1.00  0.00     0.011 C 
ENDROOT
BRANCH   3  18
HETATM   18  C20 UNL     1       4.016  -1.631   0.213  1.00  0.00     0.184 C 
HETATM   19  O1  UNL     1       3.748  -2.910  -0.033  1.00  0.00    -0.647 OA
HETATM   20  O2  UNL     1       4.922  -1.256   0.918  1.00  0.00    -0.647 OA
ENDBRANCH   3  18
BRANCH  12  21
HETATM   21  C16 UNL     1      -4.684   0.726   0.711  1.00  0.00    -0.026 C 
HETATM   22  C17 UNL     1      -5.350  -0.213   1.400  1.00  0.00    -0.005 C 
ENDBRANCH  12  21
TORSDOF 2
