REMARK  6 active torsions:
REMARK  status: ('A' for Active; 'I' for Inactive)
REMARK    1  A    between atoms: C1_1  and  C21_29 
REMARK    2  A    between atoms: C5_5  and  O2_7 
REMARK    3  A    between atoms: O2_7  and  C6_8 
REMARK    4  A    between atoms: C9_11  and  C12_15 
REMARK    5  A    between atoms: C12_15  and  C13_16 
REMARK    6  A    between atoms: C14_17  and  C15_18 
ROOT
HETATM    1  C6  UNL     1       1.350   0.957  -1.596  1.00  0.00     0.099 A 
HETATM    2  C7  UNL     1       0.594   0.623  -0.459  1.00  0.00     0.025 A 
HETATM    3  C8  UNL     1       0.314  -0.725  -0.168  1.00  0.00     0.007 A 
HETATM    4  C9  UNL     1       0.791  -1.742  -1.014  1.00  0.00     0.064 A 
HETATM    5  C10 UNL     1       1.549  -1.412  -2.154  1.00  0.00     0.136 A 
HETATM    6  C11 UNL     1       1.824  -0.063  -2.439  1.00  0.00     0.052 A 
HETATM    7  O3  UNL     1       2.002  -2.354  -2.957  1.00  0.00    -0.190 OA
ENDROOT
BRANCH   1   8
HETATM    8  O2  UNL     1       1.611   2.219  -1.869  1.00  0.00    -0.304 OA
BRANCH   8   9
HETATM    9  C5  UNL     1       0.719   3.207  -1.375  1.00  0.00     0.274 C 
HETATM   10  C4  UNL     1       1.111   4.596  -1.922  1.00  0.00     0.241 C 
HETATM   11  C3  UNL     1       0.080   5.670  -1.512  1.00  0.00     0.220 C 
HETATM   12  O6  UNL     1       2.391   4.936  -1.416  1.00  0.00    -0.215 OA
HETATM   13  C2  UNL     1      -1.344   5.189  -1.873  1.00  0.00     0.215 C 
HETATM   14  O7  UNL     1       0.361   6.887  -2.185  1.00  0.00    -0.218 OA
HETATM   15  C1  UNL     1      -1.611   3.768  -1.326  1.00  0.00     0.184 C 
HETATM   16  O8  UNL     1      -2.303   6.074  -1.324  1.00  0.00    -0.218 OA
HETATM   17  O1  UNL     1      -0.602   2.883  -1.793  1.00  0.00    -0.326 OA
BRANCH  15  18
HETATM   18  C21 UNL     1      -2.951   3.189  -1.795  1.00  0.00     0.214 C 
HETATM   19  O9  UNL     1      -3.172   1.977  -1.113  1.00  0.00    -0.218 OA
ENDBRANCH  15  18
ENDBRANCH   8   9
ENDBRANCH   1   8
BRANCH   4  20
HETATM   20  C12 UNL     1       0.488  -3.170  -0.693  1.00  0.00     0.198 C 
HETATM   21  O5  UNL     1       0.268  -3.971  -1.572  1.00  0.00    -0.286 OA
BRANCH  20  22
HETATM   22  C13 UNL     1       0.461  -3.586   0.715  1.00  0.00     0.042 C 
HETATM   23  C14 UNL     1       0.111  -4.838   1.051  1.00  0.00     0.003 C 
BRANCH  23  24
HETATM   24  C15 UNL     1       0.100  -5.213   2.496  1.00  0.00     0.000 A 
HETATM   25  C16 UNL     1      -0.795  -6.195   2.963  1.00  0.00     0.002 A 
HETATM   26  C17 UNL     1      -0.805  -6.547   4.322  1.00  0.00     0.027 A 
HETATM   27  C18 UNL     1       0.078  -5.924   5.223  1.00  0.00     0.131 A 
HETATM   28  C19 UNL     1       0.971  -4.943   4.754  1.00  0.00     0.027 A 
HETATM   29  O4  UNL     1       0.068  -6.256   6.498  1.00  0.00    -0.190 OA
HETATM   30  C20 UNL     1       0.982  -4.588   3.395  1.00  0.00     0.002 A 
ENDBRANCH  23  24
ENDBRANCH  20  22
ENDBRANCH   4  20
TORSDOF 6
