REMARK  9 active torsions:
REMARK  status: ('A' for Active; 'I' for Inactive)
REMARK    1  A    between atoms: C6_6  and  O1_7 
REMARK    2  A    between atoms: C10_11  and  O7_30 
REMARK    3  A    between atoms: C12_13  and  O5_27 
REMARK    4  A    between atoms: C14_15  and  O2_16 
REMARK    5  A    between atoms: O2_16  and  C15_17 
REMARK    6  A    between atoms: C15_17  and  C16_18 
REMARK    7  A    between atoms: C26_33  and  O8_34 
REMARK    8  A    between atoms: N1_37  and  C29_38 
REMARK    9  A    between atoms: C32_41  and  O9_42 
ROOT
HETATM    1  C1  UNL     1      -3.193  -1.097   0.906  1.00  0.00     0.030 C 
HETATM    2  C2  UNL     1      -2.989  -2.574   1.409  1.00  0.00     0.007 C 
HETATM    3  C3  UNL     1      -1.884  -3.218   0.545  1.00  0.00     0.061 A 
HETATM    4  C4  UNL     1      -0.494  -2.363   0.997  1.00  0.00     0.036 C 
HETATM    5  C5  UNL     1      -0.624  -0.815   0.546  1.00  0.00     0.057 C 
HETATM    6  C6  UNL     1      -1.985  -0.193   1.112  1.00  0.00     0.117 C 
HETATM    7  C8  UNL     1       0.488   0.307   0.882  1.00  0.00     0.012 C 
HETATM    8  C9  UNL     1       2.021  -0.179   0.906  1.00  0.00     0.058 C 
HETATM    9  C10 UNL     1       2.191  -0.690  -0.515  1.00  0.00     0.130 C 
HETATM   10  C11 UNL     1       2.505   0.824  -1.228  1.00  0.00     0.206 C 
HETATM   11  C12 UNL     1       1.918   2.324  -0.394  1.00  0.00     0.178 C 
HETATM   12  C13 UNL     1       1.891   2.049   1.409  1.00  0.00     0.179 C 
HETATM   13  C14 UNL     1       3.038   1.119   1.570  1.00  0.00     0.157 C 
HETATM   14  C22 UNL     1       0.614   1.101   2.044  1.00  0.00     0.036 C 
HETATM   15  O4  UNL     1       1.924   3.272   2.145  1.00  0.00    -0.221 OA
HETATM   16  O6  UNL     1       2.631   0.767  -2.653  1.00  0.00    -0.218 OA
HETATM   17  C25 UNL     1       0.944  -1.700  -1.017  1.00  0.00     0.086 C 
HETATM   18  C26 UNL     1       0.776  -2.847   0.146  1.00  0.00     0.120 C 
HETATM   19  C28 UNL     1      -0.442  -1.046  -1.030  1.00  0.00     0.226 C 
HETATM   20  N1  UNL     1      -1.460  -1.974  -1.666  1.00  0.00     0.136 N 
HETATM   21  C31 UNL     1      -1.520  -3.308  -1.001  1.00  0.00     0.248 A 
HETATM   22  C32 UNL     1      -3.027  -3.011  -0.595  1.00  0.00     0.149 A 
ENDROOT
BRANCH  13  23
HETATM   23  O2  UNL     1       4.573   1.174   2.030  1.00  0.00    -0.298 OA
BRANCH  23  24
HETATM   24  C15 UNL     1       5.349   0.496   1.075  1.00  0.00     0.296 C 
HETATM   25  O3  UNL     1       4.752   0.001   0.192  1.00  0.00    -0.259 OA
BRANCH  24  26
HETATM   26  C16 UNL     1       6.712   0.163   0.831  1.00  0.00     0.063 A 
HETATM   27  C17 UNL     1       6.801  -0.809  -0.060  1.00  0.00     0.005 A 
HETATM   28  C18 UNL     1       8.026  -1.346  -0.529  1.00  0.00     0.000 A 
HETATM   29  C19 UNL     1       9.145  -0.806  -0.077  1.00  0.00     0.000 A 
HETATM   30  C20 UNL     1       9.081   0.312   0.906  1.00  0.00     0.000 A 
HETATM   31  C21 UNL     1       7.905   0.776   1.370  1.00  0.00     0.005 A 
ENDBRANCH  24  26
ENDBRANCH  23  24
ENDBRANCH  13  23
BRANCH   9  32
HETATM   32  O7  UNL     1       3.513  -1.486  -0.745  1.00  0.00    -0.354 OA
HETATM   33  C24 UNL     1       3.966  -2.663   0.110  1.00  0.00     0.174 C 
ENDBRANCH   9  32
BRANCH  11  34
HETATM   34  O5  UNL     1       2.909   3.386  -0.651  1.00  0.00    -0.349 OA
HETATM   35  C23 UNL     1       2.918   3.895  -1.982  1.00  0.00     0.174 C 
ENDBRANCH  11  34
BRANCH   6  36
HETATM   36  O1  UNL     1      -2.287   1.059   0.470  1.00  0.00    -0.354 OA
HETATM   37  C7  UNL     1      -3.606   1.521   0.847  1.00  0.00     0.174 C 
ENDBRANCH   6  36
BRANCH  18  38
HETATM   38  O8  UNL     1       1.008  -4.269  -0.135  1.00  0.00    -0.354 OA
HETATM   39  C27 UNL     1       1.134  -5.047   1.070  1.00  0.00     0.174 C 
ENDBRANCH  18  38
BRANCH  20  40
HETATM   40  C29 UNL     1      -1.218  -2.159  -3.177  1.00  0.00     0.250 C 
HETATM   41  C30 UNL     1      -1.586  -0.875  -3.956  1.00  0.00     0.037 C 
ENDBRANCH  20  40
BRANCH  22  42
HETATM   42  O9  UNL     1      -4.155  -3.857  -0.573  1.00  0.00    -0.352 OA
HETATM   43  C33 UNL     1      -5.181  -3.248  -1.414  1.00  0.00     0.174 C 
ENDBRANCH  22  42
TORSDOF 9
