REMARK  5 active torsions:
REMARK  status: ('A' for Active; 'I' for Inactive)
REMARK    1  A    between atoms: C15_15  and  C18_18 
REMARK    2  A    between atoms: C18_18  and  C19_19 
REMARK    3  A    between atoms: C19_19  and  C20_20 
REMARK    4  A    between atoms: C20_20  and  C21_21 
REMARK    5  A    between atoms: C22_22  and  C23_23 
ROOT
HETATM    1  C1  UNL     1       5.658   1.193   0.916  1.00  0.00     0.065 C 
HETATM    2  C2  UNL     1       6.260   0.650  -0.361  1.00  0.00     0.150 C 
HETATM    3  C3  UNL     1       5.815  -0.732  -0.793  1.00  0.00     0.052 C 
HETATM    4  C4  UNL     1       4.254  -0.842  -0.861  1.00  0.00     0.010 C 
HETATM    5  C5  UNL     1       3.488   0.182   0.055  1.00  0.00     0.015 C 
HETATM    6  C6  UNL     1       4.344   0.494   1.299  1.00  0.00     0.011 C 
HETATM    7  C7  UNL     1       2.104  -0.303   0.457  1.00  0.00    -0.053 C 
HETATM    8  C8  UNL     1       1.557  -1.459   0.072  1.00  0.00    -0.053 C 
HETATM    9  C9  UNL     1       2.264  -2.443  -0.822  1.00  0.00     0.021 C 
HETATM   10  C10 UNL     1       3.779  -2.301  -0.658  1.00  0.00     0.005 C 
HETATM   11  C11 UNL     1       0.170  -1.670   0.619  1.00  0.00     0.017 C 
HETATM   12  C12 UNL     1      -0.025  -0.475   1.605  1.00  0.00     0.035 C 
HETATM   13  C13 UNL     1       1.168   0.473   1.336  1.00  0.00     0.024 C 
HETATM   14  C14 UNL     1      -1.406   0.209   1.477  1.00  0.00     0.127 C 
HETATM   15  C15 UNL     1      -1.674   0.699   0.025  1.00  0.00     0.028 C 
HETATM   16  C16 UNL     1      -1.113  -0.262  -1.049  1.00  0.00     0.003 C 
HETATM   17  C17 UNL     1      -0.869  -1.682  -0.520  1.00  0.00     0.004 C 
HETATM   18  O3  UNL     1      -1.465   1.315   2.359  1.00  0.00    -0.226 OA
HETATM   19  C26 UNL     1      -2.463  -0.785   1.982  1.00  0.00     0.033 C 
HETATM   20  C27 UNL     1       0.111  -2.978   1.406  1.00  0.00     0.004 C 
HETATM   21  C28 UNL     1       3.248   1.484  -0.727  1.00  0.00     0.004 C 
HETATM   22  C29 UNL     1       6.412  -1.080  -2.164  1.00  0.00     0.007 C 
HETATM   23  C30 UNL     1       6.420  -1.701   0.232  1.00  0.00     0.007 C 
HETATM   24  O4  UNL     1       7.055   1.303  -0.998  1.00  0.00    -0.296 OA
ENDROOT
BRANCH  15  25
HETATM   25  C18 UNL     1      -3.162   0.994  -0.211  1.00  0.00     0.003 C 
HETATM   26  C25 UNL     1      -3.447   1.502  -1.625  1.00  0.00     0.000 C 
BRANCH  25  27
HETATM   27  C19 UNL     1      -3.764   1.895   0.871  1.00  0.00     0.005 C 
BRANCH  27  28
HETATM   28  C20 UNL     1      -5.213   2.285   0.574  1.00  0.00     0.026 C 
BRANCH  28  29
HETATM   29  C21 UNL     1      -6.074   1.092   0.254  1.00  0.00    -0.024 C 
HETATM   30  C22 UNL     1      -7.035   1.229  -0.674  1.00  0.00     0.038 C 
HETATM   31  C24 UNL     1      -7.897   0.037  -0.996  1.00  0.00     0.037 C 
BRANCH  30  32
HETATM   32  C23 UNL     1      -7.283   2.486  -1.389  1.00  0.00     0.206 C 
HETATM   33  O1  UNL     1      -7.764   3.485  -0.652  1.00  0.00    -0.644 OA
HETATM   34  O2  UNL     1      -7.055   2.572  -2.574  1.00  0.00    -0.644 OA
ENDBRANCH  30  32
ENDBRANCH  28  29
ENDBRANCH  27  28
ENDBRANCH  25  27
ENDBRANCH  15  25
TORSDOF 5
