REMARK  4 active torsions:
REMARK  status: ('A' for Active; 'I' for Inactive)
REMARK    1  A    between atoms: C1_1  and  C21_29 
REMARK    2  A    between atoms: C5_5  and  O2_7 
REMARK    3  A    between atoms: O2_7  and  C6_8 
REMARK    4  A    between atoms: C12_15  and  C15_19 
ROOT
HETATM    1  C6  UNL     1      -0.926   0.148  -0.361  1.00  0.00     0.099 A 
HETATM    2  C7  UNL     1      -0.809   1.439   0.205  1.00  0.00     0.025 A 
HETATM    3  C8  UNL     1       0.467   2.031   0.365  1.00  0.00     0.007 A 
HETATM    4  C9  UNL     1       1.627   1.328  -0.043  1.00  0.00     0.057 A 
HETATM    5  C10 UNL     1       1.514   0.014  -0.578  1.00  0.00     0.099 A 
HETATM    6  C11 UNL     1       0.234  -0.563  -0.752  1.00  0.00     0.049 A 
HETATM    7  O3  UNL     1       2.607  -0.697  -0.924  1.00  0.00    -0.328 OA
HETATM    8  C12 UNL     1       3.896  -0.342  -0.406  1.00  0.00     0.151 C 
HETATM    9  C13 UNL     1       4.123   1.180  -0.518  1.00  0.00     0.104 C 
HETATM   10  C14 UNL     1       2.969   1.961   0.074  1.00  0.00     0.178 C 
HETATM   11  O4  UNL     1       3.221   3.029   0.584  1.00  0.00    -0.291 OA
ENDROOT
BRANCH   1  12
HETATM   12  O2  UNL     1      -2.135  -0.404  -0.523  1.00  0.00    -0.304 OA
BRANCH  12  13
HETATM   13  C5  UNL     1      -3.264   0.305  -0.031  1.00  0.00     0.274 C 
HETATM   14  C4  UNL     1      -4.565  -0.400  -0.473  1.00  0.00     0.241 C 
HETATM   15  C3  UNL     1      -5.805   0.269   0.160  1.00  0.00     0.220 C 
HETATM   16  O6  UNL     1      -4.653  -0.348  -1.885  1.00  0.00    -0.215 OA
HETATM   17  C2  UNL     1      -5.602   0.406   1.684  1.00  0.00     0.215 C 
HETATM   18  O7  UNL     1      -6.959  -0.512  -0.105  1.00  0.00    -0.218 OA
HETATM   19  C1  UNL     1      -4.246   1.072   2.016  1.00  0.00     0.184 C 
HETATM   20  O8  UNL     1      -6.641   1.193   2.238  1.00  0.00    -0.218 OA
HETATM   21  O1  UNL     1      -3.197   0.346   1.387  1.00  0.00    -0.326 OA
BRANCH  19  22
HETATM   22  C21 UNL     1      -3.936   1.084   3.516  1.00  0.00     0.214 C 
HETATM   23  O9  UNL     1      -2.809   1.904   3.727  1.00  0.00    -0.218 OA
ENDBRANCH  19  22
ENDBRANCH  12  13
ENDBRANCH   1  12
BRANCH   8  24
HETATM   24  C15 UNL     1       4.939  -1.121  -1.123  1.00  0.00     0.006 A 
HETATM   25  C16 UNL     1       4.969  -1.133  -2.529  1.00  0.00     0.000 A 
HETATM   26  C17 UNL     1       5.955  -1.873  -3.205  1.00  0.00     0.027 A 
HETATM   27  C18 UNL     1       6.914  -2.602  -2.479  1.00  0.00     0.131 A 
HETATM   28  C19 UNL     1       6.883  -2.588  -1.074  1.00  0.00     0.027 A 
HETATM   29  O5  UNL     1       7.838  -3.293  -3.113  1.00  0.00    -0.190 OA
HETATM   30  C20 UNL     1       5.896  -1.850  -0.394  1.00  0.00     0.000 A 
ENDBRANCH   8  24
TORSDOF 4
