REMARK  0 active torsions:
REMARK  status: ('A' for Active; 'I' for Inactive)
ROOT
HETATM    1  C1  UNL     1      -0.246  -0.393  -0.596  1.00  0.00     0.060 C 
HETATM    2  C2  UNL     1       0.072   1.070  -0.262  1.00  0.00     0.007 C 
HETATM    3  C3  UNL     1       1.580   1.313  -0.094  1.00  0.00     0.030 C 
HETATM    4  C4  UNL     1       2.219   0.246   0.819  1.00  0.00     0.145 C 
HETATM    5  O1  UNL     1       1.897  -1.057   0.354  1.00  0.00    -0.329 OA
HETATM    6  C5  UNL     1       0.508  -1.355   0.354  1.00  0.00     0.269 C 
HETATM    7  O2  UNL     1       0.340  -2.689  -0.082  1.00  0.00    -0.190 OA
HETATM    8  C6  UNL     1       2.223   1.324  -1.488  1.00  0.00     0.003 C 
HETATM    9  C7  UNL     1      -0.760   1.346   0.994  1.00  0.00     0.000 C 
HETATM   10  C8  UNL     1      -1.984   0.439   0.865  1.00  0.00     0.000 C 
HETATM   11  C9  UNL     1      -1.771  -0.352  -0.428  1.00  0.00     0.005 C 
HETATM   12  C10 UNL     1      -2.459  -1.711  -0.387  1.00  0.00     0.000 C 
ENDROOT
TORSDOF 0
