REMARK  0 active torsions:
REMARK  status: ('A' for Active; 'I' for Inactive)
ROOT
HETATM    1  C1  UNL     1      -0.043   0.779  -0.090  1.00  0.00     0.033 C 
HETATM    2  C2  UNL     1       0.342  -0.644  -0.365  1.00  0.00     0.030 C 
HETATM    3  C3  UNL     1      -0.846  -1.617  -0.194  1.00  0.00     0.035 C 
HETATM    4  C4  UNL     1      -2.045  -0.924   0.494  1.00  0.00     0.152 C 
HETATM    5  O1  UNL     1      -2.404   0.303  -0.164  1.00  0.00    -0.299 OA
HETATM    6  C5  UNL     1      -1.430   1.219  -0.295  1.00  0.00     0.291 C 
HETATM    7  O2  UNL     1      -1.656   2.373  -0.574  1.00  0.00    -0.260 OA
HETATM    8  C6  UNL     1      -1.256  -2.156  -1.570  1.00  0.00     0.003 C 
HETATM    9  C7  UNL     1       1.565  -0.832   0.549  1.00  0.00     0.009 C 
HETATM   10  C8  UNL     1       2.190   0.578   0.555  1.00  0.00     0.022 C 
HETATM   11  C9  UNL     1       1.002   1.479   0.369  1.00  0.00    -0.043 C 
HETATM   12  C10 UNL     1       1.016   2.947   0.695  1.00  0.00     0.026 C 
ENDROOT
TORSDOF 0
