REMARK  12 active torsions:
REMARK  status: ('A' for Active; 'I' for Inactive)
REMARK    1  A    between atoms: C2_2  and  O12_50 
REMARK    2  A    between atoms: C9_9  and  O3_16 
REMARK    3  A    between atoms: C10_10  and  O1_12 
REMARK    4  A    between atoms: O1_12  and  C12_13 
REMARK    5  A    between atoms: O3_16  and  C14_17 
REMARK    6  A    between atoms: C17_21  and  O7_39 
REMARK    7  A    between atoms: O7_39  and  C32_40 
REMARK    8  A    between atoms: C32_40  and  C33_42 
REMARK    9  A    between atoms: C33_42  and  C34_43 
REMARK   10  A    between atoms: O12_50  and  C38_51 
REMARK   11  A    between atoms: C38_51  and  C39_52 
REMARK   12  A    between atoms: C39_52  and  C40_53 
ROOT
HETATM    1  C1  UNL     1       2.984   2.748   2.078  1.00  0.00     0.035 C 
HETATM    2  C2  UNL     1       3.709   1.436   1.746  1.00  0.00     0.178 C 
HETATM    3  C3  UNL     1       3.033   0.703   0.555  1.00  0.00     0.247 C 
HETATM    4  C4  UNL     1       2.309   1.682  -0.408  1.00  0.00     0.087 C 
HETATM    5  C5  UNL     1       1.082   1.971   0.520  1.00  0.00     0.030 C 
HETATM    6  C6  UNL     1       1.471   2.668   1.854  1.00  0.00     0.005 C 
HETATM    7  C7  UNL     1       0.719   0.486   0.742  1.00  0.00     0.100 C 
HETATM    8  C8  UNL     1       0.143  -0.158  -0.541  1.00  0.00     0.086 C 
HETATM    9  C9  UNL     1       1.135  -0.234  -1.713  1.00  0.00     0.154 C 
HETATM   10  C10 UNL     1       1.936   1.092  -1.805  1.00  0.00     0.132 C 
HETATM   11  C11 UNL     1       1.160   2.148  -2.600  1.00  0.00     0.033 C 
HETATM   12  C16 UNL     1      -0.590  -1.432  -0.068  1.00  0.00     0.159 C 
HETATM   13  C17 UNL     1      -1.480  -2.123  -1.133  1.00  0.00     0.182 C 
HETATM   14  C18 UNL     1      -2.805  -1.395  -1.428  1.00  0.00     0.185 C 
HETATM   15  C19 UNL     1      -3.545  -1.031  -0.117  1.00  0.00     0.065 C 
HETATM   16  C20 UNL     1      -2.658  -0.143   0.791  1.00  0.00     0.029 C 
HETATM   17  C21 UNL     1      -1.346  -0.875   1.164  1.00  0.00     0.035 C 
HETATM   18  C22 UNL     1      -0.336   0.107   1.803  1.00  0.00     0.030 C 
HETATM   19  C23 UNL     1      -3.469   0.285   2.031  1.00  0.00     0.097 C 
HETATM   20  N1  UNL     1      -4.633   1.107   1.648  1.00  0.00    -0.368 N 
HETATM   21  C24 UNL     1      -5.107   0.998   0.248  1.00  0.00     0.105 C 
HETATM   22  C25 UNL     1      -5.008  -0.477  -0.238  1.00  0.00     0.147 C 
HETATM   23  O5  UNL     1      -5.461  -0.527  -1.580  1.00  0.00    -0.224 OA
HETATM   24  C26 UNL     1      -5.992  -1.369   0.533  1.00  0.00     0.035 C 
HETATM   25  C27 UNL     1      -6.527   1.602   0.145  1.00  0.00     0.025 C 
HETATM   26  C28 UNL     1      -6.637   3.033   0.705  1.00  0.00     0.004 C 
HETATM   27  C29 UNL     1      -5.359   3.514   1.412  1.00  0.00     0.022 C 
HETATM   28  C30 UNL     1      -4.772   2.416   2.318  1.00  0.00     0.097 C 
HETATM   29  C31 UNL     1      -4.318   4.037   0.412  1.00  0.00     0.002 C 
HETATM   30  O6  UNL     1      -2.570  -0.244  -2.219  1.00  0.00    -0.221 OA
HETATM   31  O9  UNL     1       0.359  -2.393   0.381  1.00  0.00    -0.223 OA
HETATM   32  O10 UNL     1       1.977  -0.092   1.059  1.00  0.00    -0.335 OA
HETATM   33  C37 UNL     1      -0.059   2.760  -0.127  1.00  0.00     0.003 C 
HETATM   34  O11 UNL     1       3.994  -0.115  -0.084  1.00  0.00    -0.193 OA
ENDROOT
BRANCH   2  35
HETATM   35  O12 UNL     1       5.063   1.760   1.445  1.00  0.00    -0.297 OA
BRANCH  35  36
HETATM   36  C38 UNL     1       5.908   0.811   1.838  1.00  0.00     0.305 C 
HETATM   37  O15 UNL     1       5.565  -0.225   2.359  1.00  0.00    -0.261 OA
BRANCH  36  38
HETATM   38  C39 UNL     1       7.363   1.106   1.586  1.00  0.00     0.267 C 
HETATM   39  O14 UNL     1       7.967  -0.004   0.959  1.00  0.00    -0.210 OA
BRANCH  38  40
HETATM   40  C40 UNL     1       8.131   1.400   2.875  1.00  0.00     0.192 C 
HETATM   41  C41 UNL     1       9.604   1.727   2.623  1.00  0.00     0.039 C 
HETATM   42  O13 UNL     1       7.533   2.516   3.496  1.00  0.00    -0.220 OA
ENDBRANCH  38  40
ENDBRANCH  36  38
ENDBRANCH  35  36
ENDBRANCH   2  35
BRANCH  10  43
HETATM   43  O1  UNL     1       3.129   0.850  -2.539  1.00  0.00    -0.304 OA
BRANCH  43  44
HETATM   44  C12 UNL     1       3.936   1.906  -2.559  1.00  0.00     0.272 C 
HETATM   45  C13 UNL     1       3.879   2.732  -3.814  1.00  0.00     0.106 C 
HETATM   46  O2  UNL     1       4.672   2.207  -1.648  1.00  0.00    -0.264 OA
ENDBRANCH  43  44
ENDBRANCH  10  43
BRANCH   9  47
HETATM   47  O3  UNL     1       2.016  -1.338  -1.557  1.00  0.00    -0.302 OA
BRANCH  47  48
HETATM   48  C14 UNL     1       2.498  -1.770  -2.719  1.00  0.00     0.272 C 
HETATM   49  O4  UNL     1       2.229  -1.271  -3.785  1.00  0.00    -0.264 OA
HETATM   50  C15 UNL     1       3.430  -2.949  -2.625  1.00  0.00     0.106 C 
ENDBRANCH  47  48
ENDBRANCH   9  47
BRANCH  13  51
HETATM   51  O7  UNL     1      -1.828  -3.430  -0.686  1.00  0.00    -0.299 OA
BRANCH  51  52
HETATM   52  C32 UNL     1      -2.191  -4.227  -1.688  1.00  0.00     0.271 C 
HETATM   53  O8  UNL     1      -2.178  -3.897  -2.850  1.00  0.00    -0.264 OA
BRANCH  52  54
HETATM   54  C33 UNL     1      -2.635  -5.607  -1.279  1.00  0.00     0.086 C 
HETATM   55  C36 UNL     1      -4.105  -5.647  -0.863  1.00  0.00     0.010 C 
BRANCH  54  56
HETATM   56  C34 UNL     1      -1.707  -6.233  -0.236  1.00  0.00     0.010 C 
HETATM   57  C35 UNL     1      -0.262  -6.338  -0.719  1.00  0.00     0.001 C 
ENDBRANCH  54  56
ENDBRANCH  52  54
ENDBRANCH  51  52
ENDBRANCH  13  51
TORSDOF 12
