REMARK  2 active torsions:
REMARK  status: ('A' for Active; 'I' for Inactive)
REMARK    1  A    between atoms: C5_5  and  C7_7 
REMARK    2  A    between atoms: C11_12  and  C13_16 
ROOT
HETATM    1  C7  UNL     1       1.590   0.359  -1.475  1.00  0.00     0.143 C 
HETATM    2  C8  UNL     1       0.182   0.377  -0.861  1.00  0.00     0.096 C 
HETATM    3  C9  UNL     1       0.012  -1.025  -0.232  1.00  0.00     0.069 C 
HETATM    4  C10 UNL     1       1.283  -1.764  -0.654  1.00  0.00     0.146 C 
HETATM    5  O1  UNL     1       2.209  -0.719  -0.814  1.00  0.00    -0.352 OA
HETATM    6  C11 UNL     1      -1.299  -1.572  -0.820  1.00  0.00     0.143 C 
HETATM    7  O2  UNL     1      -1.932  -0.412  -1.301  1.00  0.00    -0.327 OA
HETATM    8  C12 UNL     1      -0.973   0.443  -1.869  1.00  0.00     0.272 C 
HETATM    9  O3  UNL     1      -1.455   1.762  -2.019  1.00  0.00    -0.190 OA
ENDROOT
BRANCH   1  10
HETATM   10  C5  UNL     1       2.358   1.600  -1.266  1.00  0.00     0.007 A 
HETATM   11  C4  UNL     1       2.842   2.330  -2.369  1.00  0.00     0.000 A 
HETATM   12  C3  UNL     1       3.574   3.516  -2.144  1.00  0.00     0.026 A 
HETATM   13  C2  UNL     1       3.834   3.984  -0.830  1.00  0.00     0.119 A 
HETATM   14  C1  UNL     1       3.354   3.260   0.266  1.00  0.00     0.119 A 
HETATM   15  O6  UNL     1       4.492   5.057  -0.387  1.00  0.00    -0.300 OA
HETATM   16  C6  UNL     1       2.615   2.068   0.041  1.00  0.00     0.024 A 
HETATM   17  O7  UNL     1       3.713   3.879   1.389  1.00  0.00    -0.300 OA
HETATM   18  C20 UNL     1       4.467   5.066   1.057  1.00  0.00     0.304 A 
ENDBRANCH   1  10
BRANCH   6  19
HETATM   19  C13 UNL     1      -2.160  -2.264   0.154  1.00  0.00     0.007 A 
HETATM   20  C14 UNL     1      -2.613  -1.590   1.309  1.00  0.00     0.024 A 
HETATM   21  C15 UNL     1      -3.443  -2.238   2.260  1.00  0.00     0.119 A 
HETATM   22  C16 UNL     1      -3.822  -3.566   2.049  1.00  0.00     0.119 A 
HETATM   23  O5  UNL     1      -3.980  -1.809   3.402  1.00  0.00    -0.300 OA
HETATM   24  C17 UNL     1      -3.369  -4.244   0.887  1.00  0.00     0.026 A 
HETATM   25  O4  UNL     1      -4.594  -3.967   3.061  1.00  0.00    -0.300 OA
HETATM   26  C18 UNL     1      -2.541  -3.604  -0.059  1.00  0.00     0.000 A 
HETATM   27  C19 UNL     1      -4.748  -2.879   4.000  1.00  0.00     0.304 A 
ENDBRANCH   6  19
TORSDOF 2
