REMARK  4 active torsions:
REMARK  status: ('A' for Active; 'I' for Inactive)
REMARK    1  A    between atoms: C1_1  and  C2_2 
REMARK    2  A    between atoms: C2_2  and  C3_3 
REMARK    3  A    between atoms: C3_3  and  C4_4 
REMARK    4  A    between atoms: C6_6  and  C7_7 
ROOT
HETATM    1  C3  UNL     1      -0.932  -0.338   0.086  1.00  0.00     0.026 C 
ENDROOT
BRANCH   1   2
HETATM    2  C2  UNL     1       0.141   0.693  -0.268  1.00  0.00     0.030 C 
BRANCH   2   3
HETATM    3  C1  UNL     1       0.615   1.465   0.934  1.00  0.00    -0.034 C 
HETATM    4  C8  UNL     1       1.811   2.076   0.873  1.00  0.00    -0.048 C 
HETATM    5  C9  UNL     1       2.322   2.777   2.102  1.00  0.00     0.026 C 
HETATM    6  C10 UNL     1       2.576   2.027  -0.422  1.00  0.00     0.026 C 
ENDBRANCH   2   3
ENDBRANCH   1   2
BRANCH   1   7
HETATM    7  C4  UNL     1      -1.297  -1.211  -1.084  1.00  0.00    -0.045 C 
HETATM    8  C5  UNL     1      -1.145  -0.770  -2.516  1.00  0.00     0.026 C 
HETATM    9  C6  UNL     1      -1.781  -2.440  -0.840  1.00  0.00     0.001 C 
BRANCH   9  10
HETATM   10  C7  UNL     1      -1.934  -2.881   0.590  1.00  0.00     0.208 C 
HETATM   11  O1  UNL     1      -2.725  -4.047   0.641  1.00  0.00    -0.215 OA
ENDBRANCH   9  10
ENDBRANCH   1   7
TORSDOF 4
