REMARK  7 active torsions:
REMARK  status: ('A' for Active; 'I' for Inactive)
REMARK    1  A    between atoms: C3_3  and  C4_4 
REMARK    2  A    between atoms: C4_4  and  C5_5 
REMARK    3  A    between atoms: C5_5  and  C6_6 
REMARK    4  A    between atoms: C8_8  and  C9_9 
REMARK    5  A    between atoms: C9_9  and  C10_10 
REMARK    6  A    between atoms: C10_10  and  C11_11 
REMARK    7  A    between atoms: C11_11  and  C12_12 
ROOT
HETATM    1  C6  UNL     1      -0.006  -0.920  -0.133  1.00  0.00    -0.048 C 
HETATM    2  C7  UNL     1       0.063  -1.660   1.174  1.00  0.00     0.026 C 
HETATM    3  C8  UNL     1      -0.893   0.082  -0.256  1.00  0.00    -0.035 C 
ENDROOT
BRANCH   1   4
HETATM    4  C5  UNL     1       0.871  -1.252  -1.311  1.00  0.00     0.026 C 
BRANCH   4   5
HETATM    5  C4  UNL     1       2.359  -1.172  -0.971  1.00  0.00     0.030 C 
BRANCH   5   6
HETATM    6  C3  UNL     1       3.236  -1.504  -2.147  1.00  0.00    -0.034 C 
HETATM    7  C2  UNL     1       4.520  -1.107  -2.123  1.00  0.00    -0.048 C 
HETATM    8  C1  UNL     1       5.031  -0.404  -0.895  1.00  0.00     0.026 C 
HETATM    9  C15 UNL     1       5.379  -1.383  -3.326  1.00  0.00     0.026 C 
ENDBRANCH   5   6
ENDBRANCH   4   5
ENDBRANCH   1   4
BRANCH   3  10
HETATM   10  C9  UNL     1      -1.770   0.414   0.922  1.00  0.00     0.028 C 
BRANCH  10  11
HETATM   11  C10 UNL     1      -2.400   1.803   0.807  1.00  0.00     0.039 C 
BRANCH  11  12
HETATM   12  C11 UNL     1      -3.535   2.020   1.807  1.00  0.00     0.146 C 
HETATM   13  O1  UNL     1      -3.846   3.395   1.830  1.00  0.00    -0.222 OA
HETATM   14  C14 UNL     1      -3.160   1.590   3.227  1.00  0.00     0.038 C 
BRANCH  12  15
HETATM   15  C12 UNL     1      -4.832   1.410   1.346  1.00  0.00     0.003 C 
HETATM   16  C13 UNL     1      -4.832   0.684   0.217  1.00  0.00    -0.002 C 
ENDBRANCH  12  15
ENDBRANCH  11  12
ENDBRANCH  10  11
ENDBRANCH   3  10
TORSDOF 7
