REMARK  14 active torsions:
REMARK  status: ('A' for Active; 'I' for Inactive)
REMARK    1  A    between atoms: C2_2  and  C3_3 
REMARK    2  A    between atoms: C3_3  and  C4_4 
REMARK    3  A    between atoms: C5_5  and  O3_27 
REMARK    4  A    between atoms: C6_6  and  C19_22 
REMARK    5  A    between atoms: C8_8  and  C10_10 
REMARK    6  A    between atoms: C10_10  and  O1_11 
REMARK    7  A    between atoms: O1_11  and  C11_12 
REMARK    8  A    between atoms: C11_12  and  C12_13 
REMARK    9  A    between atoms: C19_22  and  C20_23 
REMARK   10  A    between atoms: O3_27  and  C24_28 
REMARK   11  A    between atoms: C25_29  and  O8_38 
REMARK   12  A    between atoms: C28_32  and  C29_34 
REMARK   13  A    between atoms: O8_38  and  C30_39 
REMARK   14  A    between atoms: C33_42  and  C34_43 
ROOT
HETATM    1  C4  UNL     1      -0.031  -0.023   0.521  1.00  0.00     0.004 A 
HETATM    2  C5  UNL     1       1.006  -0.344  -0.375  1.00  0.00     0.089 A 
HETATM    3  C6  UNL     1       0.795  -0.211  -1.760  1.00  0.00     0.004 A 
HETATM    4  C7  UNL     1      -0.447   0.238  -2.246  1.00  0.00     0.003 A 
HETATM    5  C8  UNL     1      -1.481   0.557  -1.350  1.00  0.00     0.063 A 
HETATM    6  C9  UNL     1      -1.273   0.426   0.035  1.00  0.00     0.003 A 
ENDROOT
BRANCH   2   7
HETATM    7  O3  UNL     1       2.170  -0.764   0.082  1.00  0.00    -0.304 OA
BRANCH   7   8
HETATM    8  C24 UNL     1       2.266  -2.111   0.523  1.00  0.00     0.271 C 
HETATM    9  C25 UNL     1       3.742  -2.481   0.783  1.00  0.00     0.207 C 
HETATM   10  C26 UNL     1       3.891  -3.977   1.133  1.00  0.00     0.217 C 
HETATM   11  C27 UNL     1       3.164  -4.834   0.072  1.00  0.00     0.215 C 
HETATM   12  O7  UNL     1       5.266  -4.326   1.174  1.00  0.00    -0.218 OA
HETATM   13  C28 UNL     1       1.713  -4.346  -0.148  1.00  0.00     0.184 C 
HETATM   14  O6  UNL     1       3.127  -6.188   0.492  1.00  0.00    -0.218 OA
HETATM   15  O4  UNL     1       1.727  -2.961  -0.479  1.00  0.00    -0.326 OA
BRANCH   9  16
HETATM   16  O8  UNL     1       4.223  -1.686   1.852  1.00  0.00    -0.324 OA
BRANCH  16  17
HETATM   17  C30 UNL     1       4.555  -0.369   1.461  1.00  0.00     0.270 C 
HETATM   18  C31 UNL     1       5.842   0.113   2.131  1.00  0.00     0.241 C 
HETATM   19  C32 UNL     1       5.691   1.629   1.920  1.00  0.00     0.217 C 
HETATM   20  O12 UNL     1       6.988  -0.389   1.469  1.00  0.00    -0.215 OA
HETATM   21  C33 UNL     1       4.168   1.857   1.963  1.00  0.00     0.184 C 
HETATM   22  O11 UNL     1       6.344   2.348   2.947  1.00  0.00    -0.218 OA
HETATM   23  O10 UNL     1       3.609   0.562   1.932  1.00  0.00    -0.326 OA
BRANCH  21  24
HETATM   24  C34 UNL     1       3.676   2.623   0.738  1.00  0.00     0.214 C 
HETATM   25  O9  UNL     1       2.295   2.857   0.891  1.00  0.00    -0.218 OA
ENDBRANCH  21  24
ENDBRANCH  16  17
ENDBRANCH   9  16
BRANCH  13  26
HETATM   26  C29 UNL     1       1.008  -5.068  -1.301  1.00  0.00     0.214 C 
HETATM   27  O5  UNL     1      -0.350  -4.682  -1.297  1.00  0.00    -0.218 OA
ENDBRANCH  13  26
ENDBRANCH   7   8
ENDBRANCH   2   7
BRANCH   1  28
HETATM   28  C3  UNL     1       0.176  -0.158   1.988  1.00  0.00     0.054 C 
BRANCH  28  29
HETATM   29  C2  UNL     1      -0.287   1.061   2.740  1.00  0.00    -0.030 C 
HETATM   30  C1  UNL     1      -0.395   0.986   4.078  1.00  0.00    -0.048 C 
HETATM   31  C35 UNL     1      -0.865   2.203   4.830  1.00  0.00     0.026 C 
HETATM   32  C36 UNL     1      -0.037  -0.309   4.756  1.00  0.00     0.026 C 
ENDBRANCH  28  29
ENDBRANCH   1  28
BRANCH   3  33
HETATM   33  C19 UNL     1       1.881  -0.545  -2.721  1.00  0.00     0.054 C 
BRANCH  33  34
HETATM   34  C20 UNL     1       1.527  -1.723  -3.588  1.00  0.00    -0.030 C 
HETATM   35  C21 UNL     1       2.350  -2.041  -4.602  1.00  0.00    -0.048 C 
HETATM   36  C22 UNL     1       2.150  -3.191  -5.551  1.00  0.00     0.026 C 
HETATM   37  C23 UNL     1       3.572  -1.195  -4.828  1.00  0.00     0.026 C 
ENDBRANCH  33  34
ENDBRANCH   3  33
BRANCH   5  38
HETATM   38  C10 UNL     1      -2.799   1.035  -1.865  1.00  0.00     0.296 C 
HETATM   39  O2  UNL     1      -2.996   1.152  -3.051  1.00  0.00    -0.259 OA
BRANCH  38  40
HETATM   40  O1  UNL     1      -3.707   1.309  -0.932  1.00  0.00    -0.298 OA
BRANCH  40  41
HETATM   41  C11 UNL     1      -4.936   1.756  -1.488  1.00  0.00     0.154 C 
BRANCH  41  42
HETATM   42  C12 UNL     1      -5.926   2.049  -0.363  1.00  0.00     0.064 C 
HETATM   43  C13 UNL     1      -5.422   3.205   0.500  1.00  0.00     0.040 C 
HETATM   44  C14 UNL     1      -5.811   4.406  -0.352  1.00  0.00     0.250 C 
HETATM   45  N1  UNL     1      -7.100   4.086  -0.961  1.00  0.00     0.135 N 
HETATM   46  C15 UNL     1      -7.231   2.629  -0.926  1.00  0.00     0.222 C 
HETATM   47  C18 UNL     1      -8.266   4.623  -0.256  1.00  0.00     0.250 C 
HETATM   48  C16 UNL     1      -8.444   2.311  -0.045  1.00  0.00     0.035 C 
HETATM   49  C17 UNL     1      -9.324   3.529  -0.281  1.00  0.00     0.037 C 
ENDBRANCH  41  42
ENDBRANCH  40  41
ENDBRANCH  38  40
ENDBRANCH   5  38
TORSDOF 14
