REMARK  1 active torsions:
REMARK  status: ('A' for Active; 'I' for Inactive)
REMARK    1  A    between atoms: C15_16  and  O2_20 
ROOT
HETATM    1  C1  UNL     1       2.281  -2.383   0.326  1.00  0.00     0.182 C 
HETATM    2  C2  UNL     1       0.740  -2.270   0.230  1.00  0.00     0.183 C 
HETATM    3  C3  UNL     1       0.225  -0.795   0.230  1.00  0.00     0.042 C 
HETATM    4  C4  UNL     1       0.978   0.068  -0.824  1.00  0.00     0.028 C 
HETATM    5  C5  UNL     1       2.521  -0.076  -0.703  1.00  0.00     0.010 C 
HETATM    6  C6  UNL     1       2.978  -1.547  -0.762  1.00  0.00     0.033 C 
HETATM    7  C7  UNL     1       4.510  -1.662  -0.697  1.00  0.00     0.003 C 
HETATM    8  C8  UNL     1       3.059   0.668   0.533  1.00  0.00     0.065 C 
HETATM    9  C9  UNL     1       2.584   2.127   0.562  1.00  0.00     0.269 C 
HETATM   10  O1  UNL     1       1.166   2.162   0.492  1.00  0.00    -0.332 OA
HETATM   11  C10 UNL     1       0.566   1.564  -0.662  1.00  0.00     0.118 C 
HETATM   12  C11 UNL     1      -0.965   1.791  -0.531  1.00  0.00     0.030 C 
HETATM   13  C12 UNL     1      -1.807   0.523  -0.764  1.00  0.00     0.013 C 
HETATM   14  C13 UNL     1      -1.352  -0.649   0.156  1.00  0.00     0.060 C 
HETATM   15  C14 UNL     1      -1.922  -0.451   1.562  1.00  0.00     0.194 C 
HETATM   16  C15 UNL     1      -3.106   0.406   1.791  1.00  0.00     0.124 C 
HETATM   17  C16 UNL     1      -3.762   0.990   0.773  1.00  0.00     0.001 C 
HETATM   18  C17 UNL     1      -3.328   0.783  -0.656  1.00  0.00     0.025 C 
HETATM   19  C18 UNL     1      -3.793   1.941  -1.547  1.00  0.00     0.005 C 
HETATM   20  O3  UNL     1      -1.416  -0.990   2.520  1.00  0.00    -0.289 OA
HETATM   21  C20 UNL     1      -2.006  -1.926  -0.397  1.00  0.00     0.008 C 
HETATM   22  O4  UNL     1       3.199   2.875  -0.469  1.00  0.00    -0.190 OA
HETATM   23  C21 UNL     1       0.615  -0.414  -2.242  1.00  0.00     0.003 C 
HETATM   24  O5  UNL     1       0.172  -2.977   1.320  1.00  0.00    -0.221 OA
HETATM   25  O6  UNL     1       2.670  -3.738   0.172  1.00  0.00    -0.221 OA
ENDROOT
BRANCH  16  26
HETATM   26  O2  UNL     1      -3.535   0.609   3.035  1.00  0.00    -0.326 OA
HETATM   27  C19 UNL     1      -3.322   1.945   3.469  1.00  0.00     0.181 C 
ENDBRANCH  16  26
TORSDOF 1
