REMARK  4 active torsions:
REMARK  status: ('A' for Active; 'I' for Inactive)
REMARK    1  A    between atoms: C1_1  and  O7_30 
REMARK    2  A    between atoms: C2_2  and  O5_26 
REMARK    3  A    between atoms: C15_16  and  O2_20 
REMARK    4  A    between atoms: O5_26  and  C22_27 
ROOT
HETATM    1  C1  UNL     1       4.133   0.473   2.488  1.00  0.00     0.143 C 
HETATM    2  C2  UNL     1       3.428   0.998   1.240  1.00  0.00     0.152 C 
HETATM    3  C3  UNL     1       3.633   0.129  -0.030  1.00  0.00     0.040 C 
HETATM    4  C4  UNL     1       4.866  -0.821  -0.039  1.00  0.00     0.029 C 
HETATM    5  C5  UNL     1       6.010  -0.175   0.766  1.00  0.00     0.015 C 
HETATM    6  C6  UNL     1       5.612   0.100   2.239  1.00  0.00     0.030 C 
HETATM    7  C7  UNL     1       6.562   1.089   2.943  1.00  0.00     0.003 C 
HETATM    8  C8  UNL     1       6.592   1.007  -0.011  1.00  0.00     0.096 C 
HETATM    9  C9  UNL     1       7.030   0.647  -1.412  1.00  0.00     0.272 C 
HETATM   10  O1  UNL     1       6.338  -0.334  -2.037  1.00  0.00    -0.304 OA
HETATM   11  C10 UNL     1       5.266  -1.070  -1.513  1.00  0.00     0.124 C 
HETATM   12  C11 UNL     1       4.089  -0.939  -2.499  1.00  0.00     0.031 C 
HETATM   13  C12 UNL     1       2.693  -1.296  -1.947  1.00  0.00     0.013 C 
HETATM   14  C13 UNL     1       2.346  -0.470  -0.675  1.00  0.00     0.060 C 
HETATM   15  C14 UNL     1       1.372   0.638  -1.099  1.00  0.00     0.194 C 
HETATM   16  C15 UNL     1       0.087   0.130  -1.670  1.00  0.00     0.124 C 
HETATM   17  C16 UNL     1       0.234  -0.887  -2.536  1.00  0.00     0.001 C 
HETATM   18  C17 UNL     1       1.595  -1.299  -3.049  1.00  0.00     0.025 C 
HETATM   19  C18 UNL     1       1.869  -0.408  -4.277  1.00  0.00     0.005 C 
HETATM   20  O3  UNL     1       1.526   1.820  -0.829  1.00  0.00    -0.289 OA
HETATM   21  C20 UNL     1       1.534  -1.323   0.334  1.00  0.00     0.008 C 
HETATM   22  O4  UNL     1       7.948   1.229  -1.952  1.00  0.00    -0.264 OA
HETATM   23  C21 UNL     1       4.658  -2.233   0.579  1.00  0.00     0.003 C 
ENDROOT
BRANCH   2  24
HETATM   24  O5  UNL     1       3.885   2.308   1.007  1.00  0.00    -0.302 OA
BRANCH  24  25
HETATM   25  C22 UNL     1       3.262   3.448   1.422  1.00  0.00     0.272 C 
HETATM   26  O6  UNL     1       3.719   4.545   1.180  1.00  0.00    -0.264 OA
HETATM   27  C23 UNL     1       1.989   3.296   2.236  1.00  0.00     0.106 C 
ENDBRANCH  24  25
ENDBRANCH   2  24
BRANCH   1  28
HETATM   28  O7  UNL     1       3.434  -0.627   3.015  1.00  0.00    -0.352 OA
HETATM   29  C24 UNL     1       2.384  -0.290   3.896  1.00  0.00     0.174 C 
ENDBRANCH   1  28
BRANCH  16  30
HETATM   30  O2  UNL     1      -1.073   0.618  -1.134  1.00  0.00    -0.326 OA
HETATM   31  C19 UNL     1      -2.237  -0.161  -1.280  1.00  0.00     0.181 C 
ENDBRANCH  16  30
TORSDOF 4
