REMARK  1 active torsions:
REMARK  status: ('A' for Active; 'I' for Inactive)
REMARK    1  A    between atoms: C16_20  and  O5_24 
ROOT
HETATM    1  C1  UNL     1       0.416   0.455  -0.129  1.00  0.00     0.039 C 
HETATM    2  C2  UNL     1       0.908  -0.879   0.517  1.00  0.00     0.031 C 
HETATM    3  C3  UNL     1       2.377  -1.262   0.123  1.00  0.00     0.043 C 
HETATM    4  C4  UNL     1       3.428  -0.115   0.322  1.00  0.00     0.154 C 
HETATM    5  C5  UNL     1       4.809  -0.441  -0.264  1.00  0.00     0.036 C 
HETATM    6  O1  UNL     1       3.639   0.127   1.701  1.00  0.00    -0.223 OA
HETATM    7  C6  UNL     1       2.836   1.121  -0.375  1.00  0.00     0.173 C 
HETATM    8  O2  UNL     1       3.529   2.342  -0.231  1.00  0.00    -0.325 OA
HETATM    9  C7  UNL     1       2.617   3.408  -0.442  1.00  0.00     0.294 C 
HETATM   10  O3  UNL     1       1.348   2.775  -0.400  1.00  0.00    -0.327 OA
HETATM   11  C8  UNL     1       1.490   1.510   0.205  1.00  0.00     0.148 C 
HETATM   12  C9  UNL     1       2.453  -1.828  -1.305  1.00  0.00     0.098 C 
HETATM   13  C10 UNL     1       1.328  -2.758  -1.658  1.00  0.00     0.272 C 
HETATM   14  O4  UNL     1       0.102  -2.553  -1.182  1.00  0.00    -0.304 OA
HETATM   15  C11 UNL     1      -0.078  -2.025   0.139  1.00  0.00     0.124 C 
HETATM   16  C12 UNL     1      -1.570  -1.633   0.221  1.00  0.00     0.031 C 
HETATM   17  C13 UNL     1      -1.844  -0.295   0.934  1.00  0.00     0.013 C 
HETATM   18  C14 UNL     1      -1.047   0.879   0.285  1.00  0.00     0.060 C 
HETATM   19  C15 UNL     1      -1.771   1.412  -0.949  1.00  0.00     0.194 C 
HETATM   20  C16 UNL     1      -3.191   1.088  -1.197  1.00  0.00     0.124 C 
HETATM   21  C17 UNL     1      -3.936   0.438  -0.285  1.00  0.00     0.001 C 
HETATM   22  C18 UNL     1      -3.352   0.025   1.045  1.00  0.00     0.025 C 
HETATM   23  C19 UNL     1      -4.158  -1.121   1.664  1.00  0.00     0.005 C 
HETATM   24  O6  UNL     1      -1.187   2.107  -1.748  1.00  0.00    -0.289 OA
HETATM   25  C21 UNL     1      -1.043   2.031   1.305  1.00  0.00     0.008 C 
HETATM   26  O7  UNL     1       1.563  -3.680  -2.406  1.00  0.00    -0.264 OA
HETATM   27  C22 UNL     1       0.891  -0.742   2.053  1.00  0.00     0.003 C 
ENDROOT
BRANCH  20  28
HETATM   28  O5  UNL     1      -3.752   1.449  -2.352  1.00  0.00    -0.326 OA
HETATM   29  C20 UNL     1      -4.289   0.342  -3.061  1.00  0.00     0.181 C 
ENDBRANCH  20  28
TORSDOF 1
