REMARK  1 active torsions:
REMARK  status: ('A' for Active; 'I' for Inactive)
REMARK    1  A    between atoms: C15_17  and  O3_21 
ROOT
HETATM    1  C1  UNL     1      -2.879   1.553  -0.965  1.00  0.00     0.210 C 
HETATM    2  C2  UNL     1      -1.365   1.560  -1.338  1.00  0.00     0.185 C 
HETATM    3  C3  UNL     1      -0.500   0.603  -0.461  1.00  0.00     0.043 C 
HETATM    4  C4  UNL     1      -1.039  -0.858  -0.617  1.00  0.00     0.031 C 
HETATM    5  C5  UNL     1      -2.605  -0.953  -0.510  1.00  0.00     0.043 C 
HETATM    6  C6  UNL     1      -3.279   0.367  -0.033  1.00  0.00     0.158 C 
HETATM    7  C7  UNL     1      -2.967   0.699   1.432  1.00  0.00     0.036 C 
HETATM    8  O1  UNL     1      -4.689   0.205  -0.041  1.00  0.00    -0.223 OA
HETATM    9  C8  UNL     1      -3.031  -2.199   0.295  1.00  0.00     0.098 C 
HETATM   10  C9  UNL     1      -2.328  -2.194   1.627  1.00  0.00     0.272 C 
HETATM   11  O2  UNL     1      -1.039  -1.842   1.676  1.00  0.00    -0.304 OA
HETATM   12  C10 UNL     1      -0.336  -1.789   0.428  1.00  0.00     0.124 C 
HETATM   13  C11 UNL     1       1.121  -1.403   0.740  1.00  0.00     0.031 C 
HETATM   14  C12 UNL     1       1.781  -0.643  -0.424  1.00  0.00     0.013 C 
HETATM   15  C13 UNL     1       1.070   0.728  -0.639  1.00  0.00     0.060 C 
HETATM   16  C14 UNL     1       1.621   1.752   0.359  1.00  0.00     0.194 C 
HETATM   17  C15 UNL     1       2.887   1.521   1.090  1.00  0.00     0.124 C 
HETATM   18  C16 UNL     1       3.680   0.472   0.811  1.00  0.00     0.001 C 
HETATM   19  C17 UNL     1       3.313  -0.500  -0.279  1.00  0.00     0.025 C 
HETATM   20  C18 UNL     1       4.018  -1.846  -0.076  1.00  0.00     0.005 C 
HETATM   21  O4  UNL     1       1.029   2.781   0.592  1.00  0.00    -0.289 OA
HETATM   22  C20 UNL     1       1.436   1.222  -2.047  1.00  0.00     0.008 C 
HETATM   23  O5  UNL     1      -2.951  -2.487   2.619  1.00  0.00    -0.264 OA
HETATM   24  C21 UNL     1      -0.676  -1.364  -2.029  1.00  0.00     0.003 C 
HETATM   25  O6  UNL     1      -0.908   2.898  -1.275  1.00  0.00    -0.221 OA
HETATM   26  O7  UNL     1      -3.615   1.539  -2.180  1.00  0.00    -0.218 OA
ENDROOT
BRANCH  17  27
HETATM   27  O3  UNL     1       3.254   2.371   2.047  1.00  0.00    -0.326 OA
HETATM   28  C19 UNL     1       3.783   1.705   3.186  1.00  0.00     0.181 C 
ENDBRANCH  17  27
TORSDOF 1
