REMARK  5 active torsions:
REMARK  status: ('A' for Active; 'I' for Inactive)
REMARK    1  A    between atoms: C1_1  and  O11_40 
REMARK    2  A    between atoms: C2_2  and  O6_26 
REMARK    3  A    between atoms: O6_26  and  C21_27 
REMARK    4  A    between atoms: C21_27  and  C22_29 
REMARK    5  A    between atoms: C24_31  and  O10_38 
ROOT
HETATM    1  C1  UNL     1      -2.076   0.543  -1.213  1.00  0.00     0.094 C 
HETATM    2  C2  UNL     1      -0.590   0.342  -0.983  1.00  0.00     0.169 C 
HETATM    3  C3  UNL     1      -0.092  -1.111  -0.746  1.00  0.00     0.046 C 
HETATM    4  C4  UNL     1      -1.025  -2.133  -1.461  1.00  0.00     0.058 C 
HETATM    5  C5  UNL     1      -2.492  -1.924  -0.994  1.00  0.00     0.155 C 
HETATM    6  C6  UNL     1      -2.947  -0.488  -1.207  1.00  0.00     0.004 C 
HETATM    7  C7  UNL     1      -4.422  -0.217  -1.410  1.00  0.00     0.031 C 
HETATM    8  C8  UNL     1      -2.660  -2.311   0.486  1.00  0.00     0.130 C 
HETATM    9  C9  UNL     1      -1.879  -3.539   0.898  1.00  0.00     0.275 C 
HETATM   10  O1  UNL     1      -0.771  -3.924   0.248  1.00  0.00    -0.304 OA
HETATM   11  C10 UNL     1      -0.590  -3.582  -1.133  1.00  0.00     0.127 C 
HETATM   12  C11 UNL     1       0.885  -3.818  -1.475  1.00  0.00     0.031 C 
HETATM   13  C12 UNL     1       1.791  -2.826  -0.721  1.00  0.00     0.009 C 
HETATM   14  C13 UNL     1       1.430  -1.350  -1.065  1.00  0.00     0.057 C 
HETATM   15  C14 UNL     1       2.354  -0.395  -0.313  1.00  0.00     0.180 C 
HETATM   16  C15 UNL     1       3.506  -0.969   0.478  1.00  0.00     0.209 C 
HETATM   17  C16 UNL     1       4.227  -2.090  -0.291  1.00  0.00     0.041 C 
HETATM   18  C17 UNL     1       3.289  -3.150  -0.914  1.00  0.00     0.004 C 
HETATM   19  C18 UNL     1       3.629  -4.551  -0.385  1.00  0.00     0.000 C 
HETATM   20  O2  UNL     1       3.055  -1.441   1.732  1.00  0.00    -0.215 OA
HETATM   21  O3  UNL     1       2.205   0.805  -0.359  1.00  0.00    -0.293 OA
HETATM   22  C19 UNL     1       1.731  -1.082  -2.547  1.00  0.00     0.007 C 
HETATM   23  O4  UNL     1      -2.277  -4.156   1.859  1.00  0.00    -0.264 OA
HETATM   24  O5  UNL     1      -3.332  -2.795  -1.742  1.00  0.00    -0.221 OA
HETATM   25  C20 UNL     1      -0.947  -1.924  -2.988  1.00  0.00     0.005 C 
ENDROOT
BRANCH   2  26
HETATM   26  O6  UNL     1      -0.264   1.135   0.148  1.00  0.00    -0.294 OA
BRANCH  26  27
HETATM   27  C21 UNL     1      -0.150   2.426  -0.152  1.00  0.00     0.296 C 
HETATM   28  O7  UNL     1      -0.094   2.850  -1.283  1.00  0.00    -0.259 OA
BRANCH  27  29
HETATM   29  C22 UNL     1      -0.111   3.176   1.121  1.00  0.00     0.067 A 
HETATM   30  C23 UNL     1       0.004   4.578   1.113  1.00  0.00     0.032 A 
HETATM   31  C24 UNL     1       0.043   5.299   2.332  1.00  0.00     0.118 A 
HETATM   32  C25 UNL     1      -0.039   4.590   3.562  1.00  0.00     0.141 A 
HETATM   33  C26 UNL     1      -0.154   3.195   3.576  1.00  0.00     0.121 A 
HETATM   34  O9  UNL     1      -0.023   5.033   4.820  1.00  0.00    -0.298 OA
HETATM   35  C27 UNL     1      -0.193   2.488   2.350  1.00  0.00     0.032 A 
HETATM   36  O8  UNL     1      -0.211   2.773   4.840  1.00  0.00    -0.299 OA
HETATM   37  C28 UNL     1      -0.127   3.912   5.725  1.00  0.00     0.304 A 
BRANCH  31  38
HETATM   38  O10 UNL     1       0.154   6.627   2.180  1.00  0.00    -0.326 OA
HETATM   39  C29 UNL     1       0.201   7.430   3.348  1.00  0.00     0.181 C 
ENDBRANCH  31  38
ENDBRANCH  27  29
ENDBRANCH  26  27
ENDBRANCH   2  26
BRANCH   1  40
HETATM   40  O11 UNL     1      -2.527   1.777  -1.424  1.00  0.00    -0.331 OA
HETATM   41  C30 UNL     1      -2.531   2.123  -2.801  1.00  0.00     0.181 C 
ENDBRANCH   1  40
TORSDOF 5
