REMARK  1 active torsions:
REMARK  status: ('A' for Active; 'I' for Inactive)
REMARK    1  A    between atoms: C11_12  and  O1_17 
ROOT
HETATM    1  C1  UNL     1      -3.314   1.098  -0.338  1.00  0.00     0.002 A 
HETATM    2  C2  UNL     1      -4.420   0.207  -0.281  1.00  0.00     0.000 A 
HETATM    3  C3  UNL     1      -4.215  -1.195  -0.141  1.00  0.00     0.002 A 
HETATM    4  C4  UNL     1      -2.900  -1.730  -0.053  1.00  0.00     0.018 A 
HETATM    5  C5  UNL     1      -1.812  -0.832  -0.111  1.00  0.00     0.067 A 
HETATM    6  C6  UNL     1      -2.016   0.549  -0.248  1.00  0.00     0.018 A 
HETATM    7  C7  UNL     1      -0.809   1.188  -0.276  1.00  0.00     0.021 A 
HETATM    8  C8  UNL     1       0.186   0.236  -0.160  1.00  0.00     0.087 A 
HETATM    9  N1  UNL     1      -0.420  -0.992  -0.061  1.00  0.00    -0.272 N 
HETATM   10  C9  UNL     1       0.420  -2.139   0.066  1.00  0.00     0.292 A 
HETATM   11  C10 UNL     1       1.902  -1.896   0.082  1.00  0.00     0.211 A 
HETATM   12  C11 UNL     1       2.453  -0.644  -0.018  1.00  0.00     0.143 A 
HETATM   13  C12 UNL     1       1.551   0.555  -0.152  1.00  0.00     0.122 A 
HETATM   14  N2  UNL     1       1.932   1.883  -0.264  1.00  0.00    -0.240 NA
HETATM   15  C13 UNL     1       0.947   2.869  -0.383  1.00  0.00     0.099 A 
HETATM   16  C14 UNL     1      -0.451   2.557  -0.393  1.00  0.00     0.022 A 
HETATM   17  O2  UNL     1       2.707  -2.951   0.199  1.00  0.00    -0.183 OA
HETATM   18  O3  UNL     1      -0.031  -3.256   0.160  1.00  0.00    -0.264 OA
ENDROOT
BRANCH  12  19
HETATM   19  O1  UNL     1       3.783  -0.592   0.014  1.00  0.00    -0.324 OA
HETATM   20  C15 UNL     1       4.264   0.463   0.834  1.00  0.00     0.182 C 
ENDBRANCH  12  19
TORSDOF 1
