REMARK  3 active torsions:
REMARK  status: ('A' for Active; 'I' for Inactive)
REMARK    1  A    between atoms: C3_4  and  C6_7 
REMARK    2  A    between atoms: C7_8  and  C8_9 
REMARK    3  A    between atoms: C9_10  and  C10_11 
ROOT
HETATM    1  C6  UNL     1       1.677  -0.428   0.922  1.00  0.00     0.014 C 
HETATM    2  C7  UNL     1       1.421   0.385  -0.133  1.00  0.00     0.001 C 
ENDROOT
BRANCH   1   3
HETATM    3  C3  UNL     1       2.686  -1.494   0.928  1.00  0.00     0.054 C 
HETATM    4  N1  UNL     1       3.446  -1.642  -0.097  1.00  0.00    -0.275 NA
HETATM    5  C2  UNL     1       4.448  -2.727  -0.140  1.00  0.00     0.125 C 
HETATM    6  C1  UNL     1       4.834  -3.360   1.198  1.00  0.00     0.027 C 
HETATM    7  C5  UNL     1       3.534  -3.696   1.925  1.00  0.00     0.008 C 
HETATM    8  C4  UNL     1       2.788  -2.380   2.148  1.00  0.00     0.045 C 
ENDBRANCH   1   3
BRANCH   2   9
HETATM    9  C8  UNL     1       0.369   1.402  -0.082  1.00  0.00     0.000 C 
HETATM   10  C9  UNL     1       0.056   2.164  -1.157  1.00  0.00    -0.000 C 
BRANCH  10  11
HETATM   11  C10 UNL     1      -1.022   3.156  -1.113  1.00  0.00    -0.005 C 
HETATM   12  C11 UNL     1      -1.365   3.885  -2.195  1.00  0.00    -0.026 C 
HETATM   13  C12 UNL     1      -2.475   4.902  -2.204  1.00  0.00     0.031 C 
ENDBRANCH  10  11
ENDBRANCH   2   9
TORSDOF 3
