REMARK  0 active torsions:
REMARK  status: ('A' for Active; 'I' for Inactive)
ROOT
HETATM    1  C1  UNL     1       1.231   1.674   0.480  1.00  0.00     0.037 C 
HETATM    2  C2  UNL     1       0.188   1.272  -0.498  1.00  0.00     0.291 C 
HETATM    3  O1  UNL     1      -1.102   1.535  -0.219  1.00  0.00    -0.299 OA
HETATM    4  C3  UNL     1      -2.080   0.680  -0.820  1.00  0.00     0.162 C 
HETATM    5  C4  UNL     1      -3.457   1.348  -0.801  1.00  0.00     0.068 C 
HETATM    6  C5  UNL     1      -4.164   0.693   0.375  1.00  0.00     0.254 C 
HETATM    7  N1  UNL     1      -3.645  -0.662   0.467  1.00  0.00     0.146 N 
HETATM    8  C6  UNL     1      -2.246  -0.586   0.041  1.00  0.00     0.268 C 
HETATM    9  C7  UNL     1      -2.021  -1.873  -0.699  1.00  0.00     0.017 C 
HETATM   10  C8  UNL     1      -3.182  -2.486  -0.949  1.00  0.00     0.005 C 
HETATM   11  C9  UNL     1      -4.309  -1.670  -0.387  1.00  0.00     0.276 C 
HETATM   12  C10 UNL     1      -0.646  -2.363  -1.080  1.00  0.00     0.176 C 
HETATM   13  O2  UNL     1       0.305  -1.762  -0.199  1.00  0.00    -0.295 OA
HETATM   14  C11 UNL     1       1.602  -1.926  -0.481  1.00  0.00     0.303 C 
HETATM   15  C12 UNL     1       2.592  -1.123   0.336  1.00  0.00     0.238 C 
HETATM   16  C13 UNL     1       3.149   0.109  -0.447  1.00  0.00     0.045 C 
HETATM   17  C14 UNL     1       4.676   0.104  -0.641  1.00  0.00     0.004 C 
HETATM   18  C15 UNL     1       2.711   1.465   0.162  1.00  0.00     0.035 C 
HETATM   19  O3  UNL     1       3.623  -1.975   0.805  1.00  0.00    -0.213 OA
HETATM   20  O4  UNL     1       2.010  -2.668  -1.348  1.00  0.00    -0.261 OA
HETATM   21  O5  UNL     1       0.531   0.721  -1.520  1.00  0.00    -0.260 OA
HETATM   22  C16 UNL     1       0.859   2.233   1.656  1.00  0.00    -0.025 C 
HETATM   23  C17 UNL     1       1.844   2.686   2.707  1.00  0.00     0.030 C 
ENDROOT
TORSDOF 0
