REMARK  2 active torsions:
REMARK  status: ('A' for Active; 'I' for Inactive)
REMARK    1  A    between atoms: C7_7  and  C10_10 
REMARK    2  A    between atoms: C10_10  and  C12_12 
ROOT
HETATM    1  C1  UNL     1      -2.033  -1.508  -0.146  1.00  0.00     0.000 C 
HETATM    2  C2  UNL     1      -2.990  -0.811  -1.115  1.00  0.00     0.001 C 
HETATM    3  C3  UNL     1      -2.221   0.420  -1.629  1.00  0.00     0.007 C 
HETATM    4  C4  UNL     1      -0.793   0.328  -1.066  1.00  0.00     0.000 C 
HETATM    5  C5  UNL     1      -0.646  -1.154  -0.684  1.00  0.00     0.000 C 
HETATM    6  C6  UNL     1       0.447  -1.455   0.365  1.00  0.00     0.000 C 
HETATM    7  C7  UNL     1       1.564  -0.400   0.252  1.00  0.00     0.002 C 
HETATM    8  C8  UNL     1       1.018   1.012   0.549  1.00  0.00     0.000 C 
HETATM    9  C9  UNL     1      -0.459   1.207   0.146  1.00  0.00     0.000 C 
HETATM   10  C19 UNL     1       0.947  -2.891   0.158  1.00  0.00     0.000 C 
HETATM   11  C20 UNL     1      -2.943   1.756  -1.424  1.00  0.00     0.065 C 
HETATM   12  C21 UNL     1      -4.393   1.686  -1.842  1.00  0.00     0.150 C 
HETATM   13  C22 UNL     1      -5.137   0.383  -1.598  1.00  0.00     0.060 C 
HETATM   14  C23 UNL     1      -4.412  -0.525  -0.568  1.00  0.00     0.007 C 
HETATM   15  C24 UNL     1      -4.412   0.111   0.852  1.00  0.00     0.003 C 
HETATM   16  C25 UNL     1      -5.527   1.150   1.080  1.00  0.00     0.033 C 
HETATM   17  C26 UNL     1      -6.830   0.822   0.332  1.00  0.00     0.153 C 
HETATM   18  C27 UNL     1      -6.615   0.611  -1.189  1.00  0.00     0.040 C 
HETATM   19  O1  UNL     1      -7.397  -0.342   0.906  1.00  0.00    -0.223 OA
HETATM   20  C28 UNL     1      -5.086  -1.908  -0.518  1.00  0.00     0.000 C 
HETATM   21  O2  UNL     1      -4.934   2.637  -2.359  1.00  0.00    -0.296 OA
ENDROOT
BRANCH   7  22
HETATM   22  C10 UNL     1       2.764  -0.727   1.148  1.00  0.00     0.031 C 
HETATM   23  C11 UNL     1       2.379  -0.859   2.623  1.00  0.00     0.002 C 
BRANCH  22  24
HETATM   24  C12 UNL     1       3.943   0.229   0.928  1.00  0.00     0.219 C 
HETATM   25  C13 UNL     1       5.193  -0.205   1.721  1.00  0.00     0.033 C 
HETATM   26  C14 UNL     1       6.373   0.746   1.475  1.00  0.00     0.004 C 
HETATM   27  C15 UNL     1       6.633   0.926  -0.029  1.00  0.00     0.033 C 
HETATM   28  C16 UNL     1       5.336   1.314  -0.768  1.00  0.00     0.250 C 
HETATM   29  C18 UNL     1       7.740   1.953  -0.277  1.00  0.00     0.002 C 
HETATM   30  N1  UNL     1       4.252   0.357  -0.508  1.00  0.00     0.137 N 
HETATM   31  C17 UNL     1       4.488  -0.926  -1.168  1.00  0.00     0.285 C 
ENDBRANCH  22  24
ENDBRANCH   7  22
TORSDOF 2
