REMARK  6 active torsions:
REMARK  status: ('A' for Active; 'I' for Inactive)
REMARK    1  A    between atoms: C3_3  and  C7_8 
REMARK    2  A    between atoms: C8_9  and  O2_10 
REMARK    3  A    between atoms: O2_10  and  C9_11 
REMARK    4  A    between atoms: C10_13  and  C19_28 
REMARK    5  A    between atoms: C12_15  and  O4_16 
REMARK    6  A    between atoms: O4_16  and  C13_17 
ROOT
HETATM    1  C7  UNL     1      -2.240  -0.084  -1.469  1.00  0.00     0.125 A 
HETATM    2  C8  UNL     1      -1.961  -1.316  -0.973  1.00  0.00     0.158 A 
HETATM    3  C20 UNL     1      -3.065  -2.226  -0.582  1.00  0.00     0.224 A 
HETATM    4  C21 UNL     1      -4.442  -1.693  -0.772  1.00  0.00     0.089 A 
HETATM    5  C22 UNL     1      -4.596  -0.387  -1.301  1.00  0.00     0.107 A 
HETATM    6  O11 UNL     1      -3.510   0.348  -1.621  1.00  0.00    -0.305 OA
HETATM    7  C23 UNL     1      -5.893   0.145  -1.492  1.00  0.00     0.052 A 
HETATM    8  C24 UNL     1      -7.031  -0.625  -1.156  1.00  0.00     0.135 A 
HETATM    9  C25 UNL     1      -6.875  -1.928  -0.625  1.00  0.00     0.055 A 
HETATM   10  C26 UNL     1      -5.582  -2.467  -0.432  1.00  0.00     0.138 A 
HETATM   11  O12 UNL     1      -5.453  -3.703   0.072  1.00  0.00    -0.190 OA
HETATM   12  O13 UNL     1      -8.258  -0.117  -1.338  1.00  0.00    -0.190 OA
HETATM   13  O14 UNL     1      -2.756  -3.312  -0.148  1.00  0.00    -0.284 OA
ENDROOT
BRANCH   2  14
HETATM   14  O2  UNL     1      -0.703  -1.732  -0.826  1.00  0.00    -0.298 OA
BRANCH  14  15
HETATM   15  C9  UNL     1      -0.326  -1.850   0.539  1.00  0.00     0.271 C 
HETATM   16  O3  UNL     1      -0.148  -3.197   0.906  1.00  0.00    -0.326 OA
HETATM   17  C10 UNL     1       0.666  -3.293   2.055  1.00  0.00     0.184 C 
HETATM   18  C11 UNL     1       1.385  -1.932   2.137  1.00  0.00     0.214 C 
HETATM   19  C12 UNL     1       1.057  -1.262   0.793  1.00  0.00     0.207 C 
HETATM   20  O9  UNL     1       2.781  -2.100   2.285  1.00  0.00    -0.218 OA
BRANCH  17  21
HETATM   21  C19 UNL     1      -0.232  -3.529   3.264  1.00  0.00     0.214 C 
HETATM   22  O10 UNL     1       0.588  -3.812   4.375  1.00  0.00    -0.218 OA
ENDBRANCH  17  21
BRANCH  19  23
HETATM   23  O4  UNL     1       0.996   0.147   0.910  1.00  0.00    -0.324 OA
BRANCH  23  24
HETATM   24  C13 UNL     1       2.271   0.754   0.986  1.00  0.00     0.270 C 
HETATM   25  O5  UNL     1       2.951   0.524  -0.240  1.00  0.00    -0.329 OA
HETATM   26  C14 UNL     1       4.277   1.033  -0.299  1.00  0.00     0.151 C 
HETATM   27  C15 UNL     1       4.240   2.570  -0.135  1.00  0.00     0.212 C 
HETATM   28  C18 UNL     1       4.861   0.590  -1.643  1.00  0.00     0.035 C 
HETATM   29  C16 UNL     1       3.508   2.979   1.162  1.00  0.00     0.220 C 
HETATM   30  O8  UNL     1       5.570   3.055  -0.109  1.00  0.00    -0.218 OA
HETATM   31  C17 UNL     1       2.133   2.277   1.234  1.00  0.00     0.241 C 
HETATM   32  O7  UNL     1       3.332   4.387   1.191  1.00  0.00    -0.218 OA
HETATM   33  O6  UNL     1       1.562   2.494   2.516  1.00  0.00    -0.215 OA
ENDBRANCH  23  24
ENDBRANCH  19  23
ENDBRANCH  14  15
ENDBRANCH   2  14
BRANCH   1  34
HETATM   34  C3  UNL     1      -1.119   0.822  -1.856  1.00  0.00     0.025 A 
HETATM   35  C2  UNL     1       0.010   0.303  -2.514  1.00  0.00     0.004 A 
HETATM   36  C1  UNL     1       1.064   1.156  -2.879  1.00  0.00     0.028 A 
HETATM   37  C6  UNL     1       0.998   2.531  -2.586  1.00  0.00     0.131 A 
HETATM   38  C5  UNL     1      -0.133   3.047  -1.928  1.00  0.00     0.028 A 
HETATM   39  O1  UNL     1       1.988   3.330  -2.930  1.00  0.00    -0.190 OA
HETATM   40  C4  UNL     1      -1.190   2.195  -1.563  1.00  0.00     0.004 A 
ENDBRANCH   1  34
TORSDOF 6
