REMARK  3 active torsions:
REMARK  status: ('A' for Active; 'I' for Inactive)
REMARK    1  A    between atoms: C7_8  and  O4_19 
REMARK    2  A    between atoms: O4_19  and  C16_20 
REMARK    3  A    between atoms: C16_20  and  C17_21 
ROOT
HETATM    1  C1  UNL     1      -0.918   1.690   1.419  1.00  0.00     0.182 C 
HETATM    2  C2  UNL     1       0.348   0.901   1.718  1.00  0.00     0.099 C 
HETATM    3  C3  UNL     1      -0.225  -0.310   2.418  1.00  0.00     0.237 C 
HETATM    4  O1  UNL     1      -1.530  -0.523   1.935  1.00  0.00    -0.332 OA
HETATM    5  C4  UNL     1      -2.005   0.622   1.301  1.00  0.00     0.126 C 
HETATM    6  C5  UNL     1      -3.310   1.041   2.007  1.00  0.00     0.033 C 
HETATM    7  C6  UNL     1      -2.391   0.256  -0.148  1.00  0.00     0.060 C 
HETATM    8  C7  UNL     1      -1.361  -0.367  -1.107  1.00  0.00     0.134 C 
HETATM    9  C8  UNL     1      -0.830  -1.761  -0.691  1.00  0.00     0.087 A 
HETATM   10  C9  UNL     1       0.653  -1.899  -0.255  1.00  0.00     0.153 A 
HETATM   11  C10 UNL     1       0.919  -2.240   1.201  1.00  0.00     0.000 C 
HETATM   12  C11 UNL     1       0.600  -1.581   2.333  1.00  0.00     0.007 C 
HETATM   13  C12 UNL     1       1.073  -2.131   3.663  1.00  0.00     0.031 C 
HETATM   14  O2  UNL     1       1.300  -2.856  -1.089  1.00  0.00    -0.296 OA
HETATM   15  C13 UNL     1       0.411  -3.332  -1.988  1.00  0.00     0.292 A 
HETATM   16  C14 UNL     1      -0.926  -2.749  -1.830  1.00  0.00     0.046 A 
HETATM   17  C15 UNL     1      -2.001  -3.095  -2.561  1.00  0.00     0.001 C 
HETATM   18  O3  UNL     1       0.698  -4.181  -2.828  1.00  0.00    -0.259 OA
HETATM   19  O6  UNL     1      -0.471   0.070   3.771  1.00  0.00    -0.191 OA
HETATM   20  O7  UNL     1      -1.153   2.527   2.529  1.00  0.00    -0.221 OA
ENDROOT
BRANCH   8  21
HETATM   21  O4  UNL     1      -0.378   0.584  -1.387  1.00  0.00    -0.301 OA
BRANCH  21  22
HETATM   22  C16 UNL     1       0.423   0.430  -2.482  1.00  0.00     0.291 C 
HETATM   23  O5  UNL     1       0.193  -0.463  -3.291  1.00  0.00    -0.260 OA
BRANCH  22  24
HETATM   24  C17 UNL     1       1.669   1.235  -2.669  1.00  0.00     0.037 C 
HETATM   25  C18 UNL     1       2.539   0.885  -3.852  1.00  0.00     0.036 C 
HETATM   26  C19 UNL     1       1.939   2.210  -1.773  1.00  0.00    -0.025 C 
HETATM   27  C20 UNL     1       3.132   3.131  -1.742  1.00  0.00     0.030 C 
ENDBRANCH  22  24
ENDBRANCH  21  22
ENDBRANCH   8  21
TORSDOF 3
