REMARK  7 active torsions:
REMARK  status: ('A' for Active; 'I' for Inactive)
REMARK    1  A    between atoms: O1_1  and  C2_3 
REMARK    2  A    between atoms: C3_4  and  O2_5 
REMARK    3  A    between atoms: C5_7  and  O8_28 
REMARK    4  A    between atoms: C8_10  and  O3_11 
REMARK    5  A    between atoms: C10_14  and  C13_18 
REMARK    6  A    between atoms: C15_20  and  O7_26 
REMARK    7  A    between atoms: C16_21  and  O6_24 
ROOT
HETATM    1  C2  UNL     1      -2.855   1.876   0.137  1.00  0.00     0.142 C 
HETATM    2  C3  UNL     1      -2.369   3.195   0.066  1.00  0.00     0.141 C 
HETATM    3  C5  UNL     1      -0.986   3.429  -0.057  1.00  0.00     0.123 C 
HETATM    4  C6  UNL     1      -0.159   2.331  -0.357  1.00  0.00     0.088 C 
HETATM    5  C7  UNL     1      -0.626   1.010  -0.286  1.00  0.00     0.129 C 
HETATM    6  C8  UNL     1      -1.961   0.790   0.084  1.00  0.00     0.141 C 
HETATM    7  O4  UNL     1       0.164  -0.077  -0.532  1.00  0.00    -0.305 OA
HETATM    8  C10 UNL     1       1.522   0.059  -0.485  1.00  0.00     0.103 C 
HETATM    9  C11 UNL     1       2.101   1.280  -0.586  1.00  0.00     0.067 C 
HETATM   10  C12 UNL     1       1.287   2.514  -0.653  1.00  0.00     0.202 C 
HETATM   11  O5  UNL     1       1.842   3.593  -0.847  1.00  0.00    -0.286 OA
ENDROOT
BRANCH   8  12
HETATM   12  C13 UNL     1       2.355  -1.161  -0.379  1.00  0.00     0.025 A 
HETATM   13  C14 UNL     1       1.742  -2.422  -0.455  1.00  0.00     0.028 A 
HETATM   14  C15 UNL     1       2.407  -3.652  -0.353  1.00  0.00     0.116 A 
HETATM   15  C16 UNL     1       3.798  -3.637  -0.091  1.00  0.00     0.116 A 
HETATM   16  C17 UNL     1       4.422  -2.381  -0.033  1.00  0.00     0.026 A 
HETATM   17  C18 UNL     1       3.737  -1.173  -0.167  1.00  0.00     0.004 A 
BRANCH  14  18
HETATM   18  O7  UNL     1       1.610  -4.774  -0.417  1.00  0.00    -0.326 OA
HETATM   19  C20 UNL     1       2.020  -5.975   0.191  1.00  0.00     0.181 C 
ENDBRANCH  14  18
BRANCH  15  20
HETATM   20  O6  UNL     1       4.491  -4.815   0.032  1.00  0.00    -0.326 OA
HETATM   21  C19 UNL     1       5.895  -4.789   0.135  1.00  0.00     0.181 C 
ENDBRANCH  15  20
ENDBRANCH   8  12
BRANCH   6  22
HETATM   22  O3  UNL     1      -2.443  -0.495   0.124  1.00  0.00    -0.324 OA
HETATM   23  C9  UNL     1      -2.383  -1.085   1.402  1.00  0.00     0.182 C 
ENDBRANCH   6  22
BRANCH   3  24
HETATM   24  O8  UNL     1      -0.526   4.720  -0.132  1.00  0.00    -0.326 OA
HETATM   25  C21 UNL     1      -0.106   5.247   1.105  1.00  0.00     0.181 C 
ENDBRANCH   3  24
BRANCH   1  26
HETATM   26  O1  UNL     1      -4.165   1.643   0.478  1.00  0.00    -0.324 OA
HETATM   27  C1  UNL     1      -5.025   1.446  -0.621  1.00  0.00     0.182 C 
ENDBRANCH   1  26
BRANCH   2  28
HETATM   28  O2  UNL     1      -3.228   4.240   0.313  1.00  0.00    -0.324 OA
HETATM   29  C4  UNL     1      -3.594   4.987  -0.826  1.00  0.00     0.182 C 
ENDBRANCH   2  28
TORSDOF 7
