REMARK  12 active torsions:
REMARK  status: ('A' for Active; 'I' for Inactive)
REMARK    1  A    between atoms: C1_1  and  C16_23 
REMARK    2  A    between atoms: C3_3  and  O6_20 
REMARK    3  A    between atoms: C5_5  and  C7_8 
REMARK    4  A    between atoms: C7_8  and  C8_9 
REMARK    5  A    between atoms: C9_10  and  C10_11 
REMARK    6  A    between atoms: C11_12  and  C12_13 
REMARK    7  A    between atoms: C13_14  and  C14_15 
REMARK    8  A    between atoms: C16_23  and  C17_24 
REMARK    9  A    between atoms: C17_24  and  C18_25 
REMARK   10  A    between atoms: C18_25  and  C19_26 
REMARK   11  A    between atoms: C19_26  and  C20_27 
REMARK   12  A    between atoms: C20_27  and  C21_28 
ROOT
HETATM    1  C1  UNL     1       0.999  -2.027   0.390  1.00  0.00     0.049 A 
HETATM    2  C2  UNL     1       1.599  -3.249   0.737  1.00  0.00     0.157 A 
HETATM    3  C3  UNL     1       0.854  -4.386   1.089  1.00  0.00     0.145 A 
HETATM    4  C4  UNL     1      -0.547  -4.278   1.150  1.00  0.00     0.160 A 
HETATM    5  C5  UNL     1      -1.155  -3.049   0.829  1.00  0.00     0.092 A 
HETATM    6  C6  UNL     1      -0.398  -1.938   0.400  1.00  0.00     0.138 A 
HETATM    7  O1  UNL     1      -1.018  -0.776   0.086  1.00  0.00    -0.190 OA
HETATM    8  O5  UNL     1      -1.309  -5.361   1.469  1.00  0.00    -0.188 OA
HETATM    9  O7  UNL     1       2.958  -3.345   0.712  1.00  0.00    -0.188 OA
ENDROOT
BRANCH   5  10
HETATM   10  C7  UNL     1      -2.647  -2.937   0.966  1.00  0.00     0.200 C 
HETATM   11  O4  UNL     1      -3.274  -3.594   1.781  1.00  0.00    -0.286 OA
BRANCH  10  12
HETATM   12  C8  UNL     1      -3.402  -1.897   0.154  1.00  0.00     0.042 C 
HETATM   13  C9  UNL     1      -3.683  -0.701   0.695  1.00  0.00     0.003 C 
BRANCH  13  14
HETATM   14  C10 UNL     1      -4.215   0.403  -0.121  1.00  0.00     0.000 C 
HETATM   15  C11 UNL     1      -3.737   1.650   0.073  1.00  0.00     0.000 C 
BRANCH  15  16
HETATM   16  C12 UNL     1      -4.037   2.749  -0.854  1.00  0.00     0.006 C 
HETATM   17  C13 UNL     1      -3.199   3.763  -1.174  1.00  0.00     0.070 C 
BRANCH  17  18
HETATM   18  C14 UNL     1      -1.792   3.913  -0.720  1.00  0.00     0.211 C 
HETATM   19  O2  UNL     1      -1.051   4.993  -1.055  1.00  0.00    -0.644 OA
HETATM   20  O3  UNL     1      -1.207   3.031  -0.106  1.00  0.00    -0.644 OA
ENDBRANCH  17  18
ENDBRANCH  15  16
ENDBRANCH  13  14
ENDBRANCH  10  12
ENDBRANCH   5  10
BRANCH   3  21
HETATM   21  O6  UNL     1       1.599  -5.503   1.390  1.00  0.00    -0.324 OA
HETATM   22  C15 UNL     1       1.024  -6.665   1.937  1.00  0.00     0.182 C 
ENDBRANCH   3  21
BRANCH   1  23
HETATM   23  C16 UNL     1       1.972  -0.905   0.025  1.00  0.00    -0.022 C 
BRANCH  23  24
HETATM   24  C17 UNL     1       1.496   0.525  -0.261  1.00  0.00     0.026 C 
BRANCH  24  25
HETATM   25  C18 UNL     1       2.680   1.476  -0.516  1.00  0.00     0.005 C 
BRANCH  25  26
HETATM   26  C19 UNL     1       2.206   2.909  -0.819  1.00  0.00     0.012 C 
BRANCH  26  27
HETATM   27  C20 UNL     1       3.387   3.855  -1.077  1.00  0.00     0.098 C 
BRANCH  27  28
HETATM   28  C21 UNL     1       3.057   5.296  -1.421  1.00  0.00     0.185 C 
HETATM   29  O8  UNL     1       3.874   6.162  -1.624  1.00  0.00    -0.647 OA
HETATM   30  O9  UNL     1       1.738   5.557  -1.502  1.00  0.00    -0.647 OA
ENDBRANCH  27  28
ENDBRANCH  26  27
ENDBRANCH  25  26
ENDBRANCH  24  25
ENDBRANCH  23  24
ENDBRANCH   1  23
TORSDOF 12
