REMARK  5 active torsions:
REMARK  status: ('A' for Active; 'I' for Inactive)
REMARK    1  A    between atoms: C1_1  and  C2_2 
REMARK    2  A    between atoms: C2_2  and  C3_3 
REMARK    3  A    between atoms: C3_3  and  C4_4 
REMARK    4  A    between atoms: C5_5  and  C6_6 
REMARK    5  A    between atoms: C7_7  and  C8_8 
ROOT
HETATM    1  C4  UNL     1       0.252   0.120   0.001  1.00  0.00    -0.026 C 
HETATM    2  C5  UNL     1       1.429  -0.536  -0.000  1.00  0.00    -0.004 C 
ENDROOT
BRANCH   2   3
HETATM    3  C6  UNL     1       2.716   0.166   0.001  1.00  0.00     0.006 C 
HETATM    4  C7  UNL     1       3.892  -0.507  -0.003  1.00  0.00     0.070 C 
BRANCH   4   5
HETATM    5  C8  UNL     1       5.207   0.170  -0.002  1.00  0.00     0.211 C 
HETATM    6  O1  UNL     1       6.362  -0.527  -0.011  1.00  0.00    -0.644 OA
HETATM    7  O2  UNL     1       5.295   1.393   0.010  1.00  0.00    -0.644 OA
ENDBRANCH   4   5
ENDBRANCH   2   3
BRANCH   1   8
HETATM    8  C3  UNL     1      -1.081  -0.587  -0.000  1.00  0.00     0.026 C 
BRANCH   8   9
HETATM    9  C2  UNL     1      -2.266   0.391   0.000  1.00  0.00     0.005 C 
BRANCH   9  10
HETATM   10  C1  UNL     1      -3.619  -0.339  -0.000  1.00  0.00     0.000 C 
HETATM   11  C9  UNL     1      -4.795   0.648   0.000  1.00  0.00     0.000 C 
ENDBRANCH   9  10
ENDBRANCH   8   9
ENDBRANCH   1   8
TORSDOF 5
