REMARK  8 active torsions:
REMARK  status: ('A' for Active; 'I' for Inactive)
REMARK    1  A    between atoms: C1_1  and  C2_2 
REMARK    2  A    between atoms: C2_2  and  C3_3 
REMARK    3  A    between atoms: C3_3  and  C4_4 
REMARK    4  A    between atoms: C4_4  and  C5_5 
REMARK    5  A    between atoms: C5_5  and  C6_6 
REMARK    6  A    between atoms: C6_6  and  C7_7 
REMARK    7  A    between atoms: C7_7  and  C8_8 
REMARK    8  A    between atoms: C8_8  and  C9_9 
ROOT
HETATM    1  C5  UNL     1       0.228   0.004   0.439  1.00  0.00     0.000 C 
ENDROOT
BRANCH   1   2
HETATM    2  C4  UNL     1      -0.158  -1.468   0.212  1.00  0.00     0.000 C 
BRANCH   2   3
HETATM    3  C3  UNL     1       0.195  -2.357   1.416  1.00  0.00     0.000 C 
BRANCH   3   4
HETATM    4  C2  UNL     1      -0.179  -3.828   1.167  1.00  0.00     0.000 C 
BRANCH   4   5
HETATM    5  C1  UNL     1       0.069  -4.705   2.405  1.00  0.00     0.000 C 
HETATM    6  C12 UNL     1      -0.293  -6.173   2.144  1.00  0.00     0.000 C 
ENDBRANCH   4   5
ENDBRANCH   3   4
ENDBRANCH   2   3
ENDBRANCH   1   2
BRANCH   1   7
HETATM    7  C6  UNL     1      -0.260   0.904  -0.708  1.00  0.00     0.000 C 
BRANCH   7   8
HETATM    8  C7  UNL     1       0.136   2.376  -0.504  1.00  0.00     0.000 C 
BRANCH   8   9
HETATM    9  C8  UNL     1      -0.462   3.286  -1.589  1.00  0.00     0.000 C 
BRANCH   9  10
HETATM   10  C9  UNL     1      -0.086   4.753  -1.412  1.00  0.00     0.000 A 
HETATM   11  C10 UNL     1       1.150   5.245  -2.127  1.00  0.00     0.000 A 
HETATM   12  C11 UNL     1      -0.216   5.643  -2.627  1.00  0.00     0.000 A 
ENDBRANCH   9  10
ENDBRANCH   8   9
ENDBRANCH   7   8
ENDBRANCH   1   7
TORSDOF 8
