REMARK  0 active torsions:
REMARK  status: ('A' for Active; 'I' for Inactive)
ROOT
HETATM    1  C1  UNL     1      -1.166   0.990  -1.219  1.00  0.00     0.005 C 
HETATM    2  C2  UNL     1      -2.321   0.642  -0.263  1.00  0.00     0.030 C 
HETATM    3  C3  UNL     1      -2.602  -0.825   0.019  1.00  0.00     0.120 A 
HETATM    4  C4  UNL     1      -1.526  -1.767   0.125  1.00  0.00     0.165 A 
HETATM    5  C5  UNL     1      -0.110  -1.217   0.077  1.00  0.00     0.132 C 
HETATM    6  C6  UNL     1       0.127   0.159  -1.036  1.00  0.00     0.028 C 
HETATM    7  C7  UNL     1       1.622   1.037  -0.843  1.00  0.00     0.002 C 
HETATM    8  C8  UNL     1       2.623   0.800   0.575  1.00  0.00     0.001 C 
HETATM    9  C9  UNL     1       2.190  -0.417   1.789  1.00  0.00     0.007 C 
HETATM   10  C10 UNL     1       0.690  -1.188   1.601  1.00  0.00     0.056 C 
HETATM   11  C11 UNL     1       0.765  -0.002   0.894  1.00  0.00     0.043 C 
HETATM   12  C12 UNL     1       1.604  -1.080  -0.226  1.00  0.00     0.292 C 
HETATM   13  O1  UNL     1       0.759  -2.073  -0.562  1.00  0.00    -0.301 OA
HETATM   14  O2  UNL     1       2.783  -1.264  -0.531  1.00  0.00    -0.260 OA
HETATM   15  C13 UNL     1       0.295   1.223   1.249  1.00  0.00     0.001 C 
HETATM   16  C14 UNL     1       2.449   1.001  -2.155  1.00  0.00     0.000 C 
HETATM   17  O3  UNL     1      -2.123  -1.801  -1.149  1.00  0.00    -0.354 OA
HETATM   18  C15 UNL     1      -3.956  -1.200   0.593  1.00  0.00     0.032 C 
ENDROOT
TORSDOF 0
