REMARK  1 active torsions:
REMARK  status: ('A' for Active; 'I' for Inactive)
REMARK    1  A    between atoms: C4_4  and  C17_18 
ROOT
HETATM    1  C1  UNL     1       0.050   0.486   0.173  1.00  0.00    -0.027 A 
HETATM    2  C2  UNL     1       0.116   1.880   0.305  1.00  0.00    -0.005 A 
HETATM    3  C3  UNL     1       1.323   2.577   0.261  1.00  0.00    -0.005 A 
HETATM    4  C4  UNL     1       2.535   1.899   0.114  1.00  0.00    -0.023 A 
HETATM    5  C5  UNL     1       2.474   0.506   0.007  1.00  0.00    -0.009 A 
HETATM    6  C6  UNL     1       1.267  -0.204   0.042  1.00  0.00    -0.026 A 
HETATM    7  C7  UNL     1       1.338  -1.706  -0.092  1.00  0.00     0.026 C 
HETATM    8  C8  UNL     1       0.009  -2.439   0.123  1.00  0.00     0.007 C 
HETATM    9  C9  UNL     1      -1.157  -1.630  -0.464  1.00  0.00     0.032 C 
HETATM   10  C10 UNL     1      -1.284  -0.268   0.274  1.00  0.00     0.021 C 
HETATM   11  C11 UNL     1      -2.430   0.507  -0.416  1.00  0.00     0.004 C 
HETATM   12  C12 UNL     1      -3.783  -0.221  -0.477  1.00  0.00     0.003 C 
HETATM   13  C13 UNL     1      -3.717  -1.715  -0.153  1.00  0.00     0.030 C 
HETATM   14  C14 UNL     1      -2.474  -2.410  -0.712  1.00  0.00     0.127 C 
HETATM   15  C15 UNL     1      -2.477  -3.860  -0.208  1.00  0.00     0.033 C 
HETATM   16  O1  UNL     1      -2.671  -2.487  -2.106  1.00  0.00    -0.226 OA
HETATM   17  C16 UNL     1      -1.518  -0.371   1.799  1.00  0.00     0.004 C 
ENDROOT
BRANCH   4  18
HETATM   18  C17 UNL     1       3.862   2.634   0.077  1.00  0.00     0.022 C 
HETATM   19  C18 UNL     1       4.073   3.482   1.342  1.00  0.00     0.005 C 
HETATM   20  C19 UNL     1       3.974   3.489  -1.194  1.00  0.00     0.005 C 
ENDBRANCH   4  18
TORSDOF 1
