REMARK  0 active torsions:
REMARK  status: ('A' for Active; 'I' for Inactive)
ROOT
HETATM    1  C1  UNL     1      -1.001  -1.979   0.118  1.00  0.00     0.138 C 
HETATM    2  C2  UNL     1       0.507  -2.581  -0.155  1.00  0.00     0.077 C 
HETATM    3  C3  UNL     1       1.621  -2.053  -1.281  1.00  0.00    -0.021 C 
HETATM    4  C4  UNL     1       1.873  -0.367  -1.606  1.00  0.00     0.002 C 
HETATM    5  C5  UNL     1       0.855   0.972  -1.189  1.00  0.00     0.170 C 
HETATM    6  C6  UNL     1      -0.380   0.920  -0.041  1.00  0.00     0.154 A 
HETATM    7  C7  UNL     1      -1.315  -0.345   0.448  1.00  0.00     0.086 C 
HETATM    8  C8  UNL     1      -1.972   0.173   1.722  1.00  0.00     0.125 A 
HETATM    9  C9  UNL     1      -2.001   1.619   1.681  1.00  0.00     0.169 A 
HETATM   10  C10 UNL     1      -1.142   2.032   0.509  1.00  0.00     0.172 A 
HETATM   11  O1  UNL     1       0.125   1.968   1.097  1.00  0.00    -0.351 OA
HETATM   12  O2  UNL     1      -3.260   1.087   1.377  1.00  0.00    -0.354 OA
HETATM   13  C11 UNL     1      -2.091  -0.614   3.000  1.00  0.00     0.032 C 
HETATM   14  C12 UNL     1       1.896   2.107  -0.952  1.00  0.00     0.040 C 
HETATM   15  O3  UNL     1       0.225   1.491  -2.358  1.00  0.00    -0.219 OA
HETATM   16  C13 UNL     1       0.602  -1.175  -0.085  1.00  0.00     0.047 C 
HETATM   17  C14 UNL     1      -0.403  -1.123  -1.405  1.00  0.00     0.292 C 
HETATM   18  O4  UNL     1      -1.423  -1.996  -1.198  1.00  0.00    -0.300 OA
HETATM   19  O5  UNL     1      -0.284  -0.768  -2.576  1.00  0.00    -0.259 OA
HETATM   20  C15 UNL     1       1.376  -0.559   0.843  1.00  0.00     0.001 C 
ENDROOT
TORSDOF 0
