REMARK  9 active torsions:
REMARK  status: ('A' for Active; 'I' for Inactive)
REMARK    1  A    between atoms: C3_3  and  C8_10 
REMARK    2  A    between atoms: C6_6  and  O1_7 
REMARK    3  A    between atoms: C8_10  and  N1_11 
REMARK       I    between atoms: N1_11  and  C9_12 
REMARK    4  A    between atoms: C9_12  and  C10_13 
REMARK    5  A    between atoms: C10_13  and  C11_14 
REMARK    6  A    between atoms: C11_14  and  C12_15 
REMARK    7  A    between atoms: C12_15  and  C13_16 
REMARK    8  A    between atoms: C13_16  and  C14_17 
REMARK    9  A    between atoms: C14_17  and  C15_18 
ROOT
HETATM    1  N1  UNL     1      -1.736   0.666  -0.470  1.00  0.00    -0.233 NA
HETATM    2  C9  UNL     1      -1.056  -0.473  -0.136  1.00  0.00     0.252 C 
HETATM    3  O3  UNL     1      -1.555  -1.569  -0.229  1.00  0.00    -0.271 OA
ENDROOT
BRANCH   1   4
HETATM    4  C8  UNL     1      -3.101   0.614  -0.991  1.00  0.00     0.155 C 
BRANCH   4   5
HETATM    5  C3  UNL     1      -3.616   1.995  -1.312  1.00  0.00     0.004 A 
HETATM    6  C2  UNL     1      -2.778   3.064  -1.632  1.00  0.00    -0.000 A 
HETATM    7  C1  UNL     1      -3.329   4.308  -1.937  1.00  0.00     0.026 A 
HETATM    8  C6  UNL     1      -4.708   4.568  -1.937  1.00  0.00     0.119 A 
HETATM    9  C5  UNL     1      -5.555   3.479  -1.649  1.00  0.00     0.153 A 
HETATM   10  C4  UNL     1      -4.991   2.237  -1.333  1.00  0.00     0.027 A 
HETATM   11  O2  UNL     1      -6.911   3.572  -1.637  1.00  0.00    -0.188 OA
BRANCH   8  12
HETATM   12  O1  UNL     1      -5.102   5.835  -2.298  1.00  0.00    -0.326 OA
HETATM   13  C7  UNL     1      -6.426   6.068  -2.714  1.00  0.00     0.181 C 
ENDBRANCH   8  12
ENDBRANCH   4   5
ENDBRANCH   1   4
BRANCH   2  14
HETATM   14  C10 UNL     1       0.368  -0.245   0.346  1.00  0.00     0.090 C 
BRANCH  14  15
HETATM   15  C11 UNL     1       1.093  -1.563   0.661  1.00  0.00     0.010 C 
BRANCH  15  16
HETATM   16  C12 UNL     1       2.557  -1.361   1.082  1.00  0.00     0.001 C 
BRANCH  16  17
HETATM   17  C13 UNL     1       3.236  -2.709   1.383  1.00  0.00     0.000 C 
BRANCH  17  18
HETATM   18  C14 UNL     1       4.719  -2.550   1.756  1.00  0.00     0.000 C 
BRANCH  18  19
HETATM   19  C15 UNL     1       5.396  -3.862   2.201  1.00  0.00     0.000 C 
HETATM   20  C16 UNL     1       5.429  -4.920   1.085  1.00  0.00     0.000 C 
HETATM   21  C17 UNL     1       6.827  -3.578   2.693  1.00  0.00     0.000 C 
ENDBRANCH  18  19
ENDBRANCH  17  18
ENDBRANCH  16  17
ENDBRANCH  15  16
ENDBRANCH  14  15
ENDBRANCH   2  14
TORSDOF 9
