REMARK  6 active torsions:
REMARK  status: ('A' for Active; 'I' for Inactive)
REMARK    1  A    between atoms: C7_7  and  C8_8 
REMARK    2  A    between atoms: C8_8  and  O2_10 
REMARK    3  A    between atoms: O2_10  and  C9_11 
REMARK    4  A    between atoms: C9_11  and  C10_12 
REMARK    5  A    between atoms: C10_12  and  N1_13 
REMARK    6  A    between atoms: C20_23  and  C21_24 
ROOT
HETATM    1  C1  UNL     1       1.744   0.732   1.233  1.00  0.00     0.022 C 
HETATM    2  C2  UNL     1       0.299   0.265   0.997  1.00  0.00     0.004 C 
HETATM    3  C3  UNL     1       0.149  -0.507  -0.331  1.00  0.00     0.003 C 
HETATM    4  C4  UNL     1       1.522  -1.058  -0.778  1.00  0.00     0.034 C 
HETATM    5  C5  UNL     1       2.446   0.137  -1.150  1.00  0.00     0.021 C 
HETATM    6  C6  UNL     1       2.369   1.217  -0.060  1.00  0.00    -0.039 C 
HETATM    7  C7  UNL     1       2.862   2.460  -0.260  1.00  0.00     0.060 C 
HETATM    8  C12 UNL     1       2.166   0.715  -2.553  1.00  0.00     0.004 C 
HETATM    9  C13 UNL     1       1.387  -2.245  -1.740  1.00  0.00     0.152 C 
HETATM   10  C14 UNL     1       0.149  -2.173  -2.623  1.00  0.00     0.034 C 
HETATM   11  C15 UNL     1      -1.169  -2.033  -1.823  1.00  0.00     0.012 C 
HETATM   12  C16 UNL     1      -0.994  -1.560  -0.351  1.00  0.00     0.001 C 
HETATM   13  C17 UNL     1      -2.339  -0.891   0.061  1.00  0.00     0.003 C 
HETATM   14  C18 UNL     1      -3.590  -1.438  -0.657  1.00  0.00     0.033 C 
HETATM   15  C19 UNL     1      -3.458  -2.900  -1.078  1.00  0.00     0.159 C 
HETATM   16  C20 UNL     1      -2.255  -3.130  -2.025  1.00  0.00     0.086 C 
HETATM   17  C22 UNL     1      -2.769  -3.070  -3.487  1.00  0.00     0.010 C 
HETATM   18  O4  UNL     1      -3.370  -3.679   0.092  1.00  0.00    -0.223 OA
HETATM   19  C23 UNL     1      -0.633  -2.702   0.634  1.00  0.00     0.000 C 
HETATM   20  O5  UNL     1       2.550  -2.411  -2.516  1.00  0.00    -0.224 OA
ENDROOT
BRANCH   7  21
HETATM   21  C8  UNL     1       2.833   3.620   0.678  1.00  0.00     0.295 C 
HETATM   22  O1  UNL     1       3.405   4.642   0.307  1.00  0.00    -0.259 OA
BRANCH  21  23
HETATM   23  O2  UNL     1       2.111   3.627   1.830  1.00  0.00    -0.296 OA
BRANCH  23  24
HETATM   24  C9  UNL     1       1.878   4.846   2.481  1.00  0.00     0.190 C 
BRANCH  24  25
HETATM   25  C10 UNL     1       0.911   4.580   3.635  1.00  0.00     0.323 C 
BRANCH  25  26
HETATM   26  N1  UNL     1       0.629   5.812   4.371  1.00  0.00     0.344 N 
HETATM   27  C11 UNL     1      -0.295   5.614   5.485  1.00  0.00     0.328 C 
ENDBRANCH  25  26
ENDBRANCH  24  25
ENDBRANCH  23  24
ENDBRANCH  21  23
ENDBRANCH   7  21
BRANCH  16  28
HETATM   28  C21 UNL     1      -1.713  -4.552  -1.882  1.00  0.00     0.209 C 
HETATM   29  O3  UNL     1      -2.366  -5.437  -1.380  1.00  0.00    -0.288 OA
ENDBRANCH  16  28
TORSDOF 6
