REMARK  3 active torsions:
REMARK  status: ('A' for Active; 'I' for Inactive)
REMARK    1  A    between atoms: O1_1  and  C2_3 
REMARK    2  A    between atoms: C3_4  and  O2_5 
REMARK    3  A    between atoms: C16_20  and  O4_21 
ROOT
HETATM    1  C2  UNL     1      -1.332   2.466  -0.068  1.00  0.00     0.116 C 
HETATM    2  C3  UNL     1      -1.269   1.114  -0.473  1.00  0.00     0.116 C 
HETATM    3  C5  UNL     1      -0.070   0.400  -0.268  1.00  0.00     0.024 C 
HETATM    4  C6  UNL     1       1.118   1.125  -0.143  1.00  0.00     0.010 C 
HETATM    5  C7  UNL     1       1.080   2.443   0.295  1.00  0.00    -0.020 C 
HETATM    6  C8  UNL     1      -0.149   3.099   0.346  1.00  0.00     0.022 C 
HETATM    7  C9  UNL     1       2.390   3.014   0.776  1.00  0.00     0.064 C 
HETATM    8  C10 UNL     1       3.149   1.926   1.576  1.00  0.00     0.295 C 
HETATM    9  N1  UNL     1       3.142   0.574   0.987  1.00  0.00     0.342 N 
HETATM   10  C11 UNL     1       2.482   0.528  -0.311  1.00  0.00     0.283 C 
HETATM   11  C12 UNL     1       2.439  -0.845  -0.993  1.00  0.00     0.067 C 
HETATM   12  C13 UNL     1       1.252  -1.676  -0.586  1.00  0.00    -0.018 C 
HETATM   13  C14 UNL     1       0.046  -1.076  -0.196  1.00  0.00     0.025 C 
HETATM   14  C15 UNL     1      -0.974  -1.875   0.356  1.00  0.00     0.153 C 
HETATM   15  O3  UNL     1      -2.034  -1.312   0.999  1.00  0.00    -0.188 OA
HETATM   16  C16 UNL     1      -0.881  -3.277   0.365  1.00  0.00     0.119 C 
HETATM   17  C18 UNL     1       0.262  -3.855  -0.205  1.00  0.00     0.026 C 
HETATM   18  C19 UNL     1       1.334  -3.069  -0.623  1.00  0.00    -0.002 C 
ENDROOT
BRANCH   1  19
HETATM   19  O1  UNL     1      -2.553   3.095  -0.132  1.00  0.00    -0.326 OA
HETATM   20  C1  UNL     1      -2.615   4.484   0.096  1.00  0.00     0.181 C 
ENDBRANCH   1  19
BRANCH   2  21
HETATM   21  O2  UNL     1      -2.433   0.469  -0.809  1.00  0.00    -0.326 OA
HETATM   22  C4  UNL     1      -2.740   0.547  -2.183  1.00  0.00     0.181 C 
ENDBRANCH   2  21
BRANCH  16  23
HETATM   23  O4  UNL     1      -1.958  -3.987   0.836  1.00  0.00    -0.326 OA
HETATM   24  C17 UNL     1      -2.076  -5.342   0.471  1.00  0.00     0.181 C 
ENDBRANCH  16  23
TORSDOF 3
