REMARK  1 active torsions:
REMARK  status: ('A' for Active; 'I' for Inactive)
REMARK    1  A    between atoms: C13_14  and  C15_17 
ROOT
HETATM    1  C1  UNL     1      -2.676  -1.978   0.026  1.00  0.00     0.003 A 
HETATM    2  C2  UNL     1      -3.994  -1.601  -0.242  1.00  0.00     0.002 A 
HETATM    3  C3  UNL     1      -4.307  -0.253  -0.368  1.00  0.00     0.028 A 
HETATM    4  C4  UNL     1      -3.339   0.755  -0.230  1.00  0.00     0.134 A 
HETATM    5  C5  UNL     1      -2.012   0.362   0.031  1.00  0.00     0.067 A 
HETATM    6  C6  UNL     1      -1.684  -1.002   0.161  1.00  0.00     0.044 A 
HETATM    7  C7  UNL     1      -0.291  -1.451   0.423  1.00  0.00     0.198 C 
HETATM    8  C8  UNL     1       0.811  -0.461   0.270  1.00  0.00     0.068 A 
HETATM    9  C9  UNL     1       0.479   0.899   0.160  1.00  0.00     0.046 A 
HETATM   10  C10 UNL     1      -0.932   1.373   0.169  1.00  0.00     0.198 C 
HETATM   11  O1  UNL     1      -1.174   2.572   0.265  1.00  0.00    -0.286 OA
HETATM   12  C11 UNL     1       1.492   1.849   0.013  1.00  0.00     0.031 A 
HETATM   13  C12 UNL     1       2.842   1.491  -0.027  1.00  0.00     0.136 A 
HETATM   14  C13 UNL     1       3.158   0.124   0.058  1.00  0.00     0.093 A 
HETATM   15  C14 UNL     1       2.162  -0.864   0.221  1.00  0.00     0.139 A 
HETATM   16  O2  UNL     1       2.536  -2.171   0.310  1.00  0.00    -0.190 OA
HETATM   17  O4  UNL     1       3.777   2.462  -0.214  1.00  0.00    -0.190 OA
HETATM   18  O5  UNL     1      -0.085  -2.615   0.749  1.00  0.00    -0.286 OA
HETATM   19  O6  UNL     1      -3.739   2.047  -0.387  1.00  0.00    -0.190 OA
ENDROOT
BRANCH  14  20
HETATM   20  C15 UNL     1       4.593  -0.279   0.006  1.00  0.00     0.238 C 
HETATM   21  O3  UNL     1       5.013  -1.415  -0.157  1.00  0.00    -0.283 OA
ENDBRANCH  14  20
TORSDOF 1
