REMARK  1 active torsions:
REMARK  status: ('A' for Active; 'I' for Inactive)
REMARK    1  A    between atoms: C2_2  and  O2_18 
ROOT
HETATM    1  C1  UNL     1      -3.147  -1.365   0.404  1.00  0.00     0.153 A 
HETATM    2  C2  UNL     1      -3.123  -0.017   0.803  1.00  0.00     0.119 A 
HETATM    3  C3  UNL     1      -1.889   0.647   0.746  1.00  0.00     0.022 A 
HETATM    4  C4  UNL     1      -0.708   0.015   0.347  1.00  0.00    -0.018 A 
HETATM    5  C5  UNL     1      -0.747  -1.323  -0.045  1.00  0.00     0.009 A 
HETATM    6  C6  UNL     1      -1.968  -1.997  -0.003  1.00  0.00     0.027 A 
HETATM    7  C7  UNL     1       0.525  -1.975  -0.522  1.00  0.00     0.277 C 
HETATM    8  N1  UNL     1       1.630  -1.619   0.349  1.00  0.00     0.144 N 
HETATM    9  C8  UNL     1       1.795  -0.191   0.566  1.00  0.00     0.244 C 
HETATM   10  C9  UNL     1       0.610   0.745   0.278  1.00  0.00     0.088 C 
HETATM   11  C10 UNL     1       0.772   1.458  -1.065  1.00  0.00     0.163 C 
HETATM   12  C11 UNL     1       2.098   2.219  -1.139  1.00  0.00     0.059 C 
HETATM   13  C12 UNL     1       3.234   1.257  -0.909  1.00  0.00    -0.030 C 
HETATM   14  C13 UNL     1       3.057   0.170  -0.150  1.00  0.00    -0.015 C 
HETATM   15  C14 UNL     1       3.975  -1.001   0.036  1.00  0.00     0.059 C 
HETATM   16  C15 UNL     1       2.919  -2.111  -0.154  1.00  0.00     0.255 C 
HETATM   17  O1  UNL     1      -0.302   2.351  -1.238  1.00  0.00    -0.223 OA
HETATM   18  O3  UNL     1      -4.312  -2.068   0.412  1.00  0.00    -0.188 OA
ENDROOT
BRANCH   2  19
HETATM   19  O2  UNL     1      -4.312   0.580   1.145  1.00  0.00    -0.326 OA
HETATM   20  C16 UNL     1      -4.372   1.988   1.157  1.00  0.00     0.181 C 
ENDBRANCH   2  19
TORSDOF 1
