REMARK  0 active torsions:
REMARK  status: ('A' for Active; 'I' for Inactive)
ROOT
HETATM    1  C1  UNL     1      -0.175   3.553  -1.213  1.00  0.00     0.156 A 
HETATM    2  C2  UNL     1      -0.238   3.811   0.156  1.00  0.00     0.032 A 
HETATM    3  C3  UNL     1      -0.206   2.765   1.075  1.00  0.00     0.027 A 
HETATM    4  C4  UNL     1      -0.113   1.431   0.667  1.00  0.00     0.105 A 
HETATM    5  C5  UNL     1      -0.052   1.180  -0.716  1.00  0.00     0.089 A 
HETATM    6  C6  UNL     1      -0.081   2.228  -1.661  1.00  0.00     0.161 A 
HETATM    7  O1  UNL     1      -0.028   2.049  -3.009  1.00  0.00    -0.188 OA
HETATM    8  C7  UNL     1       0.048  -0.238  -1.151  1.00  0.00     0.203 A 
HETATM    9  C8  UNL     1       0.082  -1.267  -0.080  1.00  0.00     0.087 A 
HETATM   10  C9  UNL     1       0.012  -0.840   1.255  1.00  0.00     0.107 A 
HETATM   11  O2  UNL     1      -0.090   0.466   1.631  1.00  0.00    -0.307 OA
HETATM   12  C10 UNL     1       0.047  -1.824   2.250  1.00  0.00     0.052 A 
HETATM   13  C11 UNL     1       0.148  -3.188   1.969  1.00  0.00     0.135 A 
HETATM   14  C12 UNL     1       0.212  -3.563   0.627  1.00  0.00     0.055 A 
HETATM   15  C13 UNL     1       0.183  -2.631  -0.414  1.00  0.00     0.138 A 
HETATM   16  O3  UNL     1       0.250  -3.079  -1.697  1.00  0.00    -0.190 OA
HETATM   17  O4  UNL     1       0.178  -4.108   2.968  1.00  0.00    -0.190 OA
HETATM   18  O5  UNL     1       0.102  -0.546  -2.338  1.00  0.00    -0.286 OA
HETATM   19  O6  UNL     1      -0.209   4.566  -2.119  1.00  0.00    -0.188 OA
ENDROOT
TORSDOF 0
