REMARK  3 active torsions:
REMARK  status: ('A' for Active; 'I' for Inactive)
REMARK    1  A    between atoms: C1_1  and  O2_12 
REMARK    2  A    between atoms: C4_4  and  C8_9 
REMARK    3  A    between atoms: C5_5  and  O1_7 
ROOT
HETATM    1  C1  UNL     1       1.789   1.351  -0.225  1.00  0.00     0.096 A 
HETATM    2  C2  UNL     1       2.296   0.083   0.072  1.00  0.00     0.024 A 
HETATM    3  C3  UNL     1       1.460  -1.001   0.331  1.00  0.00     0.004 A 
HETATM    4  C4  UNL     1       0.074  -0.835   0.289  1.00  0.00     0.022 A 
HETATM    5  C5  UNL     1      -0.500   0.415   0.002  1.00  0.00     0.096 A 
HETATM    6  C6  UNL     1       0.390   1.475  -0.232  1.00  0.00     0.048 A 
ENDROOT
BRANCH   4   7
HETATM    7  C8  UNL     1      -0.816  -1.984   0.592  1.00  0.00    -0.003 C 
HETATM    8  C9  UNL     1      -0.623  -3.200   0.062  1.00  0.00    -0.026 C 
HETATM    9  C10 UNL     1      -1.544  -4.363   0.310  1.00  0.00     0.031 C 
ENDBRANCH   4   7
BRANCH   5  10
HETATM   10  O1  UNL     1      -1.868   0.533   0.021  1.00  0.00    -0.328 OA
HETATM   11  C7  UNL     1      -2.433   1.817   0.135  1.00  0.00     0.181 C 
ENDBRANCH   5  10
BRANCH   1  12
HETATM   12  O2  UNL     1       2.682   2.362  -0.482  1.00  0.00    -0.328 OA
HETATM   13  C11 UNL     1       2.183   3.634  -0.828  1.00  0.00     0.181 C 
ENDBRANCH   1  12
TORSDOF 3
