REMARK  1 active torsions:
REMARK  status: ('A' for Active; 'I' for Inactive)
REMARK    1  A    between atoms: C12_12  and  O2_16 
ROOT
HETATM    1  C1  UNL     1      -0.217   3.838  -0.035  1.00  0.00     0.119 A 
HETATM    2  C2  UNL     1      -1.410   3.180  -0.297  1.00  0.00     0.119 A 
HETATM    3  C3  UNL     1      -1.477   1.791  -0.322  1.00  0.00     0.022 A 
HETATM    4  C4  UNL     1      -0.322   1.042  -0.037  1.00  0.00    -0.021 A 
HETATM    5  C5  UNL     1       0.903   1.724   0.170  1.00  0.00    -0.022 A 
HETATM    6  C6  UNL     1       0.956   3.126   0.184  1.00  0.00     0.022 A 
HETATM    7  C7  UNL     1       2.213   0.975   0.330  1.00  0.00     0.059 C 
HETATM    8  C8  UNL     1       2.045  -0.459  -0.211  1.00  0.00     0.225 C 
HETATM    9  C9  UNL     1       0.874  -1.041   0.601  1.00  0.00     0.047 C 
HETATM   10  C10 UNL     1      -0.410  -0.491  -0.017  1.00  0.00     0.043 C 
HETATM   11  C11 UNL     1      -1.551  -0.977   0.853  1.00  0.00     0.004 C 
HETATM   12  C12 UNL     1      -1.609  -2.154   1.514  1.00  0.00     0.125 C 
HETATM   13  C13 UNL     1      -0.426  -3.062   1.422  1.00  0.00     0.195 C 
HETATM   14  C14 UNL     1       0.851  -2.563   0.767  1.00  0.00     0.074 C 
HETATM   15  O1  UNL     1      -0.424  -4.203   1.866  1.00  0.00    -0.289 OA
HETATM   16  C16 UNL     1      -0.550  -1.055  -1.447  1.00  0.00     0.043 C 
HETATM   17  C17 UNL     1       0.802  -1.237  -2.167  1.00  0.00     0.251 C 
HETATM   18  N1  UNL     1       1.803  -0.325  -1.652  1.00  0.00     0.138 N 
HETATM   19  C18 UNL     1       3.042  -0.411  -2.414  1.00  0.00     0.285 C 
HETATM   20  O3  UNL     1      -2.405   4.114  -0.514  1.00  0.00    -0.300 OA
HETATM   21  C19 UNL     1      -1.818   5.413  -0.367  1.00  0.00     0.304 A 
HETATM   22  O4  UNL     1      -0.430   5.202  -0.080  1.00  0.00    -0.300 OA
ENDROOT
BRANCH  12  23
HETATM   23  O2  UNL     1      -2.744  -2.433   2.238  1.00  0.00    -0.326 OA
HETATM   24  C15 UNL     1      -2.836  -3.628   2.976  1.00  0.00     0.181 C 
ENDBRANCH  12  23
TORSDOF 1
