REMARK  2 active torsions:
REMARK  status: ('A' for Active; 'I' for Inactive)
REMARK    1  A    between atoms: C4_4  and  C26_32 
REMARK    2  A    between atoms: C17_22  and  C22_27 
ROOT
HETATM    1  C1  UNL     1       1.958  -4.498   1.882  1.00  0.00     0.020 C 
HETATM    2  C2  UNL     1       2.134  -4.186   3.374  1.00  0.00     0.004 C 
HETATM    3  C3  UNL     1       1.029  -3.252   3.882  1.00  0.00     0.027 C 
HETATM    4  C4  UNL     1       0.803  -2.005   3.004  1.00  0.00     0.103 C 
HETATM    5  N1  UNL     1       0.708  -2.365   1.587  1.00  0.00    -0.344 N 
HETATM    6  C5  UNL     1       1.774  -3.203   1.066  1.00  0.00     0.079 C 
HETATM    7  C6  UNL     1       3.078  -2.438   0.803  1.00  0.00     0.023 C 
HETATM    8  C7  UNL     1       2.843  -0.997   0.328  1.00  0.00     0.016 C 
HETATM    9  C8  UNL     1       1.458  -0.756  -0.302  1.00  0.00     0.087 C 
HETATM   10  C9  UNL     1       0.344  -1.321   0.625  1.00  0.00     0.242 C 
HETATM   11  O1  UNL     1      -0.427  -0.285   1.199  1.00  0.00    -0.198 OA
HETATM   12  S1  UNL     1       1.390  -1.621  -1.928  1.00  0.00    -0.137 SA
HETATM   13  C10 UNL     1       1.248  -0.133  -2.955  1.00  0.00     0.062 C 
HETATM   14  C11 UNL     1       0.677   0.985  -2.059  1.00  0.00     0.070 C 
HETATM   15  C12 UNL     1       1.331   0.749  -0.679  1.00  0.00     0.020 C 
HETATM   16  C13 UNL     1       1.108   2.337  -2.677  1.00  0.00     0.007 C 
HETATM   17  C14 UNL     1       0.483   3.523  -1.940  1.00  0.00     0.034 C 
HETATM   18  C15 UNL     1      -1.047   3.399  -1.846  1.00  0.00     0.223 C 
HETATM   19  N2  UNL     1      -1.380   2.119  -1.213  1.00  0.00     0.165 N 
HETATM   20  C16 UNL     1      -0.865   0.997  -2.003  1.00  0.00     0.368 C 
HETATM   21  O2  UNL     1      -1.338  -0.238  -1.517  1.00  0.00    -0.187 OA
HETATM   22  C17 UNL     1      -2.817   2.090  -0.940  1.00  0.00     0.246 C 
HETATM   23  C18 UNL     1      -3.659   2.138  -2.220  1.00  0.00     0.038 C 
HETATM   24  C19 UNL     1      -3.329   3.432  -2.980  1.00  0.00     0.004 C 
HETATM   25  C20 UNL     1      -1.812   3.628  -3.178  1.00  0.00     0.032 C 
HETATM   26  C21 UNL     1      -1.555   5.018  -3.788  1.00  0.00     0.002 C 
HETATM   27  C30 UNL     1       0.786  -5.472   1.649  1.00  0.00     0.002 C 
ENDROOT
BRANCH   4  28
HETATM   28  C26 UNL     1       1.728  -0.859   3.340  1.00  0.00     0.024 A 
HETATM   29  C27 UNL     1       1.361   0.526   3.441  1.00  0.00     0.026 A 
HETATM   30  C28 UNL     1       2.462   1.199   3.870  1.00  0.00     0.122 A 
HETATM   31  O4  UNL     1       3.498   0.341   4.072  1.00  0.00    -0.303 OA
HETATM   32  C29 UNL     1       3.020  -0.901   3.780  1.00  0.00     0.120 A 
ENDBRANCH   4  28
BRANCH  22  33
HETATM   33  C22 UNL     1      -3.182   1.022   0.054  1.00  0.00     0.035 A 
HETATM   34  C23 UNL     1      -2.968   1.075   1.401  1.00  0.00     0.120 A 
HETATM   35  O3  UNL     1      -3.436  -0.046   2.019  1.00  0.00    -0.303 OA
HETATM   36  C24 UNL     1      -3.968  -0.825   1.035  1.00  0.00     0.122 A 
HETATM   37  C25 UNL     1      -3.856  -0.220  -0.180  1.00  0.00     0.026 A 
ENDBRANCH  22  33
TORSDOF 2
