REMARK  4 active torsions:
REMARK  status: ('A' for Active; 'I' for Inactive)
REMARK    1  A    between atoms: C3_3  and  C5_6 
REMARK    2  A    between atoms: C14_18  and  C21_27 
REMARK    3  A    between atoms: C15_19  and  C18_23 
REMARK    4  A    between atoms: C22_28  and  C23_29 
ROOT
HETATM    1  C5  UNL     1       3.223   2.153  -1.072  1.00  0.00     0.151 C 
HETATM    2  C6  UNL     1       1.894   1.394  -0.850  1.00  0.00     0.056 C 
HETATM    3  C7  UNL     1       2.179  -0.043  -0.403  1.00  0.00     0.136 A 
HETATM    4  C8  UNL     1       3.389  -0.674  -0.855  1.00  0.00     0.226 A 
HETATM    5  C9  UNL     1       4.145   0.058  -1.882  1.00  0.00     0.302 C 
HETATM    6  O2  UNL     1       4.098   1.420  -1.890  1.00  0.00    -0.298 OA
HETATM    7  O3  UNL     1       4.825  -0.556  -2.678  1.00  0.00    -0.261 OA
HETATM    8  O4  UNL     1       3.558  -0.114   0.421  1.00  0.00    -0.346 OA
HETATM    9  C10 UNL     1       1.049  -0.910   0.225  1.00  0.00     0.077 C 
HETATM   10  C11 UNL     1      -0.173  -0.023   0.581  1.00  0.00     0.013 C 
HETATM   11  C12 UNL     1       0.345   1.253   1.263  1.00  0.00     0.001 C 
HETATM   12  C13 UNL     1       1.080   2.146   0.242  1.00  0.00     0.005 C 
HETATM   13  C14 UNL     1      -1.470  -0.692   1.155  1.00  0.00     0.022 C 
HETATM   14  C15 UNL     1      -1.864  -1.942   0.280  1.00  0.00     0.039 C 
HETATM   15  C16 UNL     1      -0.986  -2.037  -0.999  1.00  0.00     0.067 C 
HETATM   16  C17 UNL     1       0.516  -1.942  -0.774  1.00  0.00     0.152 C 
HETATM   17  O5  UNL     1       1.271  -2.661  -1.388  1.00  0.00    -0.296 OA
HETATM   18  C24 UNL     1      -1.344  -0.899   2.678  1.00  0.00     0.004 C 
HETATM   19  C25 UNL     1       1.577  -1.718   1.429  1.00  0.00     0.010 C 
HETATM   20  C26 UNL     1       1.144   1.378  -2.208  1.00  0.00     0.005 C 
ENDROOT
BRANCH  13  21
HETATM   21  C21 UNL     1      -2.583   0.365   0.981  1.00  0.00    -0.020 C 
HETATM   22  C22 UNL     1      -3.855   0.261   1.419  1.00  0.00     0.066 C 
BRANCH  22  23
HETATM   23  C23 UNL     1      -4.878   1.307   1.183  1.00  0.00     0.211 C 
HETATM   24  O7  UNL     1      -6.159   1.145   1.572  1.00  0.00    -0.644 OA
HETATM   25  O8  UNL     1      -4.596   2.360   0.622  1.00  0.00    -0.644 OA
ENDBRANCH  22  23
ENDBRANCH  13  21
BRANCH  14  26
HETATM   26  C18 UNL     1      -2.206  -3.353   0.854  1.00  0.00     0.128 C 
HETATM   27  O6  UNL     1      -2.823  -4.072  -0.196  1.00  0.00    -0.226 OA
HETATM   28  C19 UNL     1      -1.008  -4.209   1.272  1.00  0.00     0.033 C 
HETATM   29  C20 UNL     1      -3.250  -3.395   1.976  1.00  0.00     0.033 C 
ENDBRANCH  14  26
BRANCH   1  30
HETATM   30  C3  UNL     1       3.062   3.543  -1.637  1.00  0.00     0.032 A 
HETATM   31  C2  UNL     1       2.899   4.764  -0.904  1.00  0.00     0.027 A 
HETATM   32  C1  UNL     1       2.819   5.758  -1.831  1.00  0.00     0.122 A 
HETATM   33  O1  UNL     1       2.925   5.254  -3.092  1.00  0.00    -0.303 OA
HETATM   34  C4  UNL     1       3.082   3.907  -2.952  1.00  0.00     0.121 A 
ENDBRANCH   1  30
TORSDOF 4
