REMARK  0 active torsions:
REMARK  status: ('A' for Active; 'I' for Inactive)
ROOT
HETATM    1  C1  UNL     1       0.577   2.002  -2.216  1.00  0.00     0.251 C 
HETATM    2  N1  UNL     1      -0.373   1.693  -1.147  1.00  0.00     0.139 N 
HETATM    3  C2  UNL     1      -0.002   0.519  -0.322  1.00  0.00     0.208 C 
HETATM    4  C3  UNL     1       1.039  -0.350  -1.070  1.00  0.00     0.034 C 
HETATM    5  C4  UNL     1       2.331   0.381  -1.476  1.00  0.00     0.004 C 
HETATM    6  C5  UNL     1       2.039   1.857  -1.777  1.00  0.00     0.035 C 
HETATM    7  C6  UNL     1       1.267  -1.671  -0.313  1.00  0.00     0.008 C 
HETATM    8  C7  UNL     1       0.035  -2.538  -0.613  1.00  0.00     0.045 C 
HETATM    9  C8  UNL     1      -1.206  -1.738  -0.305  1.00  0.00     0.056 C 
HETATM   10  C9  UNL     1      -1.238  -0.401  -0.142  1.00  0.00    -0.002 C 
HETATM   11  C10 UNL     1      -2.583   0.252   0.106  1.00  0.00     0.035 C 
HETATM   12  C11 UNL     1      -3.631  -0.695   0.703  1.00  0.00     0.094 C 
HETATM   13  C12 UNL     1      -3.563  -2.092   0.130  1.00  0.00     0.256 C 
HETATM   14  N2  UNL     1      -2.318  -2.490  -0.228  1.00  0.00    -0.217 NA
HETATM   15  O1  UNL     1      -4.500  -2.849   0.071  1.00  0.00    -0.270 OA
HETATM   16  C13 UNL     1       1.404  -1.516   1.217  1.00  0.00     0.001 C 
HETATM   17  C14 UNL     1       1.639  -0.071   1.657  1.00  0.00     0.002 C 
HETATM   18  C15 UNL     1       0.569   0.876   1.079  1.00  0.00     0.035 C 
HETATM   19  C16 UNL     1       1.726   0.048   3.188  1.00  0.00     0.000 C 
HETATM   20  C17 UNL     1      -0.688   2.918  -0.418  1.00  0.00     0.286 C 
ENDROOT
TORSDOF 0
