REMARK  8 active torsions:
REMARK  status: ('A' for Active; 'I' for Inactive)
REMARK    1  A    between atoms: C1_2  and  C24_34 
REMARK    2  A    between atoms: C5_6  and  O2_7 
REMARK    3  A    between atoms: O2_7  and  C6_8 
REMARK    4  A    between atoms: C11_14  and  C23_29 
REMARK    5  A    between atoms: C13_16  and  O4_17 
REMARK    6  A    between atoms: O4_17  and  C14_18 
REMARK    7  A    between atoms: C14_18  and  C15_19 
REMARK    8  A    between atoms: C16_20  and  C17_21 
ROOT
HETATM    1  C6  UNL     1      -2.207   1.443   0.817  1.00  0.00     0.246 C 
HETATM    2  O3  UNL     1      -3.521   1.136   1.244  1.00  0.00    -0.304 OA
HETATM    3  C7  UNL     1      -3.783  -0.153   1.601  1.00  0.00     0.115 C 
HETATM    4  C8  UNL     1      -2.837  -1.079   1.804  1.00  0.00     0.003 C 
HETATM    5  C9  UNL     1      -1.377  -0.757   1.720  1.00  0.00     0.065 C 
HETATM    6  C10 UNL     1      -1.128   0.765   1.648  1.00  0.00     0.084 C 
HETATM    7  C11 UNL     1       0.225   0.766   0.973  1.00  0.00    -0.009 C 
HETATM    8  C12 UNL     1       0.459  -0.386   0.331  1.00  0.00    -0.002 C 
HETATM    9  C13 UNL     1      -0.665  -1.372   0.508  1.00  0.00     0.150 C 
ENDROOT
BRANCH   1  10
HETATM   10  O2  UNL     1      -2.193   2.847   0.998  1.00  0.00    -0.304 OA
BRANCH  10  11
HETATM   11  C5  UNL     1      -1.656   3.591  -0.075  1.00  0.00     0.272 C 
HETATM   12  O1  UNL     1      -0.738   4.455   0.562  1.00  0.00    -0.326 OA
HETATM   13  C1  UNL     1      -0.060   5.285  -0.343  1.00  0.00     0.184 C 
HETATM   14  C2  UNL     1      -1.067   6.168  -1.070  1.00  0.00     0.215 C 
HETATM   15  C3  UNL     1      -2.105   5.310  -1.767  1.00  0.00     0.220 C 
HETATM   16  O10 UNL     1      -0.430   6.957  -2.045  1.00  0.00    -0.218 OA
HETATM   17  C4  UNL     1      -2.745   4.396  -0.744  1.00  0.00     0.241 C 
HETATM   18  O9  UNL     1      -3.081   6.136  -2.347  1.00  0.00    -0.218 OA
HETATM   19  O8  UNL     1      -3.644   3.529  -1.386  1.00  0.00    -0.215 OA
BRANCH  13  20
HETATM   20  C24 UNL     1       0.966   6.095   0.437  1.00  0.00     0.214 C 
HETATM   21  O11 UNL     1       1.925   5.231   1.016  1.00  0.00    -0.218 OA
ENDBRANCH  13  20
ENDBRANCH  10  11
ENDBRANCH   1  10
BRANCH   7  22
HETATM   22  C23 UNL     1       1.149   1.945   0.982  1.00  0.00     0.204 C 
HETATM   23  O7  UNL     1       2.514   1.557   1.047  1.00  0.00    -0.216 OA
ENDBRANCH   7  22
BRANCH   9  24
HETATM   24  O4  UNL     1      -0.210  -2.665   0.816  1.00  0.00    -0.296 OA
BRANCH  24  25
HETATM   25  C14 UNL     1       0.177  -3.473  -0.214  1.00  0.00     0.296 C 
HETATM   26  O6  UNL     1      -0.100  -3.187  -1.376  1.00  0.00    -0.259 OA
BRANCH  25  27
HETATM   27  C15 UNL     1       1.090  -4.614   0.039  1.00  0.00     0.068 C 
HETATM   28  C16 UNL     1       1.394  -5.538  -0.903  1.00  0.00     0.005 C 
BRANCH  28  29
HETATM   29  C17 UNL     1       2.295  -6.681  -0.678  1.00  0.00     0.000 A 
HETATM   30  C18 UNL     1       2.194  -7.810  -1.506  1.00  0.00     0.002 A 
HETATM   31  C19 UNL     1       3.053  -8.896  -1.341  1.00  0.00     0.027 A 
HETATM   32  C20 UNL     1       4.057  -8.891  -0.367  1.00  0.00     0.131 A 
HETATM   33  C21 UNL     1       4.182  -7.747   0.427  1.00  0.00     0.027 A 
HETATM   34  O5  UNL     1       4.907  -9.941  -0.214  1.00  0.00    -0.190 OA
HETATM   35  C22 UNL     1       3.321  -6.658   0.278  1.00  0.00     0.002 A 
ENDBRANCH  28  29
ENDBRANCH  25  27
ENDBRANCH  24  25
ENDBRANCH   9  24
TORSDOF 8
