REMARK  10 active torsions:
REMARK  status: ('A' for Active; 'I' for Inactive)
REMARK    1  A    between atoms: C4_4  and  C45_61 
REMARK    2  A    between atoms: C21_21  and  O1_24 
REMARK    3  A    between atoms: O1_24  and  C24_25 
REMARK    4  A    between atoms: C25_27  and  C41_56 
REMARK    5  A    between atoms: C28_30  and  O3_31 
REMARK    6  A    between atoms: O3_31  and  C29_32 
REMARK    7  A    between atoms: C30_34  and  C40_52 
REMARK    8  A    between atoms: C31_35  and  O7_40 
REMARK    9  A    between atoms: O7_40  and  C34_41 
REMARK   10  A    between atoms: C35_43  and  C39_50 
ROOT
HETATM    1  C24 UNL     1      -4.126  -0.173   1.438  1.00  0.00     0.267 C 
HETATM    2  O2  UNL     1      -5.374   0.020   2.068  1.00  0.00    -0.326 OA
HETATM    3  C25 UNL     1      -5.390   0.863   3.186  1.00  0.00     0.184 C 
HETATM    4  C26 UNL     1      -4.365   0.450   4.231  1.00  0.00     0.215 C 
HETATM    5  C27 UNL     1      -2.974   0.272   3.659  1.00  0.00     0.217 C 
HETATM    6  C28 UNL     1      -2.988  -0.555   2.379  1.00  0.00     0.207 C 
HETATM    7  O14 UNL     1      -2.400   1.535   3.419  1.00  0.00    -0.218 OA
HETATM    8  O15 UNL     1      -4.766  -0.764   4.826  1.00  0.00    -0.218 OA
ENDROOT
BRANCH   1   9
HETATM    9  O1  UNL     1      -3.814   1.000   0.708  1.00  0.00    -0.332 OA
BRANCH   9  10
HETATM   10  C21 UNL     1      -3.772   0.869  -0.693  1.00  0.00     0.118 C 
HETATM   11  C20 UNL     1      -3.776   2.259  -1.350  1.00  0.00     0.030 C 
HETATM   12  C19 UNL     1      -2.412   2.897  -1.696  1.00  0.00     0.003 C 
HETATM   13  C18 UNL     1      -1.192   2.243  -1.003  1.00  0.00     0.001 C 
HETATM   14  C13 UNL     1       0.155   2.823  -1.554  1.00  0.00     0.005 C 
HETATM   15  C17 UNL     1      -1.262   0.755  -1.433  1.00  0.00     0.002 C 
HETATM   16  C42 UNL     1      -1.336   2.487   0.515  1.00  0.00     0.000 C 
HETATM   17  C12 UNL     1       0.304   4.351  -1.405  1.00  0.00     0.025 C 
HETATM   18  C14 UNL     1       1.462   2.065  -1.165  1.00  0.00     0.004 C 
HETATM   19  C11 UNL     1       1.721   4.860  -1.345  1.00  0.00    -0.035 C 
HETATM   20  C10 UNL     1       2.826   4.120  -1.542  1.00  0.00    -0.049 C 
HETATM   21  C3  UNL     1       4.184   4.803  -1.491  1.00  0.00     0.028 C 
HETATM   22  C9  UNL     1       2.679   2.667  -1.978  1.00  0.00     0.015 C 
HETATM   23  C2  UNL     1       4.491   5.529  -2.815  1.00  0.00     0.004 C 
HETATM   24  C4  UNL     1       5.309   3.856  -1.026  1.00  0.00     0.082 C 
HETATM   25  C1  UNL     1       5.850   6.260  -2.835  1.00  0.00     0.000 C 
HETATM   26  C6  UNL     1       6.957   5.272  -2.416  1.00  0.00     0.001 C 
HETATM   27  C46 UNL     1       6.139   6.752  -4.272  1.00  0.00     0.000 C 
HETATM   28  C47 UNL     1       5.830   7.500  -1.916  1.00  0.00     0.000 C 
HETATM   29  C5  UNL     1       6.672   4.578  -1.078  1.00  0.00     0.011 C 
HETATM   30  C7  UNL     1       5.285   2.603  -1.921  1.00  0.00     0.011 C 
HETATM   31  C8  UNL     1       3.969   1.829  -1.768  1.00  0.00     0.004 C 
HETATM   32  C44 UNL     1       2.450   2.717  -3.514  1.00  0.00     0.004 C 
HETATM   33  C15 UNL     1       1.276   0.558  -1.477  1.00  0.00     0.000 C 
HETATM   34  C43 UNL     1       1.738   2.197   0.358  1.00  0.00     0.000 C 
HETATM   35  C16 UNL     1      -0.037  -0.044  -0.956  1.00  0.00     0.000 C 
HETATM   36  C22 UNL     1      -2.583   0.005  -1.145  1.00  0.00     0.027 C 
HETATM   37  C23 UNL     1      -2.994  -0.875  -2.343  1.00  0.00     0.003 C 
BRANCH  24  38
HETATM   38  C45 UNL     1       5.089   3.486   0.445  1.00  0.00     0.184 C 
HETATM   39  O17 UNL     1       5.855   2.452   0.842  1.00  0.00    -0.647 OA
HETATM   40  O18 UNL     1       4.366   4.045   1.236  1.00  0.00    -0.647 OA
ENDBRANCH  24  38
ENDBRANCH   9  10
ENDBRANCH   1   9
BRANCH   6  41
HETATM   41  O3  UNL     1      -2.998  -1.914   2.741  1.00  0.00    -0.324 OA
BRANCH  41  42
HETATM   42  C29 UNL     1      -2.563  -2.814   1.743  1.00  0.00     0.270 C 
HETATM   43  O4  UNL     1      -3.248  -4.027   1.975  1.00  0.00    -0.326 OA
HETATM   44  C30 UNL     1      -2.703  -4.854   2.967  1.00  0.00     0.181 C 
HETATM   45  C31 UNL     1      -1.255  -5.210   2.624  1.00  0.00     0.181 C 
HETATM   46  C32 UNL     1      -0.404  -3.952   2.537  1.00  0.00     0.217 C 
HETATM   47  C33 UNL     1      -1.056  -2.943   1.615  1.00  0.00     0.241 C 
HETATM   48  O6  UNL     1      -0.215  -3.385   3.812  1.00  0.00    -0.218 OA
HETATM   49  O5  UNL     1      -0.736  -3.291   0.284  1.00  0.00    -0.215 OA
BRANCH  44  50
HETATM   50  C40 UNL     1      -2.990  -4.357   4.377  1.00  0.00     0.214 C 
HETATM   51  O13 UNL     1      -2.571  -5.332   5.311  1.00  0.00    -0.218 OA
ENDBRANCH  44  50
BRANCH  45  52
HETATM   52  O7  UNL     1      -1.333  -5.856   1.381  1.00  0.00    -0.326 OA
BRANCH  52  53
HETATM   53  C34 UNL     1      -0.195  -6.554   0.941  1.00  0.00     0.270 C 
HETATM   54  O8  UNL     1      -0.036  -6.175  -0.412  1.00  0.00    -0.326 OA
HETATM   55  C35 UNL     1      -0.954  -6.720  -1.327  1.00  0.00     0.184 C 
HETATM   56  C36 UNL     1      -1.062  -8.236  -1.207  1.00  0.00     0.215 C 
HETATM   57  C37 UNL     1      -1.313  -8.705   0.213  1.00  0.00     0.220 C 
HETATM   58  O11 UNL     1       0.149  -8.805  -1.649  1.00  0.00    -0.218 OA
HETATM   59  C38 UNL     1      -0.313  -8.047   1.141  1.00  0.00     0.241 C 
HETATM   60  O10 UNL     1      -2.627  -8.387   0.600  1.00  0.00    -0.218 OA
HETATM   61  O9  UNL     1       0.953  -8.634   0.925  1.00  0.00    -0.215 OA
BRANCH  55  62
HETATM   62  C39 UNL     1      -2.297  -5.995  -1.360  1.00  0.00     0.214 C 
HETATM   63  O12 UNL     1      -2.109  -4.627  -1.669  1.00  0.00    -0.218 OA
ENDBRANCH  55  62
ENDBRANCH  52  53
ENDBRANCH  45  52
ENDBRANCH  41  42
ENDBRANCH   6  41
BRANCH   3  64
HETATM   64  C41 UNL     1      -5.371   2.337   2.796  1.00  0.00     0.214 C 
HETATM   65  O16 UNL     1      -5.729   3.134   3.908  1.00  0.00    -0.218 OA
ENDBRANCH   3  64
TORSDOF 10
