REMARK  3 active torsions:
REMARK  status: ('A' for Active; 'I' for Inactive)
REMARK    1  A    between atoms: C11_12  and  O4_19 
REMARK    2  A    between atoms: C12_13  and  O3_17 
REMARK    3  A    between atoms: C13_14  and  O2_15 
ROOT
HETATM    1  C1  UNL     1      -0.300   3.410  -1.976  1.00  0.00     0.033 A 
HETATM    2  C2  UNL     1      -0.397   4.737  -1.547  1.00  0.00     0.131 A 
HETATM    3  C3  UNL     1      -0.445   4.964  -0.170  1.00  0.00     0.029 A 
HETATM    4  C4  UNL     1      -0.394   3.903   0.735  1.00  0.00     0.027 A 
HETATM    5  C5  UNL     1      -0.293   2.573   0.311  1.00  0.00     0.103 A 
HETATM    6  C6  UNL     1      -0.250   2.341  -1.066  1.00  0.00     0.064 A 
HETATM    7  C7  UNL     1      -0.148   0.943  -1.556  1.00  0.00     0.201 A 
HETATM    8  C8  UNL     1      -0.107  -0.159  -0.544  1.00  0.00     0.086 A 
HETATM    9  C9  UNL     1      -0.154   0.278   0.797  1.00  0.00     0.107 A 
HETATM   10  O1  UNL     1      -0.240   1.574   1.224  1.00  0.00    -0.307 OA
HETATM   11  C10 UNL     1      -0.104  -0.677   1.810  1.00  0.00     0.051 A 
HETATM   12  C11 UNL     1      -0.036  -2.053   1.593  1.00  0.00     0.120 A 
HETATM   13  C12 UNL     1      -0.008  -2.475   0.252  1.00  0.00     0.139 A 
HETATM   14  C13 UNL     1      -0.028  -1.552  -0.830  1.00  0.00     0.123 A 
HETATM   15  O5  UNL     1      -0.106   0.815  -2.773  1.00  0.00    -0.286 OA
HETATM   16  O6  UNL     1      -0.442   5.771  -2.428  1.00  0.00    -0.190 OA
ENDROOT
BRANCH  12  17
HETATM   17  O4  UNL     1       0.005  -2.973   2.611  1.00  0.00    -0.326 OA
HETATM   18  C16 UNL     1       0.091  -2.529   3.944  1.00  0.00     0.181 C 
ENDBRANCH  12  17
BRANCH  13  19
HETATM   19  O3  UNL     1       0.050  -3.817  -0.073  1.00  0.00    -0.324 OA
HETATM   20  C15 UNL     1       0.970  -4.646   0.601  1.00  0.00     0.182 C 
ENDBRANCH  13  19
BRANCH  14  21
HETATM   21  O2  UNL     1       0.037  -2.226  -2.035  1.00  0.00    -0.326 OA
HETATM   22  C14 UNL     1       0.037  -1.661  -3.314  1.00  0.00     0.181 C 
ENDBRANCH  14  21
TORSDOF 3
