REMARK  2 active torsions:
REMARK  status: ('A' for Active; 'I' for Inactive)
REMARK    1  A    between atoms: C2_2  and  O7_21 
REMARK    2  A    between atoms: C12_13  and  O3_16 
ROOT
HETATM    1  C1  UNL     1      -0.123   2.160  -1.682  1.00  0.00     0.032 A 
HETATM    2  C2  UNL     1      -0.274   3.512  -1.337  1.00  0.00     0.120 A 
HETATM    3  C3  UNL     1      -0.354   3.805   0.039  1.00  0.00     0.155 A 
HETATM    4  C4  UNL     1      -0.299   2.756   0.965  1.00  0.00     0.054 A 
HETATM    5  C5  UNL     1      -0.162   1.407   0.625  1.00  0.00     0.105 A 
HETATM    6  C6  UNL     1      -0.062   1.126  -0.740  1.00  0.00     0.064 A 
HETATM    7  C7  UNL     1       0.098  -0.282  -1.177  1.00  0.00     0.202 A 
HETATM    8  C8  UNL     1       0.040  -1.312  -0.103  1.00  0.00     0.089 A 
HETATM    9  C9  UNL     1      -0.079  -0.855   1.222  1.00  0.00     0.107 A 
HETATM   10  O1  UNL     1      -0.108   0.458   1.598  1.00  0.00    -0.307 OA
HETATM   11  C10 UNL     1      -0.197  -1.827   2.217  1.00  0.00     0.054 A 
HETATM   12  C11 UNL     1      -0.159  -3.195   1.948  1.00  0.00     0.157 A 
HETATM   13  C12 UNL     1       0.063  -3.631   0.636  1.00  0.00     0.145 A 
HETATM   14  C13 UNL     1       0.088  -2.688  -0.408  1.00  0.00     0.160 A 
HETATM   15  O2  UNL     1       0.180  -3.168  -1.680  1.00  0.00    -0.188 OA
HETATM   16  O4  UNL     1      -0.311  -4.112   2.940  1.00  0.00    -0.188 OA
HETATM   17  O5  UNL     1       0.259  -0.551  -2.363  1.00  0.00    -0.286 OA
HETATM   18  O6  UNL     1      -0.488   5.066   0.529  1.00  0.00    -0.188 OA
ENDROOT
BRANCH   2  19
HETATM   19  O7  UNL     1      -0.312   4.411  -2.376  1.00  0.00    -0.326 OA
HETATM   20  C15 UNL     1      -0.404   5.792  -2.123  1.00  0.00     0.181 C 
ENDBRANCH   2  19
BRANCH  13  21
HETATM   21  O3  UNL     1       0.029  -4.978   0.379  1.00  0.00    -0.324 OA
HETATM   22  C14 UNL     1       1.304  -5.576   0.313  1.00  0.00     0.182 C 
ENDBRANCH  13  21
TORSDOF 2
