REMARK  4 active torsions:
REMARK  status: ('A' for Active; 'I' for Inactive)
REMARK    1  A    between atoms: C4_4  and  O9_39 
REMARK    2  A    between atoms: C7_7  and  C8_8 
REMARK    3  A    between atoms: C9_9  and  O1_10 
REMARK    4  A    between atoms: C14_15  and  O2_16 
ROOT
HETATM    1  C8  UNL     1       0.096   0.686  -0.316  1.00  0.00     0.047 C 
HETATM    2  C9  UNL     1      -0.673   0.824  -1.511  1.00  0.00     0.096 C 
HETATM    3  C11 UNL     1      -1.917   0.234  -1.490  1.00  0.00     0.025 C 
HETATM    4  C12 UNL     1      -2.325  -0.607  -0.414  1.00  0.00     0.008 A 
HETATM    5  C13 UNL     1      -1.508  -0.783   0.716  1.00  0.00     0.048 A 
HETATM    6  C14 UNL     1      -0.334   0.043   0.832  1.00  0.00     0.098 C 
HETATM    7  C16 UNL     1      -1.902  -1.756   1.700  1.00  0.00     0.138 A 
HETATM    8  C17 UNL     1      -3.093  -2.448   1.525  1.00  0.00     0.087 A 
HETATM    9  C18 UNL     1      -3.966  -2.228   0.414  1.00  0.00     0.105 A 
HETATM   10  C19 UNL     1      -3.558  -1.313  -0.526  1.00  0.00     0.025 A 
HETATM   11  O3  UNL     1      -5.157  -2.874   0.239  1.00  0.00    -0.311 OA
HETATM   12  C20 UNL     1      -5.371  -4.003   0.971  1.00  0.00     0.081 C 
HETATM   13  C21 UNL     1      -4.647  -4.340   2.055  1.00  0.00     0.062 C 
HETATM   14  C22 UNL     1      -3.503  -3.504   2.490  1.00  0.00     0.201 C 
HETATM   15  O4  UNL     1      -2.942  -3.756   3.553  1.00  0.00    -0.286 OA
HETATM   16  C23 UNL     1      -6.524  -4.867   0.515  1.00  0.00     0.058 C 
HETATM   17  O5  UNL     1      -1.080  -2.078   2.734  1.00  0.00    -0.190 OA
ENDROOT
BRANCH   1  18
HETATM   18  C7  UNL     1       1.483   1.272  -0.337  1.00  0.00     0.027 A 
HETATM   19  C6  UNL     1       2.620   0.404  -0.387  1.00  0.00     0.008 A 
HETATM   20  C1  UNL     1       3.919   0.945  -0.373  1.00  0.00     0.051 A 
HETATM   21  C5  UNL     1       2.432  -1.011  -0.445  1.00  0.00     0.025 A 
HETATM   22  C2  UNL     1       5.026   0.032  -0.306  1.00  0.00     0.135 A 
HETATM   23  C26 UNL     1       4.081   2.372  -0.412  1.00  0.00     0.138 A 
HETATM   24  C3  UNL     1       4.774  -1.322  -0.311  1.00  0.00     0.052 A 
HETATM   25  O10 UNL     1       6.319   0.432  -0.192  1.00  0.00    -0.190 OA
HETATM   26  C4  UNL     1       3.480  -1.904  -0.405  1.00  0.00     0.096 A 
HETATM   27  C25 UNL     1       2.947   3.172  -0.383  1.00  0.00     0.087 A 
HETATM   28  O6  UNL     1       5.310   2.938  -0.559  1.00  0.00    -0.190 OA
HETATM   29  C24 UNL     1       1.621   2.642  -0.305  1.00  0.00     0.105 A 
HETATM   30  C27 UNL     1       3.068   4.652  -0.476  1.00  0.00     0.201 C 
HETATM   31  O7  UNL     1       0.507   3.426  -0.197  1.00  0.00    -0.311 OA
HETATM   32  C29 UNL     1       0.615   4.722  -0.597  1.00  0.00     0.081 C 
HETATM   33  C28 UNL     1       1.791   5.365  -0.716  1.00  0.00     0.062 C 
HETATM   34  C30 UNL     1      -0.689   5.436  -0.860  1.00  0.00     0.058 C 
HETATM   35  O8  UNL     1       4.117   5.289  -0.447  1.00  0.00    -0.286 OA
BRANCH  26  36
HETATM   36  O9  UNL     1       3.365  -3.272  -0.424  1.00  0.00    -0.328 OA
HETATM   37  C31 UNL     1       2.076  -3.842  -0.465  1.00  0.00     0.181 C 
ENDBRANCH  26  36
ENDBRANCH   1  18
BRANCH   2  38
HETATM   38  O1  UNL     1      -0.178   1.579  -2.547  1.00  0.00    -0.328 OA
HETATM   39  C10 UNL     1      -1.061   1.994  -3.562  1.00  0.00     0.181 C 
ENDBRANCH   2  38
BRANCH   6  40
HETATM   40  O2  UNL     1       0.516  -0.025   1.905  1.00  0.00    -0.328 OA
HETATM   41  C15 UNL     1       0.254   0.948   2.890  1.00  0.00     0.181 C 
ENDBRANCH   6  40
TORSDOF 4
