REMARK  3 active torsions:
REMARK  status: ('A' for Active; 'I' for Inactive)
REMARK    1  A    between atoms: C6_6  and  C7_7 
REMARK    2  A    between atoms: C7_7  and  C8_8 
REMARK    3  A    between atoms: C8_8  and  C9_9 
ROOT
HETATM    1  C7  UNL     1       0.237   0.754  -0.272  1.00  0.00     0.004 C 
ENDROOT
BRANCH   1   2
HETATM    2  C6  UNL     1       0.516   1.485  -1.610  1.00  0.00     0.018 C 
HETATM    3  C1  UNL     1      -0.120   2.856  -1.572  1.00  0.00    -0.045 C 
HETATM    4  C2  UNL     1      -1.620   2.851  -1.672  1.00  0.00     0.022 C 
HETATM    5  C30 UNL     1       0.592   3.986  -1.440  1.00  0.00    -0.009 C 
HETATM    6  C3  UNL     1      -2.034   2.115  -2.950  1.00  0.00     0.004 C 
HETATM    7  C4  UNL     1      -1.447   0.685  -3.084  1.00  0.00     0.003 C 
HETATM    8  C5  UNL     1       0.103   0.712  -2.907  1.00  0.00     0.004 C 
HETATM    9  C26 UNL     1      -1.948  -0.072  -4.366  1.00  0.00     0.028 C 
HETATM   10  C23 UNL     1       0.731   1.410  -4.144  1.00  0.00     0.003 C 
HETATM   11  C29 UNL     1       0.742  -0.699  -2.784  1.00  0.00     0.000 C 
HETATM   12  C24 UNL     1      -0.045   1.234  -5.462  1.00  0.00     0.033 C 
HETATM   13  C25 UNL     1      -0.894  -0.030  -5.494  1.00  0.00     0.152 C 
HETATM   14  O2  UNL     1      -1.492  -0.145  -6.766  1.00  0.00    -0.224 OA
HETATM   15  C27 UNL     1      -2.249  -1.555  -4.025  1.00  0.00     0.003 C 
HETATM   16  C28 UNL     1      -3.302   0.481  -4.883  1.00  0.00     0.003 C 
ENDBRANCH   1   2
BRANCH   1  17
HETATM   17  C8  UNL     1       1.508   0.397   0.527  1.00  0.00     0.004 C 
BRANCH  17  18
HETATM   18  C9  UNL     1       1.262  -0.670   1.625  1.00  0.00     0.018 C 
HETATM   19  C10 UNL     1       1.625  -0.239   3.077  1.00  0.00     0.004 C 
HETATM   20  C11 UNL     1       1.138  -1.320   4.100  1.00  0.00     0.003 C 
HETATM   21  C19 UNL     1       1.050   1.165   3.419  1.00  0.00     0.003 C 
HETATM   22  C22 UNL     1       3.173  -0.114   3.156  1.00  0.00     0.000 C 
HETATM   23  C12 UNL     1       1.602  -2.745   3.716  1.00  0.00     0.004 C 
HETATM   24  C16 UNL     1      -0.335  -1.254   4.637  1.00  0.00     0.028 C 
HETATM   25  C13 UNL     1       1.308  -3.130   2.261  1.00  0.00     0.022 C 
HETATM   26  C14 UNL     1       1.834  -2.055   1.341  1.00  0.00    -0.045 C 
HETATM   27  C15 UNL     1       2.760  -2.374   0.420  1.00  0.00    -0.009 C 
HETATM   28  C17 UNL     1      -0.888   0.182   4.568  1.00  0.00     0.152 C 
HETATM   29  C20 UNL     1      -1.340  -2.160   3.890  1.00  0.00     0.003 C 
HETATM   30  C21 UNL     1      -0.336  -1.743   6.113  1.00  0.00     0.003 C 
HETATM   31  C18 UNL     1       0.215   1.220   4.701  1.00  0.00     0.033 C 
HETATM   32  O1  UNL     1      -1.873   0.416   5.547  1.00  0.00    -0.224 OA
ENDBRANCH  17  18
ENDBRANCH   1  17
TORSDOF 3
