REMARK  0 active torsions:
REMARK  status: ('A' for Active; 'I' for Inactive)
ROOT
HETATM    1  C1  UNL     1      -1.651  -0.300  -0.003  1.00  0.00     0.133 A 
HETATM    2  C2  UNL     1      -0.931   0.908  -0.003  1.00  0.00     0.023 A 
HETATM    3  C3  UNL     1       0.474   0.893  -0.003  1.00  0.00    -0.018 A 
HETATM    4  C4  UNL     1       1.162  -0.333  -0.003  1.00  0.00     0.023 A 
HETATM    5  C5  UNL     1       0.448  -1.544  -0.003  1.00  0.00     0.133 A 
HETATM    6  C6  UNL     1      -0.958  -1.523  -0.003  1.00  0.00     0.055 A 
HETATM    7  O1  UNL     1       1.093  -2.693  -0.003  1.00  0.00    -0.190 OA
HETATM    8  C7  UNL     1       1.232   2.171  -0.003  1.00  0.00     0.031 C 
HETATM    9  O2  UNL     1      -2.969  -0.285  -0.003  1.00  0.00    -0.190 OA
ENDROOT
TORSDOF 0
