REMARK  5 active torsions:
REMARK  status: ('A' for Active; 'I' for Inactive)
REMARK    1  A    between atoms: C8_11  and  O6_23 
REMARK    2  A    between atoms: C9_12  and  C12_16 
REMARK    3  A    between atoms: C10_13  and  O3_14 
REMARK    4  A    between atoms: C12_16  and  C13_17 
REMARK    5  A    between atoms: C13_17  and  C14_19 
ROOT
HETATM    1  O1  UNL     1       5.940   0.807  -1.236  1.00  0.00    -0.299 OA
HETATM    2  C1  UNL     1       6.332  -0.322  -0.426  1.00  0.00     0.304 A 
HETATM    3  O2  UNL     1       5.070  -0.871   0.014  1.00  0.00    -0.298 OA
HETATM    4  C2  UNL     1       4.068  -0.148  -0.490  1.00  0.00     0.137 A 
HETATM    5  C3  UNL     1       4.607   0.887  -1.262  1.00  0.00     0.121 A 
HETATM    6  C4  UNL     1       3.740   1.797  -1.906  1.00  0.00     0.026 A 
HETATM    7  C5  UNL     1       2.344   1.680  -1.791  1.00  0.00     0.006 A 
HETATM    8  C6  UNL     1       1.795   0.635  -1.014  1.00  0.00     0.042 A 
HETATM    9  C7  UNL     1       2.660  -0.303  -0.344  1.00  0.00     0.110 A 
HETATM   10  N1  UNL     1       2.070  -1.305   0.408  1.00  0.00    -0.221 NA
HETATM   11  C8  UNL     1       0.705  -1.431   0.531  1.00  0.00     0.176 A 
HETATM   12  C9  UNL     1      -0.170  -0.529  -0.117  1.00  0.00     0.044 A 
HETATM   13  C10 UNL     1       0.379   0.518  -0.898  1.00  0.00     0.095 A 
ENDROOT
BRANCH  12  14
HETATM   14  C12 UNL     1      -1.629  -0.676   0.020  1.00  0.00     0.068 C 
BRANCH  14  15
HETATM   15  C13 UNL     1      -2.193   0.278   1.074  1.00  0.00     0.184 C 
HETATM   16  O4  UNL     1      -1.701  -0.117   2.334  1.00  0.00    -0.221 OA
BRANCH  15  17
HETATM   17  C14 UNL     1      -3.723   0.256   1.129  1.00  0.00     0.155 C 
HETATM   18  C15 UNL     1      -4.281   1.076   2.291  1.00  0.00     0.036 C 
HETATM   19  C16 UNL     1      -4.365   0.615  -0.211  1.00  0.00     0.036 C 
HETATM   20  O5  UNL     1      -3.975  -1.107   1.389  1.00  0.00    -0.223 OA
ENDBRANCH  15  17
ENDBRANCH  14  15
ENDBRANCH  12  14
BRANCH  11  21
HETATM   21  O6  UNL     1       0.211  -2.428   1.279  1.00  0.00    -0.312 OA
HETATM   22  C17 UNL     1       1.131  -3.289   1.934  1.00  0.00     0.183 C 
ENDBRANCH  11  21
BRANCH  13  23
HETATM   23  O3  UNL     1      -0.445   1.379  -1.517  1.00  0.00    -0.328 OA
HETATM   24  C11 UNL     1      -0.746   1.147  -2.885  1.00  0.00     0.181 C 
ENDBRANCH  13  23
TORSDOF 5
