REMARK  1 active torsions:
REMARK  status: ('A' for Active; 'I' for Inactive)
REMARK    1  A    between atoms: C1_1  and  C12_15 
ROOT
HETATM    1  C1  UNL     1      -1.530   0.523  -0.025  1.00  0.00     0.105 A 
HETATM    2  O1  UNL     1      -1.621  -0.839   0.383  1.00  0.00    -0.309 OA
HETATM    3  C2  UNL     1      -0.299  -1.231   0.496  1.00  0.00     0.102 A 
HETATM    4  C3  UNL     1       0.535  -0.196   0.184  1.00  0.00     0.047 A 
HETATM    5  C4  UNL     1      -0.176   0.909  -0.144  1.00  0.00     0.027 A 
HETATM    6  C5  UNL     1       1.948  -0.320   0.216  1.00  0.00     0.105 A 
HETATM    7  C6  UNL     1       2.447  -1.614   0.600  1.00  0.00     0.023 A 
HETATM    8  C7  UNL     1       1.569  -2.690   0.925  1.00  0.00     0.004 A 
HETATM    9  C8  UNL     1       0.165  -2.505   0.875  1.00  0.00     0.025 A 
HETATM   10  C9  UNL     1       3.917  -1.830   0.657  1.00  0.00     0.007 A 
HETATM   11  C10 UNL     1       4.746  -0.816   0.352  1.00  0.00     0.069 A 
HETATM   12  C11 UNL     1       4.188   0.492  -0.034  1.00  0.00     0.300 A 
HETATM   13  O2  UNL     1       2.851   0.648  -0.075  1.00  0.00    -0.273 OA
HETATM   14  O3  UNL     1       4.953   1.389  -0.303  1.00  0.00    -0.259 OA
ENDROOT
BRANCH   1  15
HETATM   15  C12 UNL     1      -2.748   1.385  -0.279  1.00  0.00     0.166 C 
HETATM   16  C13 UNL     1      -4.037   0.574  -0.143  1.00  0.00     0.040 C 
HETATM   17  C14 UNL     1      -2.710   1.998  -1.679  1.00  0.00     0.040 C 
HETATM   18  O4  UNL     1      -2.785   2.434   0.662  1.00  0.00    -0.219 OA
ENDBRANCH   1  15
TORSDOF 1
