REMARK  9 active torsions:
REMARK  status: ('A' for Active; 'I' for Inactive)
REMARK    1  A    between atoms: C4_5  and  O3_8 
REMARK    2  A    between atoms: O3_8  and  C6_9 
REMARK    3  A    between atoms: C9_12  and  C44_56 
REMARK    4  A    between atoms: C10_14  and  O5_15 
REMARK    5  A    between atoms: O5_15  and  C11_16 
REMARK    6  A    between atoms: C27_32  and  C28_33 
REMARK    7  A    between atoms: C28_33  and  C29_34 
REMARK    8  A    between atoms: C30_36  and  O7_41 
REMARK    9  A    between atoms: O7_41  and  C35_42 
ROOT
HETATM    1  C11 UNL     1       3.399   2.172  -0.074  1.00  0.00     0.118 C 
HETATM    2  C12 UNL     1       3.212   2.875   1.276  1.00  0.00     0.030 C 
HETATM    3  C13 UNL     1       2.019   2.296   2.064  1.00  0.00     0.003 C 
HETATM    4  C14 UNL     1       0.859   1.750   1.181  1.00  0.00     0.007 C 
HETATM    5  C15 UNL     1       0.845   2.514  -0.168  1.00  0.00     0.060 C 
HETATM    6  C16 UNL     1       2.153   2.316  -0.977  1.00  0.00     0.037 C 
HETATM    7  C17 UNL     1      -0.393   2.200  -0.980  1.00  0.00     0.150 C 
HETATM    8  C18 UNL     1      -1.699   2.460  -0.278  1.00  0.00     0.065 C 
HETATM    9  C19 UNL     1      -1.777   1.725   1.068  1.00  0.00     0.007 C 
HETATM   10  C20 UNL     1      -0.503   1.936   1.936  1.00  0.00     0.001 C 
HETATM   11  C21 UNL     1      -0.602   1.141   3.264  1.00  0.00     0.000 C 
HETATM   12  C22 UNL     1      -0.990  -0.343   3.096  1.00  0.00     0.000 C 
HETATM   13  C23 UNL     1      -2.273  -0.454   2.262  1.00  0.00     0.000 C 
HETATM   14  C24 UNL     1      -2.049   0.220   0.900  1.00  0.00     0.000 C 
HETATM   15  C25 UNL     1      -3.303  -0.192   0.132  1.00  0.00     0.000 C 
HETATM   16  C26 UNL     1      -3.551  -1.633   0.594  1.00  0.00     0.000 C 
HETATM   17  C27 UNL     1      -2.599  -1.871   1.773  1.00  0.00     0.002 C 
HETATM   18  C42 UNL     1      -3.478   0.128   3.016  1.00  0.00     0.000 C 
HETATM   19  O12 UNL     1      -0.352   1.768  -2.109  1.00  0.00    -0.296 OA
HETATM   20  C43 UNL     1       1.139   0.269   0.886  1.00  0.00     0.000 C 
ENDROOT
BRANCH   1  21
HETATM   21  O5  UNL     1       4.532   2.702  -0.734  1.00  0.00    -0.332 OA
BRANCH  21  22
HETATM   22  C10 UNL     1       5.057   1.838  -1.722  1.00  0.00     0.267 C 
HETATM   23  C6  UNL     1       6.446   2.339  -2.195  1.00  0.00     0.207 C 
HETATM   24  C7  UNL     1       6.962   1.499  -3.385  1.00  0.00     0.217 C 
HETATM   25  C8  UNL     1       5.870   1.399  -4.475  1.00  0.00     0.215 C 
HETATM   26  O15 UNL     1       8.130   2.096  -3.927  1.00  0.00    -0.218 OA
HETATM   27  C9  UNL     1       4.522   0.936  -3.878  1.00  0.00     0.184 C 
HETATM   28  O14 UNL     1       6.268   0.474  -5.470  1.00  0.00    -0.218 OA
HETATM   29  O4  UNL     1       4.152   1.808  -2.818  1.00  0.00    -0.326 OA
BRANCH  23  30
HETATM   30  O3  UNL     1       7.369   2.250  -1.123  1.00  0.00    -0.324 OA
BRANCH  30  31
HETATM   31  C4  UNL     1       7.333   3.371  -0.261  1.00  0.00     0.270 C 
HETATM   32  O1  UNL     1       7.224   2.905   1.077  1.00  0.00    -0.329 OA
HETATM   33  C3  UNL     1       7.125   3.926   2.063  1.00  0.00     0.151 C 
HETATM   34  C2  UNL     1       8.406   4.790   2.033  1.00  0.00     0.212 C 
HETATM   35  C45 UNL     1       6.911   3.221   3.405  1.00  0.00     0.035 C 
HETATM   36  C1  UNL     1       8.668   5.359   0.622  1.00  0.00     0.220 C 
HETATM   37  O16 UNL     1       8.256   5.852   2.960  1.00  0.00    -0.218 OA
HETATM   38  C5  UNL     1       8.620   4.220  -0.424  1.00  0.00     0.241 C 
HETATM   39  O17 UNL     1       9.937   5.992   0.586  1.00  0.00    -0.218 OA
HETATM   40  O2  UNL     1       8.654   4.778  -1.728  1.00  0.00    -0.215 OA
ENDBRANCH  30  31
ENDBRANCH  23  30
BRANCH  27  41
HETATM   41  C44 UNL     1       3.377   0.968  -4.895  1.00  0.00     0.214 C 
HETATM   42  O13 UNL     1       2.223   0.448  -4.276  1.00  0.00    -0.218 OA
ENDBRANCH  27  41
ENDBRANCH  21  22
ENDBRANCH   1  21
BRANCH  17  43
HETATM   43  C28 UNL     1      -3.198  -2.781   2.842  1.00  0.00     0.027 C 
HETATM   44  C41 UNL     1      -2.803  -4.230   2.559  1.00  0.00     0.003 C 
BRANCH  43  45
HETATM   45  C29 UNL     1      -4.714  -2.582   2.891  1.00  0.00     0.118 C 
HETATM   46  O6  UNL     1      -5.295  -3.478   1.952  1.00  0.00    -0.333 OA
HETATM   47  C30 UNL     1      -6.707  -3.374   1.818  1.00  0.00     0.237 C 
HETATM   48  C31 UNL     1      -7.399  -3.681   3.169  1.00  0.00     0.057 C 
HETATM   49  C32 UNL     1      -6.826  -2.790   4.281  1.00  0.00     0.007 C 
HETATM   50  C34 UNL     1      -8.922  -3.522   3.084  1.00  0.00     0.005 C 
HETATM   51  C33 UNL     1      -5.295  -2.860   4.289  1.00  0.00     0.030 C 
BRANCH  47  52
HETATM   52  O7  UNL     1      -7.144  -4.292   0.837  1.00  0.00    -0.304 OA
BRANCH  52  53
HETATM   53  C35 UNL     1      -6.647  -4.001  -0.455  1.00  0.00     0.272 C 
HETATM   54  O8  UNL     1      -5.382  -4.630  -0.602  1.00  0.00    -0.329 OA
HETATM   55  C36 UNL     1      -4.729  -4.389  -1.841  1.00  0.00     0.151 C 
HETATM   56  C37 UNL     1      -5.596  -4.944  -2.993  1.00  0.00     0.212 C 
HETATM   57  C40 UNL     1      -3.353  -5.056  -1.754  1.00  0.00     0.035 C 
HETATM   58  C38 UNL     1      -7.024  -4.355  -2.955  1.00  0.00     0.220 C 
HETATM   59  O11 UNL     1      -4.977  -4.618  -4.225  1.00  0.00    -0.218 OA
HETATM   60  C39 UNL     1      -7.625  -4.522  -1.540  1.00  0.00     0.241 C 
HETATM   61  O10 UNL     1      -7.843  -5.018  -3.907  1.00  0.00    -0.218 OA
HETATM   62  O9  UNL     1      -8.845  -3.800  -1.459  1.00  0.00    -0.215 OA
ENDBRANCH  52  53
ENDBRANCH  47  52
ENDBRANCH  43  45
ENDBRANCH  17  43
TORSDOF 9
