REMARK  2 active torsions:
REMARK  status: ('A' for Active; 'I' for Inactive)
REMARK    1  A    between atoms: C3_3  and  C4_4 
REMARK    2  A    between atoms: C4_4  and  C5_5 
ROOT
HETATM    1  C5  UNL     1       0.418  -0.805   0.334  1.00  0.00     0.030 A 
HETATM    2  C6  UNL     1      -0.846  -1.369   0.033  1.00  0.00     0.102 A 
HETATM    3  C7  UNL     1      -0.920  -2.699  -0.463  1.00  0.00     0.023 A 
HETATM    4  C8  UNL     1       0.256  -3.461  -0.660  1.00  0.00     0.004 A 
HETATM    5  C9  UNL     1       1.514  -2.891  -0.357  1.00  0.00     0.027 A 
HETATM    6  C10 UNL     1       1.598  -1.566   0.137  1.00  0.00     0.129 A 
HETATM    7  O1  UNL     1       2.799  -1.041   0.420  1.00  0.00    -0.190 OA
HETATM    8  C11 UNL     1      -2.258  -3.270  -0.768  1.00  0.00     0.007 A 
HETATM    9  C12 UNL     1      -3.352  -2.510  -0.566  1.00  0.00     0.069 A 
HETATM   10  C13 UNL     1      -3.209  -1.129  -0.047  1.00  0.00     0.300 A 
HETATM   11  O2  UNL     1      -1.977  -0.648   0.219  1.00  0.00    -0.273 OA
HETATM   12  O3  UNL     1      -4.209  -0.471   0.123  1.00  0.00    -0.259 OA
ENDROOT
BRANCH   1  13
HETATM   13  C4  UNL     1       0.506   0.574   0.850  1.00  0.00     0.056 C 
BRANCH  13  14
HETATM   14  C3  UNL     1       1.004   1.537  -0.193  1.00  0.00    -0.030 C 
HETATM   15  C2  UNL     1       0.916   2.854   0.057  1.00  0.00    -0.048 C 
HETATM   16  C1  UNL     1       0.346   3.297   1.379  1.00  0.00     0.026 C 
HETATM   17  C14 UNL     1       1.391   3.820  -0.996  1.00  0.00     0.026 C 
ENDBRANCH  13  14
ENDBRANCH   1  13
TORSDOF 2
