REMARK  3 active torsions:
REMARK  status: ('A' for Active; 'I' for Inactive)
REMARK    1  A    between atoms: C2_2  and  C15_18 
REMARK    2  A    between atoms: C15_18  and  O4_19 
REMARK    3  A    between atoms: O4_19  and  C16_20 
ROOT
HETATM    1  C1  UNL     1       1.553   1.774   0.320  1.00  0.00     0.058 C 
HETATM    2  C2  UNL     1       1.266   1.021  -0.972  1.00  0.00    -0.016 C 
HETATM    3  C3  UNL     1       0.297   1.430  -1.813  1.00  0.00    -0.032 C 
HETATM    4  C4  UNL     1      -0.303   0.675  -2.984  1.00  0.00     0.030 C 
HETATM    5  C5  UNL     1      -1.804   0.392  -2.732  1.00  0.00     0.026 C 
HETATM    6  C6  UNL     1      -1.987  -0.049  -1.290  1.00  0.00    -0.045 C 
HETATM    7  C7  UNL     1      -2.275   0.890  -0.369  1.00  0.00    -0.004 C 
HETATM    8  C8  UNL     1      -2.025   0.825   1.117  1.00  0.00     0.152 C 
HETATM    9  C9  UNL     1      -0.524   0.704   1.425  1.00  0.00     0.090 C 
HETATM   10  C10 UNL     1       0.355   1.952   1.274  1.00  0.00     0.163 C 
HETATM   11  O1  UNL     1      -0.407   3.055   0.840  1.00  0.00    -0.223 OA
HETATM   12  C11 UNL     1      -0.594  -0.005   2.751  1.00  0.00     0.046 C 
HETATM   13  C12 UNL     1      -1.837  -0.542   2.841  1.00  0.00     0.292 C 
HETATM   14  O2  UNL     1      -2.689  -0.194   1.831  1.00  0.00    -0.296 OA
HETATM   15  O3  UNL     1      -2.178  -1.276   3.743  1.00  0.00    -0.259 OA
HETATM   16  C13 UNL     1       0.388  -0.170   3.645  1.00  0.00     0.001 C 
HETATM   17  C14 UNL     1      -1.625  -1.484  -0.999  1.00  0.00     0.026 C 
ENDROOT
BRANCH   2  18
HETATM   18  C15 UNL     1       2.107  -0.226  -1.179  1.00  0.00     0.174 C 
BRANCH  18  19
HETATM   19  O4  UNL     1       1.785  -1.202  -0.212  1.00  0.00    -0.297 OA
BRANCH  19  20
HETATM   20  C16 UNL     1       2.354  -2.428  -0.343  1.00  0.00     0.273 C 
HETATM   21  C17 UNL     1       1.850  -3.349   0.750  1.00  0.00     0.106 C 
HETATM   22  O5  UNL     1       3.137  -2.741  -1.212  1.00  0.00    -0.264 OA
ENDBRANCH  19  20
ENDBRANCH  18  19
ENDBRANCH   2  18
TORSDOF 3
