REMARK  3 active torsions:
REMARK  status: ('A' for Active; 'I' for Inactive)
REMARK    1  A    between atoms: C1_2  and  C2_4 
REMARK    2  A    between atoms: C2_4  and  C3_6 
REMARK    3  A    between atoms: C3_6  and  C4_7 
ROOT
HETATM    1  C2  UNL     1       0.639  -0.639   0.330  1.00  0.00     0.247 C 
HETATM    2  O3  UNL     1       1.260  -0.850   1.344  1.00  0.00    -0.284 OA
ENDROOT
BRANCH   1   3
HETATM    3  C1  UNL     1       1.342  -0.377  -0.932  1.00  0.00     0.248 C 
HETATM    4  O1  UNL     1       2.670  -0.410  -0.871  1.00  0.00    -0.642 OA
HETATM    5  O2  UNL     1       0.719  -0.148  -1.944  1.00  0.00    -0.642 OA
ENDBRANCH   1   3
BRANCH   1   6
HETATM    6  C3  UNL     1      -0.867  -0.639   0.330  1.00  0.00     0.173 C 
BRANCH   6   7
HETATM    7  C4  UNL     1      -1.395   0.771   0.330  1.00  0.00     0.194 C 
HETATM    8  O4  UNL     1      -1.650   1.340  -0.707  1.00  0.00    -0.647 OA
HETATM    9  O5  UNL     1      -1.547   1.318   1.531  1.00  0.00    -0.647 OA
ENDBRANCH   6   7
ENDBRANCH   1   6
TORSDOF 3
