REMARK  0 active torsions:
REMARK  status: ('A' for Active; 'I' for Inactive)
ROOT
HETATM    1  C1  UNL     1       0.934  -0.281   0.387  1.00  0.00     0.073 C 
HETATM    2  C2  UNL     1       0.232   1.090   0.074  1.00  0.00     0.147 C 
HETATM    3  C3  UNL     1      -1.049   0.750  -0.723  1.00  0.00     0.134 A 
HETATM    4  C4  UNL     1      -0.777   0.055  -2.072  1.00  0.00     0.042 C 
HETATM    5  C5  UNL     1       0.133  -1.178  -1.813  1.00  0.00     0.125 C 
HETATM    6  C6  UNL     1       1.402  -0.891  -0.957  1.00  0.00     0.036 C 
HETATM    7  O1  UNL     1      -0.654  -2.207  -1.207  1.00  0.00    -0.302 OA
HETATM    8  C7  UNL     1      -0.873  -2.158   0.115  1.00  0.00     0.303 C 
HETATM    9  C8  UNL     1       0.057  -1.397   1.051  1.00  0.00     0.240 C 
HETATM   10  O2  UNL     1      -0.650  -0.940   2.187  1.00  0.00    -0.213 OA
HETATM   11  O3  UNL     1      -1.816  -2.752   0.590  1.00  0.00    -0.261 OA
HETATM   12  C9  UNL     1      -2.031  -0.350  -2.863  1.00  0.00     0.003 C 
HETATM   13  C10 UNL     1      -2.492   0.736  -0.039  1.00  0.00     0.164 A 
HETATM   14  O4  UNL     1      -2.764   2.035  -0.578  1.00  0.00    -0.301 OA
HETATM   15  C11 UNL     1      -1.609   2.074  -1.158  1.00  0.00     0.276 A 
HETATM   16  O5  UNL     1      -1.229   2.996  -1.838  1.00  0.00    -0.264 OA
HETATM   17  C12 UNL     1       0.170   1.795   1.441  1.00  0.00     0.096 C 
HETATM   18  C13 UNL     1       1.400   1.289   2.146  1.00  0.00     0.153 C 
HETATM   19  C14 UNL     1       2.059   0.187   1.351  1.00  0.00     0.063 C 
HETATM   20  C15 UNL     1       2.691  -0.889   2.230  1.00  0.00     0.008 C 
HETATM   21  O6  UNL     1       1.803   1.709   3.207  1.00  0.00    -0.296 OA
HETATM   22  O7  UNL     1       1.119   1.891  -0.723  1.00  0.00    -0.225 OA
ENDROOT
TORSDOF 0
