REMARK  5 active torsions:
REMARK  status: ('A' for Active; 'I' for Inactive)
REMARK    1  A    between atoms: C4_4  and  C8_8 
REMARK    2  A    between atoms: C8_8  and  C9_9 
REMARK    3  A    between atoms: C10_10  and  C11_11 
REMARK    4  A    between atoms: C11_11  and  O1_12 
REMARK    5  A    between atoms: O1_12  and  C12_13 
ROOT
HETATM    1  C1  UNL     1      -1.112   0.591   3.018  1.00  0.00     0.090 C 
HETATM    2  C2  UNL     1       0.326   0.925   3.345  1.00  0.00     0.173 C 
HETATM    3  C3  UNL     1       1.383   0.572   2.358  1.00  0.00     0.009 C 
HETATM    4  C4  UNL     1       0.943  -0.146   1.088  1.00  0.00     0.050 C 
HETATM    5  C5  UNL     1      -0.267  -1.023   1.326  1.00  0.00    -0.030 C 
HETATM    6  C6  UNL     1      -1.220  -0.685   2.216  1.00  0.00    -0.040 C 
HETATM    7  C7  UNL     1      -2.415  -1.576   2.437  1.00  0.00     0.026 C 
HETATM    8  C15 UNL     1       2.695   0.862   2.545  1.00  0.00    -0.044 C 
HETATM    9  C16 UNL     1       3.208   1.565   3.777  1.00  0.00     0.026 C 
HETATM   10  C17 UNL     1       3.743   0.500   1.522  1.00  0.00     0.026 C 
HETATM   11  O3  UNL     1       0.583   1.465   4.397  1.00  0.00    -0.291 OA
ENDROOT
BRANCH   4  12
HETATM   12  C8  UNL     1       0.656   0.862  -0.028  1.00  0.00     0.030 C 
BRANCH  12  13
HETATM   13  C9  UNL     1       0.412   0.196  -1.355  1.00  0.00    -0.045 C 
HETATM   14  C10 UNL     1      -0.756   0.420  -1.980  1.00  0.00    -0.002 C 
HETATM   15  C14 UNL     1       1.416  -0.711  -2.014  1.00  0.00     0.026 C 
BRANCH  14  16
HETATM   16  C11 UNL     1      -1.000  -0.246  -3.308  1.00  0.00     0.177 C 
BRANCH  16  17
HETATM   17  O1  UNL     1      -2.361  -0.081  -3.677  1.00  0.00    -0.297 OA
BRANCH  17  18
HETATM   18  C12 UNL     1      -2.641  -0.650  -4.846  1.00  0.00     0.273 C 
HETATM   19  O2  UNL     1      -1.829  -1.242  -5.519  1.00  0.00    -0.264 OA
HETATM   20  C13 UNL     1      -4.069  -0.513  -5.299  1.00  0.00     0.106 C 
ENDBRANCH  17  18
ENDBRANCH  16  17
ENDBRANCH  14  16
ENDBRANCH  12  13
ENDBRANCH   4  12
TORSDOF 5
