REMARK  4 active torsions:
REMARK  status: ('A' for Active; 'I' for Inactive)
REMARK    1  A    between atoms: C2_2  and  O4_27 
REMARK    2  A    between atoms: C9_10  and  C20_23 
REMARK    3  A    between atoms: C10_11  and  C18_21 
REMARK    4  A    between atoms: C20_23  and  O3_25 
ROOT
HETATM    1  C1  UNL     1       2.551   1.275  -3.490  1.00  0.00     0.024 A 
HETATM    2  C2  UNL     1       3.705   0.981  -2.723  1.00  0.00     0.096 A 
HETATM    3  C3  UNL     1       3.566   0.375  -1.453  1.00  0.00     0.043 A 
HETATM    4  C4  UNL     1       2.264   0.074  -0.996  1.00  0.00     0.079 A 
HETATM    5  C5  UNL     1       1.100   0.305  -1.734  1.00  0.00     0.002 A 
HETATM    6  C6  UNL     1       1.266   0.938  -2.998  1.00  0.00    -0.000 A 
HETATM    7  C7  UNL     1      -0.125  -0.201  -1.025  1.00  0.00     0.076 C 
HETATM    8  C8  UNL     1       0.482  -0.480   0.346  1.00  0.00     0.065 C 
HETATM    9  N1  UNL     1       1.912  -0.484   0.322  1.00  0.00    -0.250 NA
HETATM   10  C9  UNL     1      -0.305  -0.664   1.430  1.00  0.00     0.055 C 
HETATM   11  C10 UNL     1      -1.770  -0.256   1.314  1.00  0.00     0.035 C 
HETATM   12  C11 UNL     1      -1.873   1.037   0.447  1.00  0.00     0.048 C 
HETATM   13  C12 UNL     1      -1.361   0.725  -0.979  1.00  0.00     0.097 C 
HETATM   14  N2  UNL     1      -2.365   0.006  -1.752  1.00  0.00    -0.318 N 
HETATM   15  C13 UNL     1      -3.738   0.299  -1.613  1.00  0.00     0.257 C 
HETATM   16  C14 UNL     1      -4.125   1.287  -0.586  1.00  0.00     0.056 C 
HETATM   17  C15 UNL     1      -3.264   1.654   0.387  1.00  0.00    -0.019 C 
HETATM   18  O1  UNL     1      -4.570  -0.256  -2.297  1.00  0.00    -0.267 OA
HETATM   19  C16 UNL     1      -1.822  -1.051  -2.570  1.00  0.00     0.105 C 
HETATM   20  C17 UNL     1      -0.633  -1.498  -1.727  1.00  0.00     0.036 C 
ENDROOT
BRANCH  10  21
HETATM   21  C20 UNL     1       0.223  -1.191   2.701  1.00  0.00     0.293 C 
HETATM   22  O2  UNL     1       1.068  -0.580   3.314  1.00  0.00    -0.259 OA
BRANCH  21  23
HETATM   23  O3  UNL     1      -0.289  -2.352   3.103  1.00  0.00    -0.296 OA
HETATM   24  C21 UNL     1       0.266  -2.787   4.336  1.00  0.00     0.185 C 
ENDBRANCH  21  23
ENDBRANCH  10  21
BRANCH  11  25
HETATM   25  C18 UNL     1      -2.418  -0.057   2.691  1.00  0.00     0.005 C 
HETATM   26  C19 UNL     1      -1.854   1.150   3.441  1.00  0.00     0.000 C 
ENDBRANCH  11  25
BRANCH   2  27
HETATM   27  O4  UNL     1       4.922   1.283  -3.195  1.00  0.00    -0.328 OA
HETATM   28  C22 UNL     1       6.047   0.961  -2.391  1.00  0.00     0.181 C 
ENDBRANCH   2  27
TORSDOF 4
