REMARK  0 active torsions:
REMARK  status: ('A' for Active; 'I' for Inactive)
ROOT
HETATM    1  C1  UNL     1      -4.865   0.559   2.162  1.00  0.00     0.033 C 
HETATM    2  C2  UNL     1      -5.777   0.041   1.037  1.00  0.00     0.152 C 
HETATM    3  C3  UNL     1      -5.121  -1.098   0.211  1.00  0.00     0.028 C 
HETATM    4  C4  UNL     1      -3.707  -0.650  -0.271  1.00  0.00     0.002 C 
HETATM    5  C5  UNL     1      -2.760  -0.186   0.881  1.00  0.00     0.000 C 
HETATM    6  C6  UNL     1      -3.479   0.965   1.639  1.00  0.00     0.003 C 
HETATM    7  C7  UNL     1      -1.324   0.193   0.340  1.00  0.00     0.000 C 
HETATM    8  C8  UNL     1      -1.283   0.592  -1.174  1.00  0.00     0.004 C 
HETATM    9  C9  UNL     1      -2.582   1.314  -1.551  1.00  0.00     0.000 C 
HETATM   10  C10 UNL     1      -3.818   0.422  -1.391  1.00  0.00     0.000 C 
HETATM   11  C11 UNL     1      -0.094   1.510  -1.527  1.00  0.00     0.022 C 
HETATM   12  C12 UNL     1       1.260   0.871  -1.295  1.00  0.00    -0.042 C 
HETATM   13  C13 UNL     1       1.688   0.516   0.123  1.00  0.00     0.019 C 
HETATM   14  C14 UNL     1       0.932   1.363   1.178  1.00  0.00     0.004 C 
HETATM   15  C15 UNL     1      -0.607   1.197   1.283  1.00  0.00     0.000 C 
HETATM   16  C16 UNL     1       3.244   0.588   0.268  1.00  0.00     0.011 C 
HETATM   17  C17 UNL     1       3.887  -0.350  -0.805  1.00  0.00     0.065 C 
HETATM   18  C18 UNL     1       3.410   0.035  -2.195  1.00  0.00     0.172 C 
HETATM   19  C19 UNL     1       2.074   0.629  -2.344  1.00  0.00     0.029 C 
HETATM   20  O1  UNL     1       4.098  -0.127  -3.180  1.00  0.00    -0.291 OA
HETATM   21  C20 UNL     1       5.436  -0.494  -0.689  1.00  0.00     0.035 C 
HETATM   22  C21 UNL     1       5.805  -0.916   0.754  1.00  0.00     0.152 C 
HETATM   23  C22 UNL     1       5.223   0.031   1.809  1.00  0.00     0.033 C 
HETATM   24  C23 UNL     1       3.699   0.131   1.676  1.00  0.00     0.003 C 
HETATM   25  O2  UNL     1       7.211  -0.975   0.920  1.00  0.00    -0.224 OA
HETATM   26  C24 UNL     1       6.129   0.822  -1.072  1.00  0.00     0.003 C 
HETATM   27  C25 UNL     1       5.928  -1.588  -1.652  1.00  0.00     0.003 C 
HETATM   28  C26 UNL     1       3.699   2.043   0.059  1.00  0.00     0.001 C 
HETATM   29  C27 UNL     1      -1.164  -0.674  -2.045  1.00  0.00     0.000 C 
HETATM   30  C28 UNL     1      -2.547  -1.328   1.891  1.00  0.00     0.000 C 
HETATM   31  C29 UNL     1      -6.004  -1.432  -1.000  1.00  0.00     0.003 C 
HETATM   32  C30 UNL     1      -5.020  -2.391   1.039  1.00  0.00     0.003 C 
HETATM   33  O3  UNL     1      -7.004  -0.387   1.602  1.00  0.00    -0.224 OA
ENDROOT
TORSDOF 0
