REMARK  0 active torsions:
REMARK  status: ('A' for Active; 'I' for Inactive)
ROOT
HETATM    1  C1  UNL     1      -2.641   0.250  -0.557  1.00  0.00     0.119 A 
HETATM    2  C2  UNL     1      -1.444   0.902  -0.244  1.00  0.00     0.119 A 
HETATM    3  C3  UNL     1      -0.236   0.146  -0.039  1.00  0.00     0.026 A 
HETATM    4  C4  UNL     1      -0.260  -1.281  -0.152  1.00  0.00     0.023 A 
HETATM    5  C5  UNL     1      -1.502  -1.920  -0.473  1.00  0.00     0.005 A 
HETATM    6  C6  UNL     1      -2.664  -1.154  -0.668  1.00  0.00     0.026 A 
HETATM    7  C7  UNL     1      -1.576  -3.328  -0.596  1.00  0.00     0.021 A 
HETATM    8  C8  UNL     1      -0.406  -4.084  -0.396  1.00  0.00     0.099 A 
HETATM    9  N1  UNL     1       0.783  -3.471  -0.090  1.00  0.00    -0.241 NA
HETATM   10  C9  UNL     1       0.914  -2.096   0.043  1.00  0.00     0.120 A 
HETATM   11  C10 UNL     1       2.211  -1.434   0.379  1.00  0.00     0.213 A 
HETATM   12  C11 UNL     1       2.225   0.057   0.492  1.00  0.00     0.041 A 
HETATM   13  C12 UNL     1       1.045   0.832   0.289  1.00  0.00     0.005 A 
HETATM   14  C13 UNL     1       1.146   2.254   0.412  1.00  0.00     0.000 A 
HETATM   15  C14 UNL     1       2.375   2.877   0.727  1.00  0.00     0.000 A 
HETATM   16  C15 UNL     1       3.529   2.098   0.926  1.00  0.00     0.000 A 
HETATM   17  C16 UNL     1       3.455   0.695   0.809  1.00  0.00     0.003 A 
HETATM   18  O1  UNL     1       3.213  -2.092   0.553  1.00  0.00    -0.285 OA
HETATM   19  O2  UNL     1      -1.703   2.213  -0.199  1.00  0.00    -0.300 OA
HETATM   20  C17 UNL     1      -3.094   2.461  -0.484  1.00  0.00     0.304 A 
HETATM   21  O3  UNL     1      -3.621   1.141  -0.701  1.00  0.00    -0.300 OA
ENDROOT
TORSDOF 0
