REMARK  2 active torsions:
REMARK  status: ('A' for Active; 'I' for Inactive)
REMARK    1  A    between atoms: C14_16  and  O3_22 
REMARK    2  A    between atoms: C15_17  and  O2_20 
ROOT
HETATM    1  C1  UNL     1      -4.824  -2.240   0.705  1.00  0.00     0.119 A 
HETATM    2  C2  UNL     1      -4.588  -0.906   1.045  1.00  0.00     0.119 A 
HETATM    3  C3  UNL     1      -3.293  -0.357   0.871  1.00  0.00     0.027 A 
HETATM    4  C4  UNL     1      -2.219  -1.131   0.355  1.00  0.00     0.014 A 
HETATM    5  C5  UNL     1      -2.473  -2.477  -0.002  1.00  0.00    -0.017 A 
HETATM    6  C6  UNL     1      -3.764  -3.021   0.182  1.00  0.00     0.022 A 
HETATM    7  C7  UNL     1      -1.375  -3.289  -0.574  1.00  0.00     0.051 C 
HETATM    8  C8  UNL     1      -0.008  -2.916   0.021  1.00  0.00     0.114 C 
HETATM    9  N1  UNL     1       0.254  -1.441   0.010  1.00  0.00    -0.295 N 
HETATM   10  C9  UNL     1      -0.826  -0.561   0.182  1.00  0.00     0.062 A 
HETATM   11  C10 UNL     1      -0.631   0.787   0.193  1.00  0.00     0.018 A 
HETATM   12  C11 UNL     1       0.725   1.369   0.033  1.00  0.00     0.008 A 
HETATM   13  C12 UNL     1       1.815   0.488  -0.139  1.00  0.00     0.080 A 
HETATM   14  C13 UNL     1       1.565  -0.986  -0.148  1.00  0.00     0.263 A 
HETATM   15  O1  UNL     1       2.430  -1.824  -0.283  1.00  0.00    -0.267 OA
HETATM   16  C14 UNL     1       3.125   1.016  -0.297  1.00  0.00     0.121 A 
HETATM   17  C15 UNL     1       3.326   2.418  -0.279  1.00  0.00     0.116 A 
HETATM   18  C16 UNL     1       2.227   3.293  -0.106  1.00  0.00     0.026 A 
HETATM   19  C17 UNL     1       0.922   2.772   0.051  1.00  0.00     0.002 A 
HETATM   20  O4  UNL     1      -5.717  -0.367   1.508  1.00  0.00    -0.300 OA
HETATM   21  C20 UNL     1      -6.760  -1.365   1.492  1.00  0.00     0.304 A 
HETATM   22  O5  UNL     1      -6.100  -2.535   0.959  1.00  0.00    -0.300 OA
ENDROOT
BRANCH  16  23
HETATM   23  O3  UNL     1       4.178   0.201  -0.461  1.00  0.00    -0.326 OA
HETATM   24  C19 UNL     1       5.164   0.570  -1.414  1.00  0.00     0.181 C 
ENDBRANCH  16  23
BRANCH  17  25
HETATM   25  O2  UNL     1       4.559   2.922  -0.426  1.00  0.00    -0.326 OA
HETATM   26  C18 UNL     1       4.703   4.334  -0.449  1.00  0.00     0.181 C 
ENDBRANCH  17  25
TORSDOF 2
