REMARK  2 active torsions:
REMARK  status: ('A' for Active; 'I' for Inactive)
REMARK    1  A    between atoms: C15_16  and  C18_19 
REMARK    2  A    between atoms: C18_19  and  C19_20 
ROOT
HETATM    1  C1  UNL     1      -4.514   0.076  -1.127  1.00  0.00     0.070 C 
HETATM    2  C2  UNL     1      -4.740  -1.334  -0.646  1.00  0.00     0.172 C 
HETATM    3  C3  UNL     1      -3.914  -1.820   0.471  1.00  0.00     0.029 C 
HETATM    4  C4  UNL     1      -2.877  -1.117   0.973  1.00  0.00    -0.042 C 
HETATM    5  C5  UNL     1      -2.416   0.209   0.377  1.00  0.00     0.018 C 
HETATM    6  C6  UNL     1      -3.027   0.439  -1.033  1.00  0.00     0.012 C 
HETATM    7  C7  UNL     1      -0.852   0.262   0.250  1.00  0.00     0.034 C 
HETATM    8  C8  UNL     1      -0.088  -0.246   1.496  1.00  0.00     0.003 C 
HETATM    9  C9  UNL     1      -0.623  -1.617   1.959  1.00  0.00     0.004 C 
HETATM   10  C10 UNL     1      -2.131  -1.619   2.190  1.00  0.00     0.022 C 
HETATM   11  C11 UNL     1       1.465  -0.311   1.330  1.00  0.00     0.003 C 
HETATM   12  C12 UNL     1       2.068   0.566   0.203  1.00  0.00     0.035 C 
HETATM   13  C13 UNL     1       1.219   1.836   0.031  1.00  0.00     0.036 C 
HETATM   14  C14 UNL     1      -0.270   1.602  -0.301  1.00  0.00     0.152 C 
HETATM   15  O1  UNL     1      -0.973   2.740   0.160  1.00  0.00    -0.224 OA
HETATM   16  C15 UNL     1       2.275  -0.375  -1.037  1.00  0.00     0.180 C 
HETATM   17  C16 UNL     1       1.902  -1.773  -0.525  1.00  0.00     0.038 C 
HETATM   18  C17 UNL     1       2.115  -1.656   0.973  1.00  0.00     0.003 C 
HETATM   19  O4  UNL     1       1.414  -0.051  -2.111  1.00  0.00    -0.218 OA
HETATM   20  C20 UNL     1       3.443   0.998   0.740  1.00  0.00     0.003 C 
HETATM   21  C21 UNL     1      -2.965   1.250   1.365  1.00  0.00     0.004 C 
HETATM   22  O5  UNL     1      -5.570  -2.047  -1.158  1.00  0.00    -0.291 OA
ENDROOT
BRANCH  16  23
HETATM   23  C18 UNL     1       3.670  -0.361  -1.627  1.00  0.00     0.211 C 
HETATM   24  O3  UNL     1       4.400  -1.318  -1.516  1.00  0.00    -0.291 OA
BRANCH  23  25
HETATM   25  C19 UNL     1       4.119   0.877  -2.353  1.00  0.00     0.249 C 
HETATM   26  O2  UNL     1       4.113   0.633  -3.742  1.00  0.00    -0.212 OA
ENDBRANCH  23  25
ENDBRANCH  16  23
TORSDOF 2
