REMARK  2 active torsions:
REMARK  status: ('A' for Active; 'I' for Inactive)
REMARK    1  A    between atoms: O1_2  and  C2_3 
REMARK    2  A    between atoms: C3_4  and  O2_5 
ROOT
HETATM    1  C2  UNL     1       3.426  -1.326   1.625  1.00  0.00     0.116 A 
HETATM    2  C3  UNL     1       4.180  -0.486   0.777  1.00  0.00     0.116 A 
HETATM    3  C5  UNL     1       3.518   0.348  -0.150  1.00  0.00     0.031 A 
HETATM    4  C6  UNL     1       2.102   0.344  -0.232  1.00  0.00     0.058 A 
HETATM    5  C7  UNL     1       1.330  -0.494   0.607  1.00  0.00     0.008 A 
HETATM    6  C8  UNL     1       2.014  -1.332   1.543  1.00  0.00     0.026 A 
HETATM    7  C9  UNL     1      -0.152  -0.451   0.463  1.00  0.00     0.016 A 
HETATM    8  C10 UNL     1      -0.787   0.428  -0.504  1.00  0.00     0.063 A 
HETATM    9  N1  UNL     1       0.037   1.227  -1.297  1.00  0.00    -0.294 N 
HETATM   10  C11 UNL     1       1.430   1.230  -1.215  1.00  0.00     0.261 A 
HETATM   11  O3  UNL     1       2.033   1.973  -1.961  1.00  0.00    -0.267 OA
HETATM   12  C12 UNL     1      -0.481   2.160  -2.318  1.00  0.00     0.134 C 
HETATM   13  C13 UNL     1      -2.250   0.408  -0.572  1.00  0.00     0.018 A 
HETATM   14  C14 UNL     1      -2.988  -0.461   0.295  1.00  0.00     0.004 A 
HETATM   15  C15 UNL     1      -2.336  -1.297   1.215  1.00  0.00     0.000 A 
HETATM   16  C16 UNL     1      -0.940  -1.291   1.297  1.00  0.00     0.001 A 
HETATM   17  C17 UNL     1      -4.402  -0.512   0.262  1.00  0.00     0.026 A 
HETATM   18  C18 UNL     1      -5.149   0.291  -0.625  1.00  0.00     0.119 A 
HETATM   19  C19 UNL     1      -4.471   1.148  -1.484  1.00  0.00     0.119 A 
HETATM   20  C20 UNL     1      -3.055   1.203  -1.455  1.00  0.00     0.028 A 
HETATM   21  O4  UNL     1      -5.361   1.809  -2.229  1.00  0.00    -0.300 OA
HETATM   22  C21 UNL     1      -6.694   1.389  -1.861  1.00  0.00     0.304 A 
HETATM   23  O5  UNL     1      -6.461   0.410  -0.826  1.00  0.00    -0.300 OA
ENDROOT
BRANCH   1  24
HETATM   24  O1  UNL     1       4.047  -2.119   2.508  1.00  0.00    -0.326 OA
HETATM   25  C1  UNL     1       3.246  -2.947   3.340  1.00  0.00     0.181 C 
ENDBRANCH   1  24
BRANCH   2  26
HETATM   26  O2  UNL     1       5.518  -0.477   0.850  1.00  0.00    -0.326 OA
HETATM   27  C4  UNL     1       6.229   0.346  -0.064  1.00  0.00     0.181 C 
ENDBRANCH   2  26
TORSDOF 2
