REMARK  2 active torsions:
REMARK  status: ('A' for Active; 'I' for Inactive)
REMARK    1  A    between atoms: C5_5  and  C7_8 
REMARK    2  A    between atoms: C8_9  and  C9_10 
ROOT
HETATM    1  C7  UNL     1       1.625  -1.863   0.420  1.00  0.00     0.002 C 
HETATM    2  C8  UNL     1       1.869  -0.947   1.371  1.00  0.00     0.000 C 
ENDROOT
BRANCH   1   3
HETATM    3  C5  UNL     1       0.568  -1.574  -0.597  1.00  0.00     0.025 A 
HETATM    4  C4  UNL     1       0.631  -0.387  -1.347  1.00  0.00     0.004 A 
HETATM    5  C3  UNL     1      -0.357  -0.105  -2.306  1.00  0.00     0.028 A 
HETATM    6  C2  UNL     1      -1.412  -1.008  -2.519  1.00  0.00     0.133 A 
HETATM    7  C1  UNL     1      -1.475  -2.195  -1.767  1.00  0.00     0.055 A 
HETATM    8  O4  UNL     1      -2.338  -0.744  -3.418  1.00  0.00    -0.190 OA
HETATM    9  C6  UNL     1      -0.488  -2.482  -0.806  1.00  0.00     0.133 A 
HETATM   10  O1  UNL     1      -0.563  -3.602  -0.111  1.00  0.00    -0.190 OA
ENDBRANCH   1   3
BRANCH   2  11
HETATM   11  C9  UNL     1       1.076   0.318   1.371  1.00  0.00     0.004 A 
HETATM   12  C10 UNL     1      -0.328   0.268   1.371  1.00  0.00     0.028 A 
HETATM   13  C11 UNL     1      -1.078   1.457   1.371  1.00  0.00     0.133 A 
HETATM   14  C12 UNL     1      -0.416   2.697   1.371  1.00  0.00     0.055 A 
HETATM   15  O3  UNL     1      -2.395   1.410   1.371  1.00  0.00    -0.190 OA
HETATM   16  C13 UNL     1       0.990   2.754   1.371  1.00  0.00     0.133 A 
HETATM   17  C14 UNL     1       1.734   1.561   1.371  1.00  0.00     0.028 A 
HETATM   18  O2  UNL     1       1.605   3.918   1.371  1.00  0.00    -0.190 OA
ENDBRANCH   2  11
TORSDOF 2
