REMARK  17 active torsions:
REMARK  status: ('A' for Active; 'I' for Inactive)
REMARK    1  A    between atoms: C2_2  and  C7_8 
REMARK    2  A    between atoms: C7_8  and  C8_9 
REMARK    3  A    between atoms: C10_12  and  C11_13 
REMARK    4  A    between atoms: C11_13  and  C12_14 
REMARK    5  A    between atoms: C16_20  and  C41_64 
REMARK    6  A    between atoms: C18_23  and  C39_59 
REMARK    7  A    between atoms: C20_26  and  C25_36 
REMARK       I    between atoms: C25_36  and  N7_38 
REMARK    8  A    between atoms: C29_42  and  C30_43 
REMARK       I    between atoms: C30_43  and  N8_44 
REMARK    9  A    between atoms: N8_44  and  C31_45 
REMARK   10  A    between atoms: C31_45  and  C32_46 
REMARK   11  A    between atoms: C31_45  and  C36_50 
REMARK   12  A    between atoms: C32_46  and  C33_47 
REMARK       I    between atoms: C36_50  and  N9_51 
REMARK   13  A    between atoms: N9_51  and  C37_52 
REMARK   14  A    between atoms: C37_52  and  C38_53 
REMARK   15  A    between atoms: C39_59  and  C40_60 
REMARK   16  A    between atoms: C41_64  and  C42_65 
REMARK   17  A    between atoms: C42_65  and  C43_66 
ROOT
HETATM    1  C8  UNL     1      -6.338  -1.900   0.826  1.00  0.00     0.191 C 
HETATM    2  C9  UNL     1      -6.049  -0.438   0.541  1.00  0.00     0.275 C 
HETATM    3  N1  UNL     1      -6.225   0.094  -0.723  1.00  0.00    -0.229 NA
HETATM    4  C10 UNL     1      -5.799   1.477  -1.049  1.00  0.00     0.186 C 
HETATM    5  C15 UNL     1      -4.285   1.617  -0.932  1.00  0.00     0.274 C 
HETATM    6  O2  UNL     1      -3.578   0.635  -0.914  1.00  0.00    -0.268 OA
HETATM    7  N2  UNL     1      -3.707   2.863  -0.840  1.00  0.00    -0.229 NA
HETATM    8  C16 UNL     1      -2.234   3.010  -0.691  1.00  0.00     0.187 C 
HETATM    9  C17 UNL     1      -1.736   2.473   0.652  1.00  0.00     0.274 C 
HETATM   10  N3  UNL     1      -0.395   2.375   0.965  1.00  0.00    -0.228 NA
HETATM   11  C18 UNL     1       0.727   2.754   0.068  1.00  0.00     0.196 C 
HETATM   12  C19 UNL     1       1.375   1.508  -0.514  1.00  0.00     0.275 C 
HETATM   13  N4  UNL     1       2.326   0.822   0.211  1.00  0.00    -0.228 NA
HETATM   14  C20 UNL     1       3.006  -0.414  -0.258  1.00  0.00     0.196 C 
HETATM   15  C21 UNL     1       2.102  -1.654  -0.105  1.00  0.00     0.103 C 
HETATM   16  S1  UNL     1       0.924  -1.830  -1.477  1.00  0.00    -0.080 SA
HETATM   17  S2  UNL     1      -0.270  -3.373  -0.879  1.00  0.00    -0.079 SA
HETATM   18  C22 UNL     1      -1.891  -2.566  -0.744  1.00  0.00     0.118 C 
HETATM   19  C23 UNL     1      -3.002  -3.547  -0.330  1.00  0.00     0.392 C 
HETATM   20  C24 UNL     1      -4.346  -2.844  -0.367  1.00  0.00     0.290 C 
HETATM   21  N5  UNL     1      -5.065  -2.662   0.795  1.00  0.00    -0.228 NA
HETATM   22  O3  UNL     1      -4.774  -2.432  -1.422  1.00  0.00    -0.268 OA
HETATM   23  N6  UNL     1      -3.035  -4.691  -1.230  1.00  0.00     0.627 N 
HETATM   24  O8  UNL     1       1.047   1.123  -1.613  1.00  0.00    -0.268 OA
HETATM   25  O10 UNL     1      -2.529   2.113   1.494  1.00  0.00    -0.268 OA
HETATM   26  O12 UNL     1      -5.635   0.260   1.438  1.00  0.00    -0.268 OA
ENDROOT
BRANCH  14  27
HETATM   27  C25 UNL     1       3.574  -0.275  -1.650  1.00  0.00     0.257 C 
HETATM   28  O4  UNL     1       2.947  -0.641  -2.617  1.00  0.00    -0.270 OA
HETATM   29  N7  UNL     1       4.852   0.287  -1.813  1.00  0.00    -0.312 N 
HETATM   30  C26 UNL     1       5.445   0.535  -3.111  1.00  0.00     0.105 C 
HETATM   31  C29 UNL     1       5.697   0.684  -0.701  1.00  0.00     0.165 C 
HETATM   32  C27 UNL     1       6.893   0.914  -2.793  1.00  0.00     0.027 C 
HETATM   33  C28 UNL     1       6.801   1.508  -1.375  1.00  0.00     0.034 C 
BRANCH  31  34
HETATM   34  C30 UNL     1       6.236  -0.523   0.027  1.00  0.00     0.272 C 
HETATM   35  N8  UNL     1       6.906  -0.336   1.203  1.00  0.00    -0.229 NA
HETATM   36  O7  UNL     1       6.084  -1.639  -0.416  1.00  0.00    -0.269 OA
BRANCH  35  37
HETATM   37  C31 UNL     1       7.438  -1.500   1.926  1.00  0.00     0.186 C 
BRANCH  37  38
HETATM   38  C32 UNL     1       6.309  -2.410   2.406  1.00  0.00     0.034 C 
BRANCH  38  39
HETATM   39  C33 UNL     1       6.643  -3.125   3.715  1.00  0.00     0.002 C 
HETATM   40  C34 UNL     1       5.449  -3.891   4.291  1.00  0.00     0.000 C 
HETATM   41  C35 UNL     1       7.902  -3.984   3.615  1.00  0.00     0.000 C 
ENDBRANCH  38  39
ENDBRANCH  37  38
BRANCH  37  42
HETATM   42  C36 UNL     1       8.463  -2.238   1.105  1.00  0.00     0.274 C 
HETATM   43  N9  UNL     1       9.674  -1.648   0.881  1.00  0.00    -0.226 NA
HETATM   44  O6  UNL     1       8.225  -3.334   0.652  1.00  0.00    -0.268 OA
BRANCH  43  45
HETATM   45  C37 UNL     1      10.686  -2.356   0.084  1.00  0.00     0.220 C 
BRANCH  45  46
HETATM   46  C38 UNL     1      11.309  -3.486   0.855  1.00  0.00     0.298 C 
HETATM   47  N10 UNL     1      12.289  -3.199   1.762  1.00  0.00    -0.105 N 
HETATM   48  O5  UNL     1      10.953  -4.629   0.684  1.00  0.00    -0.266 OA
ENDBRANCH  45  46
ENDBRANCH  43  45
ENDBRANCH  37  42
ENDBRANCH  35  37
ENDBRANCH  31  34
ENDBRANCH  14  27
BRANCH  11  49
HETATM   49  C39 UNL     1       1.709   3.660   0.822  1.00  0.00     0.126 C 
BRANCH  49  50
HETATM   50  C40 UNL     1       2.893   4.053  -0.021  1.00  0.00     0.276 C 
HETATM   51  N11 UNL     1       2.695   4.899  -1.074  1.00  0.00    -0.107 N 
HETATM   52  O9  UNL     1       3.998   3.631   0.223  1.00  0.00    -0.269 OA
ENDBRANCH  49  50
ENDBRANCH  11  49
BRANCH   8  53
HETATM   53  C41 UNL     1      -1.564   2.373  -1.920  1.00  0.00     0.044 C 
BRANCH  53  54
HETATM   54  C42 UNL     1      -2.375   2.568  -3.201  1.00  0.00     0.094 C 
BRANCH  54  55
HETATM   55  C43 UNL     1      -2.736   4.010  -3.440  1.00  0.00     0.274 C 
HETATM   56  N12 UNL     1      -3.963   4.299  -3.969  1.00  0.00    -0.107 N 
HETATM   57  O11 UNL     1      -1.963   4.899  -3.168  1.00  0.00    -0.269 OA
ENDBRANCH  54  55
ENDBRANCH  53  54
ENDBRANCH   8  53
BRANCH   1  58
HETATM   58  C7  UNL     1      -7.401  -2.559  -0.066  1.00  0.00     0.060 C 
BRANCH  58  59
HETATM   59  C2  UNL     1      -8.719  -1.887   0.066  1.00  0.00    -0.020 A 
HETATM   60  C1  UNL     1      -9.395  -1.900   1.299  1.00  0.00    -0.002 A 
HETATM   61  C6  UNL     1     -10.643  -1.266   1.422  1.00  0.00     0.027 A 
HETATM   62  C5  UNL     1     -11.219  -0.613   0.316  1.00  0.00     0.131 A 
HETATM   63  C4  UNL     1     -10.539  -0.602  -0.916  1.00  0.00     0.027 A 
HETATM   64  O1  UNL     1     -12.389  -0.020   0.434  1.00  0.00    -0.190 OA
HETATM   65  C3  UNL     1      -9.291  -1.236  -1.041  1.00  0.00    -0.002 A 
ENDBRANCH  58  59
ENDBRANCH   1  58
BRANCH   4  66
HETATM   66  C11 UNL     1      -6.592   2.486  -0.207  1.00  0.00     0.032 C 
HETATM   67  C14 UNL     1      -8.076   2.139  -0.109  1.00  0.00     0.003 C 
BRANCH  66  68
HETATM   68  C12 UNL     1      -5.955   2.742   1.160  1.00  0.00     0.002 C 
HETATM   69  C13 UNL     1      -5.893   4.229   1.514  1.00  0.00     0.000 C 
ENDBRANCH  66  68
ENDBRANCH   4  66
TORSDOF 17
