REMARK  4 active torsions:
REMARK  status: ('A' for Active; 'I' for Inactive)
REMARK    1  A    between atoms: C6_6  and  O1_7 
REMARK    2  A    between atoms: O1_7  and  C7_8 
REMARK    3  A    between atoms: C7_8  and  C8_9 
REMARK    4  A    between atoms: C8_9  and  C9_10 
ROOT
HETATM    1  C1  UNL     1      -1.113  -1.893  -1.141  1.00  0.00     0.047 A 
HETATM    2  C2  UNL     1      -0.979  -2.736  -2.207  1.00  0.00     0.104 A 
HETATM    3  C3  UNL     1       0.267  -3.195  -2.672  1.00  0.00     0.050 A 
HETATM    4  C4  UNL     1       1.422  -2.746  -1.980  1.00  0.00     0.107 A 
HETATM    5  C5  UNL     1       1.285  -1.861  -0.861  1.00  0.00     0.045 A 
HETATM    6  C6  UNL     1       0.004  -1.410  -0.412  1.00  0.00     0.098 A 
HETATM    7  C12 UNL     1       2.529  -1.420  -0.172  1.00  0.00     0.009 A 
HETATM    8  C13 UNL     1       3.721  -1.863  -0.617  1.00  0.00     0.069 A 
HETATM    9  C14 UNL     1       3.787  -2.775  -1.779  1.00  0.00     0.300 A 
HETATM   10  O3  UNL     1       2.644  -3.158  -2.385  1.00  0.00    -0.273 OA
HETATM   11  O4  UNL     1       4.873  -3.154  -2.154  1.00  0.00    -0.259 OA
HETATM   12  O5  UNL     1      -2.219  -3.051  -2.730  1.00  0.00    -0.305 OA
HETATM   13  C15 UNL     1      -3.127  -2.334  -1.900  1.00  0.00     0.123 A 
HETATM   14  C16 UNL     1      -2.418  -1.615  -0.912  1.00  0.00     0.031 A 
ENDROOT
BRANCH   6  15
HETATM   15  O1  UNL     1      -0.002  -0.582   0.645  1.00  0.00    -0.328 OA
BRANCH  15  16
HETATM   16  C7  UNL     1      -0.567   0.709   0.477  1.00  0.00     0.182 C 
BRANCH  16  17
HETATM   17  C8  UNL     1      -0.338   1.535   1.742  1.00  0.00     0.182 C 
HETATM   18  O2  UNL     1      -0.912   0.842   2.828  1.00  0.00    -0.221 OA
BRANCH  17  19
HETATM   19  C9  UNL     1      -0.979   2.922   1.668  1.00  0.00     0.033 C 
HETATM   20  C10 UNL     1      -0.758   3.742   2.938  1.00  0.00     0.003 C 
HETATM   21  C11 UNL     1      -0.590   3.682   0.398  1.00  0.00     0.003 C 
ENDBRANCH  17  19
ENDBRANCH  16  17
ENDBRANCH  15  16
ENDBRANCH   6  15
TORSDOF 4
