REMARK  7 active torsions:
REMARK  status: ('A' for Active; 'I' for Inactive)
REMARK    1  A    between atoms: C2_2  and  C7_7 
REMARK    2  A    between atoms: C7_7  and  O2_9 
REMARK    3  A    between atoms: O2_9  and  C8_10 
REMARK    4  A    between atoms: C8_10  and  C9_11 
REMARK    5  A    between atoms: C9_11  and  C10_12 
REMARK    6  A    between atoms: C9_11  and  C13_15 
REMARK    7  A    between atoms: C13_15  and  O4_17 
ROOT
HETATM    1  C8  UNL     1       0.534   0.158  -0.721  1.00  0.00     0.162 C 
HETATM    2  C15 UNL     1       0.110   0.663  -2.105  1.00  0.00     0.036 C 
ENDROOT
BRANCH   1   3
HETATM    3  O2  UNL     1       0.939  -1.173  -0.838  1.00  0.00    -0.298 OA
BRANCH   3   4
HETATM    4  C7  UNL     1       0.118  -2.264  -0.714  1.00  0.00     0.296 C 
HETATM    5  O1  UNL     1       0.688  -3.354  -0.775  1.00  0.00    -0.259 OA
BRANCH   4   6
HETATM    6  C2  UNL     1      -1.369  -2.366  -0.518  1.00  0.00     0.063 A 
HETATM    7  C1  UNL     1      -2.287  -1.318  -0.702  1.00  0.00     0.005 A 
HETATM    8  C6  UNL     1      -3.657  -1.505  -0.509  1.00  0.00     0.000 A 
HETATM    9  C5  UNL     1      -4.156  -2.753  -0.136  1.00  0.00     0.000 A 
HETATM   10  C4  UNL     1      -3.268  -3.811   0.045  1.00  0.00     0.000 A 
HETATM   11  C3  UNL     1      -1.897  -3.615  -0.141  1.00  0.00     0.005 A 
ENDBRANCH   4   6
ENDBRANCH   3   4
ENDBRANCH   1   3
BRANCH   1  12
HETATM   12  C9  UNL     1       1.700   0.961  -0.108  1.00  0.00     0.228 C 
HETATM   13  O5  UNL     1       2.797   0.884  -1.005  1.00  0.00    -0.213 OA
BRANCH  12  14
HETATM   14  C10 UNL     1       1.431   2.449   0.227  1.00  0.00     0.040 C 
HETATM   15  C11 UNL     1       0.062   2.706   0.883  1.00  0.00     0.003 C 
HETATM   16  C12 UNL     1       1.621   3.438  -0.941  1.00  0.00     0.003 C 
ENDBRANCH  12  14
BRANCH  12  17
HETATM   17  C13 UNL     1       2.237   0.284   1.159  1.00  0.00     0.302 C 
HETATM   18  O3  UNL     1       3.432   0.181   1.331  1.00  0.00    -0.261 OA
BRANCH  17  19
HETATM   19  O4  UNL     1       1.271  -0.147   2.009  1.00  0.00    -0.297 OA
HETATM   20  C14 UNL     1       1.718  -0.783   3.181  1.00  0.00     0.185 C 
ENDBRANCH  17  19
ENDBRANCH  12  17
ENDBRANCH   1  12
TORSDOF 7
