REMARK  1 active torsions:
REMARK  status: ('A' for Active; 'I' for Inactive)
REMARK    1  A    between atoms: C5_6  and  O7_26 
ROOT
HETATM    1  C1  UNL     1      -5.520   2.576   0.625  1.00  0.00     0.123 A 
HETATM    2  C2  UNL     1      -4.498   2.871  -0.303  1.00  0.00     0.029 A 
HETATM    3  C3  UNL     1      -3.502   2.002  -0.010  1.00  0.00     0.027 A 
HETATM    4  C4  UNL     1      -3.844   1.192   1.033  1.00  0.00     0.124 A 
HETATM    5  O1  UNL     1      -5.115   1.510   1.481  1.00  0.00    -0.303 OA
HETATM    6  C5  UNL     1      -3.012   0.178   1.557  1.00  0.00     0.139 A 
HETATM    7  C6  UNL     1      -1.746   0.024   0.920  1.00  0.00     0.121 A 
HETATM    8  C7  UNL     1      -1.348   0.897  -0.148  1.00  0.00     0.059 A 
HETATM    9  C8  UNL     1      -2.244   1.883  -0.641  1.00  0.00     0.007 A 
HETATM   10  C9  UNL     1       0.020   0.766  -0.736  1.00  0.00     0.181 C 
HETATM   11  C10 UNL     1       0.975  -0.117   0.068  1.00  0.00     0.116 C 
HETATM   12  C11 UNL     1       0.176  -1.363   0.508  1.00  0.00     0.163 C 
HETATM   13  O2  UNL     1      -0.922  -0.965   1.334  1.00  0.00    -0.328 OA
HETATM   14  C12 UNL     1       1.080  -2.355   1.240  1.00  0.00     0.179 C 
HETATM   15  O3  UNL     1       2.154  -2.738   0.373  1.00  0.00    -0.328 OA
HETATM   16  C13 UNL     1       2.799  -1.812  -0.373  1.00  0.00     0.093 A 
HETATM   17  C14 UNL     1       2.291  -0.494  -0.543  1.00  0.00     0.012 A 
HETATM   18  C15 UNL     1       3.069   0.436  -1.275  1.00  0.00     0.025 A 
HETATM   19  C16 UNL     1       4.293   0.067  -1.891  1.00  0.00     0.119 A 
HETATM   20  C17 UNL     1       4.762  -1.240  -1.756  1.00  0.00     0.121 A 
HETATM   21  C18 UNL     1       4.014  -2.174  -0.994  1.00  0.00     0.050 A 
HETATM   22  O4  UNL     1       5.914  -1.359  -2.418  1.00  0.00    -0.299 OA
HETATM   23  C19 UNL     1       6.248  -0.092  -3.021  1.00  0.00     0.304 A 
HETATM   24  O5  UNL     1       5.154   0.766  -2.629  1.00  0.00    -0.300 OA
HETATM   25  O6  UNL     1       0.397   1.297  -1.756  1.00  0.00    -0.291 OA
ENDROOT
BRANCH   6  26
HETATM   26  O7  UNL     1      -3.268  -0.666   2.568  1.00  0.00    -0.324 OA
HETATM   27  C20 UNL     1      -4.512  -0.543   3.240  1.00  0.00     0.182 C 
ENDBRANCH   6  26
TORSDOF 1
