REMARK  2 active torsions:
REMARK  status: ('A' for Active; 'I' for Inactive)
REMARK    1  A    between atoms: C15_16  and  C18_19 
REMARK    2  A    between atoms: C18_19  and  N2_21 
ROOT
HETATM    1  N1  UNL     1      -5.434   1.543   0.385  1.00  0.00    -0.290 NA
HETATM    2  C1  UNL     1      -3.969   1.574   0.332  1.00  0.00     0.126 C 
HETATM    3  C2  UNL     1      -3.389   0.740  -0.836  1.00  0.00     0.146 C 
HETATM    4  C3  UNL     1      -1.846   0.691  -0.779  1.00  0.00     0.030 C 
HETATM    5  C4  UNL     1      -1.285   0.191   0.582  1.00  0.00     0.002 C 
HETATM    6  C5  UNL     1      -1.877   1.070   1.707  1.00  0.00     0.002 C 
HETATM    7  C6  UNL     1      -3.412   1.107   1.688  1.00  0.00     0.026 C 
HETATM    8  C7  UNL     1       0.270   0.295   0.555  1.00  0.00     0.000 C 
HETATM    9  C8  UNL     1       0.861  -0.498  -0.635  1.00  0.00     0.000 C 
HETATM   10  C9  UNL     1       0.275  -0.027  -1.977  1.00  0.00     0.000 C 
HETATM   11  C10 UNL     1      -1.256  -0.088  -1.969  1.00  0.00     0.003 C 
HETATM   12  C11 UNL     1       2.400  -0.449  -0.684  1.00  0.00     0.000 C 
HETATM   13  C12 UNL     1       3.055  -0.822   0.654  1.00  0.00     0.002 C 
HETATM   14  C13 UNL     1       2.471   0.004   1.815  1.00  0.00     0.000 C 
HETATM   15  C14 UNL     1       0.943  -0.135   1.875  1.00  0.00     0.000 C 
HETATM   16  C15 UNL     1       4.516  -0.473   0.336  1.00  0.00     0.031 C 
HETATM   17  C16 UNL     1       4.430   0.863  -0.408  1.00  0.00     0.002 C 
HETATM   18  C17 UNL     1       3.026   0.908  -1.012  1.00  0.00     0.000 C 
HETATM   19  C22 UNL     1       2.932  -2.324   0.912  1.00  0.00     0.000 C 
HETATM   20  C23 UNL     1      -1.695  -1.270   0.826  1.00  0.00     0.000 C 
HETATM   21  O1  UNL     1      -3.904  -0.594  -0.822  1.00  0.00    -0.299 OA
HETATM   22  C24 UNL     1      -5.158  -0.832  -1.250  1.00  0.00     0.293 C 
HETATM   23  O2  UNL     1      -5.541  -1.973  -1.379  1.00  0.00    -0.259 OA
HETATM   24  C25 UNL     1      -6.133   0.242  -1.590  1.00  0.00     0.057 C 
HETATM   25  C26 UNL     1      -6.102   1.602  -0.916  1.00  0.00     0.151 C 
HETATM   26  C27 UNL     1      -7.094   0.027  -2.506  1.00  0.00    -0.041 C 
HETATM   27  C28 UNL     1      -7.311  -1.266  -3.248  1.00  0.00     0.026 C 
HETATM   28  C29 UNL     1      -8.039   1.150  -2.836  1.00  0.00     0.026 C 
ENDROOT
BRANCH  16  29
HETATM   29  C18 UNL     1       5.422  -0.395   1.561  1.00  0.00     0.219 C 
HETATM   30  C19 UNL     1       5.778  -1.807   2.024  1.00  0.00     0.035 C 
BRANCH  29  31
HETATM   31  N2  UNL     1       6.625   0.359   1.256  1.00  0.00     0.139 N 
HETATM   32  C20 UNL     1       7.268   0.811   2.479  1.00  0.00     0.285 C 
HETATM   33  C21 UNL     1       7.543  -0.443   0.465  1.00  0.00     0.285 C 
ENDBRANCH  29  31
ENDBRANCH  16  29
TORSDOF 2
