REMARK  0 active torsions:
REMARK  status: ('A' for Active; 'I' for Inactive)
ROOT
HETATM    1  C1  UNL     1       5.619  -1.377   0.643  1.00  0.00     0.065 C 
HETATM    2  C2  UNL     1       6.256  -0.394  -0.307  1.00  0.00     0.150 C 
HETATM    3  C3  UNL     1       5.389   0.076  -1.455  1.00  0.00     0.058 C 
HETATM    4  C4  UNL     1       4.020   0.600  -0.943  1.00  0.00     0.006 C 
HETATM    5  C5  UNL     1       3.324  -0.494  -0.072  1.00  0.00     0.001 C 
HETATM    6  C6  UNL     1       4.234  -0.910   1.107  1.00  0.00     0.008 C 
HETATM    7  C7  UNL     1       1.875  -0.111   0.371  1.00  0.00     0.000 C 
HETATM    8  C8  UNL     1       1.023   0.231  -0.889  1.00  0.00     0.000 C 
HETATM    9  C9  UNL     1       1.697   1.344  -1.721  1.00  0.00     0.000 C 
HETATM   10  C10 UNL     1       3.115   0.947  -2.143  1.00  0.00     0.000 C 
HETATM   11  C11 UNL     1      -0.482   0.516  -0.586  1.00  0.00     0.002 C 
HETATM   12  C12 UNL     1      -1.129  -0.680   0.182  1.00  0.00     0.000 C 
HETATM   13  C13 UNL     1      -0.283  -0.998   1.438  1.00  0.00     0.000 C 
HETATM   14  C14 UNL     1       1.193  -1.283   1.111  1.00  0.00     0.000 C 
HETATM   15  C15 UNL     1      -2.604  -0.338   0.600  1.00  0.00     0.002 C 
HETATM   16  C16 UNL     1      -3.408   0.496  -0.467  1.00  0.00     0.028 C 
HETATM   17  C17 UNL     1      -2.756   0.336  -1.863  1.00  0.00     0.152 C 
HETATM   18  C18 UNL     1      -1.268   0.762  -1.906  1.00  0.00     0.033 C 
HETATM   19  O1  UNL     1      -3.467   1.063  -2.852  1.00  0.00    -0.224 OA
HETATM   20  C19 UNL     1      -4.891   0.045  -0.512  1.00  0.00     0.002 C 
HETATM   21  C20 UNL     1      -5.477  -0.144   0.895  1.00  0.00     0.000 C 
HETATM   22  C21 UNL     1      -4.758  -1.260   1.689  1.00  0.00     0.000 C 
HETATM   23  C22 UNL     1      -3.389  -1.592   1.061  1.00  0.00     0.000 C 
HETATM   24  C23 UNL     1      -4.563  -0.814   3.145  1.00  0.00     0.000 C 
HETATM   25  C24 UNL     1      -5.615  -2.531   1.703  1.00  0.00     0.000 C 
HETATM   26  C25 UNL     1      -3.408   1.986  -0.070  1.00  0.00     0.003 C 
HETATM   27  C26 UNL     1      -1.113  -1.934  -0.713  1.00  0.00     0.000 C 
HETATM   28  C27 UNL     1      -0.574   1.793   0.270  1.00  0.00     0.000 C 
HETATM   29  C28 UNL     1       1.941   1.080   1.344  1.00  0.00     0.000 C 
HETATM   30  C29 UNL     1       4.268   1.881  -0.125  1.00  0.00     0.000 C 
HETATM   31  C30 UNL     1       6.123   1.106  -2.326  1.00  0.00     0.008 C 
HETATM   32  O2  UNL     1       7.393  -0.010  -0.148  1.00  0.00    -0.296 OA
ENDROOT
TORSDOF 0
