REMARK  4 active torsions:
REMARK  status: ('A' for Active; 'I' for Inactive)
REMARK    1  A    between atoms: C2_2  and  N2_26 
REMARK    2  A    between atoms: C15_15  and  C18_18 
REMARK    3  A    between atoms: C18_18  and  N1_19 
REMARK    4  A    between atoms: C25_28  and  C27_31 
ROOT
HETATM    1  C1  UNL     1       3.320   1.012   1.215  1.00  0.00     0.025 C 
HETATM    2  C2  UNL     1       3.922  -0.387   0.916  1.00  0.00     0.114 C 
HETATM    3  C3  UNL     1       3.024  -1.508   1.490  1.00  0.00     0.172 C 
HETATM    4  C4  UNL     1       1.510  -1.430   1.107  1.00  0.00     0.032 C 
HETATM    5  C5  UNL     1       1.066  -0.059   0.523  1.00  0.00     0.003 C 
HETATM    6  C6  UNL     1       1.777   1.051   1.328  1.00  0.00     0.002 C 
HETATM    7  C7  UNL     1      -0.478   0.041   0.637  1.00  0.00     0.000 C 
HETATM    8  C8  UNL     1      -1.180  -1.141  -0.090  1.00  0.00     0.000 C 
HETATM    9  C9  UNL     1      -0.615  -2.525   0.303  1.00  0.00     0.000 C 
HETATM   10  C10 UNL     1       0.918  -2.584   0.273  1.00  0.00     0.003 C 
HETATM   11  C11 UNL     1      -2.709  -1.096   0.133  1.00  0.00     0.000 C 
HETATM   12  C12 UNL     1      -3.332   0.301  -0.121  1.00  0.00     0.002 C 
HETATM   13  C13 UNL     1      -2.322   1.316  -0.672  1.00  0.00     0.000 C 
HETATM   14  C14 UNL     1      -1.035   1.410   0.166  1.00  0.00     0.000 C 
HETATM   15  C15 UNL     1      -3.885   0.734   1.248  1.00  0.00     0.031 C 
HETATM   16  C16 UNL     1      -4.367  -0.586   1.832  1.00  0.00     0.002 C 
HETATM   17  C17 UNL     1      -3.160  -1.469   1.555  1.00  0.00     0.000 C 
HETATM   18  C22 UNL     1      -4.498   0.131  -1.104  1.00  0.00     0.000 C 
HETATM   19  C23 UNL     1       1.439   0.076  -0.963  1.00  0.00     0.000 C 
HETATM   20  O1  UNL     1       3.582  -2.789   1.248  1.00  0.00    -0.222 OA
ENDROOT
BRANCH   2  21
HETATM   21  N2  UNL     1       4.250  -0.561  -0.504  1.00  0.00    -0.319 N 
HETATM   22  C24 UNL     1       4.877   0.285  -1.551  1.00  0.00     0.113 A 
HETATM   23  C25 UNL     1       4.717  -0.820  -2.584  1.00  0.00     0.101 A 
HETATM   24  C26 UNL     1       4.106  -1.588  -1.438  1.00  0.00     0.235 A 
HETATM   25  O2  UNL     1       3.641  -2.697  -1.332  1.00  0.00    -0.272 OA
BRANCH  23  26
HETATM   26  C27 UNL     1       5.863  -1.820  -2.740  1.00  0.00     0.011 C 
HETATM   27  C28 UNL     1       7.053  -1.133  -3.408  1.00  0.00     0.001 C 
HETATM   28  C29 UNL     1       5.371  -3.039  -3.522  1.00  0.00     0.001 C 
ENDBRANCH  23  26
ENDBRANCH   2  21
BRANCH  15  29
HETATM   29  C18 UNL     1      -5.004   1.771   1.191  1.00  0.00     0.219 C 
HETATM   30  C21 UNL     1      -5.566   1.992   2.598  1.00  0.00     0.035 C 
BRANCH  29  31
HETATM   31  N1  UNL     1      -4.510   3.021   0.641  1.00  0.00     0.139 N 
HETATM   32  C19 UNL     1      -5.613   3.842   0.170  1.00  0.00     0.285 C 
HETATM   33  C20 UNL     1      -3.727   3.742   1.631  1.00  0.00     0.285 C 
ENDBRANCH  29  31
ENDBRANCH  15  29
TORSDOF 4
