REMARK  2 active torsions:
REMARK  status: ('A' for Active; 'I' for Inactive)
REMARK    1  A    between atoms: C7_8  and  C10_12 
REMARK    2  A    between atoms: C14_16  and  O3_18 
ROOT
HETATM    1  C1  UNL     1      -4.773   0.183  -0.389  1.00  0.00     0.135 A 
HETATM    2  C2  UNL     1      -4.879  -1.229  -0.367  1.00  0.00     0.055 A 
HETATM    3  C3  UNL     1      -3.715  -2.031  -0.363  1.00  0.00     0.135 A 
HETATM    4  C4  UNL     1      -2.436  -1.414  -0.383  1.00  0.00     0.050 A 
HETATM    5  C5  UNL     1      -2.330   0.006  -0.402  1.00  0.00     0.104 A 
HETATM    6  C6  UNL     1      -3.502   0.801  -0.406  1.00  0.00     0.052 A 
HETATM    7  O1  UNL     1      -1.088   0.600  -0.420  1.00  0.00    -0.305 OA
HETATM    8  C7  UNL     1       0.080  -0.133  -0.418  1.00  0.00     0.125 A 
HETATM    9  C8  UNL     1       0.020  -1.547  -0.398  1.00  0.00     0.154 A 
HETATM   10  C9  UNL     1      -1.244  -2.182  -0.381  1.00  0.00     0.034 A 
HETATM   11  O2  UNL     1       1.137  -2.289  -0.397  1.00  0.00    -0.188 OA
HETATM   12  O5  UNL     1      -3.842  -3.367  -0.344  1.00  0.00    -0.190 OA
HETATM   13  O6  UNL     1      -5.883   0.935  -0.393  1.00  0.00    -0.190 OA
ENDROOT
BRANCH   8  14
HETATM   14  C10 UNL     1       1.350   0.580  -0.436  1.00  0.00     0.027 A 
HETATM   15  C11 UNL     1       1.686   1.394  -1.533  1.00  0.00     0.004 A 
HETATM   16  C12 UNL     1       2.912   2.082  -1.545  1.00  0.00     0.029 A 
HETATM   17  C13 UNL     1       3.805   1.959  -0.467  1.00  0.00     0.153 A 
HETATM   18  C14 UNL     1       3.469   1.144   0.631  1.00  0.00     0.119 A 
HETATM   19  O4  UNL     1       4.953   2.605  -0.488  1.00  0.00    -0.188 OA
HETATM   20  C15 UNL     1       2.242   0.457   0.644  1.00  0.00     0.028 A 
BRANCH  18  21
HETATM   21  O3  UNL     1       4.303   1.023   1.646  1.00  0.00    -0.326 OA
HETATM   22  C16 UNL     1       3.856   0.314   2.793  1.00  0.00     0.181 C 
ENDBRANCH  18  21
ENDBRANCH   8  14
TORSDOF 2
