REMARK  7 active torsions:
REMARK  status: ('A' for Active; 'I' for Inactive)
REMARK    1  A    between atoms: C2_2  and  O12_31 
REMARK    2  A    between atoms: C5_5  and  C18_28 
REMARK    3  A    between atoms: C6_6  and  O1_7 
REMARK    4  A    between atoms: O1_7  and  C7_8 
REMARK    5  A    between atoms: C11_12  and  C12_14 
REMARK    6  A    between atoms: C12_14  and  O3_15 
REMARK    7  A    between atoms: O3_15  and  C13_16 
ROOT
HETATM    1  C7  UNL     1       2.971   0.008  -0.869  1.00  0.00     0.274 C 
HETATM    2  C8  UNL     1       4.025   1.016  -0.363  1.00  0.00     0.241 C 
HETATM    3  C9  UNL     1       4.375   0.758   1.119  1.00  0.00     0.220 C 
HETATM    4  C10 UNL     1       3.076   0.674   1.953  1.00  0.00     0.215 C 
HETATM    5  C11 UNL     1       2.064  -0.313   1.326  1.00  0.00     0.180 C 
HETATM    6  O2  UNL     1       1.826   0.049  -0.029  1.00  0.00    -0.326 OA
HETATM    7  O8  UNL     1       3.379   0.238   3.268  1.00  0.00    -0.218 OA
HETATM    8  O9  UNL     1       5.195   1.807   1.607  1.00  0.00    -0.218 OA
HETATM    9  O10 UNL     1       5.188   0.895  -1.164  1.00  0.00    -0.215 OA
ENDROOT
BRANCH   1  10
HETATM   10  O1  UNL     1       2.578   0.338  -2.195  1.00  0.00    -0.303 OA
BRANCH  10  11
HETATM   11  C6  UNL     1       1.396   0.896  -2.371  1.00  0.00     0.102 A 
HETATM   12  C1  UNL     1       1.121   2.141  -1.779  1.00  0.00     0.049 A 
HETATM   13  C2  UNL     1      -0.135   2.752  -1.955  1.00  0.00     0.096 A 
HETATM   14  C3  UNL     1      -1.117   2.109  -2.729  1.00  0.00     0.024 A 
HETATM   15  C4  UNL     1      -0.848   0.865  -3.322  1.00  0.00     0.007 A 
HETATM   16  C5  UNL     1       0.408   0.258  -3.146  1.00  0.00     0.057 A 
BRANCH  13  17
HETATM   17  O12 UNL     1      -0.387   3.918  -1.398  1.00  0.00    -0.328 OA
HETATM   18  C20 UNL     1      -1.643   4.525  -1.662  1.00  0.00     0.181 C 
ENDBRANCH  13  17
BRANCH  16  19
HETATM   19  C18 UNL     1       0.684  -1.066  -3.783  1.00  0.00     0.175 C 
HETATM   20  O11 UNL     1       1.754  -1.611  -3.647  1.00  0.00    -0.291 OA
HETATM   21  C19 UNL     1      -0.410  -1.701  -4.598  1.00  0.00     0.077 C 
ENDBRANCH  16  19
ENDBRANCH  10  11
ENDBRANCH   1  10
BRANCH   5  22
HETATM   22  C12 UNL     1       0.705  -0.303   2.031  1.00  0.00     0.177 C 
BRANCH  22  23
HETATM   23  O3  UNL     1      -0.076  -1.348   1.496  1.00  0.00    -0.326 OA
BRANCH  23  24
HETATM   24  C13 UNL     1      -1.344  -1.465   2.113  1.00  0.00     0.270 C 
HETATM   25  C14 UNL     1      -2.059  -2.760   1.641  1.00  0.00     0.241 C 
HETATM   26  C15 UNL     1      -3.504  -2.828   2.186  1.00  0.00     0.220 C 
HETATM   27  O7  UNL     1      -1.332  -3.891   2.092  1.00  0.00    -0.215 OA
HETATM   28  C16 UNL     1      -4.238  -1.504   1.885  1.00  0.00     0.215 C 
HETATM   29  O6  UNL     1      -4.195  -3.908   1.582  1.00  0.00    -0.218 OA
HETATM   30  C17 UNL     1      -3.416  -0.289   2.357  1.00  0.00     0.181 C 
HETATM   31  O5  UNL     1      -5.492  -1.475   2.543  1.00  0.00    -0.218 OA
HETATM   32  O4  UNL     1      -2.123  -0.328   1.768  1.00  0.00    -0.326 OA
ENDBRANCH  23  24
ENDBRANCH  22  23
ENDBRANCH   5  22
TORSDOF 7
