REMARK  5 active torsions:
REMARK  status: ('A' for Active; 'I' for Inactive)
REMARK    1  A    between atoms: C2_2  and  O8_22 
REMARK    2  A    between atoms: C5_5  and  C13_19 
REMARK    3  A    between atoms: C6_6  and  O1_7 
REMARK    4  A    between atoms: O1_7  and  C7_8 
REMARK    5  A    between atoms: C11_12  and  C12_14 
ROOT
HETATM    1  O1  UNL     1       0.699   0.434  -0.871  1.00  0.00    -0.303 OA
ENDROOT
BRANCH   1   2
HETATM    2  C6  UNL     1       1.367  -0.387  -0.086  1.00  0.00     0.102 A 
HETATM    3  C1  UNL     1       0.666  -1.219   0.809  1.00  0.00     0.049 A 
HETATM    4  C2  UNL     1       1.360  -2.102   1.655  1.00  0.00     0.096 A 
HETATM    5  C3  UNL     1       2.764  -2.152   1.606  1.00  0.00     0.024 A 
HETATM    6  C4  UNL     1       3.469  -1.326   0.715  1.00  0.00     0.007 A 
HETATM    7  C5  UNL     1       2.774  -0.443  -0.131  1.00  0.00     0.057 A 
BRANCH   4   8
HETATM    8  O8  UNL     1       0.698  -2.875   2.489  1.00  0.00    -0.328 OA
HETATM    9  C15 UNL     1       1.434  -3.830   3.239  1.00  0.00     0.181 C 
ENDBRANCH   4   8
BRANCH   7  10
HETATM   10  C13 UNL     1       3.535   0.432  -1.074  1.00  0.00     0.175 C 
HETATM   11  O7  UNL     1       2.961   1.135  -1.871  1.00  0.00    -0.291 OA
HETATM   12  C14 UNL     1       5.039   0.410  -1.002  1.00  0.00     0.077 C 
ENDBRANCH   7  10
ENDBRANCH   1   2
BRANCH   1  13
HETATM   13  C7  UNL     1      -0.562   0.910  -0.424  1.00  0.00     0.274 C 
HETATM   14  C8  UNL     1      -0.816   2.330  -0.969  1.00  0.00     0.241 C 
HETATM   15  C9  UNL     1      -2.236   2.822  -0.607  1.00  0.00     0.220 C 
HETATM   16  O6  UNL     1       0.153   3.205  -0.420  1.00  0.00    -0.215 OA
HETATM   17  C10 UNL     1      -3.275   1.754  -1.015  1.00  0.00     0.215 C 
HETATM   18  O5  UNL     1      -2.508   4.041  -1.279  1.00  0.00    -0.218 OA
HETATM   19  C11 UNL     1      -2.894   0.357  -0.469  1.00  0.00     0.184 C 
HETATM   20  O4  UNL     1      -4.551   2.105  -0.510  1.00  0.00    -0.218 OA
HETATM   21  O2  UNL     1      -1.576   0.029  -0.889  1.00  0.00    -0.326 OA
BRANCH  19  22
HETATM   22  C12 UNL     1      -3.810  -0.756  -0.984  1.00  0.00     0.214 C 
HETATM   23  O3  UNL     1      -3.449  -1.957  -0.342  1.00  0.00    -0.218 OA
ENDBRANCH  19  22
ENDBRANCH   1  13
TORSDOF 5
