REMARK  2 active torsions:
REMARK  status: ('A' for Active; 'I' for Inactive)
REMARK    1  A    between atoms: C9_9  and  O1_11 
REMARK    2  A    between atoms: C16_19  and  O4_23 
ROOT
HETATM    1  C1  UNL     1      -1.674  -1.477   0.848  1.00  0.00     0.243 C 
HETATM    2  C2  UNL     1      -0.289  -2.302   1.078  1.00  0.00     0.064 C 
HETATM    3  C3  UNL     1       0.964  -1.675   0.377  1.00  0.00    -0.021 A 
HETATM    4  C4  UNL     1       0.861  -0.507  -0.469  1.00  0.00    -0.017 A 
HETATM    5  C5  UNL     1      -0.459   0.017  -0.759  1.00  0.00     0.058 C 
HETATM    6  C6  UNL     1      -1.174  -0.131   0.581  1.00  0.00    -0.003 C 
HETATM    7  C7  UNL     1      -1.175   0.850   1.470  1.00  0.00     0.038 C 
HETATM    8  C8  UNL     1      -0.592   2.163   1.119  1.00  0.00     0.217 C 
HETATM    9  C9  UNL     1      -0.234   2.436  -0.348  1.00  0.00     0.129 C 
HETATM   10  C10 UNL     1      -0.247   1.430  -1.218  1.00  0.00     0.009 C 
HETATM   11  O2  UNL     1      -0.505   3.011   2.004  1.00  0.00    -0.284 OA
HETATM   12  C12 UNL     1      -0.894  -1.034  -1.833  1.00  0.00     0.047 C 
HETATM   13  C13 UNL     1      -2.334  -1.174  -1.691  1.00  0.00     0.252 C 
HETATM   14  N1  UNL     1      -2.639  -1.821  -0.338  1.00  0.00     0.141 N 
HETATM   15  C14 UNL     1      -3.974  -1.274  -0.023  1.00  0.00     0.286 C 
HETATM   16  C15 UNL     1       1.937   0.102  -0.932  1.00  0.00     0.022 A 
HETATM   17  C16 UNL     1       3.277  -0.320  -0.607  1.00  0.00     0.119 A 
HETATM   18  C17 UNL     1       3.413  -1.416   0.206  1.00  0.00     0.153 A 
HETATM   19  C18 UNL     1       2.183  -2.102   0.699  1.00  0.00     0.025 A 
HETATM   20  O3  UNL     1       4.620  -1.992   0.687  1.00  0.00    -0.188 OA
ENDROOT
BRANCH   9  21
HETATM   21  O1  UNL     1       0.175   3.712  -0.872  1.00  0.00    -0.325 OA
HETATM   22  C11 UNL     1       0.288   4.788   0.060  1.00  0.00     0.181 C 
ENDBRANCH   9  21
BRANCH  17  23
HETATM   23  O4  UNL     1       4.279   0.568  -1.208  1.00  0.00    -0.326 OA
HETATM   24  C19 UNL     1       5.675   0.407  -1.005  1.00  0.00     0.181 C 
ENDBRANCH  17  23
TORSDOF 2
