REMARK  13 active torsions:
REMARK  status: ('A' for Active; 'I' for Inactive)
REMARK    1  A    between atoms: C2_2  and  C3_3 
REMARK    2  A    between atoms: C3_3  and  C4_4 
REMARK    3  A    between atoms: C4_4  and  C5_5 
REMARK    4  A    between atoms: C5_5  and  C6_6 
REMARK    5  A    between atoms: C6_6  and  C7_7 
REMARK    6  A    between atoms: C8_8  and  C9_9 
REMARK    7  A    between atoms: C9_9  and  C10_10 
REMARK    8  A    between atoms: C10_10  and  C11_11 
REMARK    9  A    between atoms: C11_11  and  C12_12 
REMARK   10  A    between atoms: C12_12  and  C13_13 
REMARK   11  A    between atoms: C13_13  and  C14_14 
REMARK   12  A    between atoms: C14_14  and  C15_15 
REMARK   13  A    between atoms: C15_15  and  C16_16 
ROOT
HETATM    1  C9  UNL     1       0.687   0.160   2.090  1.00  0.00     0.026 C 
ENDROOT
BRANCH   1   2
HETATM    2  C8  UNL     1      -0.817   0.160   2.090  1.00  0.00    -0.031 C 
HETATM    3  C7  UNL     1      -1.457  -1.019   2.090  1.00  0.00    -0.031 C 
BRANCH   3   4
HETATM    4  C6  UNL     1      -2.963  -1.019   2.090  1.00  0.00     0.026 C 
BRANCH   4   5
HETATM    5  C5  UNL     1      -3.547  -1.764   0.891  1.00  0.00     0.005 C 
BRANCH   5   6
HETATM    6  C4  UNL     1      -5.074  -1.740   0.865  1.00  0.00     0.000 C 
BRANCH   6   7
HETATM    7  C3  UNL     1      -5.658  -2.486  -0.334  1.00  0.00     0.000 C 
BRANCH   7   8
HETATM    8  C2  UNL     1      -7.188  -2.463  -0.357  1.00  0.00     0.000 C 
HETATM    9  C1  UNL     1      -7.770  -3.203  -1.562  1.00  0.00     0.000 C 
ENDBRANCH   7   8
ENDBRANCH   6   7
ENDBRANCH   5   6
ENDBRANCH   4   5
ENDBRANCH   3   4
ENDBRANCH   1   2
BRANCH   1  10
HETATM   10  C10 UNL     1       1.271   0.928   0.903  1.00  0.00     0.005 C 
BRANCH  10  11
HETATM   11  C11 UNL     1       2.801   0.904   0.881  1.00  0.00     0.000 C 
BRANCH  11  12
HETATM   12  C12 UNL     1       3.383   1.674  -0.306  1.00  0.00     0.000 C 
BRANCH  12  13
HETATM   13  C13 UNL     1       4.912   1.654  -0.328  1.00  0.00     0.001 C 
BRANCH  13  14
HETATM   14  C14 UNL     1       5.496   2.420  -1.515  1.00  0.00     0.011 C 
BRANCH  14  15
HETATM   15  C15 UNL     1       7.023   2.397  -1.539  1.00  0.00     0.098 C 
BRANCH  15  16
HETATM   16  C16 UNL     1       7.592   3.133  -2.722  1.00  0.00     0.185 C 
HETATM   17  O1  UNL     1       8.785   2.713  -3.133  1.00  0.00    -0.647 OA
HETATM   18  O2  UNL     1       6.980   4.039  -3.242  1.00  0.00    -0.647 OA
ENDBRANCH  15  16
ENDBRANCH  14  15
ENDBRANCH  13  14
ENDBRANCH  12  13
ENDBRANCH  11  12
ENDBRANCH  10  11
ENDBRANCH   1  10
TORSDOF 13
