REMARK  20 active torsions:
REMARK  status: ('A' for Active; 'I' for Inactive)
REMARK    1  A    between atoms: C4_4  and  C34_40 
REMARK    2  A    between atoms: C9_9  and  O4_20 
REMARK    3  A    between atoms: C10_10  and  O2_16 
REMARK    4  A    between atoms: C12_12  and  C14_14 
REMARK    5  A    between atoms: O2_16  and  C15_17 
REMARK    6  A    between atoms: O4_20  and  C17_21 
REMARK    7  A    between atoms: C17_21  and  C18_22 
REMARK    8  A    between atoms: C18_22  and  C19_23 
REMARK    9  A    between atoms: C19_23  and  C20_24 
REMARK   10  A    between atoms: C20_24  and  C21_25 
REMARK   11  A    between atoms: C21_25  and  C22_26 
REMARK   12  A    between atoms: C22_26  and  C23_27 
REMARK   13  A    between atoms: C23_27  and  C24_28 
REMARK   14  A    between atoms: C24_28  and  C25_29 
REMARK   15  A    between atoms: C25_29  and  C26_30 
REMARK   16  A    between atoms: C26_30  and  C27_31 
REMARK   17  A    between atoms: C27_31  and  C28_32 
REMARK   18  A    between atoms: C28_32  and  C29_33 
REMARK   19  A    between atoms: C29_33  and  C30_34 
REMARK   20  A    between atoms: C30_34  and  C31_35 
ROOT
HETATM    1  C1  UNL     1       7.654   1.246  -2.522  1.00  0.00     0.086 C 
HETATM    2  C2  UNL     1       8.182   2.619  -2.006  1.00  0.00     0.191 C 
HETATM    3  C3  UNL     1       8.221   3.711  -3.111  1.00  0.00     0.063 C 
HETATM    4  C4  UNL     1       7.373   3.514  -4.363  1.00  0.00    -0.013 C 
HETATM    5  C5  UNL     1       6.172   2.893  -4.406  1.00  0.00    -0.030 C 
HETATM    6  C6  UNL     1       5.467   2.330  -3.186  1.00  0.00     0.052 C 
HETATM    7  C7  UNL     1       6.110   1.037  -2.606  1.00  0.00     0.139 C 
HETATM    8  C8  UNL     1       5.360   0.684  -1.289  1.00  0.00     0.059 C 
HETATM    9  C9  UNL     1       3.871   0.344  -1.545  1.00  0.00     0.152 C 
HETATM   10  C10 UNL     1       3.082   1.147  -2.617  1.00  0.00     0.129 A 
HETATM   11  C11 UNL     1       3.947   2.154  -3.387  1.00  0.00     0.039 A 
HETATM   12  C12 UNL     1       2.986   2.650  -2.340  1.00  0.00     0.059 A 
HETATM   13  C13 UNL     1       3.494   3.227  -1.020  1.00  0.00     0.005 C 
HETATM   14  C33 UNL     1       6.012  -0.443  -0.479  1.00  0.00     0.005 C 
HETATM   15  O6  UNL     1       5.901  -0.029  -3.523  1.00  0.00    -0.225 OA
HETATM   16  C35 UNL     1       9.520   2.238  -1.420  1.00  0.00     0.197 C 
HETATM   17  C36 UNL     1       9.561   0.793  -1.234  1.00  0.00     0.011 C 
HETATM   18  C37 UNL     1       8.502   0.213  -1.807  1.00  0.00    -0.022 C 
HETATM   19  C38 UNL     1      10.645   0.055  -0.494  1.00  0.00     0.034 C 
HETATM   20  O8  UNL     1      10.414   3.006  -1.148  1.00  0.00    -0.289 OA
HETATM   21  O9  UNL     1       7.422   3.086  -0.904  1.00  0.00    -0.217 OA
ENDROOT
BRANCH   9  22
HETATM   22  O4  UNL     1       3.164   0.410  -0.313  1.00  0.00    -0.302 OA
BRANCH  22  23
HETATM   23  C17 UNL     1       2.119  -0.412  -0.283  1.00  0.00     0.272 C 
HETATM   24  O5  UNL     1       2.086  -1.480  -0.848  1.00  0.00    -0.264 OA
BRANCH  23  25
HETATM   25  C18 UNL     1       0.941   0.078   0.518  1.00  0.00     0.096 C 
BRANCH  25  26
HETATM   26  C19 UNL     1      -0.197  -0.939   0.563  1.00  0.00     0.010 C 
BRANCH  26  27
HETATM   27  C20 UNL     1      -1.391  -0.455   1.385  1.00  0.00     0.001 C 
BRANCH  27  28
HETATM   28  C21 UNL     1      -2.531  -1.473   1.428  1.00  0.00     0.000 C 
BRANCH  28  29
HETATM   29  C22 UNL     1      -3.725  -0.986   2.252  1.00  0.00     0.000 C 
BRANCH  29  30
HETATM   30  C23 UNL     1      -4.865  -2.004   2.295  1.00  0.00     0.000 C 
BRANCH  30  31
HETATM   31  C24 UNL     1      -6.059  -1.520   3.117  1.00  0.00     0.000 C 
BRANCH  31  32
HETATM   32  C25 UNL     1      -7.199  -2.537   3.160  1.00  0.00     0.000 C 
BRANCH  32  33
HETATM   33  C26 UNL     1      -8.393  -2.051   3.984  1.00  0.00     0.000 C 
BRANCH  33  34
HETATM   34  C27 UNL     1      -9.531  -3.068   4.027  1.00  0.00     0.000 C 
BRANCH  34  35
HETATM   35  C28 UNL     1     -10.725  -2.582   4.850  1.00  0.00     0.000 C 
BRANCH  35  36
HETATM   36  C29 UNL     1     -11.865  -3.600   4.895  1.00  0.00     0.000 C 
BRANCH  36  37
HETATM   37  C30 UNL     1     -13.059  -3.115   5.717  1.00  0.00     0.000 C 
BRANCH  37  38
HETATM   38  C31 UNL     1     -14.199  -4.133   5.760  1.00  0.00     0.000 C 
HETATM   39  C32 UNL     1     -15.393  -3.647   6.582  1.00  0.00     0.000 C 
ENDBRANCH  37  38
ENDBRANCH  36  37
ENDBRANCH  35  36
ENDBRANCH  34  35
ENDBRANCH  33  34
ENDBRANCH  32  33
ENDBRANCH  31  32
ENDBRANCH  30  31
ENDBRANCH  29  30
ENDBRANCH  28  29
ENDBRANCH  27  28
ENDBRANCH  26  27
ENDBRANCH  25  26
ENDBRANCH  23  25
ENDBRANCH  22  23
ENDBRANCH   9  22
BRANCH  10  40
HETATM   40  O2  UNL     1       2.137   0.139  -2.959  1.00  0.00    -0.304 OA
BRANCH  40  41
HETATM   41  C15 UNL     1       2.391  -0.414  -4.143  1.00  0.00     0.272 C 
HETATM   42  C16 UNL     1       1.346  -1.377  -4.637  1.00  0.00     0.106 C 
HETATM   43  O3  UNL     1       3.381  -0.180  -4.797  1.00  0.00    -0.264 OA
ENDBRANCH  40  41
ENDBRANCH  10  40
BRANCH  12  44
HETATM   44  C14 UNL     1       1.727   3.340  -2.846  1.00  0.00     0.185 C 
HETATM   45  O1  UNL     1       2.113   4.449  -3.623  1.00  0.00    -0.221 OA
ENDBRANCH  12  44
BRANCH   4  46
HETATM   46  C34 UNL     1       7.947   4.051  -5.650  1.00  0.00     0.204 C 
HETATM   47  O7  UNL     1       7.385   5.315  -5.922  1.00  0.00    -0.216 OA
ENDBRANCH   4  46
TORSDOF 20
