REMARK  3 active torsions:
REMARK  status: ('A' for Active; 'I' for Inactive)
REMARK    1  A    between atoms: C3_3  and  C16_21 
REMARK    2  A    between atoms: N3_14  and  C15_18 
REMARK    3  A    between atoms: C16_21  and  C17_22 
ROOT
HETATM    1  C1  UNL     1       2.172   1.523  -1.512  1.00  0.00    -0.027 C 
HETATM    2  C2  UNL     1       2.393   0.207  -1.660  1.00  0.00    -0.007 C 
HETATM    3  C3  UNL     1       2.057  -0.811  -0.588  1.00  0.00     0.130 C 
HETATM    4  N1  UNL     1       1.344  -0.273   0.602  1.00  0.00    -0.365 N 
HETATM    5  C4  UNL     1       0.641   1.023   0.444  1.00  0.00     0.091 C 
HETATM    6  C5  UNL     1       1.572   2.045  -0.236  1.00  0.00     0.048 C 
HETATM    7  C6  UNL     1       0.115   1.627   1.783  1.00  0.00     0.112 C 
HETATM    8  C7  UNL     1      -1.363   1.971   1.815  1.00  0.00     0.253 C 
HETATM    9  N2  UNL     1      -1.971   2.535   0.715  1.00  0.00    -0.238 NA
HETATM   10  C8  UNL     1      -3.420   2.842   0.656  1.00  0.00     0.129 C 
HETATM   11  C9  UNL     1      -4.111   2.127  -0.523  1.00  0.00     0.028 C 
HETATM   12  C10 UNL     1      -4.609   0.689  -0.244  1.00  0.00     0.026 C 
HETATM   13  C11 UNL     1      -3.598  -0.322   0.340  1.00  0.00     0.105 C 
HETATM   14  N3  UNL     1      -2.453  -0.684  -0.545  1.00  0.00    -0.313 N 
HETATM   15  C12 UNL     1      -1.451  -1.691  -0.092  1.00  0.00     0.106 C 
HETATM   16  C13 UNL     1      -0.855  -1.428   1.313  1.00  0.00     0.048 C 
HETATM   17  C14 UNL     1       0.688  -1.334   1.406  1.00  0.00     0.099 C 
HETATM   18  O2  UNL     1      -2.008   1.736   2.813  1.00  0.00    -0.271 OA
ENDROOT
BRANCH   3  19
HETATM   19  C16 UNL     1       3.346  -1.496  -0.127  1.00  0.00     0.176 C 
HETATM   20  O3  UNL     1       4.213  -0.510   0.383  1.00  0.00    -0.221 OA
BRANCH  19  21
HETATM   21  C17 UNL     1       4.067  -2.225  -1.264  1.00  0.00     0.035 C 
HETATM   22  C18 UNL     1       5.141  -3.188  -0.760  1.00  0.00     0.003 C 
ENDBRANCH  19  21
ENDBRANCH   3  19
BRANCH  14  23
HETATM   23  C15 UNL     1      -2.312  -0.133  -1.793  1.00  0.00     0.313 C 
HETATM   24  O1  UNL     1      -1.322  -0.355  -2.449  1.00  0.00    -0.262 OA
ENDBRANCH  14  23
TORSDOF 3
