REMARK  1 active torsions:
REMARK  status: ('A' for Active; 'I' for Inactive)
REMARK    1  A    between atoms: C15_17  and  C18_20 
ROOT
HETATM    1  C1  UNL     1       5.068   0.395   0.861  1.00  0.00     0.033 C 
HETATM    2  C2  UNL     1       5.484  -0.719  -0.135  1.00  0.00     0.152 C 
HETATM    3  C3  UNL     1       4.701  -2.031   0.094  1.00  0.00     0.031 C 
HETATM    4  C4  UNL     1       3.150  -1.803  -0.031  1.00  0.00     0.033 C 
HETATM    5  C5  UNL     1       2.645  -0.379   0.404  1.00  0.00     0.003 C 
HETATM    6  C6  UNL     1       3.637   0.229   1.424  1.00  0.00     0.003 C 
HETATM    7  C7  UNL     1       1.203  -0.434   1.008  1.00  0.00     0.003 C 
HETATM    8  C8  UNL     1       0.258  -1.389   0.211  1.00  0.00     0.003 C 
HETATM    9  C9  UNL     1       0.813  -2.850   0.170  1.00  0.00     0.033 C 
HETATM   10  C10 UNL     1       2.305  -2.979   0.535  1.00  0.00     0.152 C 
HETATM   11  O1  UNL     1       2.412  -3.078   1.947  1.00  0.00    -0.224 OA
HETATM   12  C11 UNL     1      -1.141  -1.361   0.912  1.00  0.00     0.003 C 
HETATM   13  C12 UNL     1      -1.744   0.049   1.184  1.00  0.00     0.033 C 
HETATM   14  C13 UNL     1      -0.824   1.236   0.828  1.00  0.00     0.152 C 
HETATM   15  C14 UNL     1       0.615   0.977   1.311  1.00  0.00     0.033 C 
HETATM   16  O2  UNL     1      -0.826   1.543  -0.555  1.00  0.00    -0.224 OA
HETATM   17  C15 UNL     1      -3.150   0.023   0.553  1.00  0.00     0.028 C 
HETATM   18  C16 UNL     1      -3.012  -0.969  -0.596  1.00  0.00     0.002 C 
HETATM   19  C17 UNL     1      -2.223  -2.084   0.080  1.00  0.00     0.000 C 
HETATM   20  C26 UNL     1      -1.092  -2.066   2.277  1.00  0.00     0.000 C 
HETATM   21  C27 UNL     1       0.119  -0.938  -1.256  1.00  0.00     0.000 C 
HETATM   22  C28 UNL     1       2.607   0.555  -0.826  1.00  0.00     0.000 C 
HETATM   23  C29 UNL     1       5.143  -3.102  -0.920  1.00  0.00     0.003 C 
HETATM   24  C30 UNL     1       5.117  -2.557   1.479  1.00  0.00     0.003 C 
HETATM   25  O4  UNL     1       5.315  -0.264  -1.465  1.00  0.00    -0.224 OA
ENDROOT
BRANCH  17  26
HETATM   26  C18 UNL     1      -3.711   1.367   0.092  1.00  0.00     0.093 C 
HETATM   27  C19 UNL     1      -5.240   1.244  -0.062  1.00  0.00     0.027 C 
HETATM   28  C20 UNL     1      -5.838   2.479  -0.742  1.00  0.00     0.005 C 
HETATM   29  C21 UNL     1      -5.098   2.744  -2.057  1.00  0.00     0.027 C 
HETATM   30  C22 UNL     1      -3.568   2.834  -1.855  1.00  0.00     0.093 C 
HETATM   31  O3  UNL     1      -3.100   1.672  -1.164  1.00  0.00    -0.364 OA
HETATM   32  C23 UNL     1      -2.854   2.826  -3.207  1.00  0.00     0.030 C 
HETATM   33  C24 UNL     1      -3.164   4.096  -1.082  1.00  0.00     0.030 C 
HETATM   34  C25 UNL     1      -3.281   2.373   1.168  1.00  0.00     0.030 C 
ENDBRANCH  17  26
TORSDOF 1
