REMARK  0 active torsions:
REMARK  status: ('A' for Active; 'I' for Inactive)
ROOT
HETATM    1  C1  UNL     1       3.111   0.711   0.611  1.00  0.00     0.121 A 
HETATM    2  C2  UNL     1       3.690  -0.402  -0.002  1.00  0.00     0.144 A 
HETATM    3  C3  UNL     1       2.885  -1.467  -0.486  1.00  0.00     0.159 C 
HETATM    4  C4  UNL     1       1.471  -1.396  -0.328  1.00  0.00     0.081 C 
HETATM    5  C5  UNL     1       0.879  -0.312   0.385  1.00  0.00    -0.009 C 
HETATM    6  C6  UNL     1       1.709   0.762   0.785  1.00  0.00     0.022 C 
HETATM    7  C7  UNL     1      -0.600  -0.424   0.648  1.00  0.00     0.081 C 
HETATM    8  C8  UNL     1      -1.271  -0.844  -0.688  1.00  0.00     0.146 C 
HETATM    9  N1  UNL     1      -0.764  -2.193  -1.066  1.00  0.00    -0.233 NA
HETATM   10  C9  UNL     1       0.586  -2.469  -0.922  1.00  0.00     0.277 C 
HETATM   11  O1  UNL     1       0.951  -3.559  -1.299  1.00  0.00    -0.266 OA
HETATM   12  C10 UNL     1      -2.809  -0.682  -0.623  1.00  0.00     0.208 C 
HETATM   13  C11 UNL     1      -3.182   0.830  -0.467  1.00  0.00     0.217 C 
HETATM   14  C12 UNL     1      -2.150   1.625   0.395  1.00  0.00     0.215 C 
HETATM   15  C13 UNL     1      -1.426   0.686   1.385  1.00  0.00     0.191 C 
HETATM   16  O2  UNL     1      -0.723   1.361   2.410  1.00  0.00    -0.220 OA
HETATM   17  O3  UNL     1      -2.836   2.664   1.078  1.00  0.00    -0.218 OA
HETATM   18  O4  UNL     1      -3.277   1.485  -1.725  1.00  0.00    -0.218 OA
HETATM   19  O5  UNL     1      -3.457  -1.264  -1.746  1.00  0.00    -0.218 OA
HETATM   20  O6  UNL     1       3.348  -2.559  -1.113  1.00  0.00    -0.188 OA
HETATM   21  O7  UNL     1       5.014  -0.236  -0.031  1.00  0.00    -0.297 OA
HETATM   22  C14 UNL     1       5.354   1.027   0.576  1.00  0.00     0.304 A 
HETATM   23  O8  UNL     1       4.070   1.574   0.945  1.00  0.00    -0.299 OA
ENDROOT
TORSDOF 0
