REMARK  4 active torsions:
REMARK  status: ('A' for Active; 'I' for Inactive)
REMARK    1  A    between atoms: C5_6  and  O4_15 
REMARK    2  A    between atoms: O4_15  and  C12_16 
REMARK    3  A    between atoms: C12_16  and  C13_17 
REMARK    4  A    between atoms: C13_17  and  C14_19 
ROOT
HETATM    1  C1  UNL     1      -1.857  -1.152  -0.836  1.00  0.00     0.031 A 
HETATM    2  C2  UNL     1      -2.566  -1.871  -1.824  1.00  0.00     0.123 A 
HETATM    3  O1  UNL     1      -1.658  -2.590  -2.656  1.00  0.00    -0.305 OA
HETATM    4  C3  UNL     1      -0.418  -2.275  -2.131  1.00  0.00     0.104 A 
HETATM    5  C4  UNL     1      -0.553  -1.432  -1.064  1.00  0.00     0.047 A 
HETATM    6  C5  UNL     1       0.565  -0.947  -0.336  1.00  0.00     0.098 A 
HETATM    7  C6  UNL     1       1.846  -1.398  -0.785  1.00  0.00     0.045 A 
HETATM    8  C7  UNL     1       1.983  -2.283  -1.904  1.00  0.00     0.107 A 
HETATM    9  C8  UNL     1       0.828  -2.734  -2.596  1.00  0.00     0.050 A 
HETATM   10  O2  UNL     1       3.205  -2.695  -2.309  1.00  0.00    -0.273 OA
HETATM   11  C9  UNL     1       4.348  -2.314  -1.703  1.00  0.00     0.300 A 
HETATM   12  C10 UNL     1       4.281  -1.402  -0.541  1.00  0.00     0.069 A 
HETATM   13  C11 UNL     1       3.090  -0.959  -0.096  1.00  0.00     0.009 A 
HETATM   14  O3  UNL     1       5.434  -2.693  -2.078  1.00  0.00    -0.259 OA
ENDROOT
BRANCH   6  15
HETATM   15  O4  UNL     1       0.559  -0.121   0.721  1.00  0.00    -0.328 OA
BRANCH  15  16
HETATM   16  C12 UNL     1      -0.180   1.088   0.615  1.00  0.00     0.186 C 
BRANCH  16  17
HETATM   17  C13 UNL     1      -1.021   1.283   1.875  1.00  0.00     0.201 C 
HETATM   18  O5  UNL     1      -0.148   1.467   2.967  1.00  0.00    -0.216 OA
BRANCH  17  19
HETATM   19  C14 UNL     1      -1.949   2.465   1.770  1.00  0.00    -0.012 C 
HETATM   20  C15 UNL     1      -3.260   2.272   1.992  1.00  0.00    -0.007 C 
HETATM   21  C16 UNL     1      -1.475   3.850   1.426  1.00  0.00     0.029 C 
ENDBRANCH  17  19
ENDBRANCH  16  17
ENDBRANCH  15  16
ENDBRANCH   6  15
TORSDOF 4
