REMARK  4 active torsions:
REMARK  status: ('A' for Active; 'I' for Inactive)
REMARK    1  A    between atoms: C2_2  and  C15_19 
REMARK    2  A    between atoms: C7_8  and  C9_12 
REMARK    3  A    between atoms: C9_12  and  C10_13 
REMARK    4  A    between atoms: C10_13  and  C11_14 
ROOT
HETATM    1  C1  UNL     1       2.531  -1.574   0.059  1.00  0.00     0.177 A 
HETATM    2  C2  UNL     1       2.217  -3.119  -0.037  1.00  0.00     0.154 A 
HETATM    3  C3  UNL     1       0.771  -3.598  -0.271  1.00  0.00     0.067 C 
HETATM    4  C4  UNL     1      -0.209  -2.598   0.344  1.00  0.00     0.148 A 
HETATM    5  C5  UNL     1       0.025  -1.188  -0.127  1.00  0.00     0.017 A 
HETATM    6  C6  UNL     1       1.391  -0.539  -0.008  1.00  0.00     0.202 C 
HETATM    7  O1  UNL     1       1.641   0.369  -1.064  1.00  0.00    -0.216 OA
HETATM    8  C7  UNL     1      -1.117  -0.707  -0.625  1.00  0.00     0.038 A 
HETATM    9  C8  UNL     1      -2.108  -1.770  -0.564  1.00  0.00     0.291 A 
HETATM   10  O2  UNL     1      -1.563  -2.883  -0.049  1.00  0.00    -0.297 OA
HETATM   11  O3  UNL     1      -3.250  -1.645  -0.936  1.00  0.00    -0.260 OA
HETATM   12  O4  UNL     1       2.621  -2.328  -1.111  1.00  0.00    -0.351 OA
ENDROOT
BRANCH   8  13
HETATM   13  C9  UNL     1      -1.356   0.680  -1.166  1.00  0.00     0.036 C 
BRANCH  13  14
HETATM   14  C10 UNL     1      -1.270   1.752  -0.078  1.00  0.00     0.030 C 
BRANCH  14  15
HETATM   15  C11 UNL     1      -1.531   3.133  -0.615  1.00  0.00    -0.034 C 
HETATM   16  C12 UNL     1      -1.873   4.102   0.252  1.00  0.00    -0.048 C 
HETATM   17  C13 UNL     1      -2.203   5.467  -0.291  1.00  0.00     0.026 C 
HETATM   18  C14 UNL     1      -1.908   3.773   1.719  1.00  0.00     0.026 C 
ENDBRANCH  14  15
ENDBRANCH  13  14
ENDBRANCH   8  13
BRANCH   2  19
HETATM   19  C15 UNL     1       3.316  -4.137   0.229  1.00  0.00     0.212 C 
HETATM   20  O5  UNL     1       3.143  -4.645   1.533  1.00  0.00    -0.218 OA
ENDBRANCH   2  19
TORSDOF 4
