REMARK  9 active torsions:
REMARK  status: ('A' for Active; 'I' for Inactive)
REMARK    1  A    between atoms: C1_1  and  C18_33 
REMARK    2  A    between atoms: C5_5  and  O2_7 
REMARK    3  A    between atoms: O2_7  and  C6_8 
REMARK    4  A    between atoms: C6_8  and  C11_17 
REMARK    5  A    between atoms: C9_11  and  C10_13 
REMARK    6  A    between atoms: C11_17  and  O7_18 
REMARK    7  A    between atoms: O7_18  and  C12_19 
REMARK    8  A    between atoms: C12_19  and  C17_28 
REMARK    9  A    between atoms: C13_21  and  C16_26 
ROOT
HETATM    1  C6  UNL     1       0.856   0.463   0.893  1.00  0.00     0.249 C 
HETATM    2  C7  UNL     1       1.143   1.250   2.187  1.00  0.00     0.238 C 
HETATM    3  C8  UNL     1      -0.111   2.150   2.291  1.00  0.00     0.217 C 
HETATM    4  C9  UNL     1      -0.738   2.137   0.881  1.00  0.00     0.184 C 
HETATM    5  O3  UNL     1       0.180   1.408   0.096  1.00  0.00    -0.328 OA
HETATM    6  O5  UNL     1      -1.019   1.596   3.227  1.00  0.00    -0.218 OA
HETATM    7  O6  UNL     1       2.289   2.082   2.064  1.00  0.00    -0.215 OA
ENDROOT
BRANCH   1   8
HETATM    8  O2  UNL     1       2.018  -0.035   0.260  1.00  0.00    -0.304 OA
BRANCH   8   9
HETATM    9  C5  UNL     1       1.869  -0.190  -1.143  1.00  0.00     0.272 C 
HETATM   10  C4  UNL     1       2.819  -1.274  -1.713  1.00  0.00     0.241 C 
HETATM   11  C3  UNL     1       4.297  -0.826  -1.668  1.00  0.00     0.220 C 
HETATM   12  O13 UNL     1       2.641  -2.500  -1.022  1.00  0.00    -0.215 OA
HETATM   13  C2  UNL     1       4.424   0.566  -2.328  1.00  0.00     0.215 C 
HETATM   14  O14 UNL     1       5.106  -1.762  -2.363  1.00  0.00    -0.218 OA
HETATM   15  C1  UNL     1       3.410   1.576  -1.740  1.00  0.00     0.184 C 
HETATM   16  O15 UNL     1       5.735   1.072  -2.131  1.00  0.00    -0.218 OA
HETATM   17  O1  UNL     1       2.090   1.045  -1.824  1.00  0.00    -0.326 OA
BRANCH  15  18
HETATM   18  C18 UNL     1       3.397   2.910  -2.494  1.00  0.00     0.214 C 
HETATM   19  O16 UNL     1       2.576   3.809  -1.785  1.00  0.00    -0.218 OA
ENDBRANCH  15  18
ENDBRANCH   8   9
ENDBRANCH   1   8
BRANCH   1  20
HETATM   20  C11 UNL     1      -0.072  -0.725   1.152  1.00  0.00     0.204 C 
BRANCH  20  21
HETATM   21  O7  UNL     1      -0.928  -0.867   0.041  1.00  0.00    -0.325 OA
BRANCH  21  22
HETATM   22  C12 UNL     1      -2.006  -1.750   0.279  1.00  0.00     0.250 C 
HETATM   23  O8  UNL     1      -2.791  -1.350   1.379  1.00  0.00    -0.328 OA
HETATM   24  C13 UNL     1      -4.031  -2.022   1.361  1.00  0.00     0.184 C 
HETATM   25  C14 UNL     1      -4.305  -2.281  -0.137  1.00  0.00     0.217 C 
HETATM   26  C15 UNL     1      -3.031  -1.799  -0.871  1.00  0.00     0.238 C 
HETATM   27  O10 UNL     1      -4.490  -3.666  -0.357  1.00  0.00    -0.218 OA
HETATM   28  O9  UNL     1      -3.283  -0.514  -1.420  1.00  0.00    -0.215 OA
BRANCH  24  29
HETATM   29  C16 UNL     1      -5.072  -1.133   2.031  1.00  0.00     0.214 C 
HETATM   30  O11 UNL     1      -4.779  -1.072   3.408  1.00  0.00    -0.218 OA
ENDBRANCH  24  29
BRANCH  22  31
HETATM   31  C17 UNL     1      -1.416  -3.131   0.564  1.00  0.00     0.241 C 
HETATM   32  O12 UNL     1      -1.137  -3.215   1.943  1.00  0.00    -0.215 OA
ENDBRANCH  22  31
ENDBRANCH  21  22
ENDBRANCH  20  21
ENDBRANCH   1  20
BRANCH   4  33
HETATM   33  C10 UNL     1      -0.904   3.521   0.271  1.00  0.00     0.214 C 
HETATM   34  O4  UNL     1      -1.592   3.387  -0.953  1.00  0.00    -0.218 OA
ENDBRANCH   4  33
TORSDOF 9
