REMARK  2 active torsions:
REMARK  status: ('A' for Active; 'I' for Inactive)
REMARK    1  A    between atoms: O1_2  and  C2_3 
REMARK    2  A    between atoms: C3_4  and  O2_5 
ROOT
HETATM    1  C2  UNL     1       1.463   2.309   0.916  1.00  0.00     0.116 A 
HETATM    2  C3  UNL     1       2.611   2.121   0.111  1.00  0.00     0.116 A 
HETATM    3  C5  UNL     1       2.836   0.877  -0.519  1.00  0.00     0.027 A 
HETATM    4  C6  UNL     1       1.916  -0.191  -0.353  1.00  0.00     0.035 A 
HETATM    5  C7  UNL     1       0.760   0.000   0.459  1.00  0.00    -0.015 A 
HETATM    6  C8  UNL     1       0.543   1.250   1.094  1.00  0.00     0.022 A 
HETATM    7  C9  UNL     1      -0.186  -1.141   0.647  1.00  0.00     0.085 C 
HETATM    8  C10 UNL     1       0.006  -2.289  -0.375  1.00  0.00     0.129 C 
HETATM    9  O3  UNL     1       1.395  -2.572  -0.494  1.00  0.00    -0.327 OA
HETATM   10  C11 UNL     1       2.172  -1.500  -1.031  1.00  0.00     0.293 C 
HETATM   11  O4  UNL     1       1.953  -1.377  -2.426  1.00  0.00    -0.185 OA
HETATM   12  C12 UNL     1      -0.775  -3.535   0.090  1.00  0.00     0.056 C 
HETATM   13  C13 UNL     1      -2.250  -3.199   0.154  1.00  0.00    -0.030 C 
HETATM   14  C14 UNL     1      -2.631  -1.928   0.397  1.00  0.00    -0.015 C 
HETATM   15  C15 UNL     1      -1.699  -0.805   0.758  1.00  0.00     0.244 C 
HETATM   16  N1  UNL     1      -2.254   0.285  -0.059  1.00  0.00     0.142 N 
HETATM   17  C16 UNL     1      -3.721   0.106   0.025  1.00  0.00     0.255 C 
HETATM   18  C17 UNL     1      -4.018  -1.387   0.256  1.00  0.00     0.059 C 
HETATM   19  C18 UNL     1      -1.791   0.260  -1.447  1.00  0.00     0.286 C 
ENDROOT
BRANCH   1  20
HETATM   20  O1  UNL     1       1.246   3.488   1.514  1.00  0.00    -0.326 OA
HETATM   21  C1  UNL     1       0.074   3.629   2.305  1.00  0.00     0.181 C 
ENDBRANCH   1  20
BRANCH   2  22
HETATM   22  O2  UNL     1       3.486   3.121  -0.057  1.00  0.00    -0.326 OA
HETATM   23  C4  UNL     1       4.650   2.867  -0.832  1.00  0.00     0.181 C 
ENDBRANCH   2  22
TORSDOF 2
