REMARK  4 active torsions:
REMARK  status: ('A' for Active; 'I' for Inactive)
REMARK    1  A    between atoms: C5_6  and  O2_7 
REMARK    2  A    between atoms: O2_7  and  C6_8 
REMARK    3  A    between atoms: C12_17  and  C30_38 
REMARK    4  A    between atoms: C22_27  and  C25_30 
ROOT
HETATM    1  C1  UNL     1      -6.748   1.145   0.417  1.00  0.00     0.065 C 
HETATM    2  C2  UNL     1      -6.994  -0.144   1.204  1.00  0.00     0.121 C 
HETATM    3  O1  UNL     1      -6.069  -1.110   0.806  1.00  0.00    -0.330 OA
HETATM    4  C3  UNL     1      -4.750  -0.826   1.239  1.00  0.00     0.294 C 
HETATM    5  C4  UNL     1      -4.442   0.658   1.256  1.00  0.00     0.297 C 
HETATM    6  C5  UNL     1      -5.255   1.465   0.257  1.00  0.00     0.186 C 
HETATM    7  O4  UNL     1      -3.080   0.975   1.140  1.00  0.00    -0.327 OA
HETATM    8  C8  UNL     1      -2.262  -0.148   1.251  1.00  0.00     0.146 C 
HETATM    9  C9  UNL     1      -2.669  -1.120   0.161  1.00  0.00     0.145 C 
HETATM   10  O5  UNL     1      -3.988  -1.561   0.302  1.00  0.00    -0.327 OA
HETATM   11  C10 UNL     1      -1.723  -2.319   0.113  1.00  0.00     0.033 C 
HETATM   12  C11 UNL     1      -0.278  -1.838  -0.098  1.00  0.00     0.009 C 
HETATM   13  C12 UNL     1       0.192  -0.908   1.048  1.00  0.00     0.061 C 
HETATM   14  C13 UNL     1      -0.800   0.286   1.085  1.00  0.00     0.040 C 
HETATM   15  C14 UNL     1       1.640  -0.449   0.728  1.00  0.00     0.009 C 
HETATM   16  C15 UNL     1       2.634  -1.611   0.486  1.00  0.00     0.029 C 
HETATM   17  C16 UNL     1       2.108  -2.507  -0.651  1.00  0.00     0.003 C 
HETATM   18  C17 UNL     1       0.681  -3.005  -0.370  1.00  0.00     0.001 C 
HETATM   19  C18 UNL     1       4.135  -1.190   0.449  1.00  0.00     0.127 C 
HETATM   20  C19 UNL     1       4.407   0.332   0.308  1.00  0.00     0.029 C 
HETATM   21  C20 UNL     1       3.454   1.220   1.140  1.00  0.00     0.003 C 
HETATM   22  C21 UNL     1       2.267   0.483   1.770  1.00  0.00     0.001 C 
HETATM   23  C22 UNL     1       4.257   0.503  -1.227  1.00  0.00     0.023 C 
HETATM   24  C23 UNL     1       4.917  -0.742  -1.844  1.00  0.00     0.007 C 
HETATM   25  C24 UNL     1       4.956  -1.779  -0.710  1.00  0.00     0.031 C 
HETATM   26  C29 UNL     1       5.847   0.724   0.725  1.00  0.00     0.003 C 
HETATM   27  O8  UNL     1       4.712  -1.641   1.650  1.00  0.00    -0.226 OA
HETATM   28  O10 UNL     1      -4.689   1.175   2.551  1.00  0.00    -0.187 OA
HETATM   29  C31 UNL     1      -8.406  -0.685   0.974  1.00  0.00     0.032 C 
ENDROOT
BRANCH  23  30
HETATM   30  C25 UNL     1       4.662   1.818  -1.839  1.00  0.00    -0.009 A 
HETATM   31  C26 UNL     1       3.844   2.865  -2.037  1.00  0.00     0.062 A 
HETATM   32  C27 UNL     1       4.695   3.907  -2.639  1.00  0.00     0.296 A 
HETATM   33  O6  UNL     1       5.988   3.513  -2.805  1.00  0.00    -0.294 OA
HETATM   34  O7  UNL     1       4.279   5.017  -2.954  1.00  0.00    -0.259 OA
HETATM   35  C28 UNL     1       6.049   2.170  -2.331  1.00  0.00     0.175 A 
ENDBRANCH  23  30
BRANCH  13  36
HETATM   36  C30 UNL     1       0.185  -1.619   2.399  1.00  0.00     0.207 C 
HETATM   37  O9  UNL     1      -0.263  -1.116   3.403  1.00  0.00    -0.288 OA
ENDBRANCH  13  36
BRANCH   6  38
HETATM   38  O2  UNL     1      -4.845   1.153  -1.049  1.00  0.00    -0.299 OA
BRANCH  38  39
HETATM   39  C6  UNL     1      -3.924   1.956  -1.652  1.00  0.00     0.273 C 
HETATM   40  C7  UNL     1      -3.581   1.420  -3.028  1.00  0.00     0.106 C 
HETATM   41  O3  UNL     1      -3.429   2.948  -1.168  1.00  0.00    -0.264 OA
ENDBRANCH  38  39
ENDBRANCH   6  38
TORSDOF 4
