REMARK  9 active torsions:
REMARK  status: ('A' for Active; 'I' for Inactive)
REMARK    1  A    between atoms: C2_2  and  C21_28 
REMARK    2  A    between atoms: C4_4  and  O2_10 
REMARK    3  A    between atoms: O2_10  and  C9_11 
REMARK    4  A    between atoms: C10_12  and  O6_25 
REMARK    5  A    between atoms: C13_15  and  C15_18 
REMARK    6  A    between atoms: C15_18  and  C16_19 
REMARK    7  A    between atoms: C16_19  and  C17_20 
REMARK    8  A    between atoms: C21_28  and  C22_29 
REMARK    9  A    between atoms: C22_29  and  C23_30 
ROOT
HETATM    1  O2  UNL     1      -1.318  -0.613  -1.881  1.00  0.00    -0.298 OA
ENDROOT
BRANCH   1   2
HETATM    2  C4  UNL     1      -0.021  -0.324  -1.779  1.00  0.00     0.160 A 
HETATM    3  C3  UNL     1       0.953  -1.418  -1.680  1.00  0.00     0.224 A 
HETATM    4  C2  UNL     1       2.391  -1.111  -1.578  1.00  0.00     0.097 A 
HETATM    5  O7  UNL     1       0.568  -2.565  -1.682  1.00  0.00    -0.284 OA
HETATM    6  C1  UNL     1       2.816   0.170  -1.568  1.00  0.00     0.119 A 
HETATM    7  C6  UNL     1       1.848   1.344  -1.656  1.00  0.00     0.088 A 
HETATM    8  O9  UNL     1       4.123   0.428  -1.476  1.00  0.00    -0.194 OA
HETATM    9  C5  UNL     1       0.379   0.963  -1.771  1.00  0.00     0.139 A 
HETATM   10  C7  UNL     1       2.020   2.195  -0.396  1.00  0.00     0.013 C 
HETATM   11  C8  UNL     1       2.221   2.174  -2.889  1.00  0.00     0.013 C 
HETATM   12  O1  UNL     1      -0.539   1.924  -1.867  1.00  0.00    -0.192 OA
BRANCH   4  13
HETATM   13  C21 UNL     1       3.361  -2.217  -1.486  1.00  0.00     0.178 C 
HETATM   14  O8  UNL     1       3.719  -2.801  -2.482  1.00  0.00    -0.291 OA
BRANCH  13  15
HETATM   15  C22 UNL     1       3.897  -2.596  -0.133  1.00  0.00     0.069 C 
BRANCH  15  16
HETATM   16  C23 UNL     1       3.736  -4.088   0.160  1.00  0.00     0.008 C 
HETATM   17  C24 UNL     1       4.279  -4.483   1.535  1.00  0.00     0.001 C 
ENDBRANCH  15  16
ENDBRANCH  13  15
ENDBRANCH   4  13
ENDBRANCH   1   2
BRANCH   1  18
HETATM   18  C9  UNL     1      -2.170  -0.022  -1.066  1.00  0.00     0.147 A 
HETATM   19  C10 UNL     1      -3.303   0.631  -1.590  1.00  0.00     0.117 A 
HETATM   20  C11 UNL     1      -4.211   1.262  -0.721  1.00  0.00     0.028 A 
HETATM   21  C12 UNL     1      -3.992   1.244   0.670  1.00  0.00     0.134 A 
HETATM   22  C19 UNL     1      -5.410   1.951  -1.273  1.00  0.00     0.035 C 
HETATM   23  C13 UNL     1      -2.857   0.592   1.190  1.00  0.00     0.087 A 
HETATM   24  O5  UNL     1      -4.848   1.838   1.481  1.00  0.00    -0.190 OA
HETATM   25  C14 UNL     1      -1.947  -0.041   0.322  1.00  0.00     0.160 A 
HETATM   26  O3  UNL     1      -0.883  -0.654   0.803  1.00  0.00    -0.188 OA
BRANCH  19  27
HETATM   27  O6  UNL     1      -3.508   0.646  -2.893  1.00  0.00    -0.326 OA
HETATM   28  C20 UNL     1      -3.289  -0.555  -3.617  1.00  0.00     0.181 C 
ENDBRANCH  19  27
BRANCH  23  29
HETATM   29  C15 UNL     1      -2.619   0.570   2.666  1.00  0.00     0.177 C 
HETATM   30  O4  UNL     1      -3.529   0.387   3.440  1.00  0.00    -0.291 OA
BRANCH  29  31
HETATM   31  C16 UNL     1      -1.213   0.783   3.160  1.00  0.00     0.069 C 
BRANCH  31  32
HETATM   32  C17 UNL     1      -1.172   1.246   4.617  1.00  0.00     0.008 C 
HETATM   33  C18 UNL     1       0.252   1.484   5.119  1.00  0.00     0.001 C 
ENDBRANCH  31  32
ENDBRANCH  29  31
ENDBRANCH  23  29
ENDBRANCH   1  18
TORSDOF 9
