REMARK  1 active torsions:
REMARK  status: ('A' for Active; 'I' for Inactive)
REMARK    1  A    between atoms: C2_2  and  N1_24 
ROOT
HETATM    1  C1  UNL     1       3.957  -1.225   0.564  1.00  0.00     0.037 C 
HETATM    2  C2  UNL     1       4.492  -0.467  -0.658  1.00  0.00     0.261 C 
HETATM    3  C3  UNL     1       3.756   0.871  -0.836  1.00  0.00     0.058 C 
HETATM    4  C4  UNL     1       2.248   0.709  -0.834  1.00  0.00    -0.047 C 
HETATM    5  C5  UNL     1       1.631  -0.148   0.271  1.00  0.00     0.015 C 
HETATM    6  C6  UNL     1       2.445  -1.455   0.445  1.00  0.00     0.006 C 
HETATM    7  C7  UNL     1       0.141  -0.498  -0.014  1.00  0.00     0.004 C 
HETATM    8  C8  UNL     1      -0.619   0.740  -0.537  1.00  0.00     0.005 C 
HETATM    9  C9  UNL     1       0.008   1.219  -1.854  1.00  0.00     0.025 C 
HETATM   10  C10 UNL     1       1.512   1.328  -1.783  1.00  0.00    -0.035 C 
HETATM   11  C11 UNL     1      -2.088   0.361  -0.770  1.00  0.00     0.009 C 
HETATM   12  C12 UNL     1      -2.768  -0.131   0.514  1.00  0.00     0.080 C 
HETATM   13  C13 UNL     1      -2.074  -1.428   0.943  1.00  0.00     0.009 C 
HETATM   14  C14 UNL     1      -0.576  -1.164   1.189  1.00  0.00     0.001 C 
HETATM   15  C15 UNL     1      -4.227  -0.273   0.066  1.00  0.00     0.037 C 
HETATM   16  C16 UNL     1      -4.387   0.752  -1.074  1.00  0.00     0.003 C 
HETATM   17  C17 UNL     1      -3.039   1.455  -1.234  1.00  0.00     0.001 C 
HETATM   18  C18 UNL     1      -4.955   0.061   1.377  1.00  0.00     0.125 C 
HETATM   19  O1  UNL     1      -4.160   1.031   2.051  1.00  0.00    -0.304 OA
HETATM   20  C19 UNL     1      -2.908   0.861   1.648  1.00  0.00     0.271 C 
HETATM   21  O2  UNL     1      -1.965   1.443   2.129  1.00  0.00    -0.264 OA
HETATM   22  C20 UNL     1      -6.383   0.566   1.219  1.00  0.00     0.033 C 
HETATM   23  C21 UNL     1       1.734   0.691   1.553  1.00  0.00     0.004 C 
ENDROOT
BRANCH   2  24
HETATM   24  N1  UNL     1       5.926  -0.240  -0.525  1.00  0.00     0.340 N 
HETATM   25  C22 UNL     1       6.662  -1.459  -0.818  1.00  0.00     0.328 C 
ENDBRANCH   2  24
TORSDOF 1
