REMARK  12 active torsions:
REMARK  status: ('A' for Active; 'I' for Inactive)
REMARK    1  A    between atoms: C1_1  and  C54_76 
REMARK    2  A    between atoms: C3_3  and  O16_63 
REMARK    3  A    between atoms: C4_4  and  O6_41 
REMARK    4  A    between atoms: C5_5  and  O2_7 
REMARK    5  A    between atoms: O2_7  and  C6_8 
REMARK    6  A    between atoms: C27_29  and  C31_33 
REMARK    7  A    between atoms: O6_41  and  C36_42 
REMARK    8  A    between atoms: C37_43  and  O11_52 
REMARK    9  A    between atoms: C40_46  and  C41_48 
REMARK   10  A    between atoms: O11_52  and  C42_53 
REMARK   11  A    between atoms: O16_63  and  C48_64 
REMARK   12  A    between atoms: C52_68  and  C53_70 
ROOT
HETATM    1  C1  UNL     1       1.897  -3.693   1.990  1.00  0.00     0.184 C 
HETATM    2  C2  UNL     1       3.404  -4.057   1.848  1.00  0.00     0.211 C 
HETATM    3  C3  UNL     1       4.281  -2.873   1.338  1.00  0.00     0.183 C 
HETATM    4  C4  UNL     1       3.438  -1.928   0.461  1.00  0.00     0.204 C 
HETATM    5  C5  UNL     1       2.188  -1.404   1.230  1.00  0.00     0.266 C 
HETATM    6  O1  UNL     1       1.762  -2.301   2.264  1.00  0.00    -0.326 OA
HETATM    7  O22 UNL     1       3.522  -5.215   1.031  1.00  0.00    -0.218 OA
ENDROOT
BRANCH   5   8
HETATM    8  O2  UNL     1       1.139  -1.133   0.322  1.00  0.00    -0.332 OA
BRANCH   8   9
HETATM    9  C6  UNL     1       0.578   0.160   0.486  1.00  0.00     0.118 C 
HETATM   10  C7  UNL     1      -0.031   0.285   1.904  1.00  0.00     0.030 C 
HETATM   11  C8  UNL     1      -1.563   0.225   1.887  1.00  0.00     0.003 C 
HETATM   12  C9  UNL     1      -2.174   1.389   1.061  1.00  0.00     0.000 C 
HETATM   13  C10 UNL     1      -1.342   1.650  -0.244  1.00  0.00     0.002 C 
HETATM   14  C17 UNL     1      -3.703   1.182   0.771  1.00  0.00     0.000 C 
HETATM   15  C35 UNL     1      -2.047   2.637   1.957  1.00  0.00     0.000 C 
HETATM   16  C11 UNL     1      -0.416   0.479  -0.670  1.00  0.00     0.025 C 
HETATM   17  C14 UNL     1      -2.207   2.205  -1.395  1.00  0.00     0.000 C 
HETATM   18  C12 UNL     1      -1.256  -0.748  -1.063  1.00  0.00     0.002 C 
HETATM   19  C13 UNL     1       0.393   0.879  -1.912  1.00  0.00     0.002 C 
HETATM   20  C15 UNL     1      -3.315   3.129  -0.873  1.00  0.00     0.000 C 
HETATM   21  C16 UNL     1      -4.359   2.398   0.021  1.00  0.00     0.002 C 
HETATM   22  C21 UNL     1      -5.621   1.996  -0.854  1.00  0.00     0.025 C 
HETATM   23  C34 UNL     1      -4.774   3.395   1.121  1.00  0.00     0.000 C 
HETATM   24  C20 UNL     1      -6.445   0.836  -0.201  1.00  0.00     0.093 C 
HETATM   25  C22 UNL     1      -6.539   3.227  -1.133  1.00  0.00     0.035 C 
HETATM   26  C33 UNL     1      -5.195   1.414  -2.215  1.00  0.00     0.002 C 
HETATM   27  C19 UNL     1      -5.580  -0.412   0.104  1.00  0.00     0.027 C 
HETATM   28  C25 UNL     1      -7.697   0.422  -1.016  1.00  0.00     0.030 C 
HETATM   29  O4  UNL     1      -7.039   1.332   0.986  1.00  0.00    -0.359 OA
HETATM   30  C18 UNL     1      -4.068  -0.156   0.104  1.00  0.00     0.002 C 
HETATM   31  C24 UNL     1      -8.561   1.682  -0.793  1.00  0.00     0.058 C 
HETATM   32  C26 UNL     1      -8.387  -0.873  -0.520  1.00  0.00     0.010 C 
HETATM   33  C23 UNL     1      -7.967   2.877  -1.584  1.00  0.00     0.154 C 
HETATM   34  C29 UNL     1     -10.053   1.496  -1.137  1.00  0.00     0.005 C 
HETATM   35  C32 UNL     1      -8.320   1.873   0.721  1.00  0.00     0.144 C 
HETATM   36  O5  UNL     1      -7.961   2.617  -2.977  1.00  0.00    -0.223 OA
HETATM   37  C28 UNL     1     -10.653   0.178  -0.627  1.00  0.00     0.007 C 
HETATM   38  C27 UNL     1      -9.819  -1.041  -1.051  1.00  0.00     0.059 C 
HETATM   39  C30 UNL     1     -10.438  -2.318  -0.477  1.00  0.00     0.008 C 
BRANCH  38  40
HETATM   40  C31 UNL     1      -9.809  -1.189  -2.555  1.00  0.00     0.206 C 
HETATM   41  O3  UNL     1      -8.776  -1.359  -3.156  1.00  0.00    -0.288 OA
ENDBRANCH  38  40
ENDBRANCH   8   9
ENDBRANCH   5   8
BRANCH   4  42
HETATM   42  O6  UNL     1       4.211  -0.814   0.041  1.00  0.00    -0.324 OA
BRANCH  42  43
HETATM   43  C36 UNL     1       3.770  -0.260  -1.184  1.00  0.00     0.267 C 
HETATM   44  C37 UNL     1       4.309   1.184  -1.467  1.00  0.00     0.207 C 
HETATM   45  C38 UNL     1       5.545   1.191  -2.414  1.00  0.00     0.217 C 
HETATM   46  C39 UNL     1       6.375  -0.102  -2.281  1.00  0.00     0.215 C 
HETATM   47  O10 UNL     1       6.352   2.356  -2.299  1.00  0.00    -0.218 OA
HETATM   48  C40 UNL     1       5.496  -1.377  -2.463  1.00  0.00     0.184 C 
HETATM   49  O9  UNL     1       7.004  -0.145  -1.010  1.00  0.00    -0.218 OA
HETATM   50  O7  UNL     1       4.104  -1.111  -2.275  1.00  0.00    -0.326 OA
BRANCH  44  51
HETATM   51  O11 UNL     1       4.541   1.895  -0.258  1.00  0.00    -0.324 OA
BRANCH  51  52
HETATM   52  C42 UNL     1       4.272   3.279  -0.363  1.00  0.00     0.270 C 
HETATM   53  C43 UNL     1       4.965   4.055   0.789  1.00  0.00     0.241 C 
HETATM   54  C44 UNL     1       4.572   5.551   0.785  1.00  0.00     0.220 C 
HETATM   55  O15 UNL     1       6.375   3.910   0.715  1.00  0.00    -0.215 OA
HETATM   56  C45 UNL     1       3.029   5.647   0.752  1.00  0.00     0.212 C 
HETATM   57  O14 UNL     1       5.127   6.205  -0.350  1.00  0.00    -0.218 OA
HETATM   58  C46 UNL     1       2.424   4.816  -0.406  1.00  0.00     0.151 C 
HETATM   59  O13 UNL     1       2.606   6.996   0.654  1.00  0.00    -0.218 OA
HETATM   60  O12 UNL     1       2.863   3.467  -0.291  1.00  0.00    -0.329 OA
HETATM   61  C47 UNL     1       0.893   4.781  -0.379  1.00  0.00     0.035 C 
ENDBRANCH  51  52
ENDBRANCH  44  51
BRANCH  48  62
HETATM   62  C41 UNL     1       5.621  -1.973  -3.867  1.00  0.00     0.214 C 
HETATM   63  O8  UNL     1       5.002  -3.238  -3.867  1.00  0.00    -0.218 OA
ENDBRANCH  48  62
ENDBRANCH  42  43
ENDBRANCH   4  42
BRANCH   3  64
HETATM   64  O16 UNL     1       5.453  -3.309   0.660  1.00  0.00    -0.326 OA
BRANCH  64  65
HETATM   65  C48 UNL     1       6.500  -3.670   1.537  1.00  0.00     0.270 C 
HETATM   66  C49 UNL     1       7.785  -4.012   0.723  1.00  0.00     0.241 C 
HETATM   67  C50 UNL     1       8.688  -5.055   1.447  1.00  0.00     0.220 C 
HETATM   68  O21 UNL     1       8.465  -2.787   0.480  1.00  0.00    -0.215 OA
HETATM   69  C51 UNL     1       8.485  -4.947   2.975  1.00  0.00     0.215 C 
HETATM   70  O20 UNL     1      10.057  -4.938   1.086  1.00  0.00    -0.218 OA
HETATM   71  C52 UNL     1       6.988  -5.133   3.379  1.00  0.00     0.184 C 
HETATM   72  O19 UNL     1       9.303  -5.871   3.672  1.00  0.00    -0.218 OA
HETATM   73  O17 UNL     1       6.111  -4.797   2.307  1.00  0.00    -0.326 OA
BRANCH  71  74
HETATM   74  C53 UNL     1       6.592  -6.557   3.793  1.00  0.00     0.214 C 
HETATM   75  O18 UNL     1       5.275  -6.522   4.291  1.00  0.00    -0.218 OA
ENDBRANCH  71  74
ENDBRANCH  64  65
ENDBRANCH   3  64
BRANCH   1  76
HETATM   76  C54 UNL     1       0.998  -4.055   0.791  1.00  0.00     0.214 C 
HETATM   77  O23 UNL     1      -0.322  -3.674   1.100  1.00  0.00    -0.218 OA
ENDBRANCH   1  76
TORSDOF 12
