REMARK  0 active torsions:
REMARK  status: ('A' for Active; 'I' for Inactive)
ROOT
HETATM    1  C1  UNL     1      -1.586  -0.037   0.324  1.00  0.00     0.154 A 
HETATM    2  C2  UNL     1      -0.656   1.141  -0.172  1.00  0.00     0.111 A 
HETATM    3  C3  UNL     1       0.772   1.209   0.433  1.00  0.00     0.138 A 
HETATM    4  C4  UNL     1       1.738   0.002   0.279  1.00  0.00     0.056 A 
HETATM    5  C5  UNL     1       1.190  -1.258  -0.397  1.00  0.00     0.007 C 
HETATM    6  C6  UNL     1       0.143  -1.996   0.449  1.00  0.00     0.003 C 
HETATM    7  C7  UNL     1      -0.891  -1.123   1.191  1.00  0.00     0.033 C 
HETATM    8  C8  UNL     1      -1.920  -2.060   1.851  1.00  0.00     0.003 C 
HETATM    9  C9  UNL     1       2.873   0.627  -0.473  1.00  0.00     0.043 A 
HETATM   10  C10 UNL     1       2.608   2.041  -0.637  1.00  0.00     0.292 A 
HETATM   11  O1  UNL     1       1.440   2.371  -0.096  1.00  0.00    -0.300 OA
HETATM   12  O2  UNL     1       3.361   2.805  -1.195  1.00  0.00    -0.260 OA
HETATM   13  C11 UNL     1       3.959  -0.031  -0.918  1.00  0.00     0.001 C 
HETATM   14  C12 UNL     1      -0.689   0.979  -1.674  1.00  0.00     0.177 A 
HETATM   15  C13 UNL     1      -1.646  -0.051  -2.043  1.00  0.00     0.035 A 
HETATM   16  C14 UNL     1      -2.162  -0.623  -0.949  1.00  0.00     0.007 A 
HETATM   17  O3  UNL     1      -0.019   1.610  -2.461  1.00  0.00    -0.291 OA
HETATM   18  C15 UNL     1      -1.236   2.537   0.115  1.00  0.00     0.013 C 
HETATM   19  O4  UNL     1      -2.672   0.484   1.078  1.00  0.00    -0.221 OA
ENDROOT
TORSDOF 0
