REMARK  9 active torsions:
REMARK  status: ('A' for Active; 'I' for Inactive)
REMARK    1  A    between atoms: C5_5  and  O2_7 
REMARK    2  A    between atoms: O2_7  and  C6_8 
REMARK    3  A    between atoms: C8_10  and  C46_56 
REMARK    4  A    between atoms: C9_12  and  O4_13 
REMARK    5  A    between atoms: O4_13  and  C10_14 
REMARK    6  A    between atoms: C13_18  and  O7_21 
REMARK    7  A    between atoms: O7_21  and  C15_22 
REMARK    8  A    between atoms: C28_35  and  C41_48 
REMARK    9  A    between atoms: C46_56  and  C47_57 
ROOT
HETATM    1  C15 UNL     1       0.871   0.348  -0.312  1.00  0.00     0.118 C 
HETATM    2  C16 UNL     1       0.250   0.760  -1.656  1.00  0.00     0.030 C 
HETATM    3  C17 UNL     1      -1.238   1.107  -1.498  1.00  0.00     0.003 C 
HETATM    4  C18 UNL     1      -2.043  -0.061  -0.877  1.00  0.00     0.001 C 
HETATM    5  C19 UNL     1      -3.533   0.352  -0.644  1.00  0.00     0.005 C 
HETATM    6  C20 UNL     1      -4.219   0.805  -1.953  1.00  0.00     0.025 C 
HETATM    7  C21 UNL     1      -5.727   0.725  -1.967  1.00  0.00    -0.035 C 
HETATM    8  C22 UNL     1      -6.463   0.250  -0.939  1.00  0.00    -0.049 C 
HETATM    9  C23 UNL     1      -7.971   0.164  -1.115  1.00  0.00     0.028 C 
HETATM   10  C24 UNL     1      -8.629   1.475  -0.629  1.00  0.00     0.004 C 
HETATM   11  C25 UNL     1     -10.160   1.473  -0.793  1.00  0.00     0.000 C 
HETATM   12  C26 UNL     1     -10.758   0.236  -0.100  1.00  0.00     0.001 C 
HETATM   13  C27 UNL     1     -10.119  -1.068  -0.594  1.00  0.00     0.011 C 
HETATM   14  C28 UNL     1      -8.586  -1.094  -0.459  1.00  0.00     0.082 C 
HETATM   15  C29 UNL     1      -8.148  -1.143   1.018  1.00  0.00     0.011 C 
HETATM   16  C30 UNL     1      -6.629  -1.273   1.135  1.00  0.00     0.004 C 
HETATM   17  C31 UNL     1      -5.813  -0.189   0.375  1.00  0.00     0.015 C 
HETATM   18  C32 UNL     1      -4.375  -0.730   0.090  1.00  0.00     0.004 C 
HETATM   19  C33 UNL     1      -3.668  -1.131   1.404  1.00  0.00     0.000 C 
HETATM   20  C34 UNL     1      -2.211  -1.557   1.191  1.00  0.00     0.000 C 
HETATM   21  C35 UNL     1      -1.394  -0.461   0.481  1.00  0.00     0.002 C 
HETATM   22  C36 UNL     1       0.117  -0.822   0.367  1.00  0.00     0.025 C 
HETATM   23  C37 UNL     1       0.305  -2.127  -0.426  1.00  0.00     0.002 C 
HETATM   24  C38 UNL     1       0.697  -1.053   1.772  1.00  0.00     0.002 C 
HETATM   25  C39 UNL     1      -4.494  -1.984  -0.801  1.00  0.00     0.000 C 
HETATM   26  C40 UNL     1      -5.770   1.072   1.254  1.00  0.00     0.004 C 
HETATM   27  C42 UNL     1     -10.522   1.461  -2.281  1.00  0.00     0.000 C 
HETATM   28  C43 UNL     1     -10.750   2.742  -0.166  1.00  0.00     0.000 C 
HETATM   29  C44 UNL     1      -1.982  -1.234  -1.869  1.00  0.00     0.000 C 
ENDROOT
BRANCH   1  30
HETATM   30  O7  UNL     1       2.233   0.014  -0.519  1.00  0.00    -0.332 OA
BRANCH  30  31
HETATM   31  C13 UNL     1       3.024   1.121  -0.922  1.00  0.00     0.270 C 
HETATM   32  O5  UNL     1       3.143   1.174  -2.342  1.00  0.00    -0.329 OA
HETATM   33  C12 UNL     1       3.858   0.096  -2.949  1.00  0.00     0.151 C 
HETATM   34  C11 UNL     1       5.303   0.014  -2.396  1.00  0.00     0.209 C 
HETATM   35  C45 UNL     1       3.793   0.293  -4.469  1.00  0.00     0.035 C 
HETATM   36  C10 UNL     1       5.295  -0.057  -0.852  1.00  0.00     0.186 C 
HETATM   37  O10 UNL     1       6.045   1.139  -2.846  1.00  0.00    -0.218 OA
HETATM   38  C14 UNL     1       4.436   1.088  -0.273  1.00  0.00     0.238 C 
HETATM   39  O6  UNL     1       4.328   0.981   1.139  1.00  0.00    -0.215 OA
BRANCH  36  40
HETATM   40  O4  UNL     1       6.617  -0.021  -0.334  1.00  0.00    -0.326 OA
BRANCH  40  41
HETATM   41  C9  UNL     1       6.803  -0.873   0.781  1.00  0.00     0.267 C 
HETATM   42  C6  UNL     1       8.137  -0.676   1.549  1.00  0.00     0.207 C 
HETATM   43  C7  UNL     1       8.824  -2.049   1.422  1.00  0.00     0.214 C 
HETATM   44  C8  UNL     1       7.633  -2.988   1.227  1.00  0.00     0.184 C 
HETATM   45  O13 UNL     1       9.572  -2.373   2.578  1.00  0.00    -0.218 OA
HETATM   46  O3  UNL     1       6.820  -2.223   0.369  1.00  0.00    -0.326 OA
BRANCH  42  47
HETATM   47  O2  UNL     1       8.977   0.342   1.031  1.00  0.00    -0.324 OA
BRANCH  47  48
HETATM   48  C5  UNL     1       8.821   1.582   1.693  1.00  0.00     0.270 C 
HETATM   49  C4  UNL     1       9.865   2.608   1.180  1.00  0.00     0.241 C 
HETATM   50  C3  UNL     1       9.610   4.012   1.774  1.00  0.00     0.220 C 
HETATM   51  O14 UNL     1      11.166   2.176   1.539  1.00  0.00    -0.215 OA
HETATM   52  C2  UNL     1       8.127   4.400   1.578  1.00  0.00     0.215 C 
HETATM   53  O15 UNL     1      10.444   4.967   1.135  1.00  0.00    -0.218 OA
HETATM   54  C1  UNL     1       7.188   3.289   2.082  1.00  0.00     0.181 C 
HETATM   55  O16 UNL     1       7.832   5.588   2.287  1.00  0.00    -0.218 OA
HETATM   56  O1  UNL     1       7.508   2.065   1.440  1.00  0.00    -0.326 OA
ENDBRANCH  47  48
ENDBRANCH  42  47
BRANCH  44  57
HETATM   57  C46 UNL     1       6.832  -3.299   2.494  1.00  0.00     0.215 C 
HETATM   58  O12 UNL     1       7.549  -4.254   3.246  1.00  0.00    -0.218 OA
BRANCH  57  59
HETATM   59  C47 UNL     1       5.485  -3.910   2.109  1.00  0.00     0.218 C 
HETATM   60  O11 UNL     1       4.766  -4.174   3.293  1.00  0.00    -0.218 OA
ENDBRANCH  57  59
ENDBRANCH  44  57
ENDBRANCH  40  41
ENDBRANCH  36  40
ENDBRANCH  30  31
ENDBRANCH   1  30
BRANCH  14  61
HETATM   61  C41 UNL     1      -8.102  -2.338  -1.174  1.00  0.00     0.184 C 
HETATM   62  O8  UNL     1      -8.057  -3.404  -0.605  1.00  0.00    -0.647 OA
HETATM   63  O9  UNL     1      -7.740  -2.158  -2.441  1.00  0.00    -0.647 OA
ENDBRANCH  14  61
TORSDOF 9
