REMARK  2 active torsions:
REMARK  status: ('A' for Active; 'I' for Inactive)
REMARK    1  A    between atoms: C2_3  and  C14_19 
REMARK    2  A    between atoms: C5_6  and  C7_9 
ROOT
HETATM    1  C1  UNL     1       0.574  -1.160   1.535  1.00  0.00     0.176 C 
HETATM    2  O1  UNL     1       1.775  -0.443   1.373  1.00  0.00    -0.349 OA
HETATM    3  C2  UNL     1       1.484   0.899   1.066  1.00  0.00     0.143 C 
HETATM    4  C3  UNL     1       0.328   0.774   0.061  1.00  0.00     0.094 C 
HETATM    5  C4  UNL     1      -0.330  -0.582   0.436  1.00  0.00     0.187 C 
HETATM    6  C5  UNL     1      -1.752  -0.172   0.885  1.00  0.00     0.168 C 
HETATM    7  O2  UNL     1      -1.963   1.028   0.182  1.00  0.00    -0.349 OA
HETATM    8  C6  UNL     1      -0.791   1.807   0.229  1.00  0.00     0.148 C 
HETATM    9  O5  UNL     1      -0.324  -1.435  -0.703  1.00  0.00    -0.220 OA
ENDROOT
BRANCH   3  10
HETATM   10  C14 UNL     1       2.678   1.580   0.537  1.00  0.00     0.007 A 
HETATM   11  C15 UNL     1       3.357   1.063  -0.586  1.00  0.00     0.024 A 
HETATM   12  C16 UNL     1       4.510   1.701  -1.109  1.00  0.00     0.119 A 
HETATM   13  C17 UNL     1       4.984   2.869  -0.502  1.00  0.00     0.119 A 
HETATM   14  O7  UNL     1       5.299   1.399  -2.143  1.00  0.00    -0.300 OA
HETATM   15  C18 UNL     1       4.303   3.393   0.627  1.00  0.00     0.026 A 
HETATM   16  O6  UNL     1       6.066   3.293  -1.156  1.00  0.00    -0.300 OA
HETATM   17  C19 UNL     1       3.156   2.756   1.150  1.00  0.00     0.000 A 
HETATM   18  C20 UNL     1       6.350   2.385  -2.244  1.00  0.00     0.304 A 
ENDBRANCH   3  10
BRANCH   6  19
HETATM   19  C7  UNL     1      -2.842  -1.135   0.627  1.00  0.00     0.009 A 
HETATM   20  C8  UNL     1      -3.320  -1.336  -0.686  1.00  0.00     0.025 A 
HETATM   21  C9  UNL     1      -4.365  -2.256  -0.955  1.00  0.00     0.119 A 
HETATM   22  C10 UNL     1      -4.934  -2.976   0.102  1.00  0.00     0.119 A 
HETATM   23  O4  UNL     1      -4.967  -2.605  -2.092  1.00  0.00    -0.300 OA
HETATM   24  C11 UNL     1      -4.455  -2.775   1.422  1.00  0.00     0.026 A 
HETATM   25  O3  UNL     1      -5.889  -3.775  -0.381  1.00  0.00    -0.300 OA
HETATM   26  C12 UNL     1      -3.414  -1.861   1.691  1.00  0.00     0.000 A 
HETATM   27  C13 UNL     1      -5.975  -3.599  -1.813  1.00  0.00     0.304 A 
ENDBRANCH   6  19
TORSDOF 2
