REMARK  5 active torsions:
REMARK  status: ('A' for Active; 'I' for Inactive)
REMARK    1  A    between atoms: C1_1  and  O7_23 
REMARK    2  A    between atoms: C2_2  and  O1_3 
REMARK    3  A    between atoms: C10_12  and  C11_14 
REMARK    4  A    between atoms: O7_23  and  C17_24 
REMARK    5  A    between atoms: C21_28  and  C22_30 
ROOT
HETATM    1  C1  UNL     1      -1.217  -1.203  -0.713  1.00  0.00     0.144 A 
HETATM    2  C2  UNL     1      -1.367   0.106  -1.230  1.00  0.00     0.120 A 
HETATM    3  C4  UNL     1      -0.227   0.883  -1.543  1.00  0.00     0.051 A 
HETATM    4  C5  UNL     1       1.068   0.354  -1.336  1.00  0.00     0.107 A 
HETATM    5  C6  UNL     1       1.219  -0.961  -0.818  1.00  0.00     0.089 A 
HETATM    6  C7  UNL     1       0.076  -1.742  -0.506  1.00  0.00     0.160 A 
HETATM    7  O2  UNL     1       0.205  -2.984  -0.014  1.00  0.00    -0.188 OA
HETATM    8  C8  UNL     1       2.596  -1.492  -0.615  1.00  0.00     0.202 A 
HETATM    9  C9  UNL     1       3.689  -0.568  -0.982  1.00  0.00     0.067 A 
HETATM   10  C10 UNL     1       3.424   0.668  -1.467  1.00  0.00     0.103 A 
HETATM   11  O3  UNL     1       2.156   1.098  -1.635  1.00  0.00    -0.307 OA
HETATM   12  O6  UNL     1       2.910  -2.580  -0.189  1.00  0.00    -0.286 OA
ENDROOT
BRANCH   1  13
HETATM   13  O7  UNL     1      -2.301  -1.936  -0.418  1.00  0.00    -0.299 OA
BRANCH  13  14
HETATM   14  C17 UNL     1      -3.162  -1.469   0.609  1.00  0.00     0.274 C 
HETATM   15  C18 UNL     1      -4.358  -2.434   0.779  1.00  0.00     0.241 C 
HETATM   16  C19 UNL     1      -5.252  -2.047   1.983  1.00  0.00     0.220 C 
HETATM   17  O12 UNL     1      -5.109  -2.488  -0.420  1.00  0.00    -0.215 OA
HETATM   18  C20 UNL     1      -4.381  -1.840   3.240  1.00  0.00     0.215 C 
HETATM   19  O11 UNL     1      -5.943  -0.836   1.725  1.00  0.00    -0.218 OA
HETATM   20  C21 UNL     1      -3.160  -0.924   2.949  1.00  0.00     0.184 C 
HETATM   21  O10 UNL     1      -3.940  -3.105   3.701  1.00  0.00    -0.218 OA
HETATM   22  O8  UNL     1      -2.428  -1.400   1.826  1.00  0.00    -0.326 OA
BRANCH  20  23
HETATM   23  C22 UNL     1      -2.186  -0.809   4.127  1.00  0.00     0.214 C 
HETATM   24  O9  UNL     1      -1.291   0.246   3.856  1.00  0.00    -0.218 OA
ENDBRANCH  20  23
ENDBRANCH  13  14
ENDBRANCH   1  13
BRANCH   2  25
HETATM   25  O1  UNL     1      -2.594   0.613  -1.428  1.00  0.00    -0.326 OA
HETATM   26  C3  UNL     1      -2.693   1.947  -1.906  1.00  0.00     0.181 C 
ENDBRANCH   2  25
BRANCH  10  27
HETATM   27  C11 UNL     1       4.566   1.561  -1.820  1.00  0.00     0.025 A 
HETATM   28  C12 UNL     1       5.809   1.402  -1.184  1.00  0.00     0.004 A 
HETATM   29  C13 UNL     1       6.883   2.246  -1.519  1.00  0.00     0.030 A 
HETATM   30  C14 UNL     1       6.719   3.248  -2.490  1.00  0.00     0.156 A 
HETATM   31  C15 UNL     1       5.475   3.408  -3.131  1.00  0.00     0.156 A 
HETATM   32  O5  UNL     1       7.731   4.035  -2.801  1.00  0.00    -0.188 OA
HETATM   33  C16 UNL     1       4.402   2.563  -2.793  1.00  0.00     0.032 A 
HETATM   34  O4  UNL     1       5.313   4.344  -4.043  1.00  0.00    -0.188 OA
ENDBRANCH  10  27
TORSDOF 5
