REMARK  2 active torsions:
REMARK  status: ('A' for Active; 'I' for Inactive)
REMARK    1  A    between atoms: C7_7  and  C12_15 
REMARK    2  A    between atoms: C12_15  and  C13_16 
ROOT
HETATM    1  C1  UNL     1       3.801   0.475   0.525  1.00  0.00     0.000 A 
HETATM    2  C2  UNL     1       3.658   1.867   0.053  1.00  0.00     0.002 A 
HETATM    3  C3  UNL     1       2.444   2.432  -0.115  1.00  0.00     0.019 A 
HETATM    4  C4  UNL     1       1.215   1.664   0.178  1.00  0.00     0.079 A 
HETATM    5  C5  UNL     1       1.358   0.225   0.547  1.00  0.00     0.029 A 
HETATM    6  C6  UNL     1       2.723  -0.303   0.762  1.00  0.00     0.003 A 
HETATM    7  C7  UNL     1       0.256  -0.555   0.635  1.00  0.00     0.043 C 
HETATM    8  N1  UNL     1      -1.023   0.033   0.508  1.00  0.00    -0.332 N 
HETATM    9  C8  UNL     1      -1.185   1.480   0.449  1.00  0.00     0.217 C 
HETATM   10  N2  UNL     1       0.051   2.219   0.105  1.00  0.00    -0.247 NA
HETATM   11  C9  UNL     1      -2.391   1.621  -0.484  1.00  0.00     0.198 C 
HETATM   12  C10 UNL     1      -3.273   0.434  -0.016  1.00  0.00     0.061 C 
HETATM   13  C11 UNL     1      -2.279  -0.676   0.367  1.00  0.00     0.106 C 
HETATM   14  O1  UNL     1      -3.057   2.855  -0.301  1.00  0.00    -0.219 OA
ENDROOT
BRANCH   7  15
HETATM   15  C12 UNL     1       0.281  -2.051   0.838  1.00  0.00     0.108 C 
BRANCH  15  16
HETATM   16  C13 UNL     1       0.736  -2.744  -0.416  1.00  0.00     0.157 C 
HETATM   17  C14 UNL     1      -0.168  -2.697  -1.619  1.00  0.00     0.073 C 
HETATM   18  O2  UNL     1       1.797  -3.324  -0.457  1.00  0.00    -0.296 OA
ENDBRANCH  15  16
ENDBRANCH   7  15
TORSDOF 2
