REMARK  0 active torsions:
REMARK  status: ('A' for Active; 'I' for Inactive)
ROOT
HETATM    1  C1  UNL     1      -3.848   0.365  -0.094  1.00  0.00    -0.000 A 
HETATM    2  C2  UNL     1      -3.502   0.865  -1.369  1.00  0.00     0.002 A 
HETATM    3  C3  UNL     1      -2.146   0.916  -1.770  1.00  0.00     0.019 A 
HETATM    4  C4  UNL     1      -1.121   0.475  -0.895  1.00  0.00     0.081 A 
HETATM    5  C5  UNL     1      -1.477  -0.033   0.402  1.00  0.00     0.018 A 
HETATM    6  C6  UNL     1      -2.840  -0.084   0.787  1.00  0.00    -0.001 A 
HETATM    7  C7  UNL     1      -0.430  -0.510   1.350  1.00  0.00     0.131 A 
HETATM    8  N1  UNL     1       0.910  -0.369   0.777  1.00  0.00    -0.331 N 
HETATM    9  C8  UNL     1       1.104   0.146  -0.514  1.00  0.00     0.147 A 
HETATM   10  N2  UNL     1       0.178   0.555  -1.328  1.00  0.00    -0.231 NA
HETATM   11  C9  UNL     1       2.594   0.141  -0.758  1.00  0.00     0.210 C 
HETATM   12  C10 UNL     1       3.248  -0.068   0.627  1.00  0.00     0.065 C 
HETATM   13  C11 UNL     1       2.141  -0.730   1.457  1.00  0.00     0.106 C 
HETATM   14  O1  UNL     1       2.942  -0.930  -1.615  1.00  0.00    -0.215 OA
ENDROOT
TORSDOF 0
