REMARK  1 active torsions:
REMARK  status: ('A' for Active; 'I' for Inactive)
REMARK    1  A    between atoms: C9_10  and  C10_12 
ROOT
HETATM    1  C1  UNL     1      -4.387  -1.207   0.024  1.00  0.00     0.055 A 
HETATM    2  C2  UNL     1      -4.281   0.203   0.004  1.00  0.00     0.135 A 
HETATM    3  C3  UNL     1      -3.010   0.820  -0.014  1.00  0.00     0.052 A 
HETATM    4  C4  UNL     1      -1.838   0.027  -0.012  1.00  0.00     0.104 A 
HETATM    5  C5  UNL     1      -1.944  -1.395   0.010  1.00  0.00     0.050 A 
HETATM    6  C6  UNL     1      -3.223  -2.012   0.027  1.00  0.00     0.135 A 
HETATM    7  O1  UNL     1      -3.350  -3.348   0.049  1.00  0.00    -0.190 OA
HETATM    8  C7  UNL     1      -0.752  -2.162   0.012  1.00  0.00     0.034 A 
HETATM    9  C8  UNL     1       0.512  -1.525  -0.008  1.00  0.00     0.154 A 
HETATM   10  C9  UNL     1       0.572  -0.111  -0.025  1.00  0.00     0.125 A 
HETATM   11  O2  UNL     1      -0.596   0.619  -0.027  1.00  0.00    -0.305 OA
HETATM   12  O4  UNL     1       1.629  -2.270  -0.006  1.00  0.00    -0.188 OA
HETATM   13  O5  UNL     1      -5.391   0.957   0.000  1.00  0.00    -0.190 OA
ENDROOT
BRANCH  10  14
HETATM   14  C10 UNL     1       1.842   0.602  -0.045  1.00  0.00     0.025 A 
HETATM   15  C11 UNL     1       2.176   1.416  -1.143  1.00  0.00     0.004 A 
HETATM   16  C12 UNL     1       3.402   2.102  -1.156  1.00  0.00     0.028 A 
HETATM   17  C13 UNL     1       4.297   1.980  -0.078  1.00  0.00     0.131 A 
HETATM   18  C14 UNL     1       3.959   1.166   1.018  1.00  0.00     0.028 A 
HETATM   19  O3  UNL     1       5.445   2.625  -0.096  1.00  0.00    -0.190 OA
HETATM   20  C15 UNL     1       2.734   0.477   1.037  1.00  0.00     0.004 A 
ENDBRANCH  10  14
TORSDOF 1
