REMARK  4 active torsions:
REMARK  status: ('A' for Active; 'I' for Inactive)
REMARK    1  A    between atoms: C8_9  and  O4_19 
REMARK    2  A    between atoms: C9_10  and  C10_12 
REMARK    3  A    between atoms: O4_19  and  C16_20 
REMARK    4  A    between atoms: C20_24  and  C21_26 
ROOT
HETATM    1  C1  UNL     1      -5.416   0.233  -0.924  1.00  0.00     0.055 A 
HETATM    2  C2  UNL     1      -5.309   1.643  -0.945  1.00  0.00     0.135 A 
HETATM    3  C3  UNL     1      -4.037   2.262  -0.963  1.00  0.00     0.052 A 
HETATM    4  C4  UNL     1      -2.865   1.467  -0.959  1.00  0.00     0.104 A 
HETATM    5  C5  UNL     1      -2.973   0.045  -0.939  1.00  0.00     0.050 A 
HETATM    6  C6  UNL     1      -4.250  -0.572  -0.920  1.00  0.00     0.135 A 
HETATM    7  O1  UNL     1      -4.377  -1.906  -0.898  1.00  0.00    -0.190 OA
HETATM    8  C7  UNL     1      -1.779  -0.721  -0.937  1.00  0.00     0.030 A 
HETATM    9  C8  UNL     1      -0.516  -0.086  -0.955  1.00  0.00     0.120 A 
HETATM   10  C9  UNL     1      -0.455   1.328  -0.974  1.00  0.00     0.122 A 
HETATM   11  O2  UNL     1      -1.623   2.059  -0.976  1.00  0.00    -0.305 OA
HETATM   12  O10 UNL     1      -6.418   2.397  -0.947  1.00  0.00    -0.190 OA
ENDROOT
BRANCH   9  13
HETATM   13  O4  UNL     1       0.601  -0.830  -0.953  1.00  0.00    -0.302 OA
BRANCH  13  14
HETATM   14  C16 UNL     1       0.533  -2.137  -0.394  1.00  0.00     0.274 C 
HETATM   15  C17 UNL     1       1.932  -2.795  -0.346  1.00  0.00     0.241 C 
HETATM   16  C18 UNL     1       2.879  -2.117   0.674  1.00  0.00     0.220 C 
HETATM   17  O9  UNL     1       2.502  -2.826  -1.642  1.00  0.00    -0.215 OA
HETATM   18  C19 UNL     1       2.162  -1.969   2.033  1.00  0.00     0.215 C 
HETATM   19  O8  UNL     1       3.260  -0.824   0.233  1.00  0.00    -0.218 OA
HETATM   20  C20 UNL     1       0.744  -1.355   1.873  1.00  0.00     0.184 C 
HETATM   21  O7  UNL     1       2.074  -3.246   2.643  1.00  0.00    -0.218 OA
HETATM   22  O5  UNL     1      -0.020  -2.086   0.916  1.00  0.00    -0.326 OA
BRANCH  20  23
HETATM   23  C21 UNL     1      -0.059  -1.322   3.178  1.00  0.00     0.214 C 
HETATM   24  O6  UNL     1       0.637  -0.517   4.104  1.00  0.00    -0.218 OA
ENDBRANCH  20  23
ENDBRANCH  13  14
ENDBRANCH   9  13
BRANCH  10  25
HETATM   25  C10 UNL     1       0.812   2.041  -0.992  1.00  0.00     0.025 A 
HETATM   26  C11 UNL     1       1.015   3.143  -0.139  1.00  0.00     0.004 A 
HETATM   27  C12 UNL     1       2.242   3.828  -0.158  1.00  0.00     0.028 A 
HETATM   28  C13 UNL     1       3.269   3.420  -1.027  1.00  0.00     0.131 A 
HETATM   29  C14 UNL     1       3.064   2.321  -1.877  1.00  0.00     0.028 A 
HETATM   30  O3  UNL     1       4.418   4.065  -1.043  1.00  0.00    -0.190 OA
HETATM   31  C15 UNL     1       1.840   1.629  -1.861  1.00  0.00     0.004 A 
ENDBRANCH  10  25
TORSDOF 4
