REMARK  1 active torsions:
REMARK  status: ('A' for Active; 'I' for Inactive)
REMARK    1  A    between atoms: C16_17  and  O1_18 
ROOT
HETATM    1  C1  UNL     1      -3.717  -0.319  -1.124  1.00  0.00    -0.000 A 
HETATM    2  C2  UNL     1      -4.034   0.923  -0.576  1.00  0.00    -0.000 A 
HETATM    3  C3  UNL     1      -3.030   1.680   0.030  1.00  0.00    -0.004 A 
HETATM    4  C4  UNL     1      -1.726   1.185   0.133  1.00  0.00    -0.020 A 
HETATM    5  C5  UNL     1      -1.414  -0.097  -0.351  1.00  0.00    -0.002 A 
HETATM    6  C6  UNL     1      -2.415  -0.811  -1.029  1.00  0.00    -0.000 A 
HETATM    7  C7  UNL     1      -0.023  -0.595  -0.192  1.00  0.00     0.022 C 
HETATM    8  C8  UNL     1       0.999   0.372  -0.143  1.00  0.00     0.010 C 
HETATM    9  C9  UNL     1       0.632   1.836  -0.143  1.00  0.00     0.283 C 
HETATM   10  C10 UNL     1      -0.626   2.036   0.713  1.00  0.00     0.067 C 
HETATM   11  N1  UNL     1       1.720   2.650   0.398  1.00  0.00     0.342 N 
HETATM   12  C11 UNL     1       2.980   2.414  -0.299  1.00  0.00     0.295 C 
HETATM   13  C12 UNL     1       3.458   0.990  -0.004  1.00  0.00     0.064 C 
HETATM   14  C13 UNL     1       2.340  -0.018  -0.085  1.00  0.00    -0.020 C 
HETATM   15  C14 UNL     1       2.639  -1.381  -0.096  1.00  0.00     0.025 C 
HETATM   16  C15 UNL     1       1.635  -2.350  -0.081  1.00  0.00     0.153 C 
HETATM   17  C16 UNL     1       0.288  -1.960  -0.021  1.00  0.00     0.119 C 
HETATM   18  O2  UNL     1       1.951  -3.672  -0.062  1.00  0.00    -0.188 OA
ENDROOT
BRANCH  17  19
HETATM   19  O1  UNL     1      -0.658  -2.951   0.015  1.00  0.00    -0.326 OA
HETATM   20  C17 UNL     1      -1.269  -3.100   1.277  1.00  0.00     0.181 C 
ENDBRANCH  17  19
TORSDOF 1
