REMARK  4 active torsions:
REMARK  status: ('A' for Active; 'I' for Inactive)
REMARK    1  A    between atoms: C8_10  and  C14_18 
REMARK    2  A    between atoms: C16_20  and  O7_28 
REMARK    3  A    between atoms: C17_21  and  O6_26 
REMARK    4  A    between atoms: C18_22  and  O5_24 
ROOT
HETATM    1  O1  UNL     1       4.900   1.182  -1.838  1.00  0.00    -0.297 OA
HETATM    2  C1  UNL     1       5.729   0.289  -1.061  1.00  0.00     0.304 A 
HETATM    3  O2  UNL     1       4.787  -0.684  -0.559  1.00  0.00    -0.299 OA
HETATM    4  C2  UNL     1       3.564  -0.377  -0.996  1.00  0.00     0.121 A 
HETATM    5  C3  UNL     1       3.633   0.770  -1.787  1.00  0.00     0.144 A 
HETATM    6  C4  UNL     1       2.463   1.311  -2.387  1.00  0.00     0.151 A 
HETATM    7  C5  UNL     1       1.205   0.678  -2.172  1.00  0.00     0.002 A 
HETATM    8  C6  UNL     1       1.127  -0.488  -1.352  1.00  0.00    -0.018 A 
HETATM    9  C7  UNL     1       2.316  -1.000  -0.785  1.00  0.00     0.022 A 
HETATM   10  C8  UNL     1      -0.176  -1.178  -1.080  1.00  0.00     0.054 C 
HETATM   11  C9  UNL     1      -1.254  -0.770  -2.100  1.00  0.00     0.097 C 
HETATM   12  C10 UNL     1      -1.315   0.754  -2.162  1.00  0.00     0.045 C 
HETATM   13  C11 UNL     1      -0.022   1.240  -2.818  1.00  0.00     0.031 C 
HETATM   14  C12 UNL     1      -2.672   0.895  -2.852  1.00  0.00     0.153 C 
HETATM   15  O3  UNL     1      -3.506  -0.115  -2.277  1.00  0.00    -0.302 OA
HETATM   16  C13 UNL     1      -2.703  -1.100  -1.879  1.00  0.00     0.272 C 
HETATM   17  O4  UNL     1      -3.068  -2.141  -1.389  1.00  0.00    -0.264 OA
HETATM   18  O8  UNL     1       2.426   2.399  -3.170  1.00  0.00    -0.188 OA
ENDROOT
BRANCH  10  19
HETATM   19  C14 UNL     1      -0.590  -0.924   0.334  1.00  0.00    -0.014 A 
HETATM   20  C15 UNL     1      -1.260  -1.922   1.061  1.00  0.00     0.022 A 
HETATM   21  C16 UNL     1      -1.650  -1.686   2.391  1.00  0.00     0.118 A 
HETATM   22  C17 UNL     1      -1.367  -0.447   2.994  1.00  0.00     0.138 A 
HETATM   23  C18 UNL     1      -0.697   0.555   2.268  1.00  0.00     0.118 A 
HETATM   24  C19 UNL     1      -0.309   0.313   0.937  1.00  0.00     0.022 A 
BRANCH  21  25
HETATM   25  O7  UNL     1      -2.279  -2.627   3.066  1.00  0.00    -0.326 OA
HETATM   26  C22 UNL     1      -2.590  -3.838   2.395  1.00  0.00     0.181 C 
ENDBRANCH  21  25
BRANCH  22  27
HETATM   27  O6  UNL     1      -1.732  -0.223   4.242  1.00  0.00    -0.324 OA
HETATM   28  C21 UNL     1      -1.428   1.043   4.809  1.00  0.00     0.182 C 
ENDBRANCH  22  27
BRANCH  23  29
HETATM   29  O5  UNL     1      -0.430   1.717   2.828  1.00  0.00    -0.326 OA
HETATM   30  C20 UNL     1       0.250   2.691   2.053  1.00  0.00     0.181 C 
ENDBRANCH  23  29
ENDBRANCH  10  19
TORSDOF 4
