REMARK  7 active torsions:
REMARK  status: ('A' for Active; 'I' for Inactive)
REMARK    1  A    between atoms: C4_6  and  O8_30 
REMARK    2  A    between atoms: C8_10  and  C14_18 
REMARK    3  A    between atoms: C16_20  and  O7_28 
REMARK    4  A    between atoms: C17_21  and  O6_26 
REMARK    5  A    between atoms: C18_22  and  O5_24 
REMARK    6  A    between atoms: O8_30  and  C23_31 
REMARK    7  A    between atoms: C27_35  and  C28_37 
ROOT
HETATM    1  O1  UNL     1       3.533  -0.223  -0.951  1.00  0.00    -0.298 OA
HETATM    2  C1  UNL     1       4.361  -1.115  -0.174  1.00  0.00     0.304 A 
HETATM    3  O2  UNL     1       3.420  -2.088   0.330  1.00  0.00    -0.299 OA
HETATM    4  C2  UNL     1       2.197  -1.781  -0.107  1.00  0.00     0.121 A 
HETATM    5  C3  UNL     1       2.266  -0.635  -0.898  1.00  0.00     0.141 A 
HETATM    6  C4  UNL     1       1.096  -0.094  -1.498  1.00  0.00     0.117 A 
HETATM    7  C5  UNL     1      -0.162  -0.727  -1.283  1.00  0.00    -0.001 A 
HETATM    8  C6  UNL     1      -0.240  -1.893  -0.463  1.00  0.00    -0.018 A 
HETATM    9  C7  UNL     1       0.947  -2.404   0.104  1.00  0.00     0.022 A 
HETATM   10  C8  UNL     1      -1.543  -2.582  -0.193  1.00  0.00     0.054 C 
HETATM   11  C9  UNL     1      -2.621  -2.174  -1.213  1.00  0.00     0.097 C 
HETATM   12  C10 UNL     1      -2.682  -0.650  -1.273  1.00  0.00     0.045 C 
HETATM   13  C11 UNL     1      -1.389  -0.164  -1.930  1.00  0.00     0.031 C 
HETATM   14  C12 UNL     1      -4.039  -0.510  -1.965  1.00  0.00     0.153 C 
HETATM   15  O3  UNL     1      -4.873  -1.520  -1.389  1.00  0.00    -0.302 OA
HETATM   16  C13 UNL     1      -4.070  -2.504  -0.992  1.00  0.00     0.272 C 
HETATM   17  O4  UNL     1      -4.436  -3.545  -0.502  1.00  0.00    -0.264 OA
ENDROOT
BRANCH   6  18
HETATM   18  O8  UNL     1       1.059   0.994  -2.281  1.00  0.00    -0.302 OA
BRANCH  18  19
HETATM   19  C23 UNL     1       2.264   1.723  -2.469  1.00  0.00     0.274 C 
HETATM   20  C24 UNL     1       2.055   2.807  -3.561  1.00  0.00     0.241 C 
HETATM   21  C25 UNL     1       2.984   4.045  -3.361  1.00  0.00     0.220 C 
HETATM   22  O13 UNL     1       2.252   2.172  -4.815  1.00  0.00    -0.215 OA
HETATM   23  C26 UNL     1       4.262   3.621  -2.607  1.00  0.00     0.215 C 
HETATM   24  O12 UNL     1       3.285   4.703  -4.584  1.00  0.00    -0.218 OA
HETATM   25  C27 UNL     1       3.934   2.938  -1.242  1.00  0.00     0.184 C 
HETATM   26  O11 UNL     1       5.137   4.721  -2.414  1.00  0.00    -0.218 OA
HETATM   27  O9  UNL     1       2.637   2.344  -1.250  1.00  0.00    -0.326 OA
BRANCH  25  28
HETATM   28  C28 UNL     1       3.941   3.873  -0.025  1.00  0.00     0.214 C 
HETATM   29  O10 UNL     1       3.824   3.086   1.139  1.00  0.00    -0.218 OA
ENDBRANCH  25  28
ENDBRANCH  18  19
ENDBRANCH   6  18
BRANCH  10  30
HETATM   30  C14 UNL     1      -1.957  -2.328   1.221  1.00  0.00    -0.014 A 
HETATM   31  C15 UNL     1      -3.145  -1.629   1.492  1.00  0.00     0.022 A 
HETATM   32  C16 UNL     1      -3.537  -1.389   2.820  1.00  0.00     0.118 A 
HETATM   33  C17 UNL     1      -2.736  -1.852   3.883  1.00  0.00     0.138 A 
HETATM   34  C18 UNL     1      -1.545  -2.553   3.613  1.00  0.00     0.118 A 
HETATM   35  C19 UNL     1      -1.158  -2.789   2.281  1.00  0.00     0.022 A 
BRANCH  32  36
HETATM   36  O7  UNL     1      -4.652  -0.732   3.068  1.00  0.00    -0.326 OA
HETATM   37  C22 UNL     1      -5.426  -0.293   1.963  1.00  0.00     0.181 C 
ENDBRANCH  32  36
BRANCH  33  38
HETATM   38  O6  UNL     1      -3.100  -1.627   5.129  1.00  0.00    -0.324 OA
HETATM   39  C21 UNL     1      -3.621  -0.346   5.451  1.00  0.00     0.182 C 
ENDBRANCH  33  38
BRANCH  34  40
HETATM   40  O5  UNL     1      -0.793  -2.986   4.604  1.00  0.00    -0.326 OA
HETATM   41  C20 UNL     1       0.400  -3.688   4.277  1.00  0.00     0.181 C 
ENDBRANCH  34  40
ENDBRANCH  10  30
TORSDOF 7
