REMARK  12 active torsions:
REMARK  status: ('A' for Active; 'I' for Inactive)
REMARK    1  A    between atoms: C3_3  and  C33_41 
REMARK    2  A    between atoms: C6_6  and  O1_7 
REMARK    3  A    between atoms: C9_10  and  C24_30 
REMARK    4  A    between atoms: C10_11  and  O3_21 
REMARK    5  A    between atoms: C12_13  and  O2_14 
REMARK    6  A    between atoms: N1_17  and  C16_19 
REMARK    7  A    between atoms: O3_21  and  C18_22 
REMARK    8  A    between atoms: C21_26  and  O5_28 
REMARK    9  A    between atoms: C24_30  and  O6_32 
REMARK   10  A    between atoms: O6_32  and  C26_33 
REMARK   11  A    between atoms: C26_33  and  C27_34 
REMARK   12  A    between atoms: C33_41  and  O8_42 
ROOT
HETATM    1  C1  UNL     1      -0.376  -2.933   1.883  1.00  0.00     0.030 C 
HETATM    2  C2  UNL     1       0.826  -3.183   2.777  1.00  0.00     0.007 C 
HETATM    3  C3  UNL     1       2.171  -2.674   2.182  1.00  0.00     0.050 C 
HETATM    4  C4  UNL     1       2.090  -1.149   1.847  1.00  0.00     0.036 C 
HETATM    5  C5  UNL     1       0.843  -0.870   0.921  1.00  0.00     0.046 C 
HETATM    6  C6  UNL     1      -0.430  -1.446   1.609  1.00  0.00     0.117 C 
HETATM    7  C8  UNL     1       0.468   0.620   0.518  1.00  0.00     0.011 C 
HETATM    8  C9  UNL     1       1.621   1.631   0.353  1.00  0.00     0.054 C 
HETATM    9  C10 UNL     1       2.516   0.994  -0.739  1.00  0.00     0.110 C 
HETATM   10  C11 UNL     1       2.739  -0.497  -0.386  1.00  0.00     0.073 C 
HETATM   11  C12 UNL     1       3.296  -0.602   1.045  1.00  0.00     0.120 C 
HETATM   12  C14 UNL     1       1.504  -1.450  -0.344  1.00  0.00     0.084 C 
HETATM   13  N1  UNL     1       2.024  -2.821  -0.382  1.00  0.00    -0.370 N 
HETATM   14  C15 UNL     1       2.428  -3.454   0.872  1.00  0.00     0.099 C 
HETATM   15  C20 UNL     1       1.825   1.188  -2.092  1.00  0.00     0.058 C 
HETATM   16  C21 UNL     1       0.310   0.931  -2.140  1.00  0.00     0.118 C 
HETATM   17  C22 UNL     1      -0.390   0.765  -0.777  1.00  0.00     0.030 C 
ENDROOT
BRANCH   8  18
HETATM   18  C24 UNL     1       1.169   3.103   0.141  1.00  0.00     0.127 C 
HETATM   19  C25 UNL     1       2.315   4.117   0.045  1.00  0.00     0.033 C 
BRANCH  18  20
HETATM   20  O6  UNL     1       0.351   3.498   1.210  1.00  0.00    -0.301 OA
BRANCH  20  21
HETATM   21  C26 UNL     1      -0.953   3.883   1.032  1.00  0.00     0.296 C 
HETATM   22  O7  UNL     1      -1.645   4.050   2.030  1.00  0.00    -0.259 OA
BRANCH  21  23
HETATM   23  C27 UNL     1      -1.661   4.119  -0.274  1.00  0.00     0.063 A 
HETATM   24  C28 UNL     1      -1.072   4.846  -1.315  1.00  0.00     0.005 A 
HETATM   25  C29 UNL     1      -1.742   5.002  -2.530  1.00  0.00     0.000 A 
HETATM   26  C30 UNL     1      -3.011   4.445  -2.707  1.00  0.00     0.000 A 
HETATM   27  C31 UNL     1      -3.618   3.751  -1.660  1.00  0.00     0.000 A 
HETATM   28  C32 UNL     1      -2.949   3.594  -0.444  1.00  0.00     0.005 A 
ENDBRANCH  21  23
ENDBRANCH  20  21
ENDBRANCH  18  20
ENDBRANCH   8  18
BRANCH   9  29
HETATM   29  O3  UNL     1       3.756   1.640  -0.639  1.00  0.00    -0.306 OA
BRANCH  29  30
HETATM   30  C18 UNL     1       4.694   1.895  -1.595  1.00  0.00     0.272 C 
HETATM   31  O4  UNL     1       5.583   2.697  -1.395  1.00  0.00    -0.264 OA
HETATM   32  C19 UNL     1       4.719   1.062  -2.862  1.00  0.00     0.106 C 
ENDBRANCH  29  30
ENDBRANCH   9  29
BRANCH   6  33
HETATM   33  O1  UNL     1      -1.628  -1.152   0.946  1.00  0.00    -0.354 OA
HETATM   34  C7  UNL     1      -2.746  -0.989   1.796  1.00  0.00     0.174 C 
ENDBRANCH   6  33
BRANCH  16  35
HETATM   35  O5  UNL     1      -0.356   1.948  -2.850  1.00  0.00    -0.354 OA
HETATM   36  C23 UNL     1      -0.144   1.909  -4.246  1.00  0.00     0.174 C 
ENDBRANCH  16  35
BRANCH  11  37
HETATM   37  O2  UNL     1       4.452  -1.387   1.016  1.00  0.00    -0.354 OA
HETATM   38  C13 UNL     1       5.592  -0.736   1.542  1.00  0.00     0.174 C 
ENDBRANCH  11  37
BRANCH   3  39
HETATM   39  C33 UNL     1       3.133  -3.076   3.343  1.00  0.00     0.144 C 
BRANCH  39  40
HETATM   40  O8  UNL     1       4.502  -3.029   3.043  1.00  0.00    -0.351 OA
HETATM   41  C34 UNL     1       5.309  -3.539   4.084  1.00  0.00     0.174 C 
ENDBRANCH  39  40
ENDBRANCH   3  39
BRANCH  13  42
HETATM   42  C16 UNL     1       1.328  -3.715  -1.303  1.00  0.00     0.097 C 
HETATM   43  C17 UNL     1       2.204  -4.901  -1.747  1.00  0.00     0.026 C 
ENDBRANCH  13  42
TORSDOF 12
