REMARK  1 active torsions:
REMARK  status: ('A' for Active; 'I' for Inactive)
REMARK    1  A    between atoms: C13_15  and  C15_17 
ROOT
HETATM    1  C1  UNL     1      -4.139  -1.594   0.186  1.00  0.00     0.019 A 
HETATM    2  C2  UNL     1      -3.694  -0.340  -0.297  1.00  0.00     0.081 A 
HETATM    3  C3  UNL     1      -2.379   0.016  -0.215  1.00  0.00     0.015 A 
HETATM    4  C4  UNL     1      -1.389  -0.838   0.318  1.00  0.00    -0.001 A 
HETATM    5  C5  UNL     1      -1.805  -2.101   0.830  1.00  0.00    -0.000 A 
HETATM    6  C6  UNL     1      -3.180  -2.473   0.760  1.00  0.00     0.002 A 
HETATM    7  C7  UNL     1       0.043  -0.375   0.307  1.00  0.00     0.007 C 
HETATM    8  C8  UNL     1       0.379   0.830  -0.588  1.00  0.00     0.246 C 
HETATM    9  C9  UNL     1      -0.754   1.899  -0.652  1.00  0.00     0.066 C 
HETATM   10  C10 UNL     1      -2.127   1.248  -0.680  1.00  0.00     0.001 A 
HETATM   11  C11 UNL     1      -3.367   1.736  -1.135  1.00  0.00     0.095 A 
HETATM   12  N1  UNL     1      -4.346   0.733  -0.891  1.00  0.00    -0.244 NA
HETATM   13  N2  UNL     1       1.666   1.461  -0.232  1.00  0.00     0.144 N 
HETATM   14  C12 UNL     1       2.740   0.473  -0.107  1.00  0.00     0.287 C 
HETATM   15  C13 UNL     1       2.441  -0.514   1.039  1.00  0.00     0.207 C 
HETATM   16  C14 UNL     1       1.004  -0.990   1.037  1.00  0.00     0.006 C 
HETATM   17  O2  UNL     1       2.672   0.149   2.268  1.00  0.00    -0.217 OA
HETATM   18  C16 UNL     1       2.047   2.518  -1.170  1.00  0.00     0.286 C 
ENDROOT
BRANCH  15  19
HETATM   19  C15 UNL     1       3.402  -1.705   1.008  1.00  0.00     0.219 C 
HETATM   20  O1  UNL     1       3.144  -2.447  -0.162  1.00  0.00    -0.217 OA
ENDBRANCH  15  19
TORSDOF 1
