REMARK  3 active torsions:
REMARK  status: ('A' for Active; 'I' for Inactive)
REMARK    1  A    between atoms: C4_4  and  C7_8 
REMARK    2  A    between atoms: C7_8  and  C8_9 
REMARK    3  A    between atoms: C9_10  and  C10_11 
ROOT
HETATM    1  C8  UNL     1       3.353  -1.613   0.161  1.00  0.00     0.042 C 
HETATM    2  C9  UNL     1       2.541  -0.729   0.755  1.00  0.00     0.003 C 
ENDROOT
BRANCH   1   3
HETATM    3  C7  UNL     1       4.842  -1.689   0.383  1.00  0.00     0.198 C 
HETATM    4  O5  UNL     1       5.296  -2.797   0.648  1.00  0.00    -0.286 OA
BRANCH   3   5
HETATM    5  C4  UNL     1       5.763  -0.536   0.122  1.00  0.00     0.064 A 
HETATM    6  C3  UNL     1       7.140  -0.766   0.297  1.00  0.00     0.007 A 
HETATM    7  C2  UNL     1       8.090   0.225   0.042  1.00  0.00     0.028 A 
HETATM    8  C1  UNL     1       7.700   1.489  -0.397  1.00  0.00     0.133 A 
HETATM    9  C6  UNL     1       6.330   1.711  -0.562  1.00  0.00     0.055 A 
HETATM   10  O6  UNL     1       8.606   2.467  -0.656  1.00  0.00    -0.190 OA
HETATM   11  C5  UNL     1       5.353   0.740  -0.322  1.00  0.00     0.136 A 
HETATM   12  O1  UNL     1       4.064   1.081  -0.572  1.00  0.00    -0.190 OA
ENDBRANCH   3   5
ENDBRANCH   1   3
BRANCH   2  13
HETATM   13  C10 UNL     1       1.089  -0.576   0.451  1.00  0.00     0.004 A 
HETATM   14  C11 UNL     1       0.667   0.695   0.048  1.00  0.00     0.030 A 
HETATM   15  C12 UNL     1      -0.677   0.974  -0.195  1.00  0.00     0.158 A 
HETATM   16  C13 UNL     1      -1.628  -0.030   0.012  1.00  0.00     0.181 A 
HETATM   17  O4  UNL     1      -1.087   2.208  -0.583  1.00  0.00    -0.188 OA
HETATM   18  C14 UNL     1      -1.229  -1.317   0.387  1.00  0.00     0.158 A 
HETATM   19  O3  UNL     1      -2.947   0.249  -0.157  1.00  0.00    -0.186 OA
HETATM   20  C15 UNL     1       0.132  -1.587   0.585  1.00  0.00     0.030 A 
HETATM   21  O2  UNL     1      -2.181  -2.270   0.565  1.00  0.00    -0.188 OA
ENDBRANCH   2  13
TORSDOF 3
