REMARK  6 active torsions:
REMARK  status: ('A' for Active; 'I' for Inactive)
REMARK    1  A    between atoms: C2_2  and  O3_32 
REMARK    2  A    between atoms: C16_16  and  C24_24 
REMARK    3  A    between atoms: O3_32  and  C30_33 
REMARK    4  A    between atoms: C31_35  and  C40_51 
REMARK    5  A    between atoms: C34_38  and  O5_39 
REMARK    6  A    between atoms: O5_39  and  C35_40 
ROOT
HETATM    1  C1  UNL     1       2.485  -0.095  -1.574  1.00  0.00     0.030 C 
HETATM    2  C2  UNL     1       2.394   0.029   0.170  1.00  0.00     0.118 C 
HETATM    3  C3  UNL     1       1.244   1.072   0.984  1.00  0.00     0.025 C 
HETATM    4  C4  UNL     1       0.445   2.293  -0.172  1.00  0.00     0.002 A 
HETATM    5  C5  UNL     1       0.809   2.384  -2.005  1.00  0.00     0.001 C 
HETATM    6  C6  UNL     1       1.693   0.959  -2.718  1.00  0.00     0.003 C 
HETATM    7  C7  UNL     1       2.014   3.204  -2.043  1.00  0.00     0.005 C 
HETATM    8  C8  UNL     1       2.333   2.095  -1.008  1.00  0.00     0.004 C 
HETATM    9  C9  UNL     1       0.712   0.849  -0.956  1.00  0.00     0.000 A 
HETATM   10  C10 UNL     1      -0.675   1.433  -0.555  1.00  0.00     0.000 A 
HETATM   11  C11 UNL     1       4.034   2.162  -1.623  1.00  0.00     0.015 C 
HETATM   12  C12 UNL     1       4.501   3.713  -1.702  1.00  0.00    -0.049 C 
HETATM   13  C13 UNL     1       3.652   4.771  -1.790  1.00  0.00    -0.035 C 
HETATM   14  C14 UNL     1       2.145   4.677  -1.763  1.00  0.00     0.025 C 
HETATM   15  C15 UNL     1       5.976   4.112  -1.584  1.00  0.00     0.028 C 
HETATM   16  C16 UNL     1       6.550   3.620  -0.242  1.00  0.00     0.082 C 
HETATM   17  C17 UNL     1       6.578   2.126  -0.591  1.00  0.00     0.010 C 
HETATM   18  C18 UNL     1       5.185   1.478  -0.778  1.00  0.00     0.004 C 
HETATM   19  C19 UNL     1       7.561   2.344  -1.770  1.00  0.00     0.001 C 
HETATM   20  C20 UNL     1       8.752   2.998  -1.020  1.00  0.00     0.001 C 
HETATM   21  C21 UNL     1       8.040   4.006  -0.103  1.00  0.00     0.011 C 
HETATM   22  C22 UNL     1       8.035   1.101  -2.525  1.00  0.00     0.000 C 
HETATM   23  C23 UNL     1       6.941   3.487  -2.607  1.00  0.00     0.005 C 
HETATM   24  C25 UNL     1       4.392   1.696  -3.081  1.00  0.00     0.004 C 
HETATM   25  C26 UNL     1       2.730   2.942   0.287  1.00  0.00     0.000 C 
HETATM   26  C27 UNL     1      -0.236   2.967  -2.975  1.00  0.00     0.000 C 
HETATM   27  C28 UNL     1       1.693   1.647   2.396  1.00  0.00     0.002 C 
HETATM   28  C29 UNL     1       0.161   0.127   1.691  1.00  0.00     0.002 C 
ENDROOT
BRANCH   2  29
HETATM   29  O3  UNL     1       2.262  -1.333   0.539  1.00  0.00    -0.332 OA
BRANCH  29  30
HETATM   30  C30 UNL     1       3.034  -1.808   1.619  1.00  0.00     0.267 C 
HETATM   31  O4  UNL     1       4.385  -1.685   1.218  1.00  0.00    -0.318 OA
HETATM   32  C31 UNL     1       5.299  -2.093   2.212  1.00  0.00     0.237 C 
HETATM   33  C32 UNL     1       5.062  -3.549   2.596  1.00  0.00     0.223 C 
HETATM   34  C33 UNL     1       3.610  -3.777   2.964  1.00  0.00     0.217 C 
HETATM   35  O11 UNL     1       5.856  -3.885   3.707  1.00  0.00    -0.217 OA
HETATM   36  C34 UNL     1       2.740  -3.290   1.818  1.00  0.00     0.207 C 
HETATM   37  O10 UNL     1       3.388  -5.152   3.171  1.00  0.00    -0.218 OA
BRANCH  32  38
HETATM   38  C40 UNL     1       6.715  -1.865   1.692  1.00  0.00     0.217 C 
HETATM   39  O12 UNL     1       7.067  -0.570   1.777  1.00  0.00    -0.646 OA
HETATM   40  O13 UNL     1       7.463  -2.694   1.232  1.00  0.00    -0.646 OA
ENDBRANCH  32  38
BRANCH  36  41
HETATM   41  O5  UNL     1       1.406  -3.568   2.147  1.00  0.00    -0.324 OA
BRANCH  41  42
HETATM   42  C35 UNL     1       0.575  -3.878   1.043  1.00  0.00     0.270 C 
HETATM   43  O6  UNL     1      -0.431  -2.890   0.991  1.00  0.00    -0.326 OA
HETATM   44  C36 UNL     1      -1.609  -3.242   1.667  1.00  0.00     0.181 C 
HETATM   45  C37 UNL     1      -2.292  -4.413   0.975  1.00  0.00     0.215 C 
HETATM   46  C38 UNL     1      -1.268  -5.361   0.376  1.00  0.00     0.220 C 
HETATM   47  O9  UNL     1      -3.140  -3.951  -0.050  1.00  0.00    -0.218 OA
HETATM   48  C39 UNL     1       0.007  -5.277   1.187  1.00  0.00     0.241 C 
HETATM   49  O8  UNL     1      -1.755  -6.678   0.392  1.00  0.00    -0.218 OA
HETATM   50  O7  UNL     1       0.927  -6.223   0.698  1.00  0.00    -0.215 OA
ENDBRANCH  41  42
ENDBRANCH  36  41
ENDBRANCH  29  30
ENDBRANCH   2  29
BRANCH  16  51
HETATM   51  C24 UNL     1       5.808   4.098   0.987  1.00  0.00     0.184 C 
HETATM   52  O1  UNL     1       5.817   3.188   1.977  1.00  0.00    -0.647 OA
HETATM   53  O2  UNL     1       5.311   5.187   1.141  1.00  0.00    -0.647 OA
ENDBRANCH  16  51
TORSDOF 6
