REMARK  8 active torsions:
REMARK  status: ('A' for Active; 'I' for Inactive)
REMARK    1  A    between atoms: C3_3  and  O4_10 
REMARK    2  A    between atoms: C4_5  and  C6_8 
REMARK    3  A    between atoms: O4_10  and  C7_11 
REMARK    4  A    between atoms: C10_14  and  O6_18 
REMARK    5  A    between atoms: O6_18  and  C13_19 
REMARK    6  A    between atoms: C14_20  and  O11_29 
REMARK    7  A    between atoms: C15_22  and  C18_27 
REMARK    8  A    between atoms: O11_29  and  C19_30 
ROOT
HETATM    1  C13 UNL     1      -4.431  -0.650  -1.212  1.00  0.00     0.207 C 
HETATM    2  C14 UNL     1      -3.153  -1.378  -0.839  1.00  0.00     0.267 C 
HETATM    3  O7  UNL     1      -3.372  -2.695  -0.389  1.00  0.00    -0.326 OA
HETATM    4  C15 UNL     1      -4.128  -3.535  -1.221  1.00  0.00     0.184 C 
HETATM    5  C16 UNL     1      -5.396  -2.894  -1.771  1.00  0.00     0.215 C 
HETATM    6  C17 UNL     1      -5.213  -1.459  -2.234  1.00  0.00     0.217 C 
HETATM    7  O8  UNL     1      -4.537  -1.430  -3.471  1.00  0.00    -0.218 OA
HETATM    8  O9  UNL     1      -6.401  -2.934  -0.782  1.00  0.00    -0.218 OA
ENDROOT
BRANCH   2   9
HETATM    9  O11 UNL     1      -2.312  -1.424  -1.967  1.00  0.00    -0.332 OA
BRANCH   9  10
HETATM   10  C19 UNL     1      -0.931  -1.355  -1.742  1.00  0.00     0.118 C 
HETATM   11  C20 UNL     1      -0.283  -1.658  -3.105  1.00  0.00     0.030 C 
HETATM   12  C21 UNL     1       1.211  -1.316  -3.108  1.00  0.00     0.002 C 
HETATM   13  C22 UNL     1       1.460   0.186  -2.799  1.00  0.00     0.000 C 
HETATM   14  C28 UNL     1       1.985  -1.768  -4.357  1.00  0.00     0.000 C 
HETATM   15  C23 UNL     1       0.967   0.378  -1.349  1.00  0.00     0.003 C 
HETATM   16  C25 UNL     1       2.968   0.517  -3.011  1.00  0.00     0.000 C 
HETATM   17  C44 UNL     1       0.665   1.139  -3.730  1.00  0.00     0.000 C 
HETATM   18  C24 UNL     1      -0.520   0.013  -1.173  1.00  0.00     0.030 C 
HETATM   19  C26 UNL     1       3.857  -0.740  -2.958  1.00  0.00     0.000 C 
HETATM   20  C32 UNL     1       3.572   1.651  -2.165  1.00  0.00     0.000 C 
HETATM   21  C27 UNL     1       3.512  -1.667  -4.136  1.00  0.00     0.000 C 
HETATM   22  C29 UNL     1       5.334  -0.366  -2.767  1.00  0.00     0.003 C 
HETATM   23  C30 UNL     1       5.789   0.995  -3.325  1.00  0.00     0.003 C 
HETATM   24  C35 UNL     1       6.438  -1.350  -3.165  1.00  0.00     0.030 C 
HETATM   25  C31 UNL     1       4.928   2.133  -2.731  1.00  0.00     0.000 C 
HETATM   26  C33 UNL     1       7.284   0.964  -2.912  1.00  0.00     0.032 C 
HETATM   27  C43 UNL     1       5.747   1.069  -4.872  1.00  0.00     0.000 C 
HETATM   28  C34 UNL     1       7.713  -0.488  -3.143  1.00  0.00     0.118 C 
HETATM   29  C37 UNL     1       7.615   1.173  -1.428  1.00  0.00     0.059 C 
HETATM   30  O12 UNL     1       8.575  -0.879  -2.122  1.00  0.00    -0.337 OA
HETATM   31  C36 UNL     1       8.464  -0.025  -1.013  1.00  0.00     0.187 C 
HETATM   32  C38 UNL     1       7.866  -0.768   0.177  1.00  0.00     0.056 C 
HETATM   33  O13 UNL     1       9.758   0.442  -0.707  1.00  0.00    -0.335 OA
HETATM   34  C39 UNL     1       8.781  -1.901   0.649  1.00  0.00     0.007 C 
HETATM   35  C40 UNL     1      10.174  -1.320   0.920  1.00  0.00     0.030 C 
HETATM   36  C41 UNL     1      11.161  -2.428   1.321  1.00  0.00     0.003 C 
HETATM   37  C42 UNL     1      10.658  -0.567  -0.319  1.00  0.00     0.145 C 
ENDBRANCH   9  10
ENDBRANCH   2   9
BRANCH   1  38
HETATM   38  O6  UNL     1      -5.197  -0.444  -0.058  1.00  0.00    -0.324 OA
BRANCH  38  39
HETATM   39  C10 UNL     1      -5.981   0.731  -0.079  1.00  0.00     0.270 C 
HETATM   40  C9  UNL     1      -7.289   0.519   0.642  1.00  0.00     0.241 C 
HETATM   41  C8  UNL     1      -7.079   0.312   2.125  1.00  0.00     0.217 C 
HETATM   42  O14 UNL     1      -8.115   1.648   0.474  1.00  0.00    -0.215 OA
HETATM   43  C7  UNL     1      -6.176   1.389   2.715  1.00  0.00     0.178 C 
HETATM   44  O15 UNL     1      -8.343   0.374   2.748  1.00  0.00    -0.218 OA
HETATM   45  C11 UNL     1      -4.910   1.549   1.874  1.00  0.00     0.148 C 
HETATM   46  O5  UNL     1      -5.209   1.750   0.517  1.00  0.00    -0.329 OA
HETATM   47  C12 UNL     1      -4.048   2.733   2.320  1.00  0.00     0.035 C 
BRANCH  43  48
HETATM   48  O4  UNL     1      -5.857   0.972   4.018  1.00  0.00    -0.326 OA
BRANCH  48  49
HETATM   49  C3  UNL     1      -5.870   1.983   5.004  1.00  0.00     0.270 C 
HETATM   50  C2  UNL     1      -7.059   1.777   5.913  1.00  0.00     0.241 C 
HETATM   51  C1  UNL     1      -6.961   2.751   7.066  1.00  0.00     0.220 C 
HETATM   52  O16 UNL     1      -8.255   2.014   5.214  1.00  0.00    -0.215 OA
HETATM   53  C5  UNL     1      -5.638   2.524   7.766  1.00  0.00     0.215 C 
HETATM   54  O17 UNL     1      -8.015   2.530   7.967  1.00  0.00    -0.218 OA
HETATM   55  C4  UNL     1      -4.488   2.662   6.775  1.00  0.00     0.184 C 
HETATM   56  O2  UNL     1      -5.534   3.471   8.801  1.00  0.00    -0.218 OA
HETATM   57  O1  UNL     1      -4.667   1.762   5.712  1.00  0.00    -0.326 OA
BRANCH  55  58
HETATM   58  C6  UNL     1      -3.147   2.365   7.430  1.00  0.00     0.214 C 
HETATM   59  O3  UNL     1      -2.098   2.613   6.514  1.00  0.00    -0.218 OA
ENDBRANCH  55  58
ENDBRANCH  48  49
ENDBRANCH  43  48
ENDBRANCH  38  39
ENDBRANCH   1  38
BRANCH   4  60
HETATM   60  C18 UNL     1      -3.268  -4.225  -2.275  1.00  0.00     0.214 C 
HETATM   61  O10 UNL     1      -3.921  -5.400  -2.716  1.00  0.00    -0.218 OA
ENDBRANCH   4  60
TORSDOF 8
