REMARK  11 active torsions:
REMARK  status: ('A' for Active; 'I' for Inactive)
REMARK    1  A    between atoms: O1_1  and  C1_2 
REMARK    2  A    between atoms: C2_3  and  O2_4 
REMARK    3  A    between atoms: C10_13  and  C11_14 
REMARK    4  A    between atoms: C11_14  and  C12_15 
REMARK    5  A    between atoms: C15_18  and  O3_21 
REMARK    6  A    between atoms: O3_21  and  C18_22 
REMARK    7  A    between atoms: C20_24  and  C25_30 
REMARK    8  A    between atoms: C23_27  and  O4_28 
REMARK    9  A    between atoms: C25_30  and  C26_31 
REMARK   10  A    between atoms: C32_38  and  O6_43 
REMARK   11  A    between atoms: C33_39  and  O5_41 
ROOT
HETATM    1  C18 UNL     1       2.001   1.813   1.186  1.00  0.00     0.122 A 
HETATM    2  C19 UNL     1       2.058   3.216   1.104  1.00  0.00     0.023 A 
HETATM    3  C20 UNL     1       1.123   3.999   0.419  1.00  0.00    -0.014 A 
HETATM    4  C21 UNL     1       0.067   3.323  -0.191  1.00  0.00    -0.002 A 
HETATM    5  C22 UNL     1      -0.035   1.937  -0.096  1.00  0.00     0.026 A 
HETATM    6  C23 UNL     1       0.912   1.148   0.576  1.00  0.00     0.117 A 
ENDROOT
BRANCH   1   7
HETATM    7  O3  UNL     1       2.987   1.174   1.904  1.00  0.00    -0.305 OA
BRANCH   7   8
HETATM    8  C15 UNL     1       3.226  -0.148   1.636  1.00  0.00     0.100 C 
HETATM    9  C14 UNL     1       3.893  -0.537   0.437  1.00  0.00     0.024 C 
HETATM   10  C13 UNL     1       4.287  -1.873   0.226  1.00  0.00    -0.002 C 
HETATM   11  C12 UNL     1       4.057  -2.880   1.191  1.00  0.00    -0.017 C 
HETATM   12  C17 UNL     1       3.487  -2.471   2.430  1.00  0.00    -0.002 C 
HETATM   13  C16 UNL     1       3.188  -1.111   2.678  1.00  0.00     0.024 C 
BRANCH  11  14
HETATM   14  C11 UNL     1       4.521  -4.296   0.959  1.00  0.00     0.064 C 
BRANCH  14  15
HETATM   15  C10 UNL     1       3.482  -5.347   0.630  1.00  0.00     0.015 C 
HETATM   16  C5  UNL     1       2.101  -5.140   0.099  1.00  0.00    -0.009 C 
HETATM   17  C4  UNL     1       1.626  -3.796  -0.339  1.00  0.00     0.080 C 
HETATM   18  C6  UNL     1       1.236  -6.173  -0.002  1.00  0.00    -0.004 C 
HETATM   19  C2  UNL     1       0.501  -3.676  -1.336  1.00  0.00     0.098 C 
HETATM   20  C1  UNL     1      -0.630  -4.635  -1.044  1.00  0.00     0.113 C 
HETATM   21  C7  UNL     1      -0.134  -5.978  -0.555  1.00  0.00     0.025 C 
HETATM   22  C8  UNL     1       1.524  -7.558   0.478  1.00  0.00    -0.009 C 
HETATM   23  C9  UNL     1       2.852  -8.268   0.357  1.00  0.00     0.103 C 
HETATM   24  N1  UNL     1       4.461  -7.006  -0.415  1.00  0.00    -0.250 NA
HETATM   25  C38 UNL     1       5.283  -7.313   0.906  1.00  0.00     0.094 C 
BRANCH  19  26
HETATM   26  O2  UNL     1       0.551  -2.947  -2.488  1.00  0.00    -0.330 OA
HETATM   27  C3  UNL     1       1.791  -2.343  -2.776  1.00  0.00     0.181 C 
ENDBRANCH  19  26
BRANCH  20  28
HETATM   28  O1  UNL     1      -1.881  -4.142  -0.793  1.00  0.00    -0.327 OA
HETATM   29  C39 UNL     1      -2.680  -4.873   0.106  1.00  0.00     0.181 C 
ENDBRANCH  20  28
ENDBRANCH  14  15
ENDBRANCH  11  14
ENDBRANCH   7   8
ENDBRANCH   1   7
BRANCH   6  30
HETATM   30  O4  UNL     1       0.766  -0.210   0.723  1.00  0.00    -0.326 OA
HETATM   31  C24 UNL     1      -0.493  -0.794   0.487  1.00  0.00     0.181 C 
ENDBRANCH   6  30
BRANCH   3  32
HETATM   32  C25 UNL     1       1.143   5.515   0.409  1.00  0.00     0.070 C 
BRANCH  32  33
HETATM   33  C26 UNL     1       2.479   6.227   0.284  1.00  0.00     0.042 C 
HETATM   34  N2  UNL     1       2.582   7.435   0.940  1.00  0.00    -0.328 N 
HETATM   35  C27 UNL     1       3.809   8.102   0.873  1.00  0.00     0.076 C 
HETATM   36  C37 UNL     1       1.426   8.116   1.658  1.00  0.00     0.130 C 
HETATM   37  C28 UNL     1       4.916   7.587   0.237  1.00  0.00     0.019 C 
HETATM   38  C29 UNL     1       4.781   6.331  -0.396  1.00  0.00     0.005 C 
HETATM   39  C30 UNL     1       3.550   5.664  -0.488  1.00  0.00     0.014 C 
HETATM   40  C34 UNL     1       5.940   5.584  -0.742  1.00  0.00     0.026 C 
HETATM   41  C31 UNL     1       3.250   4.592  -1.505  1.00  0.00     0.027 C 
HETATM   42  C32 UNL     1       4.328   3.817  -1.128  1.00  0.00     0.116 C 
HETATM   43  C33 UNL     1       5.704   4.254  -0.927  1.00  0.00     0.116 C 
BRANCH  42  44
HETATM   44  O6  UNL     1       4.210   2.483  -1.451  1.00  0.00    -0.326 OA
HETATM   45  C36 UNL     1       3.199   2.093  -2.354  1.00  0.00     0.181 C 
ENDBRANCH  42  44
BRANCH  43  46
HETATM   46  O5  UNL     1       6.793   3.414  -0.896  1.00  0.00    -0.326 OA
HETATM   47  C35 UNL     1       6.678   2.219  -0.155  1.00  0.00     0.181 C 
ENDBRANCH  43  46
ENDBRANCH  32  33
ENDBRANCH   3  32
TORSDOF 11
