REMARK  3 active torsions:
REMARK  status: ('A' for Active; 'I' for Inactive)
REMARK    1  A    between atoms: C2_2  and  O4_18 
REMARK    2  A    between atoms: C3_3  and  C10_12 
REMARK    3  A    between atoms: C11_14  and  C12_15 
ROOT
HETATM    1  C1  UNL     1       1.920  -2.713   0.378  1.00  0.00     0.024 C 
HETATM    2  C2  UNL     1       1.180  -1.645   0.900  1.00  0.00     0.094 C 
HETATM    3  C3  UNL     1       1.470  -0.342   0.438  1.00  0.00     0.052 C 
HETATM    4  C4  UNL     1       2.366  -0.132  -0.636  1.00  0.00     0.103 A 
HETATM    5  C5  UNL     1       3.008  -1.255  -1.195  1.00  0.00     0.023 A 
HETATM    6  C6  UNL     1       2.795  -2.541  -0.685  1.00  0.00     0.004 C 
HETATM    7  C7  UNL     1       3.942  -1.092  -2.308  1.00  0.00     0.007 A 
HETATM    8  C8  UNL     1       4.157   0.144  -2.803  1.00  0.00     0.069 A 
HETATM    9  C9  UNL     1       3.443   1.279  -2.182  1.00  0.00     0.300 A 
HETATM   10  O1  UNL     1       2.616   1.129  -1.111  1.00  0.00    -0.273 OA
HETATM   11  O2  UNL     1       3.621   2.394  -2.671  1.00  0.00    -0.259 OA
ENDROOT
BRANCH   3  12
HETATM   12  C10 UNL     1       0.730   0.736   1.116  1.00  0.00     0.173 A 
HETATM   13  O3  UNL     1       1.141   2.181   0.792  1.00  0.00    -0.345 OA
HETATM   14  C11 UNL     1      -0.082   1.442   0.216  1.00  0.00     0.166 A 
BRANCH  14  15
HETATM   15  C12 UNL     1      -1.345   1.858   0.818  1.00  0.00    -0.015 C 
HETATM   16  C13 UNL     1      -2.578   1.453   0.042  1.00  0.00     0.029 C 
HETATM   17  C14 UNL     1      -1.462   2.539   1.971  1.00  0.00    -0.007 C 
ENDBRANCH  14  15
ENDBRANCH   3  12
BRANCH   2  18
HETATM   18  O4  UNL     1       0.408  -1.869   2.013  1.00  0.00    -0.328 OA
HETATM   19  C15 UNL     1      -0.925  -2.212   1.712  1.00  0.00     0.181 C 
ENDBRANCH   2  18
TORSDOF 3
