REMARK  7 active torsions:
REMARK  status: ('A' for Active; 'I' for Inactive)
REMARK    1  A    between atoms: C1_1  and  C22_33 
REMARK    2  A    between atoms: C2_2  and  O6_21 
REMARK    3  A    between atoms: C9_10  and  C10_12 
REMARK    4  A    between atoms: O6_21  and  C16_22 
REMARK    5  A    between atoms: C17_24  and  C21_31 
REMARK    6  A    between atoms: C22_33  and  C23_34 
REMARK    7  A    between atoms: C23_34  and  C24_35 
ROOT
HETATM    1  C1  UNL     1       2.555  -1.708  -0.481  1.00  0.00     0.026 A 
HETATM    2  C2  UNL     1       2.202  -0.529   0.216  1.00  0.00     0.097 A 
HETATM    3  C3  UNL     1       3.028   0.593   0.061  1.00  0.00     0.048 A 
HETATM    4  C4  UNL     1       4.169   0.618  -0.741  1.00  0.00     0.101 A 
HETATM    5  C5  UNL     1       4.459  -0.558  -1.449  1.00  0.00     0.085 A 
HETATM    6  C6  UNL     1       3.686  -1.725  -1.321  1.00  0.00     0.134 A 
HETATM    7  O1  UNL     1       4.069  -2.826  -2.017  1.00  0.00    -0.190 OA
HETATM    8  C7  UNL     1       5.660  -0.540  -2.321  1.00  0.00     0.210 C 
HETATM    9  C8  UNL     1       6.441   0.757  -2.361  1.00  0.00     0.245 C 
HETATM   10  C9  UNL     1       5.528   1.943  -2.120  1.00  0.00     0.181 C 
HETATM   11  O2  UNL     1       4.869   1.786  -0.889  1.00  0.00    -0.326 OA
HETATM   12  O4  UNL     1       7.038   0.839  -3.643  1.00  0.00    -0.212 OA
HETATM   13  O5  UNL     1       6.085  -1.432  -3.046  1.00  0.00    -0.288 OA
ENDROOT
BRANCH   2  14
HETATM   14  O6  UNL     1       1.041  -0.544   0.953  1.00  0.00    -0.304 OA
BRANCH  14  15
HETATM   15  C16 UNL     1       0.430   0.635   1.428  1.00  0.00     0.274 C 
HETATM   16  O7  UNL     1       0.604   0.594   2.828  1.00  0.00    -0.326 OA
HETATM   17  C17 UNL     1       0.001   1.679   3.488  1.00  0.00     0.184 C 
HETATM   18  C18 UNL     1      -1.496   1.712   3.191  1.00  0.00     0.215 C 
HETATM   19  C19 UNL     1      -1.738   1.760   1.697  1.00  0.00     0.220 C 
HETATM   20  O10 UNL     1      -2.098   2.849   3.759  1.00  0.00    -0.218 OA
HETATM   21  C20 UNL     1      -1.038   0.573   1.075  1.00  0.00     0.241 C 
HETATM   22  O9  UNL     1      -3.117   1.692   1.440  1.00  0.00    -0.218 OA
HETATM   23  O8  UNL     1      -1.171   0.631  -0.322  1.00  0.00    -0.215 OA
BRANCH  17  24
HETATM   24  C21 UNL     1       0.260   1.533   4.981  1.00  0.00     0.214 C 
HETATM   25  O11 UNL     1       1.649   1.596   5.237  1.00  0.00    -0.218 OA
ENDBRANCH  17  24
ENDBRANCH  14  15
ENDBRANCH   2  14
BRANCH   1  26
HETATM   26  C22 UNL     1       1.623  -2.897  -0.248  1.00  0.00     0.033 C 
BRANCH  26  27
HETATM   27  C23 UNL     1       1.978  -4.311  -0.727  1.00  0.00     0.035 C 
BRANCH  27  28
HETATM   28  C24 UNL     1       1.031  -5.436  -0.274  1.00  0.00     0.127 C 
HETATM   29  O12 UNL     1       1.490  -6.619  -0.882  1.00  0.00    -0.226 OA
HETATM   30  C25 UNL     1       1.066  -5.670   1.238  1.00  0.00     0.033 C 
HETATM   31  C26 UNL     1      -0.407  -5.213  -0.749  1.00  0.00     0.033 C 
ENDBRANCH  27  28
ENDBRANCH  26  27
ENDBRANCH   1  26
BRANCH  10  32
HETATM   32  C10 UNL     1       6.304   3.244  -2.147  1.00  0.00     0.008 A 
HETATM   33  C11 UNL     1       6.244   4.097  -3.254  1.00  0.00     0.000 A 
HETATM   34  C12 UNL     1       6.960   5.295  -3.275  1.00  0.00     0.027 A 
HETATM   35  C13 UNL     1       7.761   5.682  -2.196  1.00  0.00     0.131 A 
HETATM   36  C14 UNL     1       7.828   4.820  -1.097  1.00  0.00     0.027 A 
HETATM   37  O3  UNL     1       8.452   6.851  -2.226  1.00  0.00    -0.190 OA
HETATM   38  C15 UNL     1       7.115   3.620  -1.071  1.00  0.00     0.000 A 
ENDBRANCH  10  32
TORSDOF 7
