REMARK  2 active torsions:
REMARK  status: ('A' for Active; 'I' for Inactive)
REMARK    1  A    between atoms: C5_5  and  C7_7 
REMARK    2  A    between atoms: C7_7  and  C8_8 
ROOT
HETATM    1  C1  UNL     1       2.995   0.392  -0.288  1.00  0.00    -0.000 A 
HETATM    2  C2  UNL     1       3.497  -0.864   0.052  1.00  0.00    -0.000 A 
HETATM    3  C3  UNL     1       2.610  -1.901   0.343  1.00  0.00    -0.000 A 
HETATM    4  C4  UNL     1       1.233  -1.674   0.293  1.00  0.00    -0.004 A 
HETATM    5  C5  UNL     1       0.710  -0.419  -0.044  1.00  0.00    -0.020 A 
HETATM    6  C6  UNL     1       1.616   0.609  -0.335  1.00  0.00    -0.004 A 
ENDROOT
BRANCH   5   7
HETATM    7  C7  UNL     1      -0.793  -0.229  -0.077  1.00  0.00     0.068 C 
BRANCH   7   8
HETATM    8  C8  UNL     1      -1.296   1.218   0.022  1.00  0.00     0.343 C 
HETATM    9  N1  UNL     1      -2.765   1.248   0.120  1.00  0.00     0.618 N 
ENDBRANCH   7   8
ENDBRANCH   5   7
TORSDOF 2
