REMARK  2 active torsions:
REMARK  status: ('A' for Active; 'I' for Inactive)
REMARK    1  A    between atoms: C5_5  and  C7_7 
REMARK    2  A    between atoms: C7_7  and  C8_8 
ROOT
HETATM    1  C1  UNL     1       2.520   0.439  -0.118  1.00  0.00    -0.000 A 
HETATM    2  C2  UNL     1       2.917  -0.852   0.231  1.00  0.00    -0.000 A 
HETATM    3  C3  UNL     1       1.943  -1.817   0.489  1.00  0.00    -0.000 A 
HETATM    4  C4  UNL     1       0.591  -1.482   0.398  1.00  0.00    -0.004 A 
HETATM    5  C5  UNL     1       0.169  -0.191   0.051  1.00  0.00    -0.011 A 
HETATM    6  C6  UNL     1       1.164   0.762  -0.207  1.00  0.00    -0.004 A 
ENDROOT
BRANCH   5   7
HETATM    7  C7  UNL     1      -1.323   0.071  -0.021  1.00  0.00     0.124 C 
BRANCH   7   8
HETATM    8  C8  UNL     1      -1.866   1.445  -0.374  1.00  0.00     0.190 C 
HETATM    9  O1  UNL     1      -3.213   1.423  -0.403  1.00  0.00    -0.647 OA
HETATM   10  O2  UNL     1      -1.273   2.470  -0.609  1.00  0.00    -0.647 OA
ENDBRANCH   7   8
ENDBRANCH   5   7
TORSDOF 2
