REMARK  6 active torsions:
REMARK  status: ('A' for Active; 'I' for Inactive)
REMARK    1  A    between atoms: C2_2  and  O2_12 
REMARK    2  A    between atoms: C5_5  and  C7_7 
REMARK    3  A    between atoms: C7_7  and  C8_8 
REMARK    4  A    between atoms: C8_8  and  C9_9 
REMARK    5  A    between atoms: O2_12  and  C11_13 
REMARK    6  A    between atoms: C12_15  and  C16_22 
ROOT
HETATM    1  O2  UNL     1       6.148   0.481   0.023  1.00  0.00    -0.304 OA
ENDROOT
BRANCH   1   2
HETATM    2  C2  UNL     1       4.792   0.659  -0.090  1.00  0.00     0.097 A 
HETATM    3  C1  UNL     1       4.338   1.899  -0.562  1.00  0.00     0.024 A 
HETATM    4  C6  UNL     1       2.987   2.208  -0.728  1.00  0.00    -0.002 A 
HETATM    5  C5  UNL     1       1.996   1.265  -0.446  1.00  0.00    -0.022 A 
HETATM    6  C4  UNL     1       2.431   0.010  -0.008  1.00  0.00    -0.002 A 
HETATM    7  C3  UNL     1       3.786  -0.287   0.161  1.00  0.00     0.024 A 
BRANCH   5   8
HETATM    8  C7  UNL     1       0.511   1.530  -0.589  1.00  0.00     0.034 C 
BRANCH   8   9
HETATM    9  C8  UNL     1       0.101   2.976  -0.906  1.00  0.00     0.069 C 
BRANCH   9  10
HETATM   10  C9  UNL     1      -1.394   3.248  -1.022  1.00  0.00     0.151 C 
HETATM   11  O1  UNL     1      -1.779   4.332  -1.403  1.00  0.00    -0.296 OA
HETATM   12  C10 UNL     1      -2.398   2.173  -0.649  1.00  0.00     0.072 C 
ENDBRANCH   9  10
ENDBRANCH   8   9
ENDBRANCH   5   8
ENDBRANCH   1   2
BRANCH   1  13
HETATM   13  C11 UNL     1       6.726  -0.798   0.174  1.00  0.00     0.274 C 
HETATM   14  O3  UNL     1       7.500  -0.694   1.351  1.00  0.00    -0.326 OA
HETATM   15  C12 UNL     1       8.212  -1.870   1.640  1.00  0.00     0.184 C 
HETATM   16  C13 UNL     1       9.164  -2.194   0.493  1.00  0.00     0.215 C 
HETATM   17  C14 UNL     1       8.391  -2.335  -0.802  1.00  0.00     0.220 C 
HETATM   18  O6  UNL     1       9.843  -3.404   0.724  1.00  0.00    -0.218 OA
HETATM   19  C15 UNL     1       7.612  -1.059  -1.022  1.00  0.00     0.241 C 
HETATM   20  O5  UNL     1       9.289  -2.536  -1.863  1.00  0.00    -0.218 OA
HETATM   21  O4  UNL     1       6.802  -1.186  -2.163  1.00  0.00    -0.215 OA
BRANCH  15  22
HETATM   22  C16 UNL     1       8.958  -1.669   2.951  1.00  0.00     0.214 C 
HETATM   23  O7  UNL     1       8.032  -1.529   4.011  1.00  0.00    -0.218 OA
ENDBRANCH  15  22
ENDBRANCH   1  13
TORSDOF 6
