REMARK  2 active torsions:
REMARK  status: ('A' for Active; 'I' for Inactive)
REMARK    1  A    between atoms: C4_4  and  C7_7 
REMARK    2  A    between atoms: C8_8  and  C9_9 
ROOT
HETATM    1  C1  UNL     1       2.943   2.296  -1.387  1.00  0.00     0.000 A 
HETATM    2  C2  UNL     1       3.439   0.993  -1.308  1.00  0.00     0.000 A 
HETATM    3  C3  UNL     1       2.629  -0.035  -0.829  1.00  0.00     0.000 A 
HETATM    4  C4  UNL     1       1.308   0.210  -0.411  1.00  0.00     0.000 A 
HETATM    5  C5  UNL     1       0.822   1.525  -0.506  1.00  0.00     0.000 A 
HETATM    6  C6  UNL     1       1.632   2.557  -0.987  1.00  0.00     0.000 A 
ENDROOT
BRANCH   4   7
HETATM    7  C7  UNL     1       0.509  -0.922   0.083  1.00  0.00     0.003 C 
HETATM    8  C8  UNL     1      -0.735  -0.843   0.616  1.00  0.00     0.037 C 
BRANCH   8   9
HETATM    9  C9  UNL     1      -1.463  -2.037   1.104  1.00  0.00     0.173 C 
HETATM   10  C10 UNL     1      -2.835  -1.789   1.704  1.00  0.00     0.077 C 
HETATM   11  O1  UNL     1      -1.005  -3.172   1.031  1.00  0.00    -0.291 OA
ENDBRANCH   8   9
ENDBRANCH   4   7
TORSDOF 2
