REMARK  2 active torsions:
REMARK  status: ('A' for Active; 'I' for Inactive)
REMARK    1  A    between atoms: C5_5  and  C7_7 
REMARK    2  A    between atoms: C7_7  and  C8_8 
ROOT
HETATM    1  C7  UNL     1       0.621   0.764   0.481  1.00  0.00     0.009 C 
HETATM    2  C14 UNL     1       0.050   1.840   1.053  1.00  0.00     0.063 C 
HETATM    3  C15 UNL     1      -1.419   1.931   1.203  1.00  0.00     0.022 C 
HETATM    4  N1  UNL     1      -2.661   1.997   1.322  1.00  0.00    -0.096 N 
ENDROOT
BRANCH   1   5
HETATM    5  C5  UNL     1       2.098   0.681   0.311  1.00  0.00     0.001 A 
HETATM    6  C4  UNL     1       2.817  -0.449   0.727  1.00  0.00     0.000 A 
HETATM    7  C3  UNL     1       4.203  -0.504   0.581  1.00  0.00     0.000 A 
HETATM    8  C2  UNL     1       4.892   0.562   0.001  1.00  0.00     0.000 A 
HETATM    9  C1  UNL     1       4.184   1.681  -0.440  1.00  0.00     0.000 A 
HETATM   10  C6  UNL     1       2.797   1.740  -0.282  1.00  0.00     0.000 A 
ENDBRANCH   1   5
BRANCH   1  11
HETATM   11  C8  UNL     1      -0.269  -0.324  -0.058  1.00  0.00     0.001 A 
HETATM   12  C9  UNL     1      -0.957  -0.107  -1.257  1.00  0.00     0.000 A 
HETATM   13  C10 UNL     1      -1.834  -1.077  -1.748  1.00  0.00     0.000 A 
HETATM   14  C11 UNL     1      -2.032  -2.264  -1.043  1.00  0.00     0.000 A 
HETATM   15  C12 UNL     1      -1.351  -2.482   0.157  1.00  0.00     0.000 A 
HETATM   16  C13 UNL     1      -0.476  -1.511   0.652  1.00  0.00     0.000 A 
ENDBRANCH   1  11
TORSDOF 2
