REMARK  8 active torsions:
REMARK  status: ('A' for Active; 'I' for Inactive)
REMARK    1  A    between atoms: C3_3  and  C7_7 
REMARK    2  A    between atoms: C7_7  and  C8_8 
REMARK    3  A    between atoms: C8_8  and  C9_9 
REMARK    4  A    between atoms: C14_15  and  O5_22 
REMARK    5  A    between atoms: O5_22  and  C18_23 
REMARK    6  A    between atoms: C24_30  and  C27_34 
REMARK    7  A    between atoms: C27_34  and  C28_35 
REMARK    8  A    between atoms: C28_35  and  C29_36 
ROOT
HETATM    1  C9  UNL     1      -0.178  -1.160  -1.107  1.00  0.00     0.081 A 
HETATM    2  C10 UNL     1      -1.036  -2.170  -0.861  1.00  0.00     0.062 A 
HETATM    3  C11 UNL     1      -0.511  -3.504  -0.518  1.00  0.00     0.198 A 
HETATM    4  C12 UNL     1       0.964  -3.615  -0.501  1.00  0.00     0.070 A 
HETATM    5  C13 UNL     1       1.704  -2.510  -0.727  1.00  0.00     0.109 A 
HETATM    6  O1  UNL     1       1.180  -1.288  -1.054  1.00  0.00    -0.313 OA
HETATM    7  C14 UNL     1       3.222  -2.548  -0.571  1.00  0.00     0.199 C 
HETATM    8  C15 UNL     1       3.608  -3.714   0.341  1.00  0.00     0.219 C 
HETATM    9  C16 UNL     1       3.032  -5.023  -0.169  1.00  0.00     0.220 C 
HETATM   10  C17 UNL     1       1.519  -4.972  -0.168  1.00  0.00     0.212 C 
HETATM   11  O2  UNL     1       0.999  -5.350   1.093  1.00  0.00    -0.216 OA
HETATM   12  O3  UNL     1       3.468  -5.248  -1.490  1.00  0.00    -0.217 OA
HETATM   13  O4  UNL     1       5.004  -3.850   0.450  1.00  0.00    -0.217 OA
HETATM   14  O8  UNL     1      -1.202  -4.462  -0.187  1.00  0.00    -0.287 OA
ENDROOT
BRANCH   7  15
HETATM   15  O5  UNL     1       3.620  -1.317  -0.007  1.00  0.00    -0.324 OA
BRANCH  15  16
HETATM   16  C18 UNL     1       4.944  -0.973   0.084  1.00  0.00     0.095 A 
HETATM   17  C19 UNL     1       5.333  -0.096   1.105  1.00  0.00     0.029 A 
HETATM   18  C20 UNL     1       6.667   0.270   1.317  1.00  0.00     0.064 A 
HETATM   19  C21 UNL     1       7.707  -0.256   0.535  1.00  0.00     0.103 A 
HETATM   20  C26 UNL     1       7.012   1.194   2.422  1.00  0.00     0.199 C 
HETATM   21  C22 UNL     1       7.320  -1.133  -0.482  1.00  0.00     0.027 A 
HETATM   22  O6  UNL     1       9.025   0.057   0.715  1.00  0.00    -0.311 OA
HETATM   23  C23 UNL     1       5.984  -1.484  -0.703  1.00  0.00     0.026 A 
HETATM   24  C24 UNL     1       9.359   0.759   1.838  1.00  0.00     0.081 C 
HETATM   25  C25 UNL     1       8.464   1.339   2.663  1.00  0.00     0.062 C 
HETATM   26  O7  UNL     1       6.182   1.761   3.128  1.00  0.00    -0.286 OA
BRANCH  24  27
HETATM   27  C27 UNL     1      10.843   0.894   2.117  1.00  0.00     0.056 C 
BRANCH  27  28
HETATM   28  C28 UNL     1      11.496   1.925   1.186  1.00  0.00     0.033 C 
BRANCH  28  29
HETATM   29  C29 UNL     1      12.971   2.196   1.407  1.00  0.00    -0.022 A 
HETATM   30  C30 UNL     1      13.568   3.279   0.747  1.00  0.00    -0.004 A 
HETATM   31  C31 UNL     1      14.922   3.578   0.914  1.00  0.00    -0.000 A 
HETATM   32  C32 UNL     1      15.712   2.791   1.753  1.00  0.00    -0.000 A 
HETATM   33  C33 UNL     1      15.135   1.708   2.418  1.00  0.00    -0.000 A 
HETATM   34  C34 UNL     1      13.780   1.417   2.244  1.00  0.00    -0.004 A 
ENDBRANCH  28  29
ENDBRANCH  27  28
ENDBRANCH  24  27
ENDBRANCH  15  16
ENDBRANCH   7  15
BRANCH   1  35
HETATM   35  C8  UNL     1      -0.748   0.201  -1.454  1.00  0.00     0.056 C 
BRANCH  35  36
HETATM   36  C7  UNL     1       0.298   1.309  -1.656  1.00  0.00     0.033 C 
BRANCH  36  37
HETATM   37  C3  UNL     1      -0.241   2.677  -2.028  1.00  0.00    -0.022 A 
HETATM   38  C2  UNL     1       0.664   3.715  -2.288  1.00  0.00    -0.004 A 
HETATM   39  C1  UNL     1       0.227   4.994  -2.640  1.00  0.00    -0.000 A 
HETATM   40  C6  UNL     1      -1.139   5.261  -2.739  1.00  0.00    -0.000 A 
HETATM   41  C5  UNL     1      -2.056   4.242  -2.482  1.00  0.00    -0.000 A 
HETATM   42  C4  UNL     1      -1.609   2.966  -2.131  1.00  0.00    -0.004 A 
ENDBRANCH  36  37
ENDBRANCH  35  36
ENDBRANCH   1  35
TORSDOF 8
