REMARK  3 active torsions:
REMARK  status: ('A' for Active; 'I' for Inactive)
REMARK    1  A    between atoms: C5_5  and  C7_7 
REMARK    2  A    between atoms: C7_7  and  C8_8 
REMARK    3  A    between atoms: C9_9  and  C10_10 
ROOT
HETATM    1  C10 UNL     1      -1.431  -1.365   1.432  1.00  0.00    -0.014 C 
HETATM    2  C11 UNL     1      -1.961  -2.145   2.195  1.00  0.00    -0.077 C 
HETATM    3  C12 UNL     1      -2.582  -3.100   3.125  1.00  0.00     0.091 C 
ENDROOT
BRANCH   1   4
HETATM    4  C9  UNL     1      -0.785  -0.440   0.522  1.00  0.00    -0.011 C 
HETATM    5  C8  UNL     1      -0.230   0.325  -0.238  1.00  0.00    -0.041 C 
BRANCH   5   6
HETATM    6  C7  UNL     1       0.490   1.223  -1.160  1.00  0.00     0.238 C 
HETATM    7  O1  UNL     1       0.111   2.565  -0.856  1.00  0.00    -0.204 OA
BRANCH   6   8
HETATM    8  C5  UNL     1       1.991   1.035  -1.117  1.00  0.00     0.020 A 
HETATM    9  C4  UNL     1       2.556  -0.216  -0.838  1.00  0.00    -0.001 A 
HETATM   10  C3  UNL     1       3.940  -0.395  -0.796  1.00  0.00    -0.000 A 
HETATM   11  C2  UNL     1       4.791   0.681  -1.050  1.00  0.00    -0.000 A 
HETATM   12  C1  UNL     1       4.247   1.929  -1.353  1.00  0.00    -0.000 A 
HETATM   13  C6  UNL     1       2.861   2.099  -1.390  1.00  0.00    -0.001 A 
ENDBRANCH   6   8
ENDBRANCH   5   6
ENDBRANCH   1   4
TORSDOF 3
