REMARK  3 active torsions:
REMARK  status: ('A' for Active; 'I' for Inactive)
REMARK    1  A    between atoms: C5_5  and  C7_7 
REMARK    2  A    between atoms: C7_7  and  C8_8 
REMARK    3  A    between atoms: C8_8  and  C9_9 
ROOT
HETATM    1  C1  UNL     1       2.020   0.173  -0.323  1.00  0.00    -0.000 C 
HETATM    2  C2  UNL     1       2.531  -1.065   0.024  1.00  0.00    -0.000 C 
HETATM    3  C3  UNL     1       1.676  -2.131   0.300  1.00  0.00    -0.000 C 
HETATM    4  C4  UNL     1       0.292  -1.963   0.259  1.00  0.00    -0.004 C 
HETATM    5  C5  UNL     1      -0.246  -0.733  -0.093  1.00  0.00    -0.014 C 
HETATM    6  C6  UNL     1       0.644   0.267  -0.495  1.00  0.00    -0.004 C 
ENDROOT
BRANCH   5   7
HETATM    7  C7  UNL     1      -1.729  -0.538  -0.137  1.00  0.00     0.102 C 
BRANCH   7   8
HETATM    8  C8  UNL     1      -2.090   0.922  -0.015  1.00  0.00     0.241 C 
HETATM    9  O3  UNL     1      -3.262   1.313  -0.034  1.00  0.00    -0.284 OA
BRANCH   8  10
HETATM   10  C9  UNL     1      -1.117   1.901   0.201  1.00  0.00     0.248 C 
HETATM   11  O1  UNL     1      -1.394   3.188   0.223  1.00  0.00    -0.642 OA
HETATM   12  O2  UNL     1       0.035   1.691   0.531  1.00  0.00    -0.642 OA
ENDBRANCH   8  10
ENDBRANCH   7   8
ENDBRANCH   5   7
TORSDOF 3
