REMARK  9 active torsions:
REMARK  status: ('A' for Active; 'I' for Inactive)
REMARK    1  A    between atoms: C4_4  and  C7_7 
REMARK    2  A    between atoms: C8_8  and  C9_9 
REMARK    3  A    between atoms: C9_9  and  O2_11 
REMARK    4  A    between atoms: O2_11  and  C10_12 
REMARK    5  A    between atoms: C25_27  and  C28_30 
REMARK    6  A    between atoms: C28_30  and  C30_32 
REMARK    7  A    between atoms: C30_32  and  C31_33 
REMARK    8  A    between atoms: C31_33  and  C32_34 
REMARK    9  A    between atoms: C32_34  and  C33_35 
ROOT
HETATM    1  C10 UNL     1       6.448  -2.217   1.105  1.00  0.00     0.124 C 
HETATM    2  C11 UNL     1       7.079  -2.786  -0.190  1.00  0.00     0.026 C 
HETATM    3  C12 UNL     1       8.555  -2.290  -0.320  1.00  0.00     0.002 C 
HETATM    4  C13 UNL     1       8.699  -0.761  -0.171  1.00  0.00     0.000 C 
HETATM    5  C14 UNL     1       8.007  -0.243   1.102  1.00  0.00     0.003 C 
HETATM    6  C15 UNL     1       6.548  -0.694   1.188  1.00  0.00     0.030 C 
HETATM    7  C16 UNL     1      10.152  -0.224  -0.297  1.00  0.00     0.000 C 
HETATM    8  C17 UNL     1      11.026  -1.108  -1.200  1.00  0.00     0.000 C 
HETATM    9  C18 UNL     1      10.184  -1.805  -2.272  1.00  0.00     0.000 C 
HETATM   10  C19 UNL     1       9.263  -2.828  -1.589  1.00  0.00     0.000 C 
HETATM   11  C20 UNL     1      12.244  -0.321  -1.717  1.00  0.00     0.000 C 
HETATM   12  C21 UNL     1      12.883   0.668  -0.685  1.00  0.00     0.000 C 
HETATM   13  C22 UNL     1      12.332   0.663   0.750  1.00  0.00     0.000 A 
HETATM   14  C23 UNL     1      10.905   0.206   0.964  1.00  0.00     0.000 A 
HETATM   15  C24 UNL     1      12.058  -0.605   1.518  1.00  0.00     0.000 A 
HETATM   16  C25 UNL     1      12.625   2.057  -1.345  1.00  0.00     0.000 C 
HETATM   17  C26 UNL     1      12.723   1.789  -2.854  1.00  0.00     0.000 C 
HETATM   18  C27 UNL     1      11.921   0.493  -2.989  1.00  0.00     0.000 C 
HETATM   19  C37 UNL     1      14.400   0.370  -0.597  1.00  0.00     0.000 C 
HETATM   20  C38 UNL     1       7.077  -4.332  -0.087  1.00  0.00     0.002 C 
HETATM   21  C39 UNL     1       6.204  -2.393  -1.408  1.00  0.00     0.002 C 
ENDROOT
BRANCH   1  22
HETATM   22  O2  UNL     1       5.097  -2.575   1.164  1.00  0.00    -0.301 OA
BRANCH  22  23
HETATM   23  C9  UNL     1       4.511  -2.899   2.349  1.00  0.00     0.296 C 
HETATM   24  O1  UNL     1       5.131  -2.860   3.408  1.00  0.00    -0.259 OA
BRANCH  23  25
HETATM   25  C8  UNL     1       3.090  -3.340   2.394  1.00  0.00     0.068 C 
HETATM   26  C7  UNL     1       2.325  -3.361   1.276  1.00  0.00     0.005 C 
BRANCH  26  27
HETATM   27  C4  UNL     1       0.917  -3.780   1.205  1.00  0.00     0.000 A 
HETATM   28  C3  UNL     1       0.269  -4.492   2.224  1.00  0.00     0.002 A 
HETATM   29  C2  UNL     1      -1.062  -4.890   2.081  1.00  0.00     0.027 A 
HETATM   30  C1  UNL     1      -1.793  -4.601   0.925  1.00  0.00     0.131 A 
HETATM   31  C6  UNL     1      -1.139  -3.905  -0.097  1.00  0.00     0.027 A 
HETATM   32  O3  UNL     1      -3.087  -4.991   0.784  1.00  0.00    -0.190 OA
HETATM   33  C5  UNL     1       0.191  -3.507   0.033  1.00  0.00     0.002 A 
ENDBRANCH  26  27
ENDBRANCH  23  25
ENDBRANCH  22  23
ENDBRANCH   1  22
BRANCH  16  34
HETATM   34  C28 UNL     1      13.367   3.306  -0.809  1.00  0.00     0.000 C 
HETATM   35  C29 UNL     1      14.424   3.857  -1.783  1.00  0.00     0.000 C 
BRANCH  34  36
HETATM   36  C30 UNL     1      12.375   4.433  -0.424  1.00  0.00     0.000 C 
BRANCH  36  37
HETATM   37  C31 UNL     1      11.631   4.152   0.896  1.00  0.00     0.004 C 
BRANCH  37  38
HETATM   38  C32 UNL     1      10.524   5.170   1.231  1.00  0.00     0.018 C 
HETATM   39  C36 UNL     1       9.970   4.906   2.642  1.00  0.00     0.004 C 
BRANCH  38  40
HETATM   40  C33 UNL     1       9.368   5.197   0.245  1.00  0.00    -0.044 C 
HETATM   41  C34 UNL     1       8.729   6.547   0.020  1.00  0.00     0.026 C 
HETATM   42  C35 UNL     1       8.877   4.096  -0.347  1.00  0.00    -0.009 C 
ENDBRANCH  38  40
ENDBRANCH  37  38
ENDBRANCH  36  37
ENDBRANCH  34  36
ENDBRANCH  16  34
TORSDOF 9
