REMARK  6 active torsions:
REMARK  status: ('A' for Active; 'I' for Inactive)
REMARK    1  A    between atoms: C1_1  and  O13_41 
REMARK    2  A    between atoms: C6_6  and  O1_7 
REMARK    3  A    between atoms: C9_10  and  C26_36 
REMARK    4  A    between atoms: C21_27  and  C25_34 
REMARK    5  A    between atoms: C26_36  and  O11_37 
REMARK    6  A    between atoms: O11_37  and  C27_38 
ROOT
HETATM    1  C1  UNL     1       6.281   0.840  -1.210  1.00  0.00     0.116 C 
HETATM    2  C2  UNL     1       4.948   0.511  -1.264  1.00  0.00     0.026 C 
HETATM    3  C3  UNL     1       4.378  -0.645  -0.638  1.00  0.00     0.002 C 
HETATM    4  C4  UNL     1       5.281  -1.618  -0.216  1.00  0.00     0.002 C 
HETATM    5  C5  UNL     1       6.683  -1.352  -0.299  1.00  0.00     0.026 C 
HETATM    6  C6  UNL     1       7.213  -0.158  -0.745  1.00  0.00     0.116 C 
HETATM    7  C8  UNL     1       4.746  -2.843   0.246  1.00  0.00    -0.002 C 
HETATM    8  C9  UNL     1       3.386  -3.104   0.319  1.00  0.00     0.013 C 
HETATM    9  C10 UNL     1       2.417  -2.074  -0.019  1.00  0.00     0.062 C 
HETATM   10  C11 UNL     1       2.977  -0.840  -0.448  1.00  0.00     0.005 C 
HETATM   11  C12 UNL     1       2.264   0.446  -0.724  1.00  0.00    -0.001 C 
HETATM   12  C13 UNL     1       1.087   0.345  -1.404  1.00  0.00     0.011 C 
HETATM   13  C14 UNL     1      -0.037   1.006  -0.679  1.00  0.00     0.202 A 
HETATM   14  C15 UNL     1       0.123   2.017   0.063  1.00  0.00     0.107 C 
HETATM   15  C16 UNL     1       1.492   2.556   0.180  1.00  0.00     0.023 C 
HETATM   16  C17 UNL     1       2.521   1.680  -0.050  1.00  0.00     0.002 C 
HETATM   17  O2  UNL     1      -1.619   2.189   0.557  1.00  0.00    -0.303 OA
HETATM   18  C18 UNL     1      -2.588   1.240   0.713  1.00  0.00     0.300 C 
HETATM   19  O3  UNL     1      -1.680   0.498   0.024  1.00  0.00    -0.317 OA
HETATM   20  C19 UNL     1       0.919  -2.450   0.203  1.00  0.00     0.297 C 
HETATM   21  O4  UNL     1       0.672  -3.651   0.161  1.00  0.00    -0.259 OA
HETATM   22  O5  UNL     1      -0.263  -1.723   0.418  1.00  0.00    -0.271 OA
HETATM   23  C20 UNL     1      -0.250  -0.339   0.250  1.00  0.00     0.258 A 
HETATM   24  O6  UNL     1      -0.325   0.829   1.607  1.00  0.00    -0.327 OA
HETATM   25  C21 UNL     1      -0.349   2.626   1.606  1.00  0.00     0.184 C 
HETATM   26  C22 UNL     1      -0.782   3.491  -0.167  1.00  0.00     0.215 C 
HETATM   27  C23 UNL     1      -1.276   2.194  -1.540  1.00  0.00     0.221 C 
HETATM   28  C24 UNL     1      -1.173   0.231  -1.510  1.00  0.00     0.240 A 
HETATM   29  O7  UNL     1      -0.748  -0.249  -2.786  1.00  0.00    -0.215 OA
HETATM   30  O8  UNL     1      -2.568   2.533  -1.981  1.00  0.00    -0.218 OA
HETATM   31  O9  UNL     1       0.179   4.385  -0.705  1.00  0.00    -0.218 OA
ENDROOT
BRANCH   8  32
HETATM   32  C26 UNL     1       3.007  -4.507   0.809  1.00  0.00     0.178 C 
BRANCH  32  33
HETATM   33  O11 UNL     1       4.102  -5.314   1.203  1.00  0.00    -0.297 OA
BRANCH  33  34
HETATM   34  C27 UNL     1       3.832  -6.588   1.572  1.00  0.00     0.273 C 
HETATM   35  C28 UNL     1       5.105  -7.314   1.966  1.00  0.00     0.106 C 
HETATM   36  O12 UNL     1       2.733  -7.094   1.589  1.00  0.00    -0.264 OA
ENDBRANCH  33  34
ENDBRANCH  32  33
ENDBRANCH   8  32
BRANCH   6  37
HETATM   37  O1  UNL     1       8.584  -0.058  -0.786  1.00  0.00    -0.326 OA
HETATM   38  C7  UNL     1       9.205   0.759  -1.750  1.00  0.00     0.181 C 
ENDBRANCH   6  37
BRANCH   1  39
HETATM   39  O13 UNL     1       6.672   2.015  -1.794  1.00  0.00    -0.326 OA
HETATM   40  C29 UNL     1       6.742   3.083  -0.876  1.00  0.00     0.181 C 
ENDBRANCH   1  39
BRANCH  25  41
HETATM   41  C25 UNL     1      -1.260   3.145   2.755  1.00  0.00     0.214 C 
HETATM   42  O10 UNL     1      -0.626   4.167   3.506  1.00  0.00    -0.218 OA
ENDBRANCH  25  41
TORSDOF 6
