REMARK  5 active torsions:
REMARK  status: ('A' for Active; 'I' for Inactive)
REMARK    1  A    between atoms: C8_9  and  O3_11 
REMARK    2  A    between atoms: O3_11  and  C9_12 
REMARK    3  A    between atoms: C9_12  and  C10_14 
REMARK    4  A    between atoms: C24_35  and  C30_45 
REMARK    5  A    between atoms: C30_45  and  C31_46 
ROOT
HETATM    1  C1  UNL     1      10.138   1.200   1.047  1.00  0.00     0.035 C 
HETATM    2  C2  UNL     1       8.849   1.236   1.846  1.00  0.00     0.225 C 
HETATM    3  O1  UNL     1       7.734   0.892   1.177  1.00  0.00    -0.306 OA
HETATM    4  C3  UNL     1       6.535   0.957   1.873  1.00  0.00     0.183 C 
HETATM    5  C4  UNL     1       5.350   0.539   1.014  1.00  0.00     0.178 C 
HETATM    6  C5  UNL     1       5.258  -0.928   0.596  1.00  0.00     0.184 C 
HETATM    7  C6  UNL     1       5.627  -1.308  -0.841  1.00  0.00     0.186 C 
HETATM    8  C7  UNL     1       5.479  -0.192  -1.827  1.00  0.00     0.211 C 
HETATM    9  C8  UNL     1       5.833   1.003  -1.038  1.00  0.00     0.274 C 
HETATM   10  O2  UNL     1       5.067   1.446   0.009  1.00  0.00    -0.326 OA
HETATM   11  O8  UNL     1       4.270  -0.196  -2.564  1.00  0.00    -0.293 OA
HETATM   12  C16 UNL     1       3.092  -0.201  -1.850  1.00  0.00     0.296 C 
HETATM   13  O9  UNL     1       2.599   0.837  -1.419  1.00  0.00    -0.259 OA
HETATM   14  C17 UNL     1       2.320  -1.486  -1.702  1.00  0.00     0.064 C 
HETATM   15  C18 UNL     1       1.474  -1.784  -0.624  1.00  0.00     0.016 C 
HETATM   16  C19 UNL     1       1.152  -1.050   0.660  1.00  0.00     0.110 C 
HETATM   17  C20 UNL     1       1.856  -1.603   1.900  1.00  0.00     0.053 C 
HETATM   18  C21 UNL     1       3.355  -1.618   1.909  1.00  0.00     0.292 C 
HETATM   19  O10 UNL     1       3.903  -1.303   0.706  1.00  0.00    -0.296 OA
HETATM   20  O11 UNL     1       4.011  -1.818   2.916  1.00  0.00    -0.259 OA
HETATM   21  C22 UNL     1       1.206  -2.087   2.976  1.00  0.00     0.042 C 
HETATM   22  C23 UNL     1      -0.278  -2.151   3.100  1.00  0.00     0.206 C 
HETATM   23  C24 UNL     1      -0.964  -1.267   2.082  1.00  0.00     0.238 C 
HETATM   24  C25 UNL     1      -0.336  -1.443   0.723  1.00  0.00     0.264 C 
HETATM   25  O12 UNL     1      -1.124  -0.605  -0.080  1.00  0.00    -0.191 OA
HETATM   26  O13 UNL     1      -0.373  -2.796   0.263  1.00  0.00    -0.303 OA
HETATM   27  C26 UNL     1       0.621  -2.880  -0.718  1.00  0.00     0.121 C 
HETATM   28  C27 UNL     1       0.714  -3.844  -1.722  1.00  0.00     0.178 C 
HETATM   29  C28 UNL     1       1.709  -3.654  -2.686  1.00  0.00     0.158 C 
HETATM   30  C29 UNL     1       2.457  -2.474  -2.690  1.00  0.00     0.035 C 
HETATM   31  O14 UNL     1       1.885  -4.602  -3.632  1.00  0.00    -0.188 OA
HETATM   32  O15 UNL     1      -0.115  -4.915  -1.738  1.00  0.00    -0.186 OA
HETATM   33  O17 UNL     1      -2.315  -1.644   2.018  1.00  0.00    -0.212 OA
HETATM   34  O18 UNL     1      -0.862  -2.804   3.934  1.00  0.00    -0.289 OA
HETATM   35  O19 UNL     1       6.775  -2.103  -0.973  1.00  0.00    -0.306 OA
HETATM   36  C33 UNL     1       7.980  -1.541  -0.685  1.00  0.00     0.225 C 
HETATM   37  C34 UNL     1       8.651  -1.895   0.642  1.00  0.00     0.035 C 
HETATM   38  C35 UNL     1      10.016  -1.359   0.973  1.00  0.00     0.030 C 
HETATM   39  C36 UNL     1      10.504  -0.089   0.363  1.00  0.00     0.030 C 
HETATM   40  C37 UNL     1      11.930  -0.110  -0.129  1.00  0.00     0.158 C 
HETATM   41  C38 UNL     1      12.471   1.149  -0.747  1.00  0.00     0.177 C 
HETATM   42  C39 UNL     1      12.092   2.451  -0.093  1.00  0.00     0.140 C 
HETATM   43  C40 UNL     1      10.805   2.493   0.677  1.00  0.00     0.087 C 
HETATM   44  O20 UNL     1      12.905   3.521  -0.198  1.00  0.00    -0.192 OA
HETATM   45  O21 UNL     1      13.282   1.079  -1.825  1.00  0.00    -0.186 OA
HETATM   46  O22 UNL     1      12.680  -1.225   0.008  1.00  0.00    -0.188 OA
HETATM   47  C41 UNL     1      10.708  -1.837   2.222  1.00  0.00     0.158 C 
HETATM   48  C42 UNL     1      10.123  -2.955   3.044  1.00  0.00     0.177 C 
HETATM   49  C43 UNL     1       8.836  -3.589   2.591  1.00  0.00     0.140 C 
HETATM   50  C44 UNL     1       8.182  -3.149   1.312  1.00  0.00     0.087 C 
HETATM   51  O23 UNL     1       8.254  -4.566   3.318  1.00  0.00    -0.192 OA
HETATM   52  O24 UNL     1      10.724  -3.406   4.172  1.00  0.00    -0.186 OA
HETATM   53  O25 UNL     1      11.866  -1.277   2.629  1.00  0.00    -0.188 OA
HETATM   54  O26 UNL     1       8.617  -0.742  -1.532  1.00  0.00    -0.164 OA
HETATM   55  O27 UNL     1       8.857   1.582   3.130  1.00  0.00    -0.164 OA
ENDROOT
BRANCH   9  56
HETATM   56  O3  UNL     1       7.159   1.274  -0.986  1.00  0.00    -0.270 OA
BRANCH  56  57
HETATM   57  C9  UNL     1       7.869   2.222  -1.596  1.00  0.00     0.298 C 
HETATM   58  O4  UNL     1       9.073   2.331  -1.412  1.00  0.00    -0.259 OA
BRANCH  57  59
HETATM   59  C10 UNL     1       7.266   3.150  -2.535  1.00  0.00     0.068 A 
HETATM   60  C11 UNL     1       8.033   4.105  -3.174  1.00  0.00     0.035 A 
HETATM   61  C12 UNL     1       7.380   4.958  -4.059  1.00  0.00     0.158 A 
HETATM   62  C13 UNL     1       6.021   4.860  -4.303  1.00  0.00     0.181 A 
HETATM   63  O7  UNL     1       8.121   5.884  -4.687  1.00  0.00    -0.188 OA
HETATM   64  C14 UNL     1       5.228   3.930  -3.687  1.00  0.00     0.158 A 
HETATM   65  O6  UNL     1       5.426   5.695  -5.152  1.00  0.00    -0.186 OA
HETATM   66  C15 UNL     1       5.948   3.146  -2.846  1.00  0.00     0.035 A 
HETATM   67  O5  UNL     1       3.925   3.775  -3.873  1.00  0.00    -0.188 OA
ENDBRANCH  57  59
ENDBRANCH  56  57
ENDBRANCH   9  56
BRANCH  23  68
HETATM   68  C30 UNL     1      -0.858   0.197   2.517  1.00  0.00     0.108 C 
BRANCH  68  69
HETATM   69  C31 UNL     1      -2.229   0.811   2.719  1.00  0.00     0.154 C 
HETATM   70  O16 UNL     1      -3.264   0.211   2.561  1.00  0.00    -0.296 OA
HETATM   71  C32 UNL     1      -2.360   2.245   3.141  1.00  0.00     0.072 C 
ENDBRANCH  68  69
ENDBRANCH  23  68
TORSDOF 5
