REMARK  2 active torsions:
REMARK  status: ('A' for Active; 'I' for Inactive)
REMARK    1  A    between atoms: C8_8  and  C10_12 
REMARK    2  A    between atoms: C13_15  and  O3_18 
ROOT
HETATM    1  C1  UNL     1      -2.022   1.270   1.861  1.00  0.00     0.033 C 
HETATM    2  C2  UNL     1      -2.218  -0.221   1.761  1.00  0.00     0.059 C 
HETATM    3  C3  UNL     1      -1.059  -1.129   2.045  1.00  0.00     0.113 C 
HETATM    4  C4  UNL     1       0.148  -0.548   2.281  1.00  0.00     0.066 C 
HETATM    5  C5  UNL     1       0.398   0.895   2.154  1.00  0.00    -0.018 C 
HETATM    6  C6  UNL     1      -0.617   1.766   1.939  1.00  0.00    -0.030 C 
HETATM    7  C7  UNL     1       1.832   1.346   2.229  1.00  0.00     0.061 C 
HETATM    8  C8  UNL     1       2.741   0.284   1.597  1.00  0.00     0.150 C 
HETATM    9  O1  UNL     1       2.642  -0.931   2.304  1.00  0.00    -0.307 OA
HETATM   10  C9  UNL     1       1.387  -1.358   2.616  1.00  0.00     0.230 C 
HETATM   11  O2  UNL     1       1.235  -2.498   3.266  1.00  0.00    -0.163 OA
HETATM   12  O5  UNL     1      -1.265  -2.471   2.104  1.00  0.00    -0.195 OA
ENDROOT
BRANCH   8  13
HETATM   13  C10 UNL     1       2.509   0.121   0.099  1.00  0.00     0.008 A 
HETATM   14  C11 UNL     1       2.611   1.221  -0.760  1.00  0.00     0.028 A 
HETATM   15  C12 UNL     1       2.413   1.126  -2.141  1.00  0.00     0.153 A 
HETATM   16  C13 UNL     1       2.161  -0.123  -2.724  1.00  0.00     0.119 A 
HETATM   17  O4  UNL     1       2.494   2.223  -2.940  1.00  0.00    -0.188 OA
HETATM   18  C14 UNL     1       1.996  -1.217  -1.868  1.00  0.00     0.026 A 
HETATM   19  C15 UNL     1       2.186  -1.107  -0.490  1.00  0.00     0.000 A 
BRANCH  16  20
HETATM   20  O3  UNL     1       1.929  -0.217  -4.071  1.00  0.00    -0.326 OA
HETATM   21  C16 UNL     1       2.948  -0.882  -4.781  1.00  0.00     0.181 C 
ENDBRANCH  16  20
ENDBRANCH   8  13
TORSDOF 2
