REMARK  0 active torsions:
REMARK  status: ('A' for Active; 'I' for Inactive)
ROOT
HETATM    1  C1  UNL     1      -2.466  -0.328   3.365  1.00  0.00     0.034 C 
HETATM    2  C2  UNL     1      -2.479  -1.584   3.841  1.00  0.00    -0.019 C 
HETATM    3  C3  UNL     1      -1.277  -2.481   3.809  1.00  0.00     0.048 C 
HETATM    4  C4  UNL     1      -0.271  -1.992   2.791  1.00  0.00    -0.037 C 
HETATM    5  C5  UNL     1       0.074  -0.504   2.831  1.00  0.00     0.074 C 
HETATM    6  C6  UNL     1      -1.247   0.283   2.781  1.00  0.00     0.176 C 
HETATM    7  O1  UNL     1      -1.338   1.389   2.260  1.00  0.00    -0.291 OA
HETATM    8  C7  UNL     1       0.941  -0.100   1.599  1.00  0.00     0.037 C 
HETATM    9  C8  UNL     1       2.016  -1.236   1.312  1.00  0.00     0.068 C 
HETATM   10  C9  UNL     1       1.318  -2.530   0.901  1.00  0.00     0.031 C 
HETATM   11  C10 UNL     1       0.280  -2.870   1.932  1.00  0.00    -0.034 C 
HETATM   12  C11 UNL     1       2.993  -0.687   0.301  1.00  0.00     0.244 C 
HETATM   13  C12 UNL     1       3.648  -1.018  -0.951  1.00  0.00     0.218 C 
HETATM   14  C13 UNL     1       3.843   0.611  -1.174  1.00  0.00     0.025 C 
HETATM   15  C14 UNL     1       2.431   0.801  -1.518  1.00  0.00     0.177 C 
HETATM   16  C15 UNL     1       1.475   1.908  -1.145  1.00  0.00     0.249 C 
HETATM   17  C16 UNL     1       1.538   2.370   0.328  1.00  0.00     0.011 C 
HETATM   18  C17 UNL     1       1.518   1.377   1.573  1.00  0.00    -0.027 C 
HETATM   19  C18 UNL     1       1.787   2.776  -2.347  1.00  0.00     0.306 C 
HETATM   20  O2  UNL     1       2.115   1.960  -3.407  1.00  0.00    -0.299 OA
HETATM   21  C19 UNL     1       2.537   0.664  -3.031  1.00  0.00     0.156 C 
HETATM   22  C20 UNL     1       4.013   0.503  -3.616  1.00  0.00     0.152 C 
HETATM   23  O3  UNL     1       4.681  -0.726  -3.412  1.00  0.00    -0.302 OA
HETATM   24  C21 UNL     1       5.723  -0.937  -2.490  1.00  0.00     0.274 C 
HETATM   25  C22 UNL     1       5.866   0.017  -1.261  1.00  0.00     0.120 C 
HETATM   26  C23 UNL     1       5.109   1.273  -1.656  1.00  0.00     0.034 C 
HETATM   27  C24 UNL     1       4.973   1.576  -3.138  1.00  0.00     0.037 C 
HETATM   28  C25 UNL     1       5.620   2.518  -0.908  1.00  0.00     0.005 C 
HETATM   29  C26 UNL     1       5.516  -0.456   0.261  1.00  0.00     0.155 C 
HETATM   30  O4  UNL     1       4.213  -0.169   0.927  1.00  0.00    -0.328 OA
HETATM   31  O5  UNL     1       6.457  -1.901  -2.567  1.00  0.00    -0.264 OA
HETATM   32  C27 UNL     1       1.590  -0.381  -3.614  1.00  0.00     0.036 C 
HETATM   33  O6  UNL     1       1.653   3.978  -2.397  1.00  0.00    -0.261 OA
HETATM   34  O7  UNL     1       0.143   1.459  -1.351  1.00  0.00    -0.208 OA
HETATM   35  O8  UNL     1       1.993  -0.138  -0.608  1.00  0.00    -0.324 OA
HETATM   36  O9  UNL     1       3.820  -2.095  -1.469  1.00  0.00    -0.287 OA
HETATM   37  C28 UNL     1       0.777  -0.182   4.165  1.00  0.00     0.012 C 
ENDROOT
TORSDOF 0
