REMARK  0 active torsions:
REMARK  status: ('A' for Active; 'I' for Inactive)
ROOT
HETATM    1  C1  UNL     1      -1.846  -0.304  -0.552  1.00  0.00     0.034 C 
HETATM    2  C2  UNL     1      -2.105  -1.574  -0.200  1.00  0.00    -0.019 C 
HETATM    3  C3  UNL     1      -1.183  -2.390   0.657  1.00  0.00     0.048 C 
HETATM    4  C4  UNL     1       0.176  -1.739   0.773  1.00  0.00    -0.038 C 
HETATM    5  C5  UNL     1       0.222  -0.238   1.017  1.00  0.00     0.071 C 
HETATM    6  C6  UNL     1      -0.631   0.411  -0.088  1.00  0.00     0.175 C 
HETATM    7  O1  UNL     1      -0.365   1.494  -0.594  1.00  0.00    -0.291 OA
HETATM    8  C7  UNL     1       1.681   0.335   0.965  1.00  0.00     0.016 C 
HETATM    9  C8  UNL     1       2.701  -0.638   1.620  1.00  0.00     0.067 C 
HETATM   10  C9  UNL     1       2.672  -1.973   0.859  1.00  0.00     0.031 C 
HETATM   11  C10 UNL     1       1.279  -2.499   0.699  1.00  0.00    -0.034 C 
HETATM   12  C11 UNL     1       4.133  -0.120   1.778  1.00  0.00     0.271 C 
HETATM   13  C12 UNL     1       5.268  -0.943   1.277  1.00  0.00     0.206 C 
HETATM   14  C13 UNL     1       5.848  -0.009   0.210  1.00  0.00     0.097 C 
HETATM   15  C14 UNL     1       4.564   0.865  -0.358  1.00  0.00     0.162 C 
HETATM   16  C15 UNL     1       3.761   2.332  -0.220  1.00  0.00     0.228 C 
HETATM   17  C16 UNL     1       2.885   2.761   1.022  1.00  0.00     0.043 C 
HETATM   18  C17 UNL     1       1.768   1.791   1.503  1.00  0.00     0.004 C 
HETATM   19  C18 UNL     1       4.836   3.416  -0.314  1.00  0.00     0.302 C 
HETATM   20  O2  UNL     1       5.940   2.834  -0.818  1.00  0.00    -0.300 OA
HETATM   21  C19 UNL     1       5.494   1.687  -1.454  1.00  0.00     0.152 C 
HETATM   22  C20 UNL     1       6.696   1.020  -2.197  1.00  0.00     0.152 C 
HETATM   23  O3  UNL     1       6.292   0.246  -3.300  1.00  0.00    -0.299 OA
HETATM   24  C21 UNL     1       5.943  -1.045  -3.072  1.00  0.00     0.292 C 
HETATM   25  C22 UNL     1       6.044  -1.643  -1.722  1.00  0.00     0.041 C 
HETATM   26  C23 UNL     1       6.799  -0.843  -0.684  1.00  0.00     0.035 C 
HETATM   27  C24 UNL     1       7.665   0.214  -1.373  1.00  0.00     0.037 C 
HETATM   28  C25 UNL     1       7.838  -1.731   0.049  1.00  0.00     0.005 C 
HETATM   29  C26 UNL     1       5.465  -2.839  -1.487  1.00  0.00     0.001 C 
HETATM   30  O4  UNL     1       5.542  -1.732  -4.010  1.00  0.00    -0.260 OA
HETATM   31  C27 UNL     1       4.760   2.232  -2.749  1.00  0.00     0.035 C 
HETATM   32  O5  UNL     1       4.769   4.561   0.075  1.00  0.00    -0.261 OA
HETATM   33  O6  UNL     1       2.738   2.364  -1.198  1.00  0.00    -0.213 OA
HETATM   34  O7  UNL     1       4.388   1.041   1.055  1.00  0.00    -0.326 OA
HETATM   35  O8  UNL     1       5.606  -2.025   1.692  1.00  0.00    -0.291 OA
HETATM   36  O9  UNL     1       4.377   0.356   3.095  1.00  0.00    -0.188 OA
HETATM   37  C28 UNL     1      -0.466   0.053   2.369  1.00  0.00     0.012 C 
ENDROOT
TORSDOF 0
