REMARK  2 active torsions:
REMARK  status: ('A' for Active; 'I' for Inactive)
REMARK    1  A    between atoms: C5_5  and  C7_7 
REMARK    2  A    between atoms: C8_8  and  C9_9 
ROOT
HETATM    1  C7  UNL     1       3.422  -0.469   0.003  1.00  0.00     0.000 C 
HETATM    2  C8  UNL     1       2.758   0.711   0.047  1.00  0.00     0.000 C 
ENDROOT
BRANCH   1   3
HETATM    3  C5  UNL     1       4.887  -0.619   0.063  1.00  0.00     0.004 A 
HETATM    4  C4  UNL     1       5.419  -1.881   0.372  1.00  0.00     0.028 A 
HETATM    5  C3  UNL     1       6.795  -2.110   0.427  1.00  0.00     0.133 A 
HETATM    6  C2  UNL     1       7.649  -1.040   0.140  1.00  0.00     0.055 A 
HETATM    7  O3  UNL     1       7.277  -3.340   0.746  1.00  0.00    -0.190 OA
HETATM    8  C1  UNL     1       7.166   0.228  -0.198  1.00  0.00     0.133 A 
HETATM    9  C6  UNL     1       5.782   0.417  -0.238  1.00  0.00     0.028 A 
HETATM   10  O4  UNL     1       8.011   1.251  -0.494  1.00  0.00    -0.190 OA
ENDBRANCH   1   3
BRANCH   2  11
HETATM   11  C9  UNL     1       1.297   0.878  -0.012  1.00  0.00     0.002 A 
HETATM   12  C10 UNL     1       0.765   2.178   0.028  1.00  0.00     0.002 A 
HETATM   13  C11 UNL     1      -0.611   2.392  -0.030  1.00  0.00     0.029 A 
HETATM   14  C12 UNL     1      -1.505   1.321  -0.129  1.00  0.00     0.156 A 
HETATM   15  C13 UNL     1      -0.996   0.020  -0.164  1.00  0.00     0.156 A 
HETATM   16  O2  UNL     1      -2.850   1.513  -0.187  1.00  0.00    -0.188 OA
HETATM   17  C14 UNL     1       0.387  -0.185  -0.104  1.00  0.00     0.029 A 
HETATM   18  O1  UNL     1      -1.847  -1.035  -0.253  1.00  0.00    -0.188 OA
ENDBRANCH   2  11
TORSDOF 2
