REMARK  6 active torsions:
REMARK  status: ('A' for Active; 'I' for Inactive)
REMARK    1  A    between atoms: C3_3  and  O5_24 
REMARK    2  A    between atoms: C9_10  and  C13_16 
REMARK    3  A    between atoms: C11_13  and  O1_14 
REMARK    4  A    between atoms: C13_16  and  C14_18 
REMARK    5  A    between atoms: C15_19  and  C16_20 
REMARK    6  A    between atoms: C16_20  and  O3_21 
ROOT
HETATM    1  C1  UNL     1      -1.746   2.941   0.016  1.00  0.00     0.002 A 
HETATM    2  C2  UNL     1      -2.338   1.742  -0.444  1.00  0.00     0.026 A 
HETATM    3  C3  UNL     1      -1.619   0.593  -0.755  1.00  0.00     0.112 A 
HETATM    4  C4  UNL     1      -0.211   0.723  -0.601  1.00  0.00     0.104 A 
HETATM    5  C5  UNL     1       0.395   1.904  -0.133  1.00  0.00     0.023 A 
HETATM    6  C6  UNL     1      -0.378   3.040   0.181  1.00  0.00     0.002 A 
HETATM    7  C7  UNL     1       1.822   1.699  -0.068  1.00  0.00     0.045 A 
HETATM    8  C8  UNL     1       2.053   0.378  -0.478  1.00  0.00     0.104 A 
HETATM    9  N1  UNL     1       0.823  -0.184  -0.816  1.00  0.00    -0.242 NA
HETATM   10  C9  UNL     1       3.349  -0.174  -0.482  1.00  0.00     0.138 A 
HETATM   11  N2  UNL     1       4.359   0.581  -0.063  1.00  0.00    -0.237 NA
HETATM   12  C10 UNL     1       4.125   1.855   0.325  1.00  0.00     0.123 A 
HETATM   13  C11 UNL     1       2.903   2.528   0.296  1.00  0.00     0.115 A 
ENDROOT
BRANCH  10  14
HETATM   14  C13 UNL     1       3.576  -1.594  -0.909  1.00  0.00     0.215 C 
HETATM   15  O2  UNL     1       4.573  -1.899  -1.550  1.00  0.00    -0.285 OA
BRANCH  14  16
HETATM   16  C14 UNL     1       2.565  -2.638  -0.553  1.00  0.00     0.049 C 
HETATM   17  C15 UNL     1       1.727  -2.554   0.503  1.00  0.00     0.072 C 
BRANCH  17  18
HETATM   18  C16 UNL     1       0.698  -3.583   0.813  1.00  0.00     0.296 C 
HETATM   19  O4  UNL     1       0.542  -4.509   0.023  1.00  0.00    -0.259 OA
BRANCH  18  20
HETATM   20  O3  UNL     1      -0.161  -3.410   1.861  1.00  0.00    -0.296 OA
HETATM   21  C17 UNL     1      -1.331  -4.195   1.867  1.00  0.00     0.185 C 
ENDBRANCH  18  20
ENDBRANCH  17  18
ENDBRANCH  14  16
ENDBRANCH  10  14
BRANCH  13  22
HETATM   22  O1  UNL     1       2.746   3.780   0.825  1.00  0.00    -0.327 OA
HETATM   23  C12 UNL     1       2.942   4.815  -0.112  1.00  0.00     0.181 C 
ENDBRANCH  13  22
BRANCH   3  24
HETATM   24  O5  UNL     1      -2.306  -0.505  -1.210  1.00  0.00    -0.327 OA
HETATM   25  C18 UNL     1      -1.590  -1.621  -1.677  1.00  0.00     0.181 C 
ENDBRANCH   3  24
TORSDOF 6
