REMARK  1 active torsions:
REMARK  status: ('A' for Active; 'I' for Inactive)
REMARK    1  A    between atoms: C1_1  and  O6_27 
ROOT
HETATM    1  C1  UNL     1      -1.731  -0.684  -1.483  1.00  0.00     0.124 C 
HETATM    2  C2  UNL     1      -1.888  -1.888  -0.899  1.00  0.00     0.001 C 
HETATM    3  C3  UNL     1      -1.362  -2.221   0.477  1.00  0.00     0.025 C 
HETATM    4  C4  UNL     1       0.040  -1.587   0.525  1.00  0.00     0.013 C 
HETATM    5  C5  UNL     1      -0.026  -0.038   0.438  1.00  0.00     0.060 C 
HETATM    6  C6  UNL     1      -1.002   0.352  -0.689  1.00  0.00     0.194 C 
HETATM    7  O1  UNL     1      -1.296   1.528  -0.865  1.00  0.00    -0.289 OA
HETATM    8  C7  UNL     1       1.435   0.464   0.171  1.00  0.00     0.039 C 
HETATM    9  C8  UNL     1       2.490  -0.045   1.198  1.00  0.00     0.029 C 
HETATM   10  C9  UNL     1       2.407  -1.566   1.420  1.00  0.00     0.124 C 
HETATM   11  C10 UNL     1       0.969  -2.055   1.657  1.00  0.00     0.031 C 
HETATM   12  O2  UNL     1       2.946  -2.378   0.413  1.00  0.00    -0.304 OA
HETATM   13  C11 UNL     1       3.785  -1.987  -0.574  1.00  0.00     0.272 C 
HETATM   14  C12 UNL     1       4.241  -0.546  -0.570  1.00  0.00     0.096 C 
HETATM   15  C13 UNL     1       3.916   0.260   0.687  1.00  0.00     0.015 C 
HETATM   16  C14 UNL     1       4.151   1.774   0.525  1.00  0.00     0.030 C 
HETATM   17  C15 UNL     1       3.055   2.471  -0.281  1.00  0.00     0.145 C 
HETATM   18  C16 UNL     1       1.625   1.960  -0.165  1.00  0.00     0.145 C 
HETATM   19  O3  UNL     1       1.089   2.227  -1.436  1.00  0.00    -0.327 OA
HETATM   20  C17 UNL     1       2.089   2.834  -2.228  1.00  0.00     0.294 C 
HETATM   21  O4  UNL     1       3.297   2.399  -1.650  1.00  0.00    -0.327 OA
HETATM   22  C18 UNL     1       5.561   2.119   0.013  1.00  0.00     0.003 C 
HETATM   23  O5  UNL     1       4.165  -2.755  -1.434  1.00  0.00    -0.264 OA
HETATM   24  C19 UNL     1       2.340   0.643   2.582  1.00  0.00     0.003 C 
HETATM   25  C20 UNL     1      -0.707   0.591   1.679  1.00  0.00     0.008 C 
HETATM   26  C21 UNL     1      -1.373  -3.744   0.693  1.00  0.00     0.005 C 
ENDROOT
BRANCH   1  27
HETATM   27  O6  UNL     1      -2.130  -0.485  -2.781  1.00  0.00    -0.326 OA
HETATM   28  C22 UNL     1      -1.440   0.486  -3.535  1.00  0.00     0.181 C 
ENDBRANCH   1  27
TORSDOF 1
