REMARK  6 active torsions:
REMARK  status: ('A' for Active; 'I' for Inactive)
REMARK    1  A    between atoms: C7_7  and  O6_27 
REMARK    2  A    between atoms: C10_10  and  C11_11 
REMARK    3  A    between atoms: C13_13  and  O3_21 
REMARK    4  A    between atoms: C14_14  and  O2_19 
REMARK    5  A    between atoms: C15_15  and  O1_17 
REMARK    6  A    between atoms: O6_27  and  C22_28 
ROOT
HETATM    1  C1  UNL     1      -0.770   2.028   1.593  1.00  0.00     0.119 A 
HETATM    2  C2  UNL     1      -0.824   0.648   1.454  1.00  0.00     0.119 A 
HETATM    3  C3  UNL     1       0.336  -0.102   1.319  1.00  0.00     0.022 A 
HETATM    4  C4  UNL     1       1.575   0.564   1.288  1.00  0.00    -0.018 A 
HETATM    5  C5  UNL     1       1.631   1.961   1.440  1.00  0.00     0.003 A 
HETATM    6  C6  UNL     1       0.446   2.701   1.596  1.00  0.00     0.024 A 
HETATM    7  C7  UNL     1       2.948   2.710   1.392  1.00  0.00     0.140 C 
HETATM    8  C8  UNL     1       4.159   1.838   1.772  1.00  0.00     0.072 C 
HETATM    9  C9  UNL     1       4.158   0.475   1.079  1.00  0.00     0.100 C 
HETATM   10  C10 UNL     1       2.830  -0.277   1.220  1.00  0.00     0.054 C 
HETATM   11  C20 UNL     1       4.776   0.823  -0.263  1.00  0.00     0.272 C 
HETATM   12  O4  UNL     1       5.624   1.871  -0.064  1.00  0.00    -0.302 OA
HETATM   13  C21 UNL     1       5.483   2.387   1.239  1.00  0.00     0.155 C 
HETATM   14  O5  UNL     1       4.636   0.240  -1.315  1.00  0.00    -0.264 OA
HETATM   15  O7  UNL     1      -2.142   0.237   1.506  1.00  0.00    -0.300 OA
HETATM   16  C24 UNL     1      -2.954   1.407   1.667  1.00  0.00     0.304 A 
HETATM   17  O8  UNL     1      -2.053   2.520   1.728  1.00  0.00    -0.300 OA
ENDROOT
BRANCH  10  18
HETATM   18  C11 UNL     1       2.704  -1.454   0.276  1.00  0.00    -0.014 C 
HETATM   19  C12 UNL     1       2.977  -2.756   0.695  1.00  0.00     0.022 C 
HETATM   20  C13 UNL     1       2.817  -3.866  -0.144  1.00  0.00     0.118 C 
HETATM   21  C14 UNL     1       2.348  -3.672  -1.464  1.00  0.00     0.138 C 
HETATM   22  C15 UNL     1       2.144  -2.356  -1.941  1.00  0.00     0.118 C 
HETATM   23  C16 UNL     1       2.260  -1.294  -1.034  1.00  0.00     0.022 C 
BRANCH  20  24
HETATM   24  O3  UNL     1       3.010  -5.161   0.282  1.00  0.00    -0.326 OA
HETATM   25  C19 UNL     1       3.071  -5.418   1.667  1.00  0.00     0.181 C 
ENDBRANCH  20  24
BRANCH  21  26
HETATM   26  O2  UNL     1       2.208  -4.832  -2.198  1.00  0.00    -0.324 OA
HETATM   27  C18 UNL     1       2.094  -4.816  -3.599  1.00  0.00     0.182 C 
ENDBRANCH  21  26
BRANCH  22  28
HETATM   28  O1  UNL     1       1.685  -2.077  -3.201  1.00  0.00    -0.326 OA
HETATM   29  C17 UNL     1       2.575  -1.331  -4.002  1.00  0.00     0.181 C 
ENDBRANCH  22  28
ENDBRANCH  10  18
BRANCH   7  30
HETATM   30  O6  UNL     1       3.112   3.247   0.094  1.00  0.00    -0.352 OA
BRANCH  30  31
HETATM   31  C22 UNL     1       2.945   4.642   0.021  1.00  0.00     0.143 C 
HETATM   32  C23 UNL     1       3.164   5.090  -1.420  1.00  0.00     0.035 C 
ENDBRANCH  30  31
ENDBRANCH   7  30
TORSDOF 6
