REMARK  1 active torsions:
REMARK  status: ('A' for Active; 'I' for Inactive)
REMARK    1  A    between atoms: C1_1  and  C13_19 
ROOT
HETATM    1  C1  UNL     1      -0.998  -0.994  -0.001  1.00  0.00     0.070 C 
HETATM    2  C2  UNL     1       0.240  -0.261  -0.525  1.00  0.00     0.119 C 
HETATM    3  C3  UNL     1       0.239   1.196  -0.031  1.00  0.00     0.143 C 
HETATM    4  C4  UNL     1      -1.151   1.878  -0.134  1.00  0.00     0.088 C 
HETATM    5  C5  UNL     1      -2.345   1.028  -0.630  1.00  0.00     0.157 C 
HETATM    6  C6  UNL     1      -1.980  -0.407  -1.013  1.00  0.00     0.155 C 
HETATM    7  O1  UNL     1      -1.308  -0.363  -2.241  1.00  0.00    -0.302 OA
HETATM    8  C7  UNL     1       0.029  -0.322  -2.027  1.00  0.00     0.274 C 
HETATM    9  O2  UNL     1       0.876  -0.336  -2.893  1.00  0.00    -0.264 OA
HETATM   10  O3  UNL     1      -3.338   1.012   0.370  1.00  0.00    -0.300 OA
HETATM   11  C8  UNL     1      -2.957   1.634   1.518  1.00  0.00     0.299 C 
HETATM   12  C9  UNL     1      -1.592   2.038   1.300  1.00  0.00     0.199 A 
HETATM   13  C10 UNL     1      -0.570   1.723   2.247  1.00  0.00     0.152 A 
HETATM   14  C11 UNL     1       0.653   1.300   1.453  1.00  0.00     0.064 C 
HETATM   15  O4  UNL     1      -0.812   3.107   2.172  1.00  0.00    -0.346 OA
HETATM   16  O5  UNL     1      -3.629   1.762   2.516  1.00  0.00    -0.262 OA
HETATM   17  C12 UNL     1      -1.132   3.237  -0.859  1.00  0.00     0.008 C 
HETATM   18  O6  UNL     1       1.195   1.890  -0.787  1.00  0.00    -0.225 OA
ENDROOT
BRANCH   1  19
HETATM   19  C13 UNL     1      -0.935  -2.531   0.070  1.00  0.00     0.130 C 
HETATM   20  O7  UNL     1      -2.156  -2.949   0.629  1.00  0.00    -0.226 OA
HETATM   21  C14 UNL     1       0.169  -2.996   1.028  1.00  0.00     0.033 C 
HETATM   22  C15 UNL     1      -0.790  -3.253  -1.270  1.00  0.00     0.033 C 
ENDBRANCH   1  19
TORSDOF 1
