REMARK  6 active torsions:
REMARK  status: ('A' for Active; 'I' for Inactive)
REMARK    1  A    between atoms: C2_2  and  C17_19 
REMARK    2  A    between atoms: C4_4  and  C12_14 
REMARK    3  A    between atoms: C6_6  and  C7_7 
REMARK    4  A    between atoms: C7_7  and  C8_8 
REMARK    5  A    between atoms: C8_8  and  C9_9 
REMARK    6  A    between atoms: C12_14  and  C13_15 
ROOT
HETATM    1  C1  UNL     1       3.790   0.594  -1.121  1.00  0.00     0.008 A 
HETATM    2  C2  UNL     1       4.177  -0.738  -0.938  1.00  0.00     0.035 A 
HETATM    3  C3  UNL     1       3.260  -1.627  -0.360  1.00  0.00     0.001 A 
HETATM    4  C4  UNL     1       1.993  -1.197   0.040  1.00  0.00     0.008 A 
HETATM    5  C5  UNL     1       1.610   0.147  -0.129  1.00  0.00     0.130 A 
HETATM    6  C6  UNL     1       2.522   1.038  -0.722  1.00  0.00     0.060 A 
HETATM    7  O2  UNL     1       0.379   0.545   0.297  1.00  0.00    -0.190 OA
ENDROOT
BRANCH   6   8
HETATM    8  C7  UNL     1       2.158   2.478  -0.901  1.00  0.00     0.175 C 
HETATM    9  O1  UNL     1       0.996   2.809  -1.099  1.00  0.00    -0.291 OA
BRANCH   8  10
HETATM   10  C8  UNL     1       3.227   3.560  -0.786  1.00  0.00     0.069 C 
BRANCH  10  11
HETATM   11  C9  UNL     1       3.803   3.681   0.642  1.00  0.00     0.008 C 
HETATM   12  C10 UNL     1       5.295   3.313   0.697  1.00  0.00     0.001 C 
HETATM   13  C11 UNL     1       3.602   5.098   1.210  1.00  0.00     0.001 C 
ENDBRANCH  10  11
ENDBRANCH   8  10
ENDBRANCH   6   8
BRANCH   2  14
HETATM   14  C17 UNL     1       5.539  -1.171  -1.354  1.00  0.00     0.173 C 
HETATM   15  C18 UNL     1       6.007  -2.578  -1.025  1.00  0.00     0.077 C 
HETATM   16  O3  UNL     1       6.300  -0.404  -1.932  1.00  0.00    -0.291 OA
ENDBRANCH   2  14
BRANCH   4  17
HETATM   17  C12 UNL     1       1.032  -2.180   0.679  1.00  0.00     0.054 C 
BRANCH  17  18
HETATM   18  C13 UNL     1      -0.182  -2.434  -0.179  1.00  0.00    -0.030 C 
HETATM   19  C14 UNL     1      -1.232  -3.197   0.173  1.00  0.00    -0.048 C 
HETATM   20  C15 UNL     1      -2.424  -3.365  -0.740  1.00  0.00     0.026 C 
HETATM   21  C16 UNL     1      -1.330  -3.939   1.484  1.00  0.00     0.026 C 
ENDBRANCH  17  18
ENDBRANCH   4  17
TORSDOF 6
