REMARK  3 active torsions:
REMARK  status: ('A' for Active; 'I' for Inactive)
REMARK    1  A    between atoms: C1_1  and  C2_3 
REMARK    2  A    between atoms: C2_3  and  C3_4 
REMARK    3  A    between atoms: C3_4  and  C4_5 
ROOT
HETATM    1  C3  UNL     1      -0.817   0.086  -0.096  1.00  0.00     0.398 C 
HETATM    2  N1  UNL     1      -0.905  -0.821  -1.252  1.00  0.00     0.628 N 
ENDROOT
BRANCH   1   3
HETATM    3  C2  UNL     1       0.428   0.982  -0.209  1.00  0.00     0.148 C 
BRANCH   3   4
HETATM    4  C1  UNL     1       1.753   0.239  -0.154  1.00  0.00     0.188 C 
HETATM    5  O1  UNL     1       1.897  -0.962  -0.103  1.00  0.00    -0.647 OA
HETATM    6  O4  UNL     1       2.778   1.119  -0.178  1.00  0.00    -0.647 OA
ENDBRANCH   3   4
ENDBRANCH   1   3
BRANCH   1   7
HETATM    7  C4  UNL     1      -0.866  -0.699   1.202  1.00  0.00     0.224 C 
HETATM    8  O2  UNL     1      -1.673  -1.772   1.113  1.00  0.00    -0.646 OA
HETATM    9  O3  UNL     1      -0.295  -0.414   2.228  1.00  0.00    -0.646 OA
ENDBRANCH   1   7
TORSDOF 3
