REMARK  1 active torsions:
REMARK  status: ('A' for Active; 'I' for Inactive)
REMARK    1  A    between atoms: C2_3  and  C6_7 
ROOT
HETATM    1  C1  UNL     1       0.442   0.621  -1.653  1.00  0.00     0.291 C 
HETATM    2  N1  UNL     1       1.204   0.313  -0.443  1.00  0.00     0.348 N 
HETATM    3  C2  UNL     1       0.396   0.345   0.776  1.00  0.00     0.342 C 
HETATM    4  C3  UNL     1      -0.781  -0.637   0.664  1.00  0.00     0.048 C 
HETATM    5  C4  UNL     1      -1.623  -0.342  -0.584  1.00  0.00     0.005 C 
HETATM    6  C5  UNL     1      -0.726  -0.358  -1.829  1.00  0.00     0.038 C 
ENDROOT
BRANCH   3   7
HETATM    7  C6  UNL     1       1.288  -0.011   1.952  1.00  0.00     0.221 C 
HETATM    8  O1  UNL     1       1.375   0.980   2.857  1.00  0.00    -0.646 OA
HETATM    9  O2  UNL     1       1.866  -1.061   2.101  1.00  0.00    -0.646 OA
ENDBRANCH   3   7
TORSDOF 1
