REMARK  0 active torsions:
REMARK  status: ('A' for Active; 'I' for Inactive)
ROOT
HETATM    1  C1  UNL     1      -0.396   1.636  -1.278  1.00  0.00     0.037 C 
HETATM    2  C2  UNL     1      -1.207   0.583  -0.960  1.00  0.00     0.291 C 
HETATM    3  O1  UNL     1      -1.488   0.294   0.344  1.00  0.00    -0.299 OA
HETATM    4  C3  UNL     1      -2.195  -0.833   0.761  1.00  0.00     0.158 C 
HETATM    5  C4  UNL     1      -3.440  -1.220  -0.048  1.00  0.00     0.068 C 
HETATM    6  C5  UNL     1      -3.121  -2.651  -0.509  1.00  0.00     0.253 C 
HETATM    7  N1  UNL     1      -2.314  -3.162   0.582  1.00  0.00     0.138 N 
HETATM    8  C6  UNL     1      -1.350  -2.114   0.880  1.00  0.00     0.249 C 
HETATM    9  C7  UNL     1      -0.173  -2.367  -0.088  1.00  0.00     0.066 C 
HETATM   10  C8  UNL     1       1.214  -1.971   0.424  1.00  0.00     0.154 C 
HETATM   11  O2  UNL     1       1.441  -0.585   0.391  1.00  0.00    -0.300 OA
HETATM   12  C9  UNL     1       1.216   0.125   1.528  1.00  0.00     0.300 C 
HETATM   13  C10 UNL     1       1.911   1.492   1.481  1.00  0.00     0.204 C 
HETATM   14  C11 UNL     1       1.642   2.284   0.179  1.00  0.00     0.042 C 
HETATM   15  C12 UNL     1       2.393   3.636   0.192  1.00  0.00     0.003 C 
HETATM   16  C13 UNL     1       0.150   2.517  -0.163  1.00  0.00     0.034 C 
HETATM   17  O3  UNL     1       3.302   1.238   1.554  1.00  0.00    -0.216 OA
HETATM   18  C14 UNL     1       1.553   2.270   2.754  1.00  0.00     0.043 C 
HETATM   19  O4  UNL     1       0.646  -0.310   2.503  1.00  0.00    -0.262 OA
HETATM   20  C15 UNL     1      -0.255  -3.882  -0.383  1.00  0.00     0.040 C 
HETATM   21  C16 UNL     1      -1.555  -4.355   0.282  1.00  0.00     0.250 C 
HETATM   22  O5  UNL     1      -1.646  -0.116  -1.848  1.00  0.00    -0.260 OA
HETATM   23  C17 UNL     1      -0.097   1.862  -2.575  1.00  0.00    -0.025 C 
HETATM   24  C18 UNL     1       0.772   2.961  -3.130  1.00  0.00     0.030 C 
ENDROOT
TORSDOF 0
