REMARK  2 active torsions:
REMARK  status: ('A' for Active; 'I' for Inactive)
REMARK    1  A    between atoms: C3_3  and  C5_6 
REMARK    2  A    between atoms: C10_13  and  C20_25 
ROOT
HETATM    1  C5  UNL     1       0.717   2.325   0.523  1.00  0.00     0.149 C 
HETATM    2  C6  UNL     1       0.764   0.978   1.228  1.00  0.00     0.048 C 
HETATM    3  C7  UNL     1       0.557  -0.051   0.103  1.00  0.00     0.096 C 
HETATM    4  C8  UNL     1       0.915   0.758  -1.135  1.00  0.00     0.275 C 
HETATM    5  O2  UNL     1       1.011   2.075  -0.826  1.00  0.00    -0.299 OA
HETATM    6  O3  UNL     1       1.068   0.315  -2.250  1.00  0.00    -0.264 OA
HETATM    7  C9  UNL     1      -0.896  -0.558   0.001  1.00  0.00     0.021 C 
HETATM    8  C10 UNL     1      -1.022  -1.866  -0.811  1.00  0.00     0.081 C 
HETATM    9  C11 UNL     1      -0.112  -3.018  -0.330  1.00  0.00     0.135 C 
HETATM   10  C12 UNL     1       0.855  -2.547   0.757  1.00  0.00     0.053 C 
HETATM   11  C13 UNL     1       1.486  -1.243   0.306  1.00  0.00    -0.033 C 
HETATM   12  C14 UNL     1       2.812  -1.143   0.118  1.00  0.00    -0.009 C 
HETATM   13  O4  UNL     1      -0.926  -4.080   0.097  1.00  0.00    -0.300 OA
HETATM   14  C15 UNL     1      -2.219  -3.654   0.067  1.00  0.00     0.291 C 
HETATM   15  C16 UNL     1      -2.362  -2.381  -0.361  1.00  0.00     0.041 C 
HETATM   16  C17 UNL     1      -3.475  -1.639  -0.348  1.00  0.00    -0.025 C 
HETATM   17  C18 UNL     1      -3.387  -0.170  -0.682  1.00  0.00     0.026 C 
HETATM   18  C19 UNL     1      -2.018   0.461  -0.312  1.00  0.00     0.006 C 
HETATM   19  O5  UNL     1      -3.137  -4.342   0.458  1.00  0.00    -0.260 OA
ENDROOT
BRANCH   1  20
HETATM   20  C3  UNL     1       1.658   3.338   1.111  1.00  0.00     0.032 A 
HETATM   21  C2  UNL     1       1.362   4.424   1.837  1.00  0.00     0.027 A 
HETATM   22  C1  UNL     1       2.555   4.971   2.103  1.00  0.00     0.122 A 
HETATM   23  O1  UNL     1       3.478   4.321   1.614  1.00  0.00    -0.303 OA
HETATM   24  C4  UNL     1       2.995   3.356   1.023  1.00  0.00     0.121 A 
ENDBRANCH   1  20
BRANCH   8  25
HETATM   25  C20 UNL     1      -0.921  -1.812  -2.347  1.00  0.00     0.189 C 
HETATM   26  O6  UNL     1      -1.338  -0.586  -2.906  1.00  0.00    -0.220 OA
ENDBRANCH   8  25
TORSDOF 2
