REMARK  3 active torsions:
REMARK  status: ('A' for Active; 'I' for Inactive)
REMARK    1  A    between atoms: C7_7  and  C15_19 
REMARK    2  A    between atoms: C15_19  and  C16_20 
REMARK    3  A    between atoms: C16_20  and  C17_21 
ROOT
HETATM    1  C1  UNL     1      -2.679  -0.925  -0.578  1.00  0.00     0.174 C 
HETATM    2  C2  UNL     1      -2.517  -2.305  -0.001  1.00  0.00     0.007 C 
HETATM    3  C3  UNL     1      -1.275  -2.748   0.206  1.00  0.00     0.043 A 
HETATM    4  C4  UNL     1      -0.055  -1.963  -0.162  1.00  0.00     0.078 A 
HETATM    5  C5  UNL     1      -0.260  -0.572   0.464  1.00  0.00     0.020 C 
HETATM    6  C6  UNL     1      -1.571   0.043  -0.111  1.00  0.00     0.038 C 
HETATM    7  C7  UNL     1       1.097   0.164   0.273  1.00  0.00     0.073 C 
HETATM    8  C8  UNL     1       2.224  -0.728   0.857  1.00  0.00    -0.037 C 
HETATM    9  C9  UNL     1       1.825  -2.046   1.495  1.00  0.00     0.053 C 
HETATM   10  C10 UNL     1       1.042  -2.844   0.463  1.00  0.00     0.135 A 
HETATM   11  O1  UNL     1       0.445  -3.992   1.011  1.00  0.00    -0.300 OA
HETATM   12  C11 UNL     1      -0.899  -3.886   0.827  1.00  0.00     0.292 A 
HETATM   13  O2  UNL     1      -1.678  -4.724   1.228  1.00  0.00    -0.260 OA
HETATM   14  C12 UNL     1       3.522  -0.375   0.865  1.00  0.00    -0.009 C 
HETATM   15  C13 UNL     1       1.302   0.235  -1.249  1.00  0.00     0.273 C 
HETATM   16  O3  UNL     1       1.396  -1.044  -1.838  1.00  0.00    -0.328 OA
HETATM   17  C14 UNL     1       0.222  -1.798  -1.660  1.00  0.00     0.151 C 
HETATM   18  O4  UNL     1       2.582   0.721  -1.605  1.00  0.00    -0.190 OA
HETATM   19  O7  UNL     1      -3.949  -0.386  -0.245  1.00  0.00    -0.219 OA
ENDROOT
BRANCH   7  20
HETATM   20  C15 UNL     1       1.267   1.534   0.996  1.00  0.00     0.046 C 
BRANCH  20  21
HETATM   21  C16 UNL     1       0.132   2.523   1.266  1.00  0.00     0.177 C 
HETATM   22  O6  UNL     1      -0.747   2.000   2.243  1.00  0.00    -0.218 OA
BRANCH  21  23
HETATM   23  C17 UNL     1      -0.609   3.077   0.088  1.00  0.00     0.035 A 
HETATM   24  C18 UNL     1      -0.122   3.399  -1.118  1.00  0.00     0.121 A 
HETATM   25  O5  UNL     1      -0.996   3.841  -1.862  1.00  0.00    -0.303 OA
HETATM   26  C19 UNL     1      -2.056   3.860  -1.238  1.00  0.00     0.122 A 
HETATM   27  C20 UNL     1      -1.908   3.399   0.010  1.00  0.00     0.027 A 
ENDBRANCH  21  23
ENDBRANCH  20  21
ENDBRANCH   7  20
TORSDOF 3
