REMARK  10 active torsions:
REMARK  status: ('A' for Active; 'I' for Inactive)
REMARK    1  A    between atoms: C4_4  and  C8_10 
REMARK    2  A    between atoms: C8_10  and  C9_11 
REMARK    3  A    between atoms: C10_12  and  C11_13 
REMARK    4  A    between atoms: C11_13  and  C12_14 
REMARK    5  A    between atoms: C11_13  and  O6_26 
REMARK    6  A    between atoms: C14_16  and  O5_24 
REMARK    7  A    between atoms: C15_17  and  O4_22 
REMARK    8  A    between atoms: C16_18  and  O3_20 
REMARK    9  A    between atoms: O6_26  and  C21_27 
REMARK   10  A    between atoms: C22_29  and  C26_36 
ROOT
HETATM    1  C11 UNL     1       1.599   0.761   0.330  1.00  0.00     0.150 C 
ENDROOT
BRANCH   1   2
HETATM    2  C10 UNL     1       1.244   1.553   1.608  1.00  0.00     0.121 C 
HETATM    3  C9  UNL     1      -0.237   1.832   1.901  1.00  0.00     0.047 C 
HETATM    4  C28 UNL     1      -0.174   3.129   2.701  1.00  0.00     0.153 C 
HETATM    5  O12 UNL     1       0.982   3.798   2.278  1.00  0.00    -0.302 OA
HETATM    6  C27 UNL     1       1.836   2.958   1.639  1.00  0.00     0.274 C 
HETATM    7  O13 UNL     1       2.906   3.290   1.177  1.00  0.00    -0.264 OA
BRANCH   3   8
HETATM    8  C8  UNL     1      -0.978   0.716   2.652  1.00  0.00     0.029 C 
BRANCH   8   9
HETATM    9  C4  UNL     1      -2.461   1.000   2.780  1.00  0.00    -0.020 A 
HETATM   10  C3  UNL     1      -3.031   1.178   3.989  1.00  0.00    -0.002 A 
HETATM   11  C2  UNL     1      -4.345   1.426   4.125  1.00  0.00     0.026 A 
HETATM   12  C1  UNL     1      -5.088   1.500   3.013  1.00  0.00     0.119 A 
HETATM   13  C6  UNL     1      -4.536   1.327   1.808  1.00  0.00     0.119 A 
HETATM   14  O2  UNL     1      -6.293   1.718   2.925  1.00  0.00    -0.300 OA
HETATM   15  C5  UNL     1      -3.229   1.069   1.675  1.00  0.00     0.022 A 
HETATM   16  O1  UNL     1      -5.372   1.431   0.914  1.00  0.00    -0.300 OA
HETATM   17  C7  UNL     1      -6.628   1.707   1.536  1.00  0.00     0.304 A 
ENDBRANCH   8   9
ENDBRANCH   3   8
ENDBRANCH   1   2
BRANCH   1  18
HETATM   18  C12 UNL     1       0.399   0.435  -0.549  1.00  0.00     0.009 A 
HETATM   19  C13 UNL     1       0.026   1.252  -1.541  1.00  0.00     0.024 A 
HETATM   20  C14 UNL     1      -1.049   1.000  -2.308  1.00  0.00     0.118 A 
HETATM   21  C15 UNL     1      -1.735  -0.159  -2.149  1.00  0.00     0.138 A 
HETATM   22  C16 UNL     1      -1.392  -1.006  -1.144  1.00  0.00     0.118 A 
HETATM   23  C17 UNL     1      -0.326  -0.681  -0.386  1.00  0.00     0.024 A 
BRANCH  20  24
HETATM   24  O5  UNL     1      -1.348   1.862  -3.337  1.00  0.00    -0.326 OA
HETATM   25  C20 UNL     1      -2.271   2.867  -2.983  1.00  0.00     0.181 C 
ENDBRANCH  20  24
BRANCH  21  26
HETATM   26  O4  UNL     1      -2.801  -0.346  -3.006  1.00  0.00    -0.324 OA
HETATM   27  C19 UNL     1      -3.944  -1.053  -2.586  1.00  0.00     0.182 C 
ENDBRANCH  21  26
BRANCH  22  28
HETATM   28  O3  UNL     1      -2.102  -2.168  -0.949  1.00  0.00    -0.326 OA
HETATM   29  C18 UNL     1      -1.715  -3.075   0.058  1.00  0.00     0.181 C 
ENDBRANCH  22  28
ENDBRANCH   1  18
BRANCH   1  30
HETATM   30  O6  UNL     1       2.310  -0.405   0.693  1.00  0.00    -0.327 OA
BRANCH  30  31
HETATM   31  C21 UNL     1       2.982  -1.020  -0.390  1.00  0.00     0.270 C 
HETATM   32  O7  UNL     1       4.265  -0.435  -0.375  1.00  0.00    -0.326 OA
HETATM   33  C22 UNL     1       5.125  -0.943  -1.361  1.00  0.00     0.184 C 
HETATM   34  C23 UNL     1       5.306  -2.443  -1.160  1.00  0.00     0.215 C 
HETATM   35  C24 UNL     1       3.985  -3.182  -1.092  1.00  0.00     0.220 C 
HETATM   36  O10 UNL     1       6.071  -3.017  -2.191  1.00  0.00    -0.218 OA
HETATM   37  C25 UNL     1       3.048  -2.503  -0.119  1.00  0.00     0.241 C 
HETATM   38  O9  UNL     1       4.226  -4.494  -0.643  1.00  0.00    -0.218 OA
HETATM   39  O8  UNL     1       3.529  -2.712   1.187  1.00  0.00    -0.215 OA
BRANCH  33  40
HETATM   40  C26 UNL     1       4.690  -0.502  -2.754  1.00  0.00     0.214 C 
HETATM   41  O11 UNL     1       5.808  -0.423  -3.618  1.00  0.00    -0.218 OA
ENDBRANCH  33  40
ENDBRANCH  30  31
ENDBRANCH   1  30
TORSDOF 10
