REMARK  4 active torsions:
REMARK  status: ('A' for Active; 'I' for Inactive)
REMARK    1  A    between atoms: C3_3  and  O4_10 
REMARK    2  A    between atoms: C4_5  and  C6_8 
REMARK    3  A    between atoms: O4_10  and  C7_11 
REMARK    4  A    between atoms: C9_13  and  C13_19 
ROOT
HETATM    1  C7  UNL     1       1.145  -0.040   0.642  1.00  0.00     0.147 A 
HETATM    2  C8  UNL     1       2.487   0.075   0.478  1.00  0.00     0.160 A 
HETATM    3  C9  UNL     1       3.280   0.702   1.381  1.00  0.00     0.087 A 
HETATM    4  C10 UNL     1       2.705   1.218   2.490  1.00  0.00     0.138 A 
HETATM    5  C11 UNL     1       1.377   1.107   2.628  1.00  0.00     0.057 A 
HETATM    6  C12 UNL     1       0.574   0.515   1.734  1.00  0.00     0.157 A 
HETATM    7  O5  UNL     1      -0.758   0.475   2.021  1.00  0.00    -0.188 OA
HETATM    8  O6  UNL     1       3.379   1.862   3.486  1.00  0.00    -0.190 OA
HETATM    9  O8  UNL     1       2.991  -0.538  -0.632  1.00  0.00    -0.188 OA
ENDROOT
BRANCH   1  10
HETATM   10  O4  UNL     1       0.500  -0.731  -0.363  1.00  0.00    -0.299 OA
BRANCH  10  11
HETATM   11  C3  UNL     1      -0.883  -0.962  -0.378  1.00  0.00     0.274 C 
HETATM   12  C2  UNL     1      -1.208  -1.837  -1.568  1.00  0.00     0.241 C 
HETATM   13  C1  UNL     1      -2.712  -1.961  -1.702  1.00  0.00     0.220 C 
HETATM   14  O9  UNL     1      -0.649  -3.112  -1.376  1.00  0.00    -0.215 OA
HETATM   15  C5  UNL     1      -3.321  -0.573  -1.770  1.00  0.00     0.215 C 
HETATM   16  O10 UNL     1      -3.025  -2.670  -2.873  1.00  0.00    -0.218 OA
HETATM   17  C4  UNL     1      -2.867   0.235  -0.561  1.00  0.00     0.184 C 
HETATM   18  O2  UNL     1      -4.720  -0.705  -1.793  1.00  0.00    -0.218 OA
HETATM   19  O1  UNL     1      -1.468   0.302  -0.573  1.00  0.00    -0.326 OA
BRANCH  17  20
HETATM   20  C6  UNL     1      -3.391   1.659  -0.533  1.00  0.00     0.214 C 
HETATM   21  O3  UNL     1      -2.892   2.294   0.630  1.00  0.00    -0.218 OA
ENDBRANCH  17  20
ENDBRANCH  10  11
ENDBRANCH   1  10
BRANCH   3  22
HETATM   22  C13 UNL     1       4.634   0.850   1.227  1.00  0.00     0.177 C 
HETATM   23  C14 UNL     1       5.433   0.425  -0.000  1.00  0.00     0.077 C 
HETATM   24  O7  UNL     1       5.327   1.381   2.068  1.00  0.00    -0.291 OA
ENDBRANCH   3  22
TORSDOF 4
