REMARK  1 active torsions:
REMARK  status: ('A' for Active; 'I' for Inactive)
REMARK    1  A    between atoms: C2_2  and  O4_15 
ROOT
HETATM    1  C1  UNL     1      -2.243  -0.742  -0.003  1.00  0.00     0.052 A 
HETATM    2  C2  UNL     1      -1.999   0.579  -0.009  1.00  0.00     0.096 A 
HETATM    3  C3  UNL     1      -0.700   0.922  -0.011  1.00  0.00     0.024 A 
HETATM    4  C4  UNL     1       0.317   0.038  -0.008  1.00  0.00     0.007 A 
HETATM    5  C5  UNL     1       0.011  -1.280  -0.007  1.00  0.00     0.089 A 
HETATM    6  C6  UNL     1      -1.282  -1.683  -0.000  1.00  0.00     0.138 A 
HETATM    7  O1  UNL     1      -1.714  -2.980   0.007  1.00  0.00    -0.190 OA
HETATM    8  C7  UNL     1       1.050  -2.165  -0.013  1.00  0.00     0.302 A 
HETATM    9  O2  UNL     1       2.353  -1.776  -0.028  1.00  0.00    -0.278 OA
HETATM   10  C8  UNL     1       2.585  -0.439  -0.021  1.00  0.00     0.077 A 
HETATM   11  C9  UNL     1       1.598   0.478  -0.007  1.00  0.00    -0.003 A 
HETATM   12  C10 UNL     1       1.934   1.960   0.016  1.00  0.00     0.033 C 
HETATM   13  C11 UNL     1       4.054  -0.077  -0.035  1.00  0.00     0.058 C 
HETATM   14  O3  UNL     1       0.857  -3.361  -0.010  1.00  0.00    -0.259 OA
ENDROOT
BRANCH   2  15
HETATM   15  O4  UNL     1      -2.951   1.570  -0.019  1.00  0.00    -0.328 OA
HETATM   16  C12 UNL     1      -4.311   1.206  -0.049  1.00  0.00     0.181 C 
ENDBRANCH   2  15
TORSDOF 1
