REMARK  10 active torsions:
REMARK  status: ('A' for Active; 'I' for Inactive)
REMARK    1  A    between atoms: O1_2  and  C2_3 
REMARK    2  A    between atoms: C3_4  and  O2_5 
REMARK    3  A    between atoms: C5_7  and  O7_29 
REMARK    4  A    between atoms: C7_9  and  C9_11 
REMARK    5  A    between atoms: C9_11  and  C10_12 
REMARK    6  A    between atoms: C10_12  and  O3_14 
REMARK    7  A    between atoms: O3_14  and  C12_15 
REMARK    8  A    between atoms: C13_16  and  O4_17 
REMARK    9  A    between atoms: C16_20  and  C20_25 
REMARK   10  A    between atoms: C18_22  and  O5_23 
ROOT
HETATM    1  C10 UNL     1      -1.889  -2.811  -0.236  1.00  0.00     0.156 C 
HETATM    2  C11 UNL     1      -2.879  -3.937  -0.559  1.00  0.00     0.036 C 
ENDROOT
BRANCH   1   3
HETATM    3  C9  UNL     1      -1.121  -2.372  -1.484  1.00  0.00     0.202 C 
HETATM    4  O6  UNL     1      -0.566  -3.509  -2.125  1.00  0.00    -0.216 OA
BRANCH   3   5
HETATM    5  C7  UNL     1       0.032  -1.424  -1.231  1.00  0.00     0.014 C 
HETATM    6  C6  UNL     1       0.095  -0.218  -1.812  1.00  0.00     0.025 C 
HETATM    7  C5  UNL     1       1.110   0.638  -1.597  1.00  0.00     0.118 C 
HETATM    8  C3  UNL     1       2.063   0.301  -0.698  1.00  0.00     0.138 C 
HETATM    9  C2  UNL     1       2.094  -0.955  -0.195  1.00  0.00     0.118 C 
HETATM   10  C8  UNL     1       1.051  -1.771  -0.431  1.00  0.00     0.025 C 
BRANCH   7  11
HETATM   11  O7  UNL     1       1.068   1.894  -2.150  1.00  0.00    -0.326 OA
HETATM   12  C23 UNL     1       1.718   1.986  -3.397  1.00  0.00     0.181 C 
ENDBRANCH   7  11
BRANCH   8  13
HETATM   13  O2  UNL     1       3.107   1.159  -0.449  1.00  0.00    -0.324 OA
HETATM   14  C4  UNL     1       2.886   2.034   0.632  1.00  0.00     0.182 C 
ENDBRANCH   8  13
BRANCH   9  15
HETATM   15  O1  UNL     1       3.074  -1.341   0.687  1.00  0.00    -0.326 OA
HETATM   16  C1  UNL     1       4.189  -1.936   0.064  1.00  0.00     0.181 C 
ENDBRANCH   9  15
ENDBRANCH   3   5
ENDBRANCH   1   3
BRANCH   1  17
HETATM   17  O3  UNL     1      -2.645  -1.774   0.332  1.00  0.00    -0.326 OA
BRANCH  17  18
HETATM   18  C12 UNL     1      -2.007  -0.613   0.706  1.00  0.00     0.138 A 
HETATM   19  C13 UNL     1      -2.289   0.525   0.026  1.00  0.00     0.118 A 
HETATM   20  C15 UNL     1      -1.693   1.669   0.413  1.00  0.00     0.026 A 
HETATM   21  C16 UNL     1      -0.861   1.742   1.465  1.00  0.00     0.004 A 
HETATM   22  C17 UNL     1      -0.643   0.597   2.134  1.00  0.00     0.026 A 
HETATM   23  C18 UNL     1      -1.216  -0.577   1.806  1.00  0.00     0.118 A 
BRANCH  19  24
HETATM   24  O4  UNL     1      -3.141   0.432  -1.054  1.00  0.00    -0.326 OA
HETATM   25  C14 UNL     1      -3.352   1.558  -1.875  1.00  0.00     0.181 C 
ENDBRANCH  19  24
BRANCH  21  26
HETATM   26  C20 UNL     1      -0.258   2.876   1.883  1.00  0.00    -0.004 C 
HETATM   27  C21 UNL     1      -0.344   4.108   1.351  1.00  0.00    -0.026 C 
HETATM   28  C22 UNL     1       0.385   5.305   1.907  1.00  0.00     0.031 C 
ENDBRANCH  21  26
BRANCH  23  29
HETATM   29  O5  UNL     1      -0.991  -1.747   2.495  1.00  0.00    -0.326 OA
HETATM   30  C19 UNL     1       0.081  -1.820   3.406  1.00  0.00     0.181 C 
ENDBRANCH  23  29
ENDBRANCH  17  18
ENDBRANCH   1  17
TORSDOF 10
