REMARK  3 active torsions:
REMARK  status: ('A' for Active; 'I' for Inactive)
REMARK    1  A    between atoms: C1_1  and  C21_27 
REMARK    2  A    between atoms: C13_15  and  C15_18 
REMARK    3  A    between atoms: C21_27  and  C22_28 
ROOT
HETATM    1  C1  UNL     1       1.099   1.001   0.028  1.00  0.00     0.030 A 
HETATM    2  C2  UNL     1      -0.210   1.341   0.054  1.00  0.00     0.134 A 
HETATM    3  C3  UNL     1      -1.155   0.372   0.145  1.00  0.00     0.087 A 
HETATM    4  C4  UNL     1      -0.773  -0.917   0.195  1.00  0.00     0.107 A 
HETATM    5  C5  UNL     1       0.539  -1.235   0.143  1.00  0.00     0.045 A 
HETATM    6  C6  UNL     1       1.495  -0.288   0.081  1.00  0.00     0.094 A 
HETATM    7  O1  UNL     1       2.834  -0.583   0.034  1.00  0.00    -0.332 OA
HETATM    8  C7  UNL     1       3.229  -1.865  -0.359  1.00  0.00     0.117 C 
HETATM    9  C8  UNL     1       2.189  -2.886   0.008  1.00  0.00     0.001 C 
HETATM   10  C9  UNL     1       0.912  -2.528   0.183  1.00  0.00     0.002 C 
HETATM   11  C10 UNL     1       4.554  -2.179   0.342  1.00  0.00     0.035 C 
HETATM   12  C11 UNL     1       3.420  -1.871  -1.880  1.00  0.00     0.035 C 
HETATM   13  O2  UNL     1      -1.685  -1.920   0.280  1.00  0.00    -0.305 OA
HETATM   14  C12 UNL     1      -2.994  -1.578   0.283  1.00  0.00     0.126 A 
HETATM   15  C13 UNL     1      -3.460  -0.313   0.249  1.00  0.00     0.064 A 
HETATM   16  C14 UNL     1      -2.495   0.662   0.191  1.00  0.00     0.201 A 
HETATM   17  O3  UNL     1      -2.803   1.828   0.194  1.00  0.00    -0.286 OA
HETATM   18  O6  UNL     1      -0.501   2.672  -0.066  1.00  0.00    -0.190 OA
ENDROOT
BRANCH  15  19
HETATM   19  C15 UNL     1      -4.806  -0.055   0.259  1.00  0.00     0.007 A 
HETATM   20  C16 UNL     1      -5.735  -1.037   0.358  1.00  0.00     0.030 A 
HETATM   21  C17 UNL     1      -7.070  -0.865   0.370  1.00  0.00     0.156 A 
HETATM   22  C18 UNL     1      -7.576   0.372   0.277  1.00  0.00     0.156 A 
HETATM   23  O5  UNL     1      -7.925  -1.919   0.476  1.00  0.00    -0.188 OA
HETATM   24  C19 UNL     1      -6.705   1.383   0.176  1.00  0.00     0.029 A 
HETATM   25  O4  UNL     1      -8.918   0.582   0.285  1.00  0.00    -0.188 OA
HETATM   26  C20 UNL     1      -5.380   1.168   0.167  1.00  0.00     0.002 A 
ENDBRANCH  15  19
BRANCH   1  27
HETATM   27  C21 UNL     1       2.147   2.107  -0.096  1.00  0.00     0.056 C 
BRANCH  27  28
HETATM   28  C22 UNL     1       3.430   1.888   0.669  1.00  0.00    -0.030 C 
HETATM   29  C23 UNL     1       4.682   1.849   0.176  1.00  0.00    -0.048 C 
HETATM   30  C24 UNL     1       5.866   1.606   1.084  1.00  0.00     0.026 C 
HETATM   31  C25 UNL     1       5.057   2.021  -1.277  1.00  0.00     0.026 C 
ENDBRANCH  27  28
ENDBRANCH   1  27
TORSDOF 3
