REMARK  7 active torsions:
REMARK  status: ('A' for Active; 'I' for Inactive)
REMARK    1  A    between atoms: C1_1  and  C2_2 
REMARK    2  A    between atoms: C2_2  and  C3_3 
REMARK    3  A    between atoms: C3_3  and  C4_4 
REMARK    4  A    between atoms: C8_9  and  C10_12 
REMARK    5  A    between atoms: C10_12  and  C11_13 
REMARK    6  A    between atoms: C13_16  and  C16_20 
REMARK    7  A    between atoms: C16_20  and  C17_21 
ROOT
HETATM    1  C4  UNL     1      -2.055   1.982   0.484  1.00  0.00     0.095 C 
HETATM    2  C5  UNL     1      -3.240   2.089  -0.143  1.00  0.00     0.119 C 
HETATM    3  O1  UNL     1      -3.720   3.291  -0.560  1.00  0.00    -0.194 OA
HETATM    4  C6  UNL     1      -4.125   0.866  -0.298  1.00  0.00     0.085 C 
HETATM    5  C7  UNL     1      -3.274  -0.387  -0.451  1.00  0.00     0.113 C 
HETATM    6  C8  UNL     1      -2.078  -0.517   0.166  1.00  0.00     0.039 C 
HETATM    7  C9  UNL     1      -1.552   0.656   0.913  1.00  0.00     0.198 C 
HETATM    8  O2  UNL     1      -0.594   0.597   1.675  1.00  0.00    -0.287 OA
HETATM    9  O6  UNL     1      -3.846  -1.426  -1.120  1.00  0.00    -0.195 OA
HETATM   10  C19 UNL     1      -4.981   0.721   0.975  1.00  0.00     0.013 C 
HETATM   11  C20 UNL     1      -5.051   1.042  -1.521  1.00  0.00     0.013 C 
ENDROOT
BRANCH   6  12
HETATM   12  C10 UNL     1      -1.307  -1.826   0.102  1.00  0.00     0.049 C 
BRANCH  12  13
HETATM   13  C11 UNL     1       0.231  -1.704   0.100  1.00  0.00     0.153 C 
HETATM   14  C12 UNL     1       0.956  -2.651  -0.854  1.00  0.00     0.283 C 
HETATM   15  O3  UNL     1       2.262  -2.281  -0.985  1.00  0.00    -0.280 OA
HETATM   16  O5  UNL     1       0.459  -3.602  -1.418  1.00  0.00    -0.263 OA
HETATM   17  C13 UNL     1       2.961  -2.214   0.190  1.00  0.00     0.083 C 
HETATM   18  C14 UNL     1       2.359  -2.054   1.388  1.00  0.00     0.058 C 
HETATM   19  C15 UNL     1       0.886  -1.896   1.466  1.00  0.00     0.184 C 
HETATM   20  O4  UNL     1       0.278  -1.969   2.527  1.00  0.00    -0.291 OA
BRANCH  17  21
HETATM   21  C16 UNL     1       4.461  -2.365   0.035  1.00  0.00     0.052 C 
BRANCH  21  22
HETATM   22  C17 UNL     1       5.318  -2.260   1.304  1.00  0.00     0.007 C 
HETATM   23  C18 UNL     1       6.814  -2.408   0.987  1.00  0.00     0.000 C 
ENDBRANCH  21  22
ENDBRANCH  17  21
ENDBRANCH  12  13
ENDBRANCH   6  12
BRANCH   1  24
HETATM   24  C3  UNL     1      -1.226   3.228   0.726  1.00  0.00     0.178 C 
HETATM   25  O7  UNL     1      -1.584   4.038   1.570  1.00  0.00    -0.291 OA
BRANCH  24  26
HETATM   26  C2  UNL     1      -0.036   3.505  -0.178  1.00  0.00     0.069 C 
BRANCH  26  27
HETATM   27  C1  UNL     1       0.770   2.281  -0.636  1.00  0.00     0.008 C 
HETATM   28  C21 UNL     1       1.960   2.678  -1.520  1.00  0.00     0.001 C 
ENDBRANCH  26  27
ENDBRANCH  24  26
ENDBRANCH   1  24
TORSDOF 7
