REMARK  1 active torsions:
REMARK  status: ('A' for Active; 'I' for Inactive)
REMARK    1  A    between atoms: C12_15  and  C15_20 
ROOT
HETATM    1  C1  UNL     1      -3.587   1.004   0.042  1.00  0.00     0.173 A 
HETATM    2  C2  UNL     1      -3.661  -0.473   0.421  1.00  0.00     0.190 C 
HETATM    3  C3  UNL     1      -2.436  -1.363   0.141  1.00  0.00     0.112 C 
HETATM    4  C4  UNL     1      -1.192  -0.581  -0.292  1.00  0.00     0.050 C 
HETATM    5  C5  UNL     1      -1.087   0.840   0.295  1.00  0.00     0.050 C 
HETATM    6  C6  UNL     1      -2.346   1.643  -0.057  1.00  0.00     0.149 A 
HETATM    7  O1  UNL     1      -3.006   1.189  -1.371  1.00  0.00    -0.351 OA
HETATM    8  C7  UNL     1       0.280   1.371  -0.161  1.00  0.00    -0.017 C 
HETATM    9  C8  UNL     1       1.385   0.605  -0.014  1.00  0.00    -0.001 C 
HETATM   10  C9  UNL     1       1.235  -0.691   0.323  1.00  0.00     0.001 C 
HETATM   11  C10 UNL     1      -0.058  -1.452   0.202  1.00  0.00     0.147 C 
HETATM   12  O2  UNL     1      -0.529  -2.077   1.365  1.00  0.00    -0.300 OA
HETATM   13  C11 UNL     1      -1.892  -2.094   1.366  1.00  0.00     0.274 C 
HETATM   14  O3  UNL     1      -2.586  -2.612   2.213  1.00  0.00    -0.264 OA
HETATM   15  C12 UNL     1       2.776   1.212  -0.158  1.00  0.00     0.146 C 
HETATM   16  O4  UNL     1       2.788   2.449  -0.836  1.00  0.00    -0.296 OA
HETATM   17  C13 UNL     1       1.626   3.130  -0.977  1.00  0.00     0.296 C 
HETATM   18  C14 UNL     1       0.420   2.622  -0.626  1.00  0.00     0.064 C 
HETATM   19  O5  UNL     1       1.649   4.252  -1.444  1.00  0.00    -0.259 OA
HETATM   20  C18 UNL     1      -0.978   0.921   1.845  1.00  0.00     0.007 C 
HETATM   21  C19 UNL     1      -2.801  -2.444  -0.899  1.00  0.00     0.013 C 
HETATM   22  O6  UNL     1      -4.043  -0.564   1.785  1.00  0.00    -0.220 OA
ENDROOT
BRANCH  15  23
HETATM   23  C15 UNL     1       3.897   0.364  -0.802  1.00  0.00     0.032 C 
HETATM   24  C16 UNL     1       3.436  -0.416  -2.043  1.00  0.00     0.003 C 
HETATM   25  C17 UNL     1       4.698  -0.516   0.176  1.00  0.00     0.003 C 
ENDBRANCH  15  23
TORSDOF 1
