REMARK  8 active torsions:
REMARK  status: ('A' for Active; 'I' for Inactive)
REMARK    1  A    between atoms: C3_3  and  O4_10 
REMARK    2  A    between atoms: C4_5  and  C6_8 
REMARK    3  A    between atoms: O4_10  and  C7_11 
REMARK    4  A    between atoms: C21_27  and  C24_30 
REMARK    5  A    between atoms: C24_30  and  C26_33 
REMARK    6  A    between atoms: C26_33  and  C27_34 
REMARK    7  A    between atoms: C27_34  and  C28_35 
REMARK    8  A    between atoms: C28_35  and  C29_36 
ROOT
HETATM    1  C7  UNL     1      -2.379  -1.821  -2.954  1.00  0.00     0.149 C 
HETATM    2  C8  UNL     1      -0.960  -2.391  -2.792  1.00  0.00     0.040 C 
HETATM    3  C9  UNL     1      -0.530  -2.467  -1.313  1.00  0.00     0.065 C 
HETATM    4  C10 UNL     1      -0.673  -1.131  -0.545  1.00  0.00     0.013 C 
HETATM    5  C11 UNL     1      -2.047  -0.486  -0.845  1.00  0.00     0.036 C 
HETATM    6  C12 UNL     1      -2.373  -0.428  -2.332  1.00  0.00     0.179 C 
HETATM    7  O5  UNL     1      -3.596   0.234  -2.532  1.00  0.00    -0.221 OA
HETATM    8  C13 UNL     1       0.508  -0.202  -0.942  1.00  0.00     0.021 C 
HETATM    9  C14 UNL     1       1.831  -0.927  -0.767  1.00  0.00    -0.015 C 
HETATM   10  C15 UNL     1       1.923  -2.258  -0.921  1.00  0.00     0.031 C 
HETATM   11  C16 UNL     1       0.865  -3.066  -1.181  1.00  0.00     0.172 C 
HETATM   12  O6  UNL     1       1.025  -4.258  -1.329  1.00  0.00    -0.291 OA
HETATM   13  C17 UNL     1       3.071  -0.062  -0.649  1.00  0.00     0.142 C 
HETATM   14  C18 UNL     1       2.862   1.129   0.319  1.00  0.00     0.032 C 
HETATM   15  C19 UNL     1       1.731   1.989  -0.265  1.00  0.00     0.003 C 
HETATM   16  C20 UNL     1       0.419   1.195  -0.291  1.00  0.00     0.004 C 
HETATM   17  C21 UNL     1       4.274   1.775   0.298  1.00  0.00     0.033 C 
HETATM   18  C22 UNL     1       5.207   0.544   0.375  1.00  0.00     0.005 C 
HETATM   19  C23 UNL     1       4.378  -0.666  -0.123  1.00  0.00     0.035 C 
HETATM   20  C32 UNL     1       2.489   0.546   1.707  1.00  0.00     0.003 C 
HETATM   21  O9  UNL     1       3.344   0.370  -1.971  1.00  0.00    -0.222 OA
HETATM   22  C33 UNL     1      -0.650  -1.469   0.970  1.00  0.00     0.001 C 
ENDROOT
BRANCH   1  23
HETATM   23  O4  UNL     1      -3.261  -2.723  -2.333  1.00  0.00    -0.329 OA
BRANCH  23  24
HETATM   24  C3  UNL     1      -4.638  -2.519  -2.564  1.00  0.00     0.270 C 
HETATM   25  C2  UNL     1      -5.305  -3.747  -3.152  1.00  0.00     0.241 C 
HETATM   26  C1  UNL     1      -5.588  -4.834  -2.135  1.00  0.00     0.220 C 
HETATM   27  O10 UNL     1      -6.531  -3.346  -3.724  1.00  0.00    -0.215 OA
HETATM   28  C5  UNL     1      -6.264  -4.223  -0.928  1.00  0.00     0.215 C 
HETATM   29  O11 UNL     1      -4.391  -5.465  -1.752  1.00  0.00    -0.218 OA
HETATM   30  C4  UNL     1      -5.498  -3.030  -0.377  1.00  0.00     0.184 C 
HETATM   31  O2  UNL     1      -7.564  -3.808  -1.293  1.00  0.00    -0.218 OA
HETATM   32  O1  UNL     1      -5.242  -2.066  -1.366  1.00  0.00    -0.326 OA
BRANCH  30  33
HETATM   33  C6  UNL     1      -4.267  -3.359   0.461  1.00  0.00     0.214 C 
HETATM   34  O3  UNL     1      -4.575  -4.344   1.426  1.00  0.00    -0.218 OA
ENDBRANCH  30  33
ENDBRANCH  23  24
ENDBRANCH   1  23
BRANCH  17  35
HETATM   35  C24 UNL     1       4.679   3.070   1.050  1.00  0.00     0.155 C 
HETATM   36  O7  UNL     1       3.978   4.134   0.452  1.00  0.00    -0.223 OA
HETATM   37  C25 UNL     1       6.166   3.356   0.757  1.00  0.00     0.036 C 
BRANCH  35  38
HETATM   38  C26 UNL     1       4.470   3.196   2.567  1.00  0.00     0.180 C 
HETATM   39  O8  UNL     1       4.963   2.051   3.219  1.00  0.00    -0.221 OA
BRANCH  38  40
HETATM   40  C27 UNL     1       3.047   3.504   3.041  1.00  0.00     0.035 C 
BRANCH  40  41
HETATM   41  C28 UNL     1       2.713   4.991   3.257  1.00  0.00     0.003 C 
BRANCH  41  42
HETATM   42  C29 UNL     1       1.193   5.271   3.240  1.00  0.00     0.000 C 
HETATM   43  C30 UNL     1       0.427   4.463   4.301  1.00  0.00     0.000 C 
HETATM   44  C31 UNL     1       0.913   6.773   3.424  1.00  0.00     0.000 C 
ENDBRANCH  41  42
ENDBRANCH  40  41
ENDBRANCH  38  40
ENDBRANCH  35  38
ENDBRANCH  17  35
TORSDOF 8
