REMARK  3 active torsions:
REMARK  status: ('A' for Active; 'I' for Inactive)
REMARK    1  A    between atoms: C6_7  and  O4_21 
REMARK    2  A    between atoms: C9_10  and  C10_11 
REMARK    3  A    between atoms: C10_11  and  C13_14 
ROOT
HETATM    1  C1  UNL     1       2.992  -1.150   0.492  1.00  0.00     0.001 A 
HETATM    2  C2  UNL     1       2.909   0.333   0.357  1.00  0.00     0.117 A 
HETATM    3  O1  UNL     1       1.598   0.750   0.136  1.00  0.00    -0.332 OA
HETATM    4  C3  UNL     1       0.538  -0.116   0.089  1.00  0.00     0.094 A 
HETATM    5  C4  UNL     1       0.652  -1.461   0.242  1.00  0.00     0.044 A 
HETATM    6  C5  UNL     1       1.903  -1.920   0.434  1.00  0.00     0.002 A 
HETATM    7  C6  UNL     1      -0.438  -2.274   0.199  1.00  0.00     0.098 A 
HETATM    8  C7  UNL     1      -1.638  -1.671   0.001  1.00  0.00     0.045 A 
HETATM    9  C8  UNL     1      -1.776  -0.340  -0.163  1.00  0.00     0.103 A 
HETATM   10  C9  UNL     1      -0.676   0.446  -0.130  1.00  0.00     0.026 A 
HETATM   11  O2  UNL     1      -3.005   0.238  -0.364  1.00  0.00    -0.273 OA
HETATM   12  C15 UNL     1      -4.100  -0.560  -0.378  1.00  0.00     0.300 A 
HETATM   13  C16 UNL     1      -3.985  -1.897  -0.217  1.00  0.00     0.069 A 
HETATM   14  C17 UNL     1      -2.765  -2.417  -0.036  1.00  0.00     0.009 A 
HETATM   15  O3  UNL     1      -5.204  -0.081  -0.539  1.00  0.00    -0.259 OA
HETATM   16  C19 UNL     1       3.760   0.787  -0.834  1.00  0.00     0.035 C 
HETATM   17  C20 UNL     1       3.413   0.990   1.647  1.00  0.00     0.035 C 
ENDROOT
BRANCH  10  18
HETATM   18  C10 UNL     1      -0.883   1.979  -0.314  1.00  0.00     0.041 C 
HETATM   19  C11 UNL     1       0.327   2.902  -0.613  1.00  0.00     0.009 C 
HETATM   20  C12 UNL     1      -1.505   2.526   0.994  1.00  0.00     0.009 C 
BRANCH  18  21
HETATM   21  C13 UNL     1      -1.732   2.189  -1.563  1.00  0.00    -0.023 C 
HETATM   22  C14 UNL     1      -2.788   3.007  -1.675  1.00  0.00    -0.005 C 
ENDBRANCH  18  21
ENDBRANCH  10  18
BRANCH   7  23
HETATM   23  O4  UNL     1      -0.523  -3.650   0.336  1.00  0.00    -0.328 OA
HETATM   24  C18 UNL     1       0.531  -4.549   0.551  1.00  0.00     0.181 C 
ENDBRANCH   7  23
TORSDOF 3
