REMARK  0 active torsions:
REMARK  status: ('A' for Active; 'I' for Inactive)
ROOT
HETATM    1  C1  UNL     1      -2.618  -0.118   1.976  1.00  0.00     0.033 C 
HETATM    2  C2  UNL     1      -2.493  -1.645   1.971  1.00  0.00     0.003 C 
HETATM    3  C3  UNL     1      -1.837  -2.200   0.684  1.00  0.00     0.003 C 
HETATM    4  C4  UNL     1      -0.490  -1.459   0.462  1.00  0.00     0.043 C 
HETATM    5  C5  UNL     1      -0.513   0.113   0.546  1.00  0.00     0.083 C 
HETATM    6  C6  UNL     1      -1.258   0.556   1.808  1.00  0.00     0.157 C 
HETATM    7  O1  UNL     1      -1.462   1.949   1.791  1.00  0.00    -0.223 OA
HETATM    8  C7  UNL     1       0.998   0.493   0.534  1.00  0.00     0.021 C 
HETATM    9  C8  UNL     1       1.287   0.457  -0.979  1.00  0.00     0.133 C 
HETATM   10  C9  UNL     1       0.462  -0.639  -1.636  1.00  0.00     0.258 C 
HETATM   11  C10 UNL     1       0.324  -1.874  -0.787  1.00  0.00     0.207 C 
HETATM   12  O2  UNL     1       1.623  -2.321  -0.455  1.00  0.00    -0.218 OA
HETATM   13  O3  UNL     1       0.921  -0.918  -2.934  1.00  0.00    -0.192 OA
HETATM   14  O4  UNL     1      -0.822  -0.121  -1.846  1.00  0.00    -0.305 OA
HETATM   15  C11 UNL     1      -1.107   0.720  -0.747  1.00  0.00     0.239 C 
HETATM   16  O5  UNL     1      -0.523   1.969  -1.089  1.00  0.00    -0.332 OA
HETATM   17  C12 UNL     1       0.778   1.769  -1.559  1.00  0.00     0.133 C 
HETATM   18  C13 UNL     1       1.847   2.731  -1.055  1.00  0.00     0.053 C 
HETATM   19  C14 UNL     1       1.590   3.038   0.425  1.00  0.00     0.007 C 
HETATM   20  C15 UNL     1       1.551   1.745   1.253  1.00  0.00     0.001 C 
HETATM   21  C16 UNL     1       3.076   1.854  -1.252  1.00  0.00     0.015 C 
HETATM   22  C17 UNL     1       2.777   0.530  -1.213  1.00  0.00     0.175 C 
HETATM   23  O6  UNL     1       3.478  -0.449  -1.309  1.00  0.00    -0.291 OA
HETATM   24  C18 UNL     1       4.322   2.312  -1.430  1.00  0.00    -0.002 C 
HETATM   25  C19 UNL     1      -1.567  -3.709   0.920  1.00  0.00     0.000 C 
HETATM   26  C20 UNL     1      -2.831  -2.109  -0.492  1.00  0.00     0.000 C 
ENDROOT
TORSDOF 0
