REMARK  7 active torsions:
REMARK  status: ('A' for Active; 'I' for Inactive)
REMARK    1  A    between atoms: C4_4  and  C19_22 
REMARK    2  A    between atoms: C8_8  and  C12_12 
REMARK    3  A    between atoms: C8_8  and  C18_20 
REMARK    4  A    between atoms: C12_12  and  C13_13 
REMARK    5  A    between atoms: C13_13  and  C14_14 
REMARK    6  A    between atoms: C14_14  and  C15_15 
REMARK    7  A    between atoms: C16_17  and  C17_18 
ROOT
HETATM    1  C1  UNL     1      -3.444  -1.861  -2.118  1.00  0.00    -0.035 C 
HETATM    2  C2  UNL     1      -3.224  -2.791  -1.175  1.00  0.00    -0.048 C 
HETATM    3  C3  UNL     1      -2.462  -2.567   0.110  1.00  0.00     0.029 C 
HETATM    4  C4  UNL     1      -1.202  -1.677   0.094  1.00  0.00     0.062 C 
HETATM    5  C5  UNL     1      -1.435  -0.153  -0.016  1.00  0.00     0.010 C 
HETATM    6  C6  UNL     1      -2.762   0.194  -0.722  1.00  0.00     0.005 C 
HETATM    7  C7  UNL     1      -3.018  -0.419  -2.103  1.00  0.00     0.025 C 
HETATM    8  C8  UNL     1      -0.109   0.480  -0.574  1.00  0.00     0.032 C 
HETATM    9  C9  UNL     1       0.660  -0.735  -1.181  1.00  0.00     0.003 C 
HETATM   10  C10 UNL     1      -0.260  -1.965  -1.083  1.00  0.00     0.008 C 
HETATM   11  C11 UNL     1       1.224  -0.584  -2.602  1.00  0.00     0.000 C 
HETATM   12  C20 UNL     1      -3.797  -4.184  -1.333  1.00  0.00     0.026 C 
ENDROOT
BRANCH   8  13
HETATM   13  C12 UNL     1       0.701   1.063   0.628  1.00  0.00     0.007 C 
BRANCH  13  14
HETATM   14  C13 UNL     1       2.089   1.656   0.321  1.00  0.00     0.024 C 
BRANCH  14  15
HETATM   15  C14 UNL     1       2.765   2.052   1.618  1.00  0.00    -0.013 C 
HETATM   16  C16 UNL     1       3.640   1.223   2.215  1.00  0.00     0.003 C 
BRANCH  15  17
HETATM   17  C15 UNL     1       2.335   3.368   2.218  1.00  0.00     0.204 C 
HETATM   18  O1  UNL     1       3.439   4.254   2.362  1.00  0.00    -0.216 OA
ENDBRANCH  15  17
BRANCH  16  19
HETATM   19  C17 UNL     1       4.328   1.455   3.534  1.00  0.00     0.208 C 
HETATM   20  O2  UNL     1       4.197   0.310   4.368  1.00  0.00    -0.215 OA
ENDBRANCH  16  19
ENDBRANCH  14  15
ENDBRANCH  13  14
ENDBRANCH   8  13
BRANCH   8  21
HETATM   21  C18 UNL     1      -0.311   1.634  -1.573  1.00  0.00     0.182 C 
HETATM   22  O3  UNL     1      -0.862   2.778  -0.949  1.00  0.00    -0.221 OA
ENDBRANCH   8  21
BRANCH   4  23
HETATM   23  C19 UNL     1      -0.455  -1.973   1.402  1.00  0.00     0.207 C 
HETATM   24  O4  UNL     1      -1.031  -2.186   2.443  1.00  0.00    -0.288 OA
ENDBRANCH   4  23
TORSDOF 7
