REMARK  6 active torsions:
REMARK  status: ('A' for Active; 'I' for Inactive)
REMARK    1  A    between atoms: C1_2  and  C14_21 
REMARK    2  A    between atoms: C3_4  and  C7_10 
REMARK    3  A    between atoms: C5_6  and  C6_7 
REMARK    4  A    between atoms: C7_10  and  C8_11 
REMARK    5  A    between atoms: C8_11  and  N2_12 
REMARK    6  A    between atoms: C9_13  and  C13_18 
ROOT
HETATM    1  N1  UNL     1      -1.119  -3.844  -0.677  1.00  0.00    -0.255 NA
HETATM    2  C1  UNL     1      -2.067  -3.030  -0.449  1.00  0.00     0.141 C 
HETATM    3  C2  UNL     1      -1.863  -1.725  -0.203  1.00  0.00     0.021 C 
HETATM    4  C3  UNL     1      -0.657  -1.134  -0.317  1.00  0.00    -0.017 C 
HETATM    5  C4  UNL     1       0.502  -1.966  -0.822  1.00  0.00     0.062 C 
HETATM    6  C5  UNL     1       0.293  -3.453  -0.517  1.00  0.00     0.194 C 
ENDROOT
BRANCH   4   7
HETATM    7  C7  UNL     1      -0.542   0.184  -0.051  1.00  0.00     0.014 C 
BRANCH   7   8
HETATM    8  C8  UNL     1       0.566   0.924  -0.222  1.00  0.00     0.072 C 
BRANCH   8   9
HETATM    9  N2  UNL     1       0.726   2.192   0.053  1.00  0.00    -0.337 N 
HETATM   10  C9  UNL     1       2.009   2.959  -0.144  1.00  0.00     0.172 C 
HETATM   11  C10 UNL     1       1.716   4.369   0.386  1.00  0.00     0.068 C 
HETATM   12  C11 UNL     1       0.206   4.506   0.214  1.00  0.00     0.177 C 
HETATM   13  C12 UNL     1      -0.344   3.130   0.585  1.00  0.00     0.135 C 
HETATM   14  O3  UNL     1      -0.090   4.779  -1.135  1.00  0.00    -0.221 OA
BRANCH  10  15
HETATM   15  C13 UNL     1       2.919   2.140   0.721  1.00  0.00     0.207 C 
HETATM   16  O4  UNL     1       4.004   1.755   0.247  1.00  0.00    -0.646 OA
HETATM   17  O5  UNL     1       2.375   1.790   1.789  1.00  0.00    -0.646 OA
ENDBRANCH  10  15
ENDBRANCH   8   9
ENDBRANCH   7   8
ENDBRANCH   4   7
BRANCH   2  18
HETATM   18  C14 UNL     1      -3.336  -3.534  -0.446  1.00  0.00     0.229 C 
HETATM   19  O6  UNL     1      -4.441  -2.790  -0.212  1.00  0.00    -0.643 OA
HETATM   20  O7  UNL     1      -3.537  -4.707  -0.672  1.00  0.00    -0.643 OA
ENDBRANCH   2  18
BRANCH   6  21
HETATM   21  C6  UNL     1       0.730  -3.851   0.894  1.00  0.00     0.209 C 
HETATM   22  O1  UNL     1       2.049  -3.663   1.079  1.00  0.00    -0.646 OA
HETATM   23  O2  UNL     1       0.048  -4.360   1.754  1.00  0.00    -0.646 OA
ENDBRANCH   6  21
TORSDOF 6
