REMARK  12 active torsions:
REMARK  status: ('A' for Active; 'I' for Inactive)
REMARK    1  A    between atoms: C2_2  and  C3_3 
REMARK    2  A    between atoms: C3_3  and  C4_5 
REMARK    3  A    between atoms: C5_6  and  C6_7 
REMARK    4  A    between atoms: C7_8  and  C8_9 
REMARK    5  A    between atoms: C8_9  and  C9_10 
REMARK    6  A    between atoms: C9_10  and  C10_12 
REMARK    7  A    between atoms: C11_13  and  C12_14 
REMARK    8  A    between atoms: C12_14  and  C13_15 
REMARK    9  A    between atoms: C13_15  and  C14_16 
REMARK   10  A    between atoms: C14_16  and  C15_17 
REMARK   11  A    between atoms: C15_17  and  C16_18 
REMARK   12  A    between atoms: C16_18  and  C17_19 
ROOT
HETATM    1  C9  UNL     1      -0.378   0.861   2.362  1.00  0.00     0.224 C 
HETATM    2  O2  UNL     1       0.542   0.481   3.373  1.00  0.00    -0.217 OA
ENDROOT
BRANCH   1   3
HETATM    3  C8  UNL     1      -1.126  -0.401   1.952  1.00  0.00     0.248 C 
HETATM    4  O4  UNL     1      -1.709  -0.956   3.118  1.00  0.00    -0.206 OA
BRANCH   3   5
HETATM    5  C7  UNL     1      -0.271  -1.415   1.306  1.00  0.00    -0.043 C 
HETATM    6  C6  UNL     1       0.456  -2.236   0.790  1.00  0.00    -0.011 C 
BRANCH   6   7
HETATM    7  C5  UNL     1       1.193  -3.043   0.264  1.00  0.00    -0.011 C 
HETATM    8  C4  UNL     1       1.938  -3.834  -0.274  1.00  0.00    -0.041 C 
BRANCH   8   9
HETATM    9  C3  UNL     1       2.855  -4.761  -0.961  1.00  0.00     0.238 C 
HETATM   10  O1  UNL     1       2.093  -5.794  -1.582  1.00  0.00    -0.204 OA
BRANCH   9  11
HETATM   11  C2  UNL     1       3.890  -5.341  -0.033  1.00  0.00     0.019 C 
HETATM   12  C1  UNL     1       4.766  -6.281  -0.417  1.00  0.00    -0.001 C 
ENDBRANCH   9  11
ENDBRANCH   8   9
ENDBRANCH   6   7
ENDBRANCH   3   5
ENDBRANCH   1   3
BRANCH   1  13
HETATM   13  C10 UNL     1      -1.287   1.946   2.933  1.00  0.00     0.176 A 
HETATM   14  C11 UNL     1      -1.716   3.075   2.224  1.00  0.00     0.145 A 
HETATM   15  O3  UNL     1      -0.459   3.235   3.099  1.00  0.00    -0.351 OA
BRANCH  14  16
HETATM   16  C12 UNL     1      -1.365   3.373   0.772  1.00  0.00     0.032 C 
BRANCH  16  17
HETATM   17  C13 UNL     1      -2.474   2.936  -0.202  1.00  0.00     0.003 C 
BRANCH  17  18
HETATM   18  C14 UNL     1      -2.266   3.431  -1.646  1.00  0.00     0.000 C 
BRANCH  18  19
HETATM   19  C15 UNL     1      -2.040   2.339  -2.708  1.00  0.00     0.000 C 
BRANCH  19  20
HETATM   20  C16 UNL     1      -0.603   1.795  -2.794  1.00  0.00     0.000 C 
BRANCH  20  21
HETATM   21  C17 UNL     1      -0.275   0.688  -1.782  1.00  0.00     0.000 C 
HETATM   22  C18 UNL     1       1.189   0.243  -1.904  1.00  0.00     0.000 C 
ENDBRANCH  20  21
ENDBRANCH  19  20
ENDBRANCH  18  19
ENDBRANCH  17  18
ENDBRANCH  16  17
ENDBRANCH  14  16
ENDBRANCH   1  13
TORSDOF 12
