REMARK  2 active torsions:
REMARK  status: ('A' for Active; 'I' for Inactive)
REMARK    1  A    between atoms: C15_17  and  C18_20 
REMARK    2  A    between atoms: C18_20  and  C20_23 
ROOT
HETATM    1  C1  UNL     1      -4.730  -3.642   1.143  1.00  0.00     0.033 C 
HETATM    2  C2  UNL     1      -4.340  -4.893   1.442  1.00  0.00    -0.021 C 
HETATM    3  C3  UNL     1      -2.899  -5.324   1.423  1.00  0.00     0.059 C 
HETATM    4  C4  UNL     1      -2.035  -4.353   0.600  1.00  0.00     0.164 C 
HETATM    5  C5  UNL     1      -2.266  -2.894   1.076  1.00  0.00     0.084 C 
HETATM    6  C6  UNL     1      -3.749  -2.572   0.831  1.00  0.00     0.174 C 
HETATM    7  O1  UNL     1      -4.164  -1.474   0.489  1.00  0.00    -0.291 OA
HETATM    8  C7  UNL     1      -1.262  -1.988   0.303  1.00  0.00     0.012 C 
HETATM    9  C8  UNL     1       0.187  -2.390   0.681  1.00  0.00     0.030 C 
HETATM   10  C9  UNL     1       0.475  -3.884   0.637  1.00  0.00     0.145 A 
HETATM   11  C10 UNL     1      -0.572  -4.812   0.622  1.00  0.00     0.171 A 
HETATM   12  O2  UNL     1       0.083  -4.455  -0.730  1.00  0.00    -0.352 OA
HETATM   13  C11 UNL     1       1.174  -1.557  -0.152  1.00  0.00     0.003 C 
HETATM   14  C12 UNL     1       1.071  -0.025   0.084  1.00  0.00     0.002 C 
HETATM   15  C13 UNL     1      -0.361   0.343  -0.348  1.00  0.00     0.000 C 
HETATM   16  C14 UNL     1      -1.433  -0.457   0.420  1.00  0.00     0.001 C 
HETATM   17  C15 UNL     1       2.226   0.462  -0.836  1.00  0.00     0.030 C 
HETATM   18  C16 UNL     1       3.339  -0.594  -0.607  1.00  0.00     0.003 C 
HETATM   19  C17 UNL     1       2.670  -1.847  -0.009  1.00  0.00     0.000 C 
HETATM   20  C27 UNL     1       1.323   0.380   1.551  1.00  0.00     0.000 C 
HETATM   21  C28 UNL     1      -2.078  -2.747   2.606  1.00  0.00     0.010 C 
HETATM   22  O6  UNL     1      -2.528  -4.460  -0.728  1.00  0.00    -0.223 OA
ENDROOT
BRANCH  17  23
HETATM   23  C18 UNL     1       2.740   1.924  -0.926  1.00  0.00     0.152 C 
HETATM   24  O3  UNL     1       3.670   1.885  -1.991  1.00  0.00    -0.224 OA
HETATM   25  C19 UNL     1       3.555   2.433   0.269  1.00  0.00     0.036 C 
BRANCH  23  26
HETATM   26  C20 UNL     1       1.660   2.942  -1.353  1.00  0.00     0.156 C 
HETATM   27  O4  UNL     1       2.206   3.808  -2.307  1.00  0.00    -0.298 OA
HETATM   28  C21 UNL     1       1.484   4.913  -2.646  1.00  0.00     0.291 C 
HETATM   29  C22 UNL     1       0.211   5.301  -1.977  1.00  0.00     0.034 C 
HETATM   30  O5  UNL     1       1.886   5.625  -3.563  1.00  0.00    -0.260 OA
HETATM   31  C23 UNL     1      -0.027   4.708  -0.789  1.00  0.00    -0.040 C 
HETATM   32  C26 UNL     1      -0.662   6.332  -2.646  1.00  0.00     0.036 C 
HETATM   33  C24 UNL     1       1.010   3.762  -0.238  1.00  0.00     0.055 C 
HETATM   34  C25 UNL     1      -1.197   4.981   0.125  1.00  0.00     0.026 C 
ENDBRANCH  23  26
ENDBRANCH  17  23
TORSDOF 2
