REMARK  2 active torsions:
REMARK  status: ('A' for Active; 'I' for Inactive)
REMARK    1  A    between atoms: C15_17  and  C18_20 
REMARK    2  A    between atoms: C18_20  and  C19_21 
ROOT
HETATM    1  C1  UNL     1      -5.990  -2.210  -1.090  1.00  0.00     0.098 C 
HETATM    2  C2  UNL     1      -5.966  -3.459  -0.211  1.00  0.00     0.162 C 
HETATM    3  C3  UNL     1      -4.566  -4.002   0.096  1.00  0.00     0.067 C 
HETATM    4  C4  UNL     1      -3.408  -3.207  -0.532  1.00  0.00     0.162 C 
HETATM    5  C5  UNL     1      -3.562  -1.698  -0.212  1.00  0.00     0.080 C 
HETATM    6  C6  UNL     1      -4.902  -1.197  -0.768  1.00  0.00     0.155 C 
HETATM    7  O1  UNL     1      -5.143  -0.019  -0.904  1.00  0.00    -0.296 OA
HETATM    8  C7  UNL     1      -2.308  -0.987  -0.800  1.00  0.00     0.011 C 
HETATM    9  C8  UNL     1      -1.064  -1.470  -0.010  1.00  0.00     0.030 C 
HETATM   10  C9  UNL     1      -0.950  -2.981   0.137  1.00  0.00     0.145 A 
HETATM   11  C10 UNL     1      -2.060  -3.804  -0.090  1.00  0.00     0.171 A 
HETATM   12  O2  UNL     1      -1.032  -3.659  -1.235  1.00  0.00    -0.352 OA
HETATM   13  C11 UNL     1       0.185  -0.802  -0.593  1.00  0.00     0.003 C 
HETATM   14  C12 UNL     1       0.159   0.745  -0.490  1.00  0.00     0.002 C 
HETATM   15  C13 UNL     1      -1.009   1.180  -1.402  1.00  0.00     0.000 C 
HETATM   16  C14 UNL     1      -2.350   0.552  -0.962  1.00  0.00     0.001 C 
HETATM   17  C15 UNL     1       1.592   1.092  -0.998  1.00  0.00     0.030 C 
HETATM   18  C16 UNL     1       2.468  -0.156  -0.714  1.00  0.00     0.003 C 
HETATM   19  C17 UNL     1       1.554  -1.179  -0.021  1.00  0.00     0.000 C 
HETATM   20  C27 UNL     1      -0.121   1.278   0.930  1.00  0.00     0.000 C 
HETATM   21  C28 UNL     1      -3.671  -1.434   1.311  1.00  0.00     0.010 C 
HETATM   22  O6  UNL     1      -3.536  -3.394  -1.933  1.00  0.00    -0.223 OA
HETATM   23  O7  UNL     1      -6.630  -3.178   1.001  1.00  0.00    -0.223 OA
ENDROOT
BRANCH  17  24
HETATM   24  C18 UNL     1       2.284   2.466  -0.794  1.00  0.00     0.152 C 
HETATM   25  C26 UNL     1       3.587   2.465  -1.619  1.00  0.00     0.036 C 
HETATM   26  O5  UNL     1       1.449   3.422  -1.406  1.00  0.00    -0.224 OA
BRANCH  24  27
HETATM   27  C19 UNL     1       2.530   3.018   0.629  1.00  0.00     0.156 C 
HETATM   28  O3  UNL     1       3.166   4.260   0.533  1.00  0.00    -0.298 OA
HETATM   29  C20 UNL     1       4.511   4.353   0.758  1.00  0.00     0.291 C 
HETATM   30  C21 UNL     1       5.311   3.352   1.221  1.00  0.00     0.034 C 
HETATM   31  O4  UNL     1       5.045   5.412   0.493  1.00  0.00    -0.260 OA
HETATM   32  C22 UNL     1       4.719   2.210   1.614  1.00  0.00    -0.040 C 
HETATM   33  C25 UNL     1       6.802   3.609   1.298  1.00  0.00     0.036 C 
HETATM   34  C23 UNL     1       3.219   2.132   1.655  1.00  0.00     0.055 C 
HETATM   35  C24 UNL     1       5.405   0.998   2.201  1.00  0.00     0.026 C 
ENDBRANCH  24  27
ENDBRANCH  17  24
TORSDOF 2
