REMARK  2 active torsions:
REMARK  status: ('A' for Active; 'I' for Inactive)
REMARK    1  A    between atoms: C5_5  and  O3_17 
REMARK    2  A    between atoms: O3_17  and  C15_18 
ROOT
HETATM    1  C1  UNL     1      -1.877   1.615  -0.513  1.00  0.00     0.035 C 
HETATM    2  C2  UNL     1      -2.090   0.091  -0.400  1.00  0.00     0.033 C 
HETATM    3  C3  UNL     1      -1.469  -0.811  -1.465  1.00  0.00     0.124 A 
HETATM    4  C4  UNL     1      -0.136  -1.375  -1.395  1.00  0.00     0.185 A 
HETATM    5  C5  UNL     1       0.843  -1.215  -0.220  1.00  0.00     0.111 C 
HETATM    6  C6  UNL     1       2.031  -0.262  -0.309  1.00  0.00     0.038 A 
HETATM    7  C7  UNL     1       2.148   1.097  -0.504  1.00  0.00     0.082 A 
HETATM    8  C8  UNL     1       1.140   2.189  -0.769  1.00  0.00     0.081 C 
HETATM    9  C9  UNL     1       0.326   2.634   0.434  1.00  0.00     0.124 A 
HETATM   10  C10 UNL     1      -1.073   2.312   0.590  1.00  0.00     0.140 A 
HETATM   11  O1  UNL     1      -0.238   1.393   1.246  1.00  0.00    -0.356 OA
HETATM   12  C11 UNL     1       0.979   3.627   1.383  1.00  0.00     0.033 C 
HETATM   13  O2  UNL     1       3.464   1.476  -0.471  1.00  0.00    -0.310 OA
HETATM   14  C12 UNL     1       4.201   0.359  -0.256  1.00  0.00     0.118 A 
HETATM   15  C13 UNL     1       3.389  -0.725  -0.149  1.00  0.00     0.006 A 
HETATM   16  C14 UNL     1       3.867  -2.127   0.094  1.00  0.00     0.033 C 
HETATM   17  O5  UNL     1      -0.168  -0.197  -2.150  1.00  0.00    -0.350 OA
HETATM   18  C17 UNL     1      -2.421  -1.336  -2.532  1.00  0.00     0.033 C 
ENDROOT
BRANCH   5  19
HETATM   19  O3  UNL     1       0.351  -1.307   1.107  1.00  0.00    -0.278 OA
BRANCH  19  20
HETATM   20  C15 UNL     1      -0.510  -2.315   1.410  1.00  0.00     0.277 C 
HETATM   21  C16 UNL     1      -0.975  -2.190   2.846  1.00  0.00     0.107 C 
HETATM   22  O4  UNL     1      -0.868  -3.177   0.639  1.00  0.00    -0.264 OA
ENDBRANCH  19  20
ENDBRANCH   5  19
TORSDOF 2
