REMARK  11 active torsions:
REMARK  status: ('A' for Active; 'I' for Inactive)
REMARK    1  A    between atoms: C1_1  and  O8_39 
REMARK    2  A    between atoms: C3_3  and  O6_35 
REMARK    3  A    between atoms: C6_6  and  O1_7 
REMARK    4  A    between atoms: O1_7  and  C7_8 
REMARK    5  A    between atoms: C7_8  and  C8_10 
REMARK    6  A    between atoms: C14_16  and  O3_21 
REMARK    7  A    between atoms: O3_21  and  C19_22 
REMARK    8  A    between atoms: C19_22  and  C20_23 
REMARK    9  A    between atoms: O6_35  and  C30_36 
REMARK   10  A    between atoms: O8_39  and  C32_40 
REMARK   11  A    between atoms: C32_40  and  C33_41 
ROOT
HETATM    1  C1  UNL     1       3.133  -0.332  -0.603  1.00  0.00     0.157 C 
HETATM    2  C2  UNL     1       2.863  -1.855  -0.615  1.00  0.00     0.085 C 
HETATM    3  C3  UNL     1       2.086  -2.180  -1.892  1.00  0.00     0.154 C 
HETATM    4  C4  UNL     1       0.726  -1.615  -1.448  1.00  0.00     0.122 C 
HETATM    5  C5  UNL     1       0.723  -0.039  -1.563  1.00  0.00     0.079 C 
HETATM    6  C6  UNL     1       1.820   0.473  -0.579  1.00  0.00     0.157 C 
HETATM    7  C14 UNL     1      -0.688   0.501  -1.146  1.00  0.00     0.129 C 
HETATM    8  C15 UNL     1      -1.831  -0.190  -1.897  1.00  0.00     0.030 C 
HETATM    9  C16 UNL     1      -1.806  -1.704  -1.682  1.00  0.00     0.005 C 
HETATM   10  C17 UNL     1      -0.470  -2.301  -2.150  1.00  0.00     0.028 C 
HETATM   11  C18 UNL     1      -0.431  -2.406  -3.687  1.00  0.00     0.003 C 
HETATM   12  C26 UNL     1       1.056   0.512  -2.975  1.00  0.00     0.007 C 
HETATM   13  O5  UNL     1       0.621  -1.928  -0.067  1.00  0.00    -0.361 OA
HETATM   14  C27 UNL     1       1.858  -2.329   0.448  1.00  0.00     0.098 C 
HETATM   15  C28 UNL     1       1.810  -3.856   0.673  1.00  0.00     0.030 C 
HETATM   16  C29 UNL     1       2.114  -1.771   1.861  1.00  0.00     0.030 C 
ENDROOT
BRANCH   1  17
HETATM   17  O8  UNL     1       3.901  -0.007  -1.731  1.00  0.00    -0.298 OA
BRANCH  17  18
HETATM   18  C32 UNL     1       5.162   0.498  -1.596  1.00  0.00     0.296 C 
HETATM   19  O9  UNL     1       5.833   0.723  -2.595  1.00  0.00    -0.259 OA
BRANCH  18  20
HETATM   20  C33 UNL     1       5.825   0.789  -0.255  1.00  0.00     0.063 A 
HETATM   21  C34 UNL     1       6.601  -0.196   0.358  1.00  0.00     0.005 A 
HETATM   22  C35 UNL     1       7.181   0.068   1.602  1.00  0.00     0.000 A 
HETATM   23  C36 UNL     1       6.989   1.309   2.214  1.00  0.00     0.000 A 
HETATM   24  C37 UNL     1       6.233   2.298   1.580  1.00  0.00     0.000 A 
HETATM   25  C38 UNL     1       5.652   2.041   0.337  1.00  0.00     0.005 A 
ENDBRANCH  18  20
ENDBRANCH  17  18
ENDBRANCH   1  17
BRANCH   6  26
HETATM   26  O1  UNL     1       2.066   1.844  -0.674  1.00  0.00    -0.298 OA
BRANCH  26  27
HETATM   27  C7  UNL     1       2.183   2.675   0.416  1.00  0.00     0.296 C 
HETATM   28  O2  UNL     1       2.520   3.836   0.192  1.00  0.00    -0.259 OA
BRANCH  27  29
HETATM   29  C8  UNL     1       1.979   2.380   1.881  1.00  0.00     0.063 A 
HETATM   30  C9  UNL     1       0.958   1.562   2.386  1.00  0.00     0.005 A 
HETATM   31  C10 UNL     1       0.828   1.317   3.753  1.00  0.00     0.000 A 
HETATM   32  C11 UNL     1       1.699   1.926   4.659  1.00  0.00     0.000 A 
HETATM   33  C12 UNL     1       2.688   2.784   4.181  1.00  0.00     0.000 A 
HETATM   34  C13 UNL     1       2.822   3.012   2.809  1.00  0.00     0.005 A 
ENDBRANCH  27  29
ENDBRANCH  26  27
ENDBRANCH   6  26
BRANCH   3  35
HETATM   35  O6  UNL     1       2.069  -3.561  -2.113  1.00  0.00    -0.302 OA
BRANCH  35  36
HETATM   36  C30 UNL     1       2.621  -4.201  -3.183  1.00  0.00     0.272 C 
HETATM   37  O7  UNL     1       2.479  -5.394  -3.350  1.00  0.00    -0.264 OA
HETATM   38  C31 UNL     1       3.469  -3.372  -4.129  1.00  0.00     0.106 C 
ENDBRANCH  35  36
ENDBRANCH   3  35
BRANCH   7  39
HETATM   39  O3  UNL     1      -0.795   1.873  -1.395  1.00  0.00    -0.301 OA
BRANCH  39  40
HETATM   40  C19 UNL     1      -1.250   2.803  -0.500  1.00  0.00     0.296 C 
HETATM   41  O4  UNL     1      -1.208   3.981  -0.851  1.00  0.00    -0.259 OA
BRANCH  40  42
HETATM   42  C20 UNL     1      -1.789   2.597   0.885  1.00  0.00     0.063 A 
HETATM   43  C21 UNL     1      -2.588   1.503   1.243  1.00  0.00     0.005 A 
HETATM   44  C22 UNL     1      -3.017   1.340   2.561  1.00  0.00     0.000 A 
HETATM   45  C23 UNL     1      -2.664   2.275   3.537  1.00  0.00     0.000 A 
HETATM   46  C24 UNL     1      -1.903   3.389   3.183  1.00  0.00     0.000 A 
HETATM   47  C25 UNL     1      -1.471   3.550   1.865  1.00  0.00     0.005 A 
ENDBRANCH  40  42
ENDBRANCH  39  40
ENDBRANCH   7  39
TORSDOF 11
