REMARK  3 active torsions:
REMARK  status: ('A' for Active; 'I' for Inactive)
REMARK    1  A    between atoms: C7_7  and  C12_13 
REMARK    2  A    between atoms: C12_13  and  C13_14 
REMARK    3  A    between atoms: C14_15  and  C16_17 
ROOT
HETATM    1  C1  UNL     1      -1.951  -0.413  -0.541  1.00  0.00     0.025 C 
HETATM    2  C2  UNL     1      -1.991  -1.891  -0.283  1.00  0.00    -0.035 C 
HETATM    3  C3  UNL     1      -0.916  -2.683  -0.124  1.00  0.00    -0.046 C 
HETATM    4  C4  UNL     1       0.521  -2.148  -0.263  1.00  0.00     0.043 C 
HETATM    5  C5  UNL     1       0.499  -0.612   0.022  1.00  0.00     0.006 C 
HETATM    6  C6  UNL     1      -0.543   0.091  -0.867  1.00  0.00     0.005 C 
HETATM    7  C7  UNL     1       1.851   0.170   0.162  1.00  0.00     0.004 C 
HETATM    8  C8  UNL     1       2.755  -0.608   1.170  1.00  0.00     0.003 C 
HETATM    9  C9  UNL     1       2.830  -2.110   0.853  1.00  0.00     0.033 C 
HETATM   10  C10 UNL     1       1.468  -2.790   0.771  1.00  0.00     0.155 C 
HETATM   11  O1  UNL     1       1.718  -4.147   0.486  1.00  0.00    -0.223 OA
HETATM   12  C11 UNL     1       4.204  -0.087   1.296  1.00  0.00     0.000 C 
HETATM   13  C18 UNL     1       2.605   0.344  -1.174  1.00  0.00     0.000 C 
HETATM   14  C19 UNL     1       0.945  -2.517  -1.702  1.00  0.00     0.007 C 
HETATM   15  C20 UNL     1      -1.148  -4.159   0.126  1.00  0.00     0.026 C 
ENDROOT
BRANCH   7  16
HETATM   16  C12 UNL     1       1.554   1.581   0.780  1.00  0.00     0.026 C 
BRANCH  16  17
HETATM   17  C13 UNL     1       1.412   2.766  -0.152  1.00  0.00    -0.030 C 
HETATM   18  C14 UNL     1       1.501   4.060   0.229  1.00  0.00    -0.026 C 
HETATM   19  C15 UNL     1       1.664   4.431   1.685  1.00  0.00     0.031 C 
BRANCH  18  20
HETATM   20  C16 UNL     1       1.353   5.153  -0.752  1.00  0.00    -0.005 C 
HETATM   21  C17 UNL     1       1.635   5.059  -2.064  1.00  0.00    -0.000 C 
ENDBRANCH  18  20
ENDBRANCH  16  17
ENDBRANCH   7  16
TORSDOF 3
