REMARK  3 active torsions:
REMARK  status: ('A' for Active; 'I' for Inactive)
REMARK    1  A    between atoms: C1_1  and  O4_13 
REMARK    2  A    between atoms: O4_13  and  C10_14 
REMARK    3  A    between atoms: C11_16  and  C15_23 
ROOT
HETATM    1  O4  UNL     1       2.457  -0.599   0.448  1.00  0.00    -0.301 OA
ENDROOT
BRANCH   1   2
HETATM    2  C1  UNL     1       2.508   0.730   0.758  1.00  0.00     0.124 A 
HETATM    3  C2  UNL     1       3.664   1.480   0.512  1.00  0.00     0.026 A 
HETATM    4  C3  UNL     1       3.737   2.817   0.885  1.00  0.00     0.004 A 
HETATM    5  C4  UNL     1       2.658   3.414   1.552  1.00  0.00     0.025 A 
HETATM    6  C5  UNL     1       1.505   2.673   1.865  1.00  0.00     0.131 A 
HETATM    7  C9  UNL     1       2.737   4.817   1.955  1.00  0.00     0.007 A 
HETATM    8  C6  UNL     1       1.461   1.322   1.480  1.00  0.00     0.176 A 
HETATM    9  O2  UNL     1       0.437   3.206   2.534  1.00  0.00    -0.271 OA
HETATM   10  O1  UNL     1       0.381   0.556   1.795  1.00  0.00    -0.186 OA
HETATM   11  C7  UNL     1       0.507   4.519   2.893  1.00  0.00     0.300 A 
HETATM   12  C8  UNL     1       1.690   5.363   2.609  1.00  0.00     0.069 A 
HETATM   13  O3  UNL     1      -0.436   5.048   3.480  1.00  0.00    -0.259 OA
ENDBRANCH   1   2
BRANCH   1  14
HETATM   14  C10 UNL     1       1.544  -0.926  -0.577  1.00  0.00     0.275 C 
HETATM   15  O5  UNL     1       0.746  -1.936   0.000  1.00  0.00    -0.318 OA
HETATM   16  C11 UNL     1      -0.218  -2.442  -0.898  1.00  0.00     0.237 C 
HETATM   17  C12 UNL     1       0.461  -3.005  -2.143  1.00  0.00     0.223 C 
HETATM   18  C13 UNL     1       1.322  -1.946  -2.802  1.00  0.00     0.221 C 
HETATM   19  O8  UNL     1      -0.506  -3.429  -3.069  1.00  0.00    -0.217 OA
HETATM   20  C14 UNL     1       2.307  -1.439  -1.772  1.00  0.00     0.241 C 
HETATM   21  O7  UNL     1       2.014  -2.510  -3.886  1.00  0.00    -0.218 OA
HETATM   22  O6  UNL     1       3.056  -0.378  -2.308  1.00  0.00    -0.215 OA
BRANCH  16  23
HETATM   23  C15 UNL     1      -1.096  -3.462  -0.181  1.00  0.00     0.217 C 
HETATM   24  O9  UNL     1      -2.259  -3.324   0.120  1.00  0.00    -0.646 OA
HETATM   25  O10 UNL     1      -0.409  -4.568   0.158  1.00  0.00    -0.646 OA
ENDBRANCH  16  23
ENDBRANCH   1  14
TORSDOF 3
