REMARK  2 active torsions:
REMARK  status: ('A' for Active; 'I' for Inactive)
REMARK    1  A    between atoms: C1_1  and  O4_24 
REMARK    2  A    between atoms: C3_3  and  O3_22 
ROOT
HETATM    1  C1  UNL     1       3.477   0.631  -1.259  1.00  0.00     0.096 A 
HETATM    2  C2  UNL     1       3.728  -0.636  -0.899  1.00  0.00     0.048 A 
HETATM    3  C3  UNL     1       2.839  -1.480  -0.335  1.00  0.00     0.098 A 
HETATM    4  C4  UNL     1       1.590  -0.986  -0.128  1.00  0.00     0.042 A 
HETATM    5  C5  UNL     1       1.266   0.289  -0.461  1.00  0.00     0.007 A 
HETATM    6  C6  UNL     1       2.227   1.052  -1.016  1.00  0.00     0.024 A 
HETATM    7  C7  UNL     1       0.010   0.756  -0.235  1.00  0.00     0.018 A 
HETATM    8  C8  UNL     1      -0.918  -0.058   0.316  1.00  0.00     0.081 A 
HETATM    9  N1  UNL     1      -0.599  -1.244   0.618  1.00  0.00    -0.244 NA
HETATM   10  C9  UNL     1       0.569  -1.672   0.412  1.00  0.00     0.101 A 
HETATM   11  C10 UNL     1      -2.188   0.343   0.564  1.00  0.00     0.020 A 
HETATM   12  C11 UNL     1      -2.557   1.608   0.261  1.00  0.00     0.004 A 
HETATM   13  C12 UNL     1      -1.648   2.429  -0.285  1.00  0.00     0.000 A 
HETATM   14  C13 UNL     1      -0.399   2.008  -0.526  1.00  0.00     0.002 A 
HETATM   15  C14 UNL     1      -3.806   2.059   0.492  1.00  0.00     0.026 A 
HETATM   16  C15 UNL     1      -4.697   1.223   1.034  1.00  0.00     0.119 A 
HETATM   17  C16 UNL     1      -4.354  -0.032   1.332  1.00  0.00     0.119 A 
HETATM   18  C17 UNL     1      -3.112  -0.480   1.108  1.00  0.00     0.028 A 
HETATM   19  O1  UNL     1      -5.301  -0.649   1.814  1.00  0.00    -0.300 OA
HETATM   20  C18 UNL     1      -6.414   0.245   1.861  1.00  0.00     0.304 A 
HETATM   21  O2  UNL     1      -5.871   1.448   1.315  1.00  0.00    -0.300 OA
ENDROOT
BRANCH   1  22
HETATM   22  O4  UNL     1       4.378   1.498  -1.834  1.00  0.00    -0.328 OA
HETATM   23  C20 UNL     1       5.693   1.055  -2.075  1.00  0.00     0.181 C 
ENDBRANCH   1  22
BRANCH   3  24
HETATM   24  O3  UNL     1       3.381  -2.725  -0.076  1.00  0.00    -0.328 OA
HETATM   25  C19 UNL     1       2.677  -3.817   0.453  1.00  0.00     0.181 C 
ENDBRANCH   3  24
TORSDOF 2
