REMARK  10 active torsions:
REMARK  status: ('A' for Active; 'I' for Inactive)
REMARK    1  A    between atoms: C1_1  and  O1_2 
REMARK    2  A    between atoms: O1_2  and  C2_3 
REMARK    3  A    between atoms: C3_4  and  O2_5 
REMARK    4  A    between atoms: O2_5  and  C4_6 
REMARK    5  A    between atoms: C12_15  and  O9_35 
REMARK    6  A    between atoms: C13_16  and  O7_31 
REMARK    7  A    between atoms: C16_19  and  O5_27 
REMARK    8  A    between atoms: O5_27  and  C23_28 
REMARK    9  A    between atoms: O7_31  and  C25_32 
REMARK   10  A    between atoms: O9_35  and  C27_36 
ROOT
HETATM    1  C2  UNL     1       5.938  -0.073  -1.300  1.00  0.00     0.152 C 
HETATM    2  C3  UNL     1       5.024  -1.061  -2.023  1.00  0.00     0.152 C 
HETATM    3  C6  UNL     1       3.752  -1.346  -1.216  1.00  0.00     0.033 C 
HETATM    4  C7  UNL     1       2.897  -0.088  -0.874  1.00  0.00     0.008 C 
HETATM    5  C8  UNL     1       3.874   0.958  -0.243  1.00  0.00     0.033 C 
HETATM    6  C9  UNL     1       5.225   1.263  -0.968  1.00  0.00     0.030 C 
HETATM    7  C10 UNL     1       5.099   2.126  -2.246  1.00  0.00     0.003 C 
HETATM    8  C11 UNL     1       6.179   2.087  -0.054  1.00  0.00     0.003 C 
HETATM    9  C12 UNL     1       3.160   2.173   0.379  1.00  0.00     0.152 C 
HETATM   10  C13 UNL     1       2.191   1.742   1.484  1.00  0.00     0.159 C 
HETATM   11  C14 UNL     1       1.164   0.706   0.992  1.00  0.00     0.086 C 
HETATM   12  C15 UNL     1       1.804  -0.471   0.199  1.00  0.00     0.037 C 
HETATM   13  C16 UNL     1       0.730  -1.505  -0.246  1.00  0.00     0.125 C 
HETATM   14  C17 UNL     1      -0.610  -0.881  -0.686  1.00  0.00     0.035 C 
HETATM   15  C18 UNL     1      -1.080   0.268   0.217  1.00  0.00     0.028 C 
HETATM   16  C19 UNL     1      -0.001   1.355   0.207  1.00  0.00     0.014 C 
HETATM   17  C20 UNL     1      -1.023  -0.116   1.667  1.00  0.00     0.012 C 
HETATM   18  C21 UNL     1       0.354   0.099   2.157  1.00  0.00     0.171 C 
HETATM   19  O4  UNL     1       0.769  -0.225   3.262  1.00  0.00    -0.292 OA
HETATM   20  C22 UNL     1      -2.026  -0.600   2.420  1.00  0.00    -0.002 C 
HETATM   21  C29 UNL     1       2.237   0.350  -2.200  1.00  0.00     0.000 C 
ENDROOT
BRANCH   1  22
HETATM   22  O1  UNL     1       6.401  -0.680  -0.120  1.00  0.00    -0.302 OA
BRANCH  22  23
HETATM   23  C1  UNL     1       7.707  -1.052  -0.026  1.00  0.00     0.272 C 
HETATM   24  C30 UNL     1       7.976  -1.645   1.342  1.00  0.00     0.106 C 
HETATM   25  O11 UNL     1       8.542  -0.927  -0.892  1.00  0.00    -0.264 OA
ENDBRANCH  22  23
ENDBRANCH   1  22
BRANCH   2  26
HETATM   26  O2  UNL     1       5.742  -2.248  -2.229  1.00  0.00    -0.302 OA
BRANCH  26  27
HETATM   27  C4  UNL     1       5.436  -3.012  -3.312  1.00  0.00     0.272 C 
HETATM   28  C5  UNL     1       6.360  -4.212  -3.375  1.00  0.00     0.106 C 
HETATM   29  O3  UNL     1       4.564  -2.768  -4.116  1.00  0.00    -0.264 OA
ENDBRANCH  26  27
ENDBRANCH   2  26
BRANCH   9  30
HETATM   30  O9  UNL     1       2.507   2.919  -0.602  1.00  0.00    -0.302 OA
BRANCH  30  31
HETATM   31  C27 UNL     1       2.396   4.265  -0.446  1.00  0.00     0.272 C 
HETATM   32  C28 UNL     1       1.705   4.868  -1.651  1.00  0.00     0.106 C 
HETATM   33  O10 UNL     1       2.792   4.893   0.510  1.00  0.00    -0.264 OA
ENDBRANCH  30  31
ENDBRANCH   9  30
BRANCH  10  34
HETATM   34  O7  UNL     1       2.962   1.216   2.535  1.00  0.00    -0.301 OA
BRANCH  34  35
HETATM   35  C25 UNL     1       2.804   1.701   3.797  1.00  0.00     0.272 C 
HETATM   36  C26 UNL     1       3.696   0.938   4.755  1.00  0.00     0.106 C 
HETATM   37  O8  UNL     1       2.065   2.605   4.117  1.00  0.00    -0.264 OA
ENDBRANCH  34  35
ENDBRANCH  10  34
BRANCH  13  38
HETATM   38  O5  UNL     1       0.433  -2.390   0.804  1.00  0.00    -0.304 OA
BRANCH  38  39
HETATM   39  C23 UNL     1       1.257  -3.446   1.041  1.00  0.00     0.272 C 
HETATM   40  C24 UNL     1       0.745  -4.242   2.225  1.00  0.00     0.106 C 
HETATM   41  O6  UNL     1       2.252  -3.711   0.408  1.00  0.00    -0.264 OA
ENDBRANCH  38  39
ENDBRANCH  13  38
TORSDOF 10
