REMARK  8 active torsions:
REMARK  status: ('A' for Active; 'I' for Inactive)
REMARK    1  A    between atoms: C5_5  and  C7_7 
REMARK    2  A    between atoms: C7_7  and  O1_8 
REMARK    3  A    between atoms: O1_8  and  C8_9 
REMARK    4  A    between atoms: C8_9  and  C9_10 
REMARK    5  A    between atoms: C9_10  and  C10_11 
REMARK    6  A    between atoms: C11_12  and  C12_13 
REMARK    7  A    between atoms: C13_14  and  C14_15 
REMARK    8  A    between atoms: C14_15  and  O2_16 
ROOT
HETATM    1  C9  UNL     1      -1.540  -0.542   0.143  1.00  0.00     0.206 C 
HETATM    2  O5  UNL     1      -2.725  -0.782   0.209  1.00  0.00    -0.289 OA
ENDROOT
BRANCH   1   3
HETATM    3  C8  UNL     1      -0.512  -1.644   0.434  1.00  0.00     0.221 C 
BRANCH   3   4
HETATM    4  O1  UNL     1      -1.116  -2.874   0.757  1.00  0.00    -0.290 OA
BRANCH   4   5
HETATM    5  C7  UNL     1      -0.443  -4.035   1.069  1.00  0.00     0.296 C 
HETATM    6  O6  UNL     1      -1.183  -4.970   1.315  1.00  0.00    -0.259 OA
BRANCH   5   7
HETATM    7  C5  UNL     1       0.900  -4.314   1.148  1.00  0.00     0.063 A 
HETATM    8  C4  UNL     1       1.291  -5.565   1.484  1.00  0.00     0.005 A 
HETATM    9  C3  UNL     1       2.584  -5.918   1.582  1.00  0.00     0.000 A 
HETATM   10  C2  UNL     1       3.547  -5.019   1.345  1.00  0.00     0.000 A 
HETATM   11  C1  UNL     1       3.192  -3.772   1.010  1.00  0.00     0.000 A 
HETATM   12  C6  UNL     1       1.895  -3.435   0.915  1.00  0.00     0.005 A 
ENDBRANCH   5   7
ENDBRANCH   4   5
ENDBRANCH   3   4
ENDBRANCH   1   3
BRANCH   1  13
HETATM   13  C10 UNL     1      -1.015   0.670  -0.180  1.00  0.00     0.068 C 
HETATM   14  C11 UNL     1      -1.728   1.779  -0.472  1.00  0.00     0.134 C 
HETATM   15  O4  UNL     1      -3.090   1.768  -0.466  1.00  0.00    -0.190 OA
BRANCH  14  16
HETATM   16  C12 UNL     1      -1.046   2.905  -0.773  1.00  0.00     0.033 C 
HETATM   17  C13 UNL     1      -1.617   4.082  -1.083  1.00  0.00     0.070 C 
BRANCH  17  18
HETATM   18  C14 UNL     1      -0.922   5.214  -1.385  1.00  0.00     0.296 C 
HETATM   19  O3  UNL     1       0.291   5.191  -1.384  1.00  0.00    -0.259 OA
BRANCH  18  20
HETATM   20  O2  UNL     1      -1.584   6.372  -1.691  1.00  0.00    -0.296 OA
HETATM   21  C15 UNL     1      -0.800   7.500  -2.000  1.00  0.00     0.185 C 
ENDBRANCH  18  20
ENDBRANCH  17  18
ENDBRANCH  14  16
ENDBRANCH   1  13
TORSDOF 8
