REMARK  3 active torsions:
REMARK  status: ('A' for Active; 'I' for Inactive)
REMARK    1  A    between atoms: C2_2  and  O3_13 
REMARK    2  A    between atoms: O3_13  and  C9_14 
REMARK    3  A    between atoms: C10_16  and  C14_23 
ROOT
HETATM    1  C1  UNL     1       0.396   3.145   0.069  1.00  0.00     0.320 C 
HETATM    2  C2  UNL     1       0.519   1.642   0.275  1.00  0.00     0.327 C 
HETATM    3  O1  UNL     1       1.540   1.044  -0.504  1.00  0.00    -0.297 OA
HETATM    4  C3  UNL     1       2.696   1.768  -0.617  1.00  0.00     0.116 A 
HETATM    5  C4  UNL     1       2.736   3.157  -0.420  1.00  0.00     0.116 A 
HETATM    6  N1  UNL     1       1.568   3.791  -0.199  1.00  0.00    -0.146 N 
HETATM    7  O2  UNL     1       1.445   5.098  -0.315  1.00  0.00    -0.077 OA
HETATM    8  C5  UNL     1       3.944   3.858  -0.506  1.00  0.00     0.023 A 
HETATM    9  C6  UNL     1       5.143   3.184  -0.744  1.00  0.00     0.013 A 
HETATM   10  C7  UNL     1       5.126   1.798  -0.901  1.00  0.00     0.060 A 
HETATM   11  C8  UNL     1       3.914   1.107  -0.827  1.00  0.00     0.037 A 
HETATM   12 CL1  UNL     1       6.600   0.942  -1.168  1.00  0.00    -0.082 Cl
HETATM   13  O9  UNL     1      -0.630   3.772   0.196  1.00  0.00    -0.264 OA
ENDROOT
BRANCH   2  14
HETATM   14  O3  UNL     1      -0.684   0.990  -0.104  1.00  0.00    -0.297 OA
BRANCH  14  15
HETATM   15  C9  UNL     1      -0.799  -0.338   0.365  1.00  0.00     0.272 C 
HETATM   16  O4  UNL     1      -0.863  -1.135  -0.799  1.00  0.00    -0.326 OA
HETATM   17  C10 UNL     1      -1.019  -2.502  -0.512  1.00  0.00     0.184 C 
HETATM   18  C11 UNL     1      -2.296  -2.728   0.291  1.00  0.00     0.215 C 
HETATM   19  C12 UNL     1      -2.282  -1.892   1.554  1.00  0.00     0.220 C 
HETATM   20  O7  UNL     1      -2.424  -4.075   0.675  1.00  0.00    -0.218 OA
HETATM   21  C13 UNL     1      -2.083  -0.449   1.152  1.00  0.00     0.241 C 
HETATM   22  O6  UNL     1      -3.506  -2.035   2.228  1.00  0.00    -0.218 OA
HETATM   23  O5  UNL     1      -1.997   0.348   2.306  1.00  0.00    -0.215 OA
BRANCH  17  24
HETATM   24  C14 UNL     1      -1.053  -3.271  -1.826  1.00  0.00     0.214 C 
HETATM   25  O8  UNL     1       0.189  -3.151  -2.490  1.00  0.00    -0.218 OA
ENDBRANCH  17  24
ENDBRANCH  14  15
ENDBRANCH   2  14
TORSDOF 3
