REMARK  3 active torsions:
REMARK  status: ('A' for Active; 'I' for Inactive)
REMARK    1  A    between atoms: C6_6  and  O1_7 
REMARK    2  A    between atoms: C13_15  and  O4_19 
REMARK    3  A    between atoms: C14_16  and  O3_17 
ROOT
HETATM    1  C1  UNL     1      -2.136   4.106  -0.679  1.00  0.00     0.153 A 
HETATM    2  C2  UNL     1      -1.853   4.388   0.658  1.00  0.00     0.032 A 
HETATM    3  C3  UNL     1      -1.911   3.390   1.628  1.00  0.00     0.027 A 
HETATM    4  C4  UNL     1      -2.272   2.082   1.294  1.00  0.00     0.105 A 
HETATM    5  C5  UNL     1      -2.568   1.816  -0.053  1.00  0.00     0.086 A 
HETATM    6  C6  UNL     1      -2.433   2.788  -1.065  1.00  0.00     0.124 A 
HETATM    7  C8  UNL     1      -2.934   0.407  -0.388  1.00  0.00     0.203 C 
HETATM    8  C9  UNL     1      -2.432  -0.610   0.584  1.00  0.00     0.086 C 
HETATM    9  C10 UNL     1      -2.149  -0.146   1.877  1.00  0.00     0.105 C 
HETATM   10  O2  UNL     1      -2.389   1.137   2.269  1.00  0.00    -0.307 OA
HETATM   11  C11 UNL     1      -1.649  -1.077   2.788  1.00  0.00     0.027 C 
HETATM   12  C12 UNL     1      -1.447  -2.408   2.424  1.00  0.00     0.028 C 
HETATM   13  C13 UNL     1      -1.735  -2.876   1.136  1.00  0.00     0.117 C 
HETATM   14  C14 UNL     1      -2.153  -1.931   0.174  1.00  0.00     0.121 C 
HETATM   15  O5  UNL     1      -3.527   0.115  -1.420  1.00  0.00    -0.286 OA
HETATM   16  O6  UNL     1      -2.107   5.088  -1.619  1.00  0.00    -0.188 OA
ENDROOT
BRANCH   6  17
HETATM   17  O1  UNL     1      -2.770   2.563  -2.374  1.00  0.00    -0.326 OA
HETATM   18  C7  UNL     1      -1.718   2.040  -3.154  1.00  0.00     0.181 C 
ENDBRANCH   6  17
BRANCH  14  19
HETATM   19  O3  UNL     1      -2.467  -2.376  -1.086  1.00  0.00    -0.326 OA
HETATM   20  C15 UNL     1      -1.391  -2.301  -1.994  1.00  0.00     0.181 C 
ENDBRANCH  14  19
BRANCH  13  21
HETATM   21  O4  UNL     1      -1.539  -4.175   0.729  1.00  0.00    -0.326 OA
HETATM   22  C16 UNL     1      -0.889  -5.068   1.603  1.00  0.00     0.181 C 
ENDBRANCH  13  21
TORSDOF 3
