REMARK  2 active torsions:
REMARK  status: ('A' for Active; 'I' for Inactive)
REMARK    1  A    between atoms: C9_9  and  O2_13 
REMARK    2  A    between atoms: C10_10  and  O1_11 
ROOT
HETATM    1  C1  UNL     1       2.881  -3.170   0.249  1.00  0.00     0.003 C 
HETATM    2  C2  UNL     1       3.719  -2.019   0.209  1.00  0.00     0.039 C 
HETATM    3  C3  UNL     1       3.192  -0.773  -0.100  1.00  0.00     0.005 C 
HETATM    4  C4  UNL     1       1.759  -0.586  -0.098  1.00  0.00     0.025 C 
HETATM    5  C5  UNL     1       0.965  -1.742  -0.133  1.00  0.00     0.004 C 
HETATM    6  C6  UNL     1       1.537  -3.042   0.010  1.00  0.00     0.000 C 
HETATM    7  C7  UNL     1      -0.439  -1.609  -0.272  1.00  0.00     0.029 C 
HETATM    8  C8  UNL     1      -1.049  -0.378  -0.262  1.00  0.00     0.155 C 
HETATM    9  C9  UNL     1      -0.267   0.809  -0.053  1.00  0.00     0.141 C 
HETATM   10  C10 UNL     1       1.124   0.702   0.057  1.00  0.00     0.118 C 
HETATM   11  O3  UNL     1      -2.403  -0.374  -0.398  1.00  0.00    -0.188 OA
HETATM   12  C13 UNL     1       4.171   0.258  -0.504  1.00  0.00     0.000 C 
HETATM   13  C14 UNL     1       5.527   0.203   0.054  1.00  0.00     0.003 C 
HETATM   14  C15 UNL     1       6.014  -0.983   0.471  1.00  0.00     0.042 C 
HETATM   15  C16 UNL     1       5.178  -2.204   0.421  1.00  0.00     0.196 C 
HETATM   16  O4  UNL     1       5.677  -3.301   0.661  1.00  0.00    -0.287 OA
HETATM   17  C17 UNL     1       3.936   1.133  -1.509  1.00  0.00     0.000 C 
ENDROOT
BRANCH   9  18
HETATM   18  O2  UNL     1      -0.833   2.054   0.089  1.00  0.00    -0.324 OA
HETATM   19  C12 UNL     1      -2.221   2.248   0.183  1.00  0.00     0.182 C 
ENDBRANCH   9  18
BRANCH  10  20
HETATM   20  O1  UNL     1       1.980   1.748   0.327  1.00  0.00    -0.326 OA
HETATM   21  C11 UNL     1       1.560   3.078   0.501  1.00  0.00     0.181 C 
ENDBRANCH  10  20
TORSDOF 2
