REMARK  5 active torsions:
REMARK  status: ('A' for Active; 'I' for Inactive)
REMARK    1  A    between atoms: C7_7  and  C10_13 
REMARK    2  A    between atoms: C15_19  and  O8_33 
REMARK    3  A    between atoms: O8_33  and  C26_34 
REMARK    4  A    between atoms: C26_34  and  C27_35 
REMARK    5  A    between atoms: C27_35  and  C28_36 
ROOT
HETATM    1  C1  UNL     1       1.007   0.997   1.567  1.00  0.00     0.001 C 
HETATM    2  C2  UNL     1       1.450  -0.190   0.694  1.00  0.00     0.012 C 
HETATM    3  C3  UNL     1       2.784  -0.828   1.164  1.00  0.00     0.059 C 
HETATM    4  C4  UNL     1       3.885   0.275   1.303  1.00  0.00     0.132 A 
HETATM    5  C5  UNL     1       3.487   1.756   1.358  1.00  0.00     0.055 C 
HETATM    6  C6  UNL     1       2.156   1.848   2.135  1.00  0.00     0.005 C 
HETATM    7  C7  UNL     1       4.572   2.549   2.120  1.00  0.00     0.151 C 
HETATM    8  O1  UNL     1       5.844   2.316   1.570  1.00  0.00    -0.298 OA
HETATM    9  C8  UNL     1       6.185   1.134   0.984  1.00  0.00     0.302 C 
HETATM   10  C9  UNL     1       5.284  -0.019   1.135  1.00  0.00     0.226 A 
HETATM   11  O2  UNL     1       4.904  -0.149   2.478  1.00  0.00    -0.346 OA
HETATM   12  O3  UNL     1       7.231   1.001   0.383  1.00  0.00    -0.261 OA
HETATM   13  C14 UNL     1       3.350   2.409  -0.040  1.00  0.00     0.005 C 
HETATM   14  C15 UNL     1       3.147  -1.903   0.113  1.00  0.00     0.184 C 
HETATM   15  C16 UNL     1       2.047  -2.955  -0.038  1.00  0.00     0.187 C 
HETATM   16  C17 UNL     1       0.623  -2.492  -0.340  1.00  0.00     0.137 C 
HETATM   17  C18 UNL     1       0.274  -1.107   0.277  1.00  0.00     0.061 C 
HETATM   18  C19 UNL     1      -0.453  -0.413  -0.866  1.00  0.00    -0.021 C 
HETATM   19  C20 UNL     1      -0.285  -1.016  -2.050  1.00  0.00     0.034 C 
HETATM   20  C21 UNL     1       0.501  -2.247  -1.852  1.00  0.00     0.181 C 
HETATM   21  O5  UNL     1       0.970  -2.946  -2.738  1.00  0.00    -0.291 OA
HETATM   22  C22 UNL     1      -0.772  -1.468   1.324  1.00  0.00     0.147 C 
HETATM   23  O6  UNL     1      -1.465  -2.546   0.756  1.00  0.00    -0.358 OA
HETATM   24  C23 UNL     1      -0.522  -3.410   0.186  1.00  0.00     0.106 C 
HETATM   25  C24 UNL     1      -1.258  -4.189  -0.916  1.00  0.00     0.031 C 
HETATM   26  C25 UNL     1      -0.132  -4.439   1.262  1.00  0.00     0.031 C 
HETATM   27  O7  UNL     1       2.341  -4.129   0.010  1.00  0.00    -0.293 OA
HETATM   28  C31 UNL     1       2.551  -1.543   2.517  1.00  0.00     0.005 C 
ENDROOT
BRANCH  14  29
HETATM   29  O8  UNL     1       3.399  -1.292  -1.134  1.00  0.00    -0.297 OA
BRANCH  29  30
HETATM   30  C26 UNL     1       4.296  -1.865  -1.981  1.00  0.00     0.272 C 
HETATM   31  O9  UNL     1       5.016  -2.796  -1.694  1.00  0.00    -0.264 OA
BRANCH  30  32
HETATM   32  C27 UNL     1       4.208  -1.240  -3.363  1.00  0.00     0.096 C 
BRANCH  32  33
HETATM   33  C28 UNL     1       4.236   0.299  -3.384  1.00  0.00     0.010 C 
HETATM   34  C29 UNL     1       5.529   0.840  -2.754  1.00  0.00     0.001 C 
HETATM   35  C30 UNL     1       4.085   0.824  -4.821  1.00  0.00     0.001 C 
ENDBRANCH  32  33
ENDBRANCH  30  32
ENDBRANCH  29  30
ENDBRANCH  14  29
BRANCH   7  36
HETATM   36  C10 UNL     1       4.336   4.039   2.175  1.00  0.00     0.032 A 
HETATM   37  C11 UNL     1       3.640   4.730   3.122  1.00  0.00     0.121 A 
HETATM   38  O4  UNL     1       3.642   6.067   2.855  1.00  0.00    -0.303 OA
HETATM   39  C12 UNL     1       4.372   6.227   1.715  1.00  0.00     0.122 A 
HETATM   40  C13 UNL     1       4.824   5.027   1.257  1.00  0.00     0.027 A 
ENDBRANCH   7  36
TORSDOF 5
