REMARK  2 active torsions:
REMARK  status: ('A' for Active; 'I' for Inactive)
REMARK    1  A    between atoms: C1_1  and  O6_21 
REMARK    2  A    between atoms: C7_8  and  C10_12 
ROOT
HETATM    1  C1  UNL     1      -2.478   0.670   1.707  1.00  0.00     0.098 A 
HETATM    2  C2  UNL     1      -2.435  -0.630   2.037  1.00  0.00     0.052 A 
HETATM    3  C3  UNL     1      -1.314  -1.371   2.073  1.00  0.00     0.138 A 
HETATM    4  C4  UNL     1      -0.146  -0.771   1.748  1.00  0.00     0.083 A 
HETATM    5  C5  UNL     1      -0.122   0.542   1.423  1.00  0.00     0.101 A 
HETATM    6  C6  UNL     1      -1.289   1.216   1.401  1.00  0.00     0.049 A 
HETATM    7  O1  UNL     1       1.002   1.232   1.046  1.00  0.00    -0.328 OA
HETATM    8  C7  UNL     1       2.043   0.482   0.484  1.00  0.00     0.151 C 
HETATM    9  C8  UNL     1       2.303  -0.729   1.365  1.00  0.00     0.104 C 
HETATM   10  C9  UNL     1       1.029  -1.461   1.747  1.00  0.00     0.180 C 
HETATM   11  O2  UNL     1       1.147  -2.631   2.030  1.00  0.00    -0.291 OA
HETATM   12  O5  UNL     1      -1.458  -2.686   2.412  1.00  0.00    -0.190 OA
ENDROOT
BRANCH   8  13
HETATM   13  C10 UNL     1       1.809   0.171  -0.991  1.00  0.00     0.008 A 
HETATM   14  C11 UNL     1       2.633   0.671  -1.929  1.00  0.00     0.000 A 
HETATM   15  C12 UNL     1       2.441   0.415  -3.232  1.00  0.00     0.029 A 
HETATM   16  C13 UNL     1       1.418  -0.348  -3.647  1.00  0.00     0.156 A 
HETATM   17  C14 UNL     1       0.584  -0.862  -2.727  1.00  0.00     0.156 A 
HETATM   18  O4  UNL     1       1.210  -0.611  -4.966  1.00  0.00    -0.188 OA
HETATM   19  C15 UNL     1       0.794  -0.597  -1.427  1.00  0.00     0.028 A 
HETATM   20  O3  UNL     1      -0.462  -1.639  -3.118  1.00  0.00    -0.188 OA
ENDBRANCH   8  13
BRANCH   1  21
HETATM   21  O6  UNL     1      -3.689   1.319   1.697  1.00  0.00    -0.328 OA
HETATM   22  C16 UNL     1      -3.725   2.684   1.349  1.00  0.00     0.181 C 
ENDBRANCH   1  21
TORSDOF 2
