REMARK  9 active torsions:
REMARK  status: ('A' for Active; 'I' for Inactive)
REMARK    1  A    between atoms: C7_7  and  O3_13 
REMARK    2  A    between atoms: C8_8  and  O1_9 
REMARK    3  A    between atoms: O1_9  and  C9_10 
REMARK    4  A    between atoms: O3_13  and  C11_14 
REMARK    5  A    between atoms: C13_17  and  O6_23 
REMARK    6  A    between atoms: O6_23  and  C18_24 
REMARK    7  A    between atoms: C18_24  and  C19_25 
REMARK    8  A    between atoms: C27_34  and  O8_37 
REMARK    9  A    between atoms: O8_37  and  C30_38 
ROOT
HETATM    1  C1  UNL     1       4.382   1.164  -0.191  1.00  0.00    -0.018 C 
HETATM    2  C2  UNL     1       3.635   0.143  -0.453  1.00  0.00     0.043 C 
HETATM    3  C3  UNL     1       3.741  -1.246  -0.694  1.00  0.00     0.133 C 
HETATM    4  C4  UNL     1       1.980  -1.592  -0.810  1.00  0.00     0.035 C 
HETATM    5  C5  UNL     1       0.709  -0.737   0.095  1.00  0.00     0.028 C 
HETATM    6  C6  UNL     1       0.254   1.063  -0.117  1.00  0.00     0.058 C 
HETATM    7  C7  UNL     1       1.514   2.527  -0.452  1.00  0.00     0.158 C 
HETATM    8  C8  UNL     1       3.260   2.632   0.175  1.00  0.00     0.170 C 
HETATM    9  C13 UNL     1      -0.770   1.222   1.197  1.00  0.00     0.130 C 
HETATM   10  C14 UNL     1      -1.516  -0.125   1.619  1.00  0.00     0.068 C 
HETATM   11  C15 UNL     1      -1.910  -1.092   0.536  1.00  0.00     0.173 C 
HETATM   12  C16 UNL     1      -0.569  -1.602   0.004  1.00  0.00    -0.014 C 
HETATM   13  C17 UNL     1      -0.420  -2.899  -0.260  1.00  0.00    -0.007 C 
HETATM   14  O5  UNL     1      -2.704  -2.181   1.030  1.00  0.00    -0.219 OA
HETATM   15  C25 UNL     1      -0.596   1.083  -1.430  1.00  0.00     0.005 C 
HETATM   16  C26 UNL     1       4.746  -1.638   0.391  1.00  0.00     0.065 C 
HETATM   17  C27 UNL     1       6.091  -0.768  -0.137  1.00  0.00     0.144 C 
HETATM   18  C28 UNL     1       5.701   0.860  -0.037  1.00  0.00    -0.022 C 
HETATM   19  C29 UNL     1       6.724   1.862   0.387  1.00  0.00     0.028 C 
HETATM   20  O10 UNL     1       4.388  -1.804  -1.911  1.00  0.00    -0.226 OA
HETATM   21  C32 UNL     1       3.237   0.291   1.161  1.00  0.00     0.007 C 
HETATM   22  C33 UNL     1       3.056   0.465  -1.900  1.00  0.00     0.007 C 
ENDROOT
BRANCH   9  23
HETATM   23  O6  UNL     1      -1.892   2.120   0.899  1.00  0.00    -0.301 OA
BRANCH  23  24
HETATM   24  C18 UNL     1      -1.823   3.486   0.999  1.00  0.00     0.296 C 
HETATM   25  O7  UNL     1      -0.832   4.058   1.473  1.00  0.00    -0.259 OA
BRANCH  24  26
HETATM   26  C19 UNL     1      -3.005   4.248   0.530  1.00  0.00     0.063 A 
HETATM   27  C20 UNL     1      -3.080   5.568   0.650  1.00  0.00     0.005 A 
HETATM   28  C21 UNL     1      -4.258   6.289   0.137  1.00  0.00     0.000 A 
HETATM   29  C22 UNL     1      -5.248   5.620  -0.456  1.00  0.00     0.000 A 
HETATM   30  C23 UNL     1      -5.169   4.166  -0.588  1.00  0.00     0.000 A 
HETATM   31  C24 UNL     1      -4.107   3.511  -0.117  1.00  0.00     0.005 A 
ENDBRANCH  24  26
ENDBRANCH  23  24
ENDBRANCH   9  23
BRANCH   7  32
HETATM   32  O3  UNL     1       0.989   3.883  -0.287  1.00  0.00    -0.301 OA
BRANCH  32  33
HETATM   33  C11 UNL     1       0.251   4.414  -1.362  1.00  0.00     0.272 C 
HETATM   34  C12 UNL     1      -0.195   5.850  -1.299  1.00  0.00     0.106 C 
HETATM   35  O4  UNL     1       0.058   3.766  -2.392  1.00  0.00    -0.264 OA
ENDBRANCH  32  33
ENDBRANCH   7  32
BRANCH   8  36
HETATM   36  O1  UNL     1       3.832   3.853  -0.425  1.00  0.00    -0.298 OA
BRANCH  36  37
HETATM   37  C9  UNL     1       4.795   4.637   0.327  1.00  0.00     0.273 C 
HETATM   38  C10 UNL     1       5.112   4.416   1.803  1.00  0.00     0.106 C 
HETATM   39  O2  UNL     1       5.316   5.609  -0.232  1.00  0.00    -0.264 OA
ENDBRANCH  36  37
ENDBRANCH   8  36
BRANCH  17  40
HETATM   40  O8  UNL     1       7.285  -1.155   0.623  1.00  0.00    -0.300 OA
BRANCH  40  41
HETATM   41  C30 UNL     1       8.583  -0.889   0.030  1.00  0.00     0.273 C 
HETATM   42  C31 UNL     1       8.772  -0.350  -1.383  1.00  0.00     0.106 C 
HETATM   43  O9  UNL     1       9.593  -1.187   0.676  1.00  0.00    -0.264 OA
ENDBRANCH  40  41
ENDBRANCH  17  40
TORSDOF 9
