REMARK  5 active torsions:
REMARK  status: ('A' for Active; 'I' for Inactive)
REMARK    1  A    between atoms: C1_1  and  C15_17 
REMARK    2  A    between atoms: C4_4  and  C7_8 
REMARK    3  A    between atoms: C7_8  and  C8_9 
REMARK    4  A    between atoms: C8_9  and  C9_10 
REMARK    5  A    between atoms: C15_17  and  C16_18 
ROOT
HETATM    1  C1  UNL     1       1.989   0.873  -0.373  1.00  0.00     0.033 A 
HETATM    2  C2  UNL     1       2.361  -0.131   0.447  1.00  0.00     0.129 A 
HETATM    3  C3  UNL     1       1.469  -1.091   0.739  1.00  0.00     0.023 A 
HETATM    4  C4  UNL     1       0.217  -1.093   0.252  1.00  0.00    -0.018 A 
HETATM    5  C5  UNL     1      -0.121  -0.077  -0.557  1.00  0.00     0.023 A 
HETATM    6  C6  UNL     1       0.739   0.905  -0.880  1.00  0.00     0.129 A 
HETATM    7  O1  UNL     1       0.339   1.910  -1.708  1.00  0.00    -0.190 OA
HETATM    8  O2  UNL     1       3.611  -0.203   0.980  1.00  0.00    -0.190 OA
ENDROOT
BRANCH   4   9
HETATM    9  C7  UNL     1      -0.718  -2.228   0.628  1.00  0.00     0.031 C 
BRANCH   9  10
HETATM   10  C8  UNL     1      -2.207  -2.061   0.282  1.00  0.00     0.031 C 
BRANCH  10  11
HETATM   11  C9  UNL     1      -3.142  -3.163   0.753  1.00  0.00    -0.022 A 
HETATM   12  C10 UNL     1      -4.470  -2.942   0.742  1.00  0.00    -0.004 A 
HETATM   13  C11 UNL     1      -5.342  -3.880   1.145  1.00  0.00    -0.000 A 
HETATM   14  C12 UNL     1      -4.895  -5.070   1.571  1.00  0.00    -0.000 A 
HETATM   15  C13 UNL     1      -3.575  -5.310   1.587  1.00  0.00    -0.000 A 
HETATM   16  C14 UNL     1      -2.712  -4.365   1.182  1.00  0.00    -0.004 A 
ENDBRANCH  10  11
ENDBRANCH   9  10
ENDBRANCH   4   9
BRANCH   1  17
HETATM   17  C15 UNL     1       2.975   1.969  -0.738  1.00  0.00     0.056 C 
BRANCH  17  18
HETATM   18  C16 UNL     1       2.488   3.314  -0.261  1.00  0.00    -0.030 C 
HETATM   19  C17 UNL     1       2.552   4.478  -0.932  1.00  0.00    -0.048 C 
HETATM   20  C18 UNL     1       2.004   5.753  -0.333  1.00  0.00     0.026 C 
HETATM   21  C19 UNL     1       3.171   4.658  -2.298  1.00  0.00     0.026 C 
ENDBRANCH  17  18
ENDBRANCH   1  17
TORSDOF 5
