REMARK  5 active torsions:
REMARK  status: ('A' for Active; 'I' for Inactive)
REMARK    1  A    between atoms: C1_1  and  O3_14 
REMARK    2  A    between atoms: C5_5  and  C7_8 
REMARK    3  A    between atoms: C7_8  and  C8_9 
REMARK    4  A    between atoms: C8_9  and  C9_10 
REMARK    5  A    between atoms: C9_10  and  C10_11 
ROOT
HETATM    1  C1  UNL     1       1.231   2.724  -0.011  1.00  0.00     0.136 A 
HETATM    2  C2  UNL     1       0.530   3.631  -0.715  1.00  0.00     0.070 A 
HETATM    3  C3  UNL     1      -0.641   3.343  -1.332  1.00  0.00     0.198 A 
HETATM    4  C4  UNL     1      -1.083   2.070  -1.210  1.00  0.00     0.041 A 
HETATM    5  C5  UNL     1      -0.423   1.121  -0.521  1.00  0.00     0.022 A 
HETATM    6  C6  UNL     1       0.748   1.450   0.089  1.00  0.00     0.214 A 
HETATM    7  O1  UNL     1       1.383   0.637   0.723  1.00  0.00    -0.285 OA
HETATM    8  O2  UNL     1      -1.256   4.177  -1.959  1.00  0.00    -0.286 OA
ENDROOT
BRANCH   5   9
HETATM    9  C7  UNL     1      -1.061  -0.260  -0.483  1.00  0.00     0.030 C 
BRANCH   9  10
HETATM   10  C8  UNL     1      -0.339  -1.417   0.227  1.00  0.00     0.005 C 
BRANCH  10  11
HETATM   11  C9  UNL     1      -1.130  -2.735   0.124  1.00  0.00     0.000 C 
BRANCH  11  12
HETATM   12  C10 UNL     1      -0.424  -3.892   0.849  1.00  0.00     0.000 C 
HETATM   13  C11 UNL     1      -1.213  -5.203   0.735  1.00  0.00     0.000 C 
ENDBRANCH  11  12
ENDBRANCH  10  11
ENDBRANCH   9  10
ENDBRANCH   5   9
BRANCH   1  14
HETATM   14  O3  UNL     1       2.428   2.964   0.628  1.00  0.00    -0.325 OA
HETATM   15  C12 UNL     1       3.013   4.241   0.522  1.00  0.00     0.181 C 
ENDBRANCH   1  14
TORSDOF 5
