REMARK  6 active torsions:
REMARK  status: ('A' for Active; 'I' for Inactive)
REMARK    1  A    between atoms: C3_3  and  O3_8 
REMARK    2  A    between atoms: O3_8  and  C6_9 
REMARK    3  A    between atoms: C6_9  and  C7_10 
REMARK    4  A    between atoms: C11_14  and  O5_16 
REMARK    5  A    between atoms: O5_16  and  C12_17 
REMARK    6  A    between atoms: C12_17  and  C14_20 
ROOT
HETATM    1  C12 UNL     1       2.838  -2.195   0.485  1.00  0.00     0.227 C 
HETATM    2  C13 UNL     1       3.668  -1.735  -0.655  1.00  0.00     0.107 C 
HETATM    3  N1  UNL     1       4.314  -1.395  -1.555  1.00  0.00    -0.193 NA
ENDROOT
BRANCH   1   4
HETATM    4  O5  UNL     1       2.021  -1.124   0.931  1.00  0.00    -0.312 OA
BRANCH   4   5
HETATM    5  C11 UNL     1       1.259  -1.390   2.088  1.00  0.00     0.271 C 
HETATM    6  C10 UNL     1       1.633  -0.488   3.245  1.00  0.00     0.241 C 
HETATM    7  C9  UNL     1       1.204   0.951   3.033  1.00  0.00     0.220 C 
HETATM    8  O6  UNL     1       0.993  -0.971   4.406  1.00  0.00    -0.215 OA
HETATM    9  C8  UNL     1      -0.247   0.988   2.593  1.00  0.00     0.215 C 
HETATM   10  O7  UNL     1       2.031   1.567   2.077  1.00  0.00    -0.218 OA
HETATM   11  C7  UNL     1      -0.578   0.010   1.473  1.00  0.00     0.180 C 
HETATM   12  O8  UNL     1      -1.041   0.673   3.717  1.00  0.00    -0.218 OA
HETATM   13  O4  UNL     1      -0.106  -1.285   1.741  1.00  0.00    -0.326 OA
BRANCH  11  14
HETATM   14  C6  UNL     1      -0.225   0.479   0.062  1.00  0.00     0.177 C 
BRANCH  14  15
HETATM   15  O3  UNL     1      -1.043   1.566  -0.293  1.00  0.00    -0.326 OA
BRANCH  15  16
HETATM   16  C3  UNL     1      -0.787   2.083  -1.584  1.00  0.00     0.270 C 
HETATM   17  C2  UNL     1      -1.150   1.170  -2.740  1.00  0.00     0.241 C 
HETATM   18  C1  UNL     1      -2.647   0.937  -2.852  1.00  0.00     0.220 C 
HETATM   19  O9  UNL     1      -0.711   1.782  -3.933  1.00  0.00    -0.215 OA
HETATM   20  C5  UNL     1      -3.375   2.266  -2.792  1.00  0.00     0.215 C 
HETATM   21  O10 UNL     1      -3.081   0.102  -1.806  1.00  0.00    -0.218 OA
HETATM   22  C4  UNL     1      -2.910   3.114  -1.622  1.00  0.00     0.181 C 
HETATM   23  O2  UNL     1      -3.140   2.967  -3.992  1.00  0.00    -0.218 OA
HETATM   24  O1  UNL     1      -1.516   3.295  -1.641  1.00  0.00    -0.326 OA
ENDBRANCH  15  16
ENDBRANCH  14  15
ENDBRANCH  11  14
ENDBRANCH   4   5
ENDBRANCH   1   4
BRANCH   1  25
HETATM   25  C14 UNL     1       2.071  -3.427   0.054  1.00  0.00    -0.003 C 
HETATM   26  C15 UNL     1       2.690  -4.756   0.410  1.00  0.00     0.030 C 
HETATM   27  C16 UNL     1       0.939  -3.353  -0.663  1.00  0.00    -0.006 C 
ENDBRANCH   1  25
TORSDOF 6
