REMARK  7 active torsions:
REMARK  status: ('A' for Active; 'I' for Inactive)
REMARK    1  A    between atoms: C4_4  and  S1_9 
REMARK    2  A    between atoms: C5_6  and  C6_7 
REMARK    3  A    between atoms: S1_9  and  C7_10 
REMARK    4  A    between atoms: C7_10  and  C8_11 
REMARK    5  A    between atoms: C8_11  and  C9_12 
REMARK    6  A    between atoms: N1_15  and  O4_16 
REMARK    7  A    between atoms: O4_16  and  S2_17 
ROOT
HETATM    1  S1  UNL     1       0.393   0.371   1.593  1.00  0.00    -0.063 SA
ENDROOT
BRANCH   1   2
HETATM    2  C4  UNL     1      -0.615   0.249   0.073  1.00  0.00     0.201 C 
HETATM    3  C3  UNL     1      -1.408  -1.047   0.125  1.00  0.00     0.223 C 
HETATM    4  C2  UNL     1      -2.231  -1.187  -1.137  1.00  0.00     0.218 C 
HETATM    5  O8  UNL     1      -0.574  -2.173   0.242  1.00  0.00    -0.217 OA
HETATM    6  C1  UNL     1      -3.113   0.039  -1.301  1.00  0.00     0.215 C 
HETATM    7  O9  UNL     1      -3.005  -2.356  -1.015  1.00  0.00    -0.218 OA
HETATM    8  C5  UNL     1      -2.306   1.328  -1.157  1.00  0.00     0.182 C 
HETATM    9  O10 UNL     1      -3.705  -0.002  -2.580  1.00  0.00    -0.218 OA
HETATM   10  O1  UNL     1      -1.538   1.316   0.019  1.00  0.00    -0.340 OA
BRANCH   8  11
HETATM   11  C6  UNL     1      -3.194   2.565  -1.085  1.00  0.00     0.214 C 
HETATM   12  O2  UNL     1      -4.111   2.588  -2.159  1.00  0.00    -0.218 OA
ENDBRANCH   8  11
ENDBRANCH   1   2
BRANCH   1  13
HETATM   13  C7  UNL     1       1.984  -0.303   0.989  1.00  0.00     0.149 C 
HETATM   14  N1  UNL     1       2.003  -1.030  -0.048  1.00  0.00    -0.107 NA
BRANCH  13  15
HETATM   15  C8  UNL     1       3.247  -0.017   1.784  1.00  0.00     0.222 C 
HETATM   16  O3  UNL     1       3.420   1.391   1.942  1.00  0.00    -0.211 OA
BRANCH  15  17
HETATM   17  C9  UNL     1       3.188  -0.702   3.129  1.00  0.00     0.013 C 
HETATM   18  C10 UNL     1       4.103  -0.509   4.090  1.00  0.00    -0.002 C 
ENDBRANCH  15  17
ENDBRANCH  13  15
BRANCH  14  19
HETATM   19  O4  UNL     1       3.095  -1.491  -0.631  1.00  0.00    -0.106 OA
BRANCH  19  20
HETATM   20  S2  UNL     1       3.664  -0.324  -1.680  1.00  0.00     0.275 S 
HETATM   21  O5  UNL     1       3.791   1.063  -0.770  1.00  0.00    -0.571 OA
HETATM   22  O6  UNL     1       5.001  -0.675  -2.129  1.00  0.00    -0.571 OA
HETATM   23  O7  UNL     1       2.687  -0.067  -2.723  1.00  0.00    -0.571 OA
ENDBRANCH  19  20
ENDBRANCH  14  19
ENDBRANCH   1  13
TORSDOF 7
