REMARK  4 active torsions:
REMARK  status: ('A' for Active; 'I' for Inactive)
REMARK    1  A    between atoms: C4_4  and  C7_9 
REMARK    2  A    between atoms: C7_9  and  C8_10 
REMARK    3  A    between atoms: C8_10  and  O3_11 
REMARK    4  A    between atoms: O3_11  and  C9_12 
ROOT
HETATM    1  C1  UNL     1      -0.881   1.953  -0.212  1.00  0.00     0.033 C 
HETATM    2  C2  UNL     1      -2.063   1.120   0.333  1.00  0.00     0.065 C 
HETATM    3  C3  UNL     1      -1.633  -0.154   1.108  1.00  0.00     0.032 C 
HETATM    4  C4  UNL     1      -1.540  -1.160  -0.023  1.00  0.00    -0.013 C 
HETATM    5  C5  UNL     1      -2.299  -0.766  -1.059  1.00  0.00     0.158 C 
HETATM    6  C6  UNL     1      -2.764   0.493  -0.873  1.00  0.00     0.197 C 
HETATM    7  O1  UNL     1      -3.524   1.078  -1.609  1.00  0.00    -0.289 OA
HETATM    8  O2  UNL     1      -2.582  -1.451  -2.195  1.00  0.00    -0.188 OA
HETATM    9  C12 UNL     1      -0.494  -0.054   2.141  1.00  0.00     0.030 C 
HETATM   10  C13 UNL     1       0.825   0.389   1.569  1.00  0.00    -0.032 C 
HETATM   11  C14 UNL     1       1.585   1.432   1.954  1.00  0.00    -0.018 C 
HETATM   12  C15 UNL     1       2.688   1.902   1.023  1.00  0.00     0.171 C 
HETATM   13  C16 UNL     1       3.698   0.843   0.579  1.00  0.00     0.042 C 
HETATM   14  C17 UNL     1       4.092   1.023  -0.898  1.00  0.00     0.025 C 
HETATM   15  C18 UNL     1       2.988   0.668  -1.882  1.00  0.00    -0.048 C 
HETATM   16  C19 UNL     1       2.309   1.618  -2.555  1.00  0.00    -0.034 C 
HETATM   17  C20 UNL     1       1.290   1.395  -3.648  1.00  0.00     0.030 C 
HETATM   18  C21 UNL     1      -0.155   1.233  -3.153  1.00  0.00     0.026 C 
HETATM   19  C22 UNL     1      -0.829   2.516  -2.698  1.00  0.00    -0.048 C 
HETATM   20  C23 UNL     1      -1.165   2.803  -1.425  1.00  0.00    -0.034 C 
HETATM   21  C24 UNL     1      -1.180   3.481  -3.811  1.00  0.00     0.026 C 
HETATM   22  C25 UNL     1       2.755  -0.815  -2.063  1.00  0.00     0.026 C 
HETATM   23  O5  UNL     1       3.391   3.015   1.548  1.00  0.00    -0.219 OA
HETATM   24  C26 UNL     1       1.283   2.298   3.154  1.00  0.00     0.029 C 
HETATM   25  C27 UNL     1      -3.025   2.002   1.143  1.00  0.00     0.008 C 
ENDROOT
BRANCH   4  26
HETATM   26  C7  UNL     1      -0.831  -2.486   0.152  1.00  0.00     0.051 C 
HETATM   27  C11 UNL     1      -0.385  -3.157  -1.160  1.00  0.00     0.007 C 
BRANCH  26  28
HETATM   28  C8  UNL     1      -1.669  -3.439   1.012  1.00  0.00     0.156 C 
BRANCH  28  29
HETATM   29  O3  UNL     1      -0.946  -4.625   1.212  1.00  0.00    -0.301 OA
BRANCH  29  30
HETATM   30  C9  UNL     1      -1.397  -5.617   2.031  1.00  0.00     0.272 C 
HETATM   31  O4  UNL     1      -0.774  -6.643   2.204  1.00  0.00    -0.264 OA
HETATM   32  C10 UNL     1      -2.728  -5.369   2.718  1.00  0.00     0.106 C 
ENDBRANCH  29  30
ENDBRANCH  28  29
ENDBRANCH  26  28
ENDBRANCH   4  26
TORSDOF 4
