REMARK  3 active torsions:
REMARK  status: ('A' for Active; 'I' for Inactive)
REMARK    1  A    between atoms: C15_16  and  O2_25 
REMARK    2  A    between atoms: O2_25  and  C22_26 
REMARK    3  A    between atoms: C22_26  and  C23_27 
ROOT
HETATM    1  C1  UNL     1      -3.909  -2.502   0.890  1.00  0.00     0.002 A 
HETATM    2  C2  UNL     1      -2.670  -2.973   1.110  1.00  0.00     0.017 A 
HETATM    3  C3  UNL     1      -1.615  -2.146   1.022  1.00  0.00     0.058 A 
HETATM    4  C4  UNL     1      -1.822  -0.849   0.727  1.00  0.00    -0.001 A 
HETATM    5  C5  UNL     1      -3.057  -0.372   0.517  1.00  0.00    -0.003 A 
HETATM    6  C6  UNL     1      -4.104  -1.208   0.588  1.00  0.00    -0.000 A 
HETATM    7  C7  UNL     1      -0.561  -0.041   0.782  1.00  0.00     0.082 C 
HETATM    8  C8  UNL     1       0.425  -1.240   0.843  1.00  0.00     0.099 C 
HETATM    9  N1  UNL     1      -0.386  -2.442   1.168  1.00  0.00    -0.301 N 
HETATM   10  C9  UNL     1       0.292  -3.481   1.434  1.00  0.00     0.240 C 
HETATM   11  C10 UNL     1       1.787  -3.497   1.073  1.00  0.00     0.118 C 
HETATM   12  C11 UNL     1       2.002  -2.847  -0.303  1.00  0.00     0.127 C 
HETATM   13  C12 UNL     1       1.084  -1.639  -0.498  1.00  0.00     0.053 C 
HETATM   14  C13 UNL     1       1.661  -0.469  -1.303  1.00  0.00     0.028 C 
HETATM   15  C14 UNL     1       0.432   0.411  -1.606  1.00  0.00     0.053 C 
HETATM   16  C15 UNL     1      -0.087   0.971  -0.281  1.00  0.00     0.162 C 
HETATM   17  N2  UNL     1       1.024   1.404   0.550  1.00  0.00    -0.347 N 
HETATM   18  C16 UNL     1       2.264   1.707  -0.096  1.00  0.00     0.121 C 
HETATM   19  C17 UNL     1       2.707   0.308  -0.523  1.00  0.00    -0.024 C 
HETATM   20  C18 UNL     1       3.744  -0.290   0.085  1.00  0.00    -0.001 C 
HETATM   21  C19 UNL     1       4.111  -1.754   0.079  1.00  0.00     0.168 C 
HETATM   22  O1  UNL     1       3.329  -2.633  -0.701  1.00  0.00    -0.351 OA
HETATM   23  C20 UNL     1       0.570   1.913   1.810  1.00  0.00     0.100 C 
HETATM   24  C21 UNL     1      -0.529   0.847   2.074  1.00  0.00     0.034 C 
HETATM   25  O3  UNL     1      -0.205  -4.475   1.910  1.00  0.00    -0.272 OA
ENDROOT
BRANCH  16  26
HETATM   26  O2  UNL     1      -1.074   1.965  -0.397  1.00  0.00    -0.340 OA
BRANCH  26  27
HETATM   27  C22 UNL     1      -0.970   2.853  -1.477  1.00  0.00     0.144 C 
BRANCH  27  28
HETATM   28  C23 UNL     1      -2.041   3.933  -1.316  1.00  0.00     0.032 C 
HETATM   29  C24 UNL     1      -2.123   4.841  -2.550  1.00  0.00     0.003 C 
ENDBRANCH  27  28
ENDBRANCH  26  27
ENDBRANCH  16  26
TORSDOF 3
