REMARK  7 active torsions:
REMARK  status: ('A' for Active; 'I' for Inactive)
REMARK    1  A    between atoms: C3_3  and  O4_10 
REMARK    2  A    between atoms: C4_5  and  C6_8 
REMARK    3  A    between atoms: O4_10  and  C7_11 
REMARK    4  A    between atoms: C10_14  and  C13_17 
REMARK    5  A    between atoms: C13_17  and  O5_18 
REMARK    6  A    between atoms: O5_18  and  C14_19 
REMARK    7  A    between atoms: C15_21  and  C19_28 
ROOT
HETATM    1  C13 UNL     1       1.441   0.177   1.697  1.00  0.00     0.230 C 
HETATM    2  C20 UNL     1       2.313  -0.810   2.384  1.00  0.00     0.108 C 
HETATM    3  N1  UNL     1       2.948  -1.592   2.957  1.00  0.00    -0.193 NA
ENDROOT
BRANCH   1   4
HETATM    4  C10 UNL     1       0.594  -0.572   0.684  1.00  0.00     0.019 A 
HETATM    5  C9  UNL     1       1.144  -1.062  -0.438  1.00  0.00     0.001 A 
HETATM    6  C8  UNL     1       0.399  -1.733  -1.329  1.00  0.00     0.024 A 
HETATM    7  C7  UNL     1      -0.917  -1.960  -1.155  1.00  0.00     0.097 A 
HETATM    8  C12 UNL     1      -1.454  -1.456  -0.025  1.00  0.00     0.024 A 
HETATM    9  C11 UNL     1      -0.719  -0.781   0.873  1.00  0.00     0.001 A 
BRANCH   7  10
HETATM   10  O4  UNL     1      -1.592  -2.652  -2.131  1.00  0.00    -0.304 OA
BRANCH  10  11
HETATM   11  C3  UNL     1      -2.990  -2.806  -2.060  1.00  0.00     0.274 C 
HETATM   12  C2  UNL     1      -3.408  -3.694  -3.211  1.00  0.00     0.241 C 
HETATM   13  C1  UNL     1      -4.917  -3.764  -3.276  1.00  0.00     0.220 C 
HETATM   14  O11 UNL     1      -2.897  -4.988  -3.016  1.00  0.00    -0.215 OA
HETATM   15  C5  UNL     1      -5.460  -2.353  -3.370  1.00  0.00     0.215 C 
HETATM   16  O12 UNL     1      -5.312  -4.493  -4.409  1.00  0.00    -0.218 OA
HETATM   17  C4  UNL     1      -4.941  -1.524  -2.201  1.00  0.00     0.184 C 
HETATM   18  O2  UNL     1      -6.864  -2.429  -3.358  1.00  0.00    -0.218 OA
HETATM   19  O1  UNL     1      -3.538  -1.516  -2.223  1.00  0.00    -0.326 OA
BRANCH  17  20
HETATM   20  C6  UNL     1      -5.433  -0.086  -2.258  1.00  0.00     0.214 C 
HETATM   21  O3  UNL     1      -5.042   0.598  -1.084  1.00  0.00    -0.218 OA
ENDBRANCH  17  20
ENDBRANCH  10  11
ENDBRANCH   7  10
ENDBRANCH   1   4
BRANCH   1  22
HETATM   22  O5  UNL     1       2.148   1.231   1.053  1.00  0.00    -0.312 OA
BRANCH  22  23
HETATM   23  C14 UNL     1       2.940   2.020   1.919  1.00  0.00     0.271 C 
HETATM   24  O6  UNL     1       4.166   1.329   2.001  1.00  0.00    -0.326 OA
HETATM   25  C15 UNL     1       5.119   1.965   2.811  1.00  0.00     0.184 C 
HETATM   26  C16 UNL     1       5.417   3.355   2.261  1.00  0.00     0.215 C 
HETATM   27  C17 UNL     1       4.162   4.176   2.041  1.00  0.00     0.220 C 
HETATM   28  O9  UNL     1       6.266   4.081   3.116  1.00  0.00    -0.218 OA
HETATM   29  C18 UNL     1       3.127   3.377   1.282  1.00  0.00     0.241 C 
HETATM   30  O8  UNL     1       4.495   5.316   1.286  1.00  0.00    -0.218 OA
HETATM   31  O7  UNL     1       3.575   3.216  -0.043  1.00  0.00    -0.215 OA
BRANCH  25  32
HETATM   32  C19 UNL     1       4.725   1.894   4.282  1.00  0.00     0.214 C 
HETATM   33  O10 UNL     1       5.877   1.920   5.102  1.00  0.00    -0.218 OA
ENDBRANCH  25  32
ENDBRANCH  22  23
ENDBRANCH   1  22
TORSDOF 7
