REMARK  4 active torsions:
REMARK  status: ('A' for Active; 'I' for Inactive)
REMARK    1  A    between atoms: C2_2  and  C13_20 
REMARK    2  A    between atoms: C4_4  and  O2_8 
REMARK    3  A    between atoms: O2_8  and  C7_9 
REMARK    4  A    between atoms: C8_11  and  C12_18 
ROOT
HETATM    1  C7  UNL     1      -0.380  -0.732   0.683  1.00  0.00     0.274 C 
HETATM    2  O3  UNL     1      -0.854   0.597   0.655  1.00  0.00    -0.326 OA
HETATM    3  C8  UNL     1      -2.232   0.662   0.913  1.00  0.00     0.184 C 
HETATM    4  C9  UNL     1      -2.496   0.164   2.331  1.00  0.00     0.215 C 
HETATM    5  C10 UNL     1      -1.962  -1.246   2.497  1.00  0.00     0.220 C 
HETATM    6  C11 UNL     1      -0.504  -1.267   2.092  1.00  0.00     0.241 C 
HETATM    7  O4  UNL     1      -0.028  -2.588   2.136  1.00  0.00    -0.215 OA
HETATM    8  O5  UNL     1      -2.087  -1.642   3.839  1.00  0.00    -0.218 OA
HETATM    9  O6  UNL     1      -3.873   0.141   2.615  1.00  0.00    -0.218 OA
ENDROOT
BRANCH   1  10
HETATM   10  O2  UNL     1       0.986  -0.681   0.356  1.00  0.00    -0.301 OA
BRANCH  10  11
HETATM   11  C4  UNL     1       1.435  -0.327  -0.897  1.00  0.00     0.122 A 
HETATM   12  C3  UNL     1       2.769  -0.159  -1.015  1.00  0.00     0.033 A 
HETATM   13  C2  UNL     1       3.385   0.195  -2.155  1.00  0.00     0.067 A 
HETATM   14  C1  UNL     1       2.625   0.412  -3.239  1.00  0.00     0.008 A 
HETATM   15  C6  UNL     1       1.298   0.260  -3.146  1.00  0.00     0.030 A 
HETATM   16  C5  UNL     1       0.688  -0.117  -2.007  1.00  0.00     0.153 A 
HETATM   17  O1  UNL     1      -0.667  -0.243  -2.044  1.00  0.00    -0.188 OA
BRANCH  13  18
HETATM   18  C13 UNL     1       4.739   0.335  -2.220  1.00  0.00     0.211 C 
HETATM   19  O8  UNL     1       5.393   0.685  -3.350  1.00  0.00    -0.644 OA
HETATM   20  O9  UNL     1       5.442   0.144  -1.253  1.00  0.00    -0.644 OA
ENDBRANCH  13  18
ENDBRANCH  10  11
ENDBRANCH   1  10
BRANCH   3  21
HETATM   21  C12 UNL     1      -2.697   2.096   0.712  1.00  0.00     0.214 C 
HETATM   22  O7  UNL     1      -2.520   2.473  -0.641  1.00  0.00    -0.218 OA
ENDBRANCH   3  21
TORSDOF 4
