REMARK  6 active torsions:
REMARK  status: ('A' for Active; 'I' for Inactive)
REMARK    1  A    between atoms: C2_2  and  O3_12 
REMARK    2  A    between atoms: O3_12  and  C10_13 
REMARK    3  A    between atoms: C10_13  and  C11_14 
REMARK    4  A    between atoms: C12_15  and  C14_17 
REMARK    5  A    between atoms: C14_17  and  C15_18 
REMARK    6  A    between atoms: C15_18  and  C16_19 
ROOT
HETATM    1  C11 UNL     1       0.461   0.431   1.242  1.00  0.00    -0.002 C 
HETATM    2  C12 UNL     1       0.579   0.317  -0.095  1.00  0.00    -0.046 C 
HETATM    3  C13 UNL     1       0.382   1.453  -1.073  1.00  0.00     0.026 C 
ENDROOT
BRANCH   1   4
HETATM    4  C10 UNL     1       0.099   1.668   2.031  1.00  0.00     0.174 C 
BRANCH   4   5
HETATM    5  O3  UNL     1       1.022   1.873   3.083  1.00  0.00    -0.326 OA
BRANCH   5   6
HETATM    6  C2  UNL     1       0.934   3.039   3.805  1.00  0.00     0.096 A 
HETATM    7  C1  UNL     1       2.027   3.434   4.590  1.00  0.00     0.024 A 
HETATM    8  C6  UNL     1       2.029   4.628   5.306  1.00  0.00     0.004 A 
HETATM    9  C5  UNL     1       0.929   5.493   5.236  1.00  0.00     0.023 A 
HETATM   10  C4  UNL     1      -0.187   5.156   4.452  1.00  0.00     0.105 A 
HETATM   11  C7  UNL     1       0.933   6.763   5.958  1.00  0.00     0.007 A 
HETATM   12  C3  UNL     1      -0.140   3.941   3.755  1.00  0.00     0.049 A 
HETATM   13  O1  UNL     1      -1.288   5.959   4.331  1.00  0.00    -0.273 OA
HETATM   14  C9  UNL     1      -1.273   7.151   4.994  1.00  0.00     0.300 A 
HETATM   15  C8  UNL     1      -0.136   7.579   5.840  1.00  0.00     0.069 A 
HETATM   16  O2  UNL     1      -2.231   7.916   4.899  1.00  0.00    -0.259 OA
ENDBRANCH   5   6
ENDBRANCH   4   5
ENDBRANCH   1   4
BRANCH   2  17
HETATM   17  C14 UNL     1       0.880  -1.026  -0.736  1.00  0.00     0.022 C 
BRANCH  17  18
HETATM   18  C15 UNL     1      -0.311  -1.541  -1.566  1.00  0.00     0.008 C 
BRANCH  18  19
HETATM   19  C16 UNL     1      -0.094  -2.935  -2.192  1.00  0.00     0.021 C 
HETATM   20  C17 UNL     1       1.008  -3.011  -3.236  1.00  0.00    -0.044 C 
HETATM   21  C18 UNL     1       1.566  -1.959  -3.857  1.00  0.00    -0.009 C 
HETATM   22  C19 UNL     1       1.386  -4.422  -3.620  1.00  0.00     0.025 C 
HETATM   23  C20 UNL     1       0.151  -5.089  -4.238  1.00  0.00     0.037 C 
HETATM   24  C21 UNL     1      -1.048  -5.016  -3.292  1.00  0.00     0.153 C 
HETATM   25  C22 UNL     1      -1.376  -3.591  -2.785  1.00  0.00     0.032 C 
HETATM   26  O4  UNL     1      -0.798  -5.875  -2.202  1.00  0.00    -0.223 OA
HETATM   27  C23 UNL     1      -1.934  -2.747  -3.955  1.00  0.00     0.003 C 
HETATM   28  C24 UNL     1      -2.502  -3.705  -1.729  1.00  0.00     0.003 C 
ENDBRANCH  18  19
ENDBRANCH  17  18
ENDBRANCH   2  17
TORSDOF 6
