REMARK  2 active torsions:
REMARK  status: ('A' for Active; 'I' for Inactive)
REMARK    1  A    between atoms: C17_19  and  C18_20 
REMARK    2  A    between atoms: C18_20  and  C19_21 
ROOT
HETATM    1  C1  UNL     1      -4.975  -1.032  -1.876  1.00  0.00     0.002 A 
HETATM    2  C2  UNL     1      -3.854  -1.721  -1.605  1.00  0.00     0.017 A 
HETATM    3  C3  UNL     1      -2.856  -1.157  -0.901  1.00  0.00     0.059 A 
HETATM    4  C4  UNL     1      -3.024   0.130  -0.503  1.00  0.00    -0.003 A 
HETATM    5  C5  UNL     1      -4.136   0.827  -0.768  1.00  0.00    -0.003 A 
HETATM    6  C6  UNL     1      -5.121   0.236  -1.459  1.00  0.00    -0.000 A 
HETATM    7  C7  UNL     1      -1.843   0.675   0.252  1.00  0.00     0.071 A 
HETATM    8  C8  UNL     1      -0.964  -0.800   0.243  1.00  0.00     0.097 A 
HETATM    9  N1  UNL     1      -1.749  -1.723  -0.589  1.00  0.00    -0.298 N 
HETATM   10  C9  UNL     1      -1.156  -2.835  -0.746  1.00  0.00     0.259 C 
HETATM   11  C10 UNL     1       0.316  -3.087  -0.301  1.00  0.00     0.067 C 
HETATM   12  C11 UNL     1       1.215  -1.960   0.286  1.00  0.00     0.181 C 
HETATM   13  C12 UNL     1       0.689  -0.641  -0.270  1.00  0.00     0.056 C 
HETATM   14  C13 UNL     1       1.449   0.929  -0.334  1.00  0.00     0.009 C 
HETATM   15  C14 UNL     1       0.536   2.276  -0.670  1.00  0.00     0.034 C 
HETATM   16  C15 UNL     1      -0.898   2.278   0.285  1.00  0.00     0.225 C 
HETATM   17  N2  UNL     1      -0.201   2.239   1.533  1.00  0.00     0.135 N 
HETATM   18  C16 UNL     1       1.227   2.498   1.725  1.00  0.00     0.250 C 
HETATM   19  C17 UNL     1       2.195   1.572   0.892  1.00  0.00     0.036 C 
HETATM   20  C20 UNL     1      -0.277   0.886   1.152  1.00  0.00     0.251 C 
HETATM   21  C21 UNL     1      -0.806   0.808  -0.704  1.00  0.00     0.043 C 
HETATM   22  O2  UNL     1       2.559  -2.174  -0.074  1.00  0.00    -0.218 OA
HETATM   23  O3  UNL     1      -1.716  -3.765  -1.280  1.00  0.00    -0.267 OA
ENDROOT
BRANCH  19  24
HETATM   24  C18 UNL     1       3.067   0.616   1.731  1.00  0.00     0.038 C 
BRANCH  24  25
HETATM   25  C19 UNL     1       4.308   0.127   0.986  1.00  0.00     0.182 C 
HETATM   26  O1  UNL     1       4.758  -1.077   1.574  1.00  0.00    -0.221 OA
ENDBRANCH  24  25
ENDBRANCH  19  24
TORSDOF 2
