REMARK  8 active torsions:
REMARK  status: ('A' for Active; 'I' for Inactive)
REMARK    1  A    between atoms: C5_5  and  C7_7 
REMARK    2  A    between atoms: C7_7  and  C8_8 
REMARK    3  A    between atoms: C17_22  and  C46_62 
REMARK    4  A    between atoms: C19_25  and  C20_26 
REMARK    5  A    between atoms: C23_31  and  C37_51 
REMARK    6  A    between atoms: C27_37  and  C30_42 
REMARK    7  A    between atoms: C37_51  and  C38_52 
REMARK    8  A    between atoms: C46_62  and  C48_64 
ROOT
HETATM    1  C8  UNL     1      -2.086   4.641  -1.077  1.00  0.00     0.167 C 
HETATM    2  N1  UNL     1      -2.167   3.946  -2.376  1.00  0.00    -0.310 N 
HETATM    3  C9  UNL     1      -2.925   2.804  -2.533  1.00  0.00     0.257 C 
HETATM    4  O1  UNL     1      -3.567   2.320  -1.630  1.00  0.00    -0.270 OA
HETATM    5  C10 UNL     1      -2.982   2.206  -3.941  1.00  0.00     0.193 C 
HETATM    6  N2  UNL     1      -3.428   0.811  -3.926  1.00  0.00    -0.308 N 
HETATM    7  C11 UNL     1      -2.532  -0.226  -4.080  1.00  0.00     0.254 C 
HETATM    8  O2  UNL     1      -1.347  -0.045  -4.241  1.00  0.00    -0.270 OA
HETATM    9  C12 UNL     1      -3.109  -1.644  -4.140  1.00  0.00     0.163 C 
HETATM   10  C13 UNL     1      -3.702  -1.912  -5.540  1.00  0.00     0.034 C 
HETATM   11  C14 UNL     1      -3.186  -3.307  -5.903  1.00  0.00     0.027 C 
HETATM   12  C15 UNL     1      -1.820  -3.352  -5.210  1.00  0.00     0.105 C 
HETATM   13  N3  UNL     1      -2.065  -2.653  -3.953  1.00  0.00    -0.312 N 
HETATM   14  C16 UNL     1      -1.440  -2.857  -2.742  1.00  0.00     0.254 C 
HETATM   15  C17 UNL     1      -0.328  -3.910  -2.674  1.00  0.00     0.163 C 
HETATM   16  N4  UNL     1       0.907  -3.289  -2.154  1.00  0.00    -0.310 N 
HETATM   17  C18 UNL     1       1.290  -3.361  -0.827  1.00  0.00     0.257 C 
HETATM   18  C19 UNL     1       2.731  -2.951  -0.471  1.00  0.00     0.194 C 
HETATM   19  N5  UNL     1       2.743  -2.326   0.868  1.00  0.00    -0.305 N 
HETATM   20  C22 UNL     1       2.717  -3.079   2.028  1.00  0.00     0.270 C 
HETATM   21  C23 UNL     1       2.470  -2.366   3.371  1.00  0.00     0.100 C 
HETATM   22  N6  UNL     1       1.334  -1.430   3.376  1.00  0.00    -0.295 N 
HETATM   23  C24 UNL     1       1.452  -0.082   3.655  1.00  0.00     0.258 C 
HETATM   24  C25 UNL     1       0.151   0.722   3.759  1.00  0.00     0.163 C 
HETATM   25  N7  UNL     1       0.351   2.118   3.382  1.00  0.00    -0.312 N 
HETATM   26  C26 UNL     1       0.435   2.516   2.069  1.00  0.00     0.254 C 
HETATM   27  C27 UNL     1       0.500   4.020   1.774  1.00  0.00     0.163 C 
HETATM   28  N8  UNL     1      -0.701   4.387   0.999  1.00  0.00    -0.310 N 
HETATM   29  C28 UNL     1      -0.745   4.330  -0.384  1.00  0.00     0.255 C 
HETATM   30  O4  UNL     1       0.213   4.059  -1.068  1.00  0.00    -0.270 OA
HETATM   31  C29 UNL     1      -1.884   4.622   1.828  1.00  0.00     0.129 C 
HETATM   32  O5  UNL     1       0.413   1.716   1.163  1.00  0.00    -0.270 OA
HETATM   33  C33 UNL     1       0.415   2.969   4.565  1.00  0.00     0.105 C 
HETATM   34  C34 UNL     1       0.425   2.004   5.762  1.00  0.00     0.027 C 
HETATM   35  C35 UNL     1      -0.325   0.781   5.221  1.00  0.00     0.034 C 
HETATM   36  O6  UNL     1       2.503   0.473   3.869  1.00  0.00    -0.270 OA
HETATM   37  C36 UNL     1       0.059  -2.068   3.045  1.00  0.00     0.133 C 
HETATM   38  O7  UNL     1       2.869  -4.279   2.041  1.00  0.00    -0.266 OA
HETATM   39  C44 UNL     1       2.647  -0.869   0.836  1.00  0.00     0.129 C 
HETATM   40  O8  UNL     1       0.580  -3.791   0.051  1.00  0.00    -0.270 OA
HETATM   41  C45 UNL     1       1.589  -2.440  -3.135  1.00  0.00     0.129 C 
HETATM   42  O9  UNL     1      -1.753  -2.235  -1.753  1.00  0.00    -0.270 OA
HETATM   43  C50 UNL     1      -4.856   0.625  -3.679  1.00  0.00     0.129 C 
HETATM   44  C51 UNL     1      -1.318   4.490  -3.437  1.00  0.00     0.129 C 
ENDROOT
BRANCH   1  45
HETATM   45  C7  UNL     1      -2.381   6.155  -1.213  1.00  0.00     0.058 C 
BRANCH  45  46
HETATM   46  C5  UNL     1      -3.539   6.678  -0.384  1.00  0.00    -0.020 A 
HETATM   47  C4  UNL     1      -3.381   7.723   0.449  1.00  0.00    -0.004 A 
HETATM   48  C3  UNL     1      -4.406   8.187   1.180  1.00  0.00    -0.000 A 
HETATM   49  C2  UNL     1      -5.614   7.611   1.085  1.00  0.00    -0.000 A 
HETATM   50  C1  UNL     1      -5.789   6.575   0.252  1.00  0.00    -0.000 A 
HETATM   51  C6  UNL     1      -4.759   6.118  -0.478  1.00  0.00    -0.004 A 
ENDBRANCH  45  46
ENDBRANCH   1  45
BRANCH  27  52
HETATM   52  C30 UNL     1       1.876   4.424   1.189  1.00  0.00     0.030 C 
HETATM   53  C31 UNL     1       1.933   5.929   0.871  1.00  0.00     0.002 C 
HETATM   54  C32 UNL     1       3.029   4.070   2.150  1.00  0.00     0.002 C 
ENDBRANCH  27  52
BRANCH  15  55
HETATM   55  C46 UNL     1      -0.774  -5.238  -2.000  1.00  0.00     0.030 C 
HETATM   56  C47 UNL     1       0.364  -6.278  -2.100  1.00  0.00     0.002 C 
BRANCH  55  57
HETATM   57  C48 UNL     1      -2.067  -5.881  -2.557  1.00  0.00     0.002 C 
HETATM   58  C49 UNL     1      -3.383  -5.247  -2.080  1.00  0.00     0.000 C 
ENDBRANCH  55  57
ENDBRANCH  15  55
BRANCH  21  59
HETATM   59  C37 UNL     1       3.795  -1.940   4.042  1.00  0.00     0.075 C 
BRANCH  59  60
HETATM   60  C38 UNL     1       4.761  -3.103   4.194  1.00  0.00    -0.016 A 
HETATM   61  C39 UNL     1       5.902  -3.156   3.482  1.00  0.00    -0.004 A 
HETATM   62  C40 UNL     1       6.745  -4.194   3.601  1.00  0.00    -0.000 A 
HETATM   63  C41 UNL     1       6.461  -5.199   4.442  1.00  0.00    -0.000 A 
HETATM   64  C42 UNL     1       5.333  -5.154   5.167  1.00  0.00    -0.000 A 
HETATM   65  C43 UNL     1       4.496  -4.112   5.043  1.00  0.00    -0.004 A 
ENDBRANCH  59  60
ENDBRANCH  21  59
BRANCH  18  66
HETATM   66  C20 UNL     1       3.705  -4.133  -0.648  1.00  0.00     0.182 C 
HETATM   67  C21 UNL     1       5.139  -3.783  -0.255  1.00  0.00     0.038 C 
HETATM   68  O3  UNL     1       3.722  -4.542  -1.995  1.00  0.00    -0.221 OA
ENDBRANCH  18  66
TORSDOF 8
