REMARK  2 active torsions:
REMARK  status: ('A' for Active; 'I' for Inactive)
REMARK    1  A    between atoms: C3_4  and  C6_7 
REMARK    2  A    between atoms: C6_7  and  C7_8 
ROOT
HETATM    1  C1  UNL     1      -1.888   1.669  -0.025  1.00  0.00     0.188 C 
HETATM    2  C2  UNL     1      -2.228   0.186  -0.149  1.00  0.00     0.323 C 
HETATM    3  N1  UNL     1      -1.563  -0.616   0.877  1.00  0.00     0.340 N 
HETATM    4  C3  UNL     1      -0.102  -0.480   0.908  1.00  0.00     0.257 C 
HETATM    5  C4  UNL     1       0.272   1.001   1.087  1.00  0.00     0.039 C 
HETATM    6  C5  UNL     1      -0.380   1.895   0.024  1.00  0.00     0.037 C 
HETATM    7  O1  UNL     1      -2.479   2.186   1.145  1.00  0.00    -0.221 OA
ENDROOT
BRANCH   4   8
HETATM    8  C6  UNL     1       0.543  -1.163  -0.315  1.00  0.00     0.036 C 
BRANCH   8   9
HETATM    9  C7  UNL     1       2.065  -1.346  -0.195  1.00  0.00     0.002 C 
HETATM   10  C8  UNL     1       2.642  -2.103  -1.400  1.00  0.00     0.000 C 
ENDBRANCH   8   9
ENDBRANCH   4   8
TORSDOF 2
