REMARK  3 active torsions:
REMARK  status: ('A' for Active; 'I' for Inactive)
REMARK    1  A    between atoms: C2_2  and  O3_31 
REMARK    2  A    between atoms: O3_31  and  C28_32 
REMARK    3  A    between atoms: C29_34  and  C33_41 
ROOT
HETATM    1  C1  UNL     1      -3.117  -2.074  -2.520  1.00  0.00     0.030 C 
HETATM    2  C2  UNL     1      -3.927  -2.864  -1.492  1.00  0.00     0.122 C 
HETATM    3  C3  UNL     1      -2.959  -3.630  -0.580  1.00  0.00     0.051 C 
HETATM    4  C4  UNL     1      -1.551  -3.062  -0.570  1.00  0.00    -0.046 C 
HETATM    5  C5  UNL     1      -1.419  -1.541  -0.640  1.00  0.00     0.022 C 
HETATM    6  C6  UNL     1      -2.256  -1.003  -1.831  1.00  0.00     0.007 C 
HETATM    7  C7  UNL     1       0.068  -1.191  -0.873  1.00  0.00     0.066 C 
HETATM    8  C8  UNL     1       0.968  -1.980   0.080  1.00  0.00     0.016 C 
HETATM    9  C9  UNL     1       0.951  -3.446  -0.339  1.00  0.00     0.026 C 
HETATM   10  C10 UNL     1      -0.491  -3.886  -0.446  1.00  0.00    -0.035 C 
HETATM   11  C11 UNL     1       2.281  -1.191   0.044  1.00  0.00     0.025 C 
HETATM   12  C12 UNL     1       1.768   0.226  -0.110  1.00  0.00     0.006 C 
HETATM   13  C13 UNL     1       0.531   0.244  -0.676  1.00  0.00     0.168 C 
HETATM   14  O1  UNL     1      -0.162   1.186  -0.975  1.00  0.00    -0.292 OA
HETATM   15  C14 UNL     1       2.490   1.301   0.258  1.00  0.00    -0.021 C 
HETATM   16  C15 UNL     1       3.851   1.082   0.930  1.00  0.00     0.110 C 
HETATM   17  C16 UNL     1       3.703  -0.117   1.880  1.00  0.00     0.032 C 
HETATM   18  C17 UNL     1       3.172  -1.421   1.269  1.00  0.00     0.007 C 
HETATM   19  C18 UNL     1       4.965   0.996  -0.148  1.00  0.00     0.065 C 
HETATM   20  C19 UNL     1       5.648   2.361   0.018  1.00  0.00     0.286 C 
HETATM   21  C20 UNL     1       5.467   2.585   1.502  1.00  0.00     0.149 C 
HETATM   22  C21 UNL     1       5.732   4.049   1.837  1.00  0.00     0.034 C 
HETATM   23  C22 UNL     1       6.979   4.560   1.076  1.00  0.00     0.039 C 
HETATM   24  C23 UNL     1       7.804   3.397   0.486  1.00  0.00     0.290 C 
HETATM   25  N1  UNL     1       7.043   2.494  -0.384  1.00  0.00     0.340 N 
HETATM   26  C24 UNL     1       6.621   5.594  -0.007  1.00  0.00     0.002 C 
HETATM   27  O2  UNL     1       4.157   2.194   1.756  1.00  0.00    -0.356 OA
HETATM   28  C25 UNL     1       5.971  -0.159  -0.017  1.00  0.00     0.005 C 
HETATM   29  C26 UNL     1       2.056   2.741   0.076  1.00  0.00     0.029 C 
HETATM   30  C27 UNL     1      -1.912  -0.928   0.692  1.00  0.00     0.004 C 
ENDROOT
BRANCH   2  31
HETATM   31  O3  UNL     1      -4.688  -1.944  -0.763  1.00  0.00    -0.331 OA
BRANCH  31  32
HETATM   32  C28 UNL     1      -5.779  -2.476  -0.050  1.00  0.00     0.270 C 
HETATM   33  O4  UNL     1      -6.945  -2.262  -0.817  1.00  0.00    -0.326 OA
HETATM   34  C29 UNL     1      -7.392  -0.935  -0.917  1.00  0.00     0.184 C 
HETATM   35  C30 UNL     1      -7.524  -0.259   0.443  1.00  0.00     0.215 C 
HETATM   36  C31 UNL     1      -6.293  -0.413   1.315  1.00  0.00     0.220 C 
HETATM   37  O7  UNL     1      -8.619  -0.826   1.131  1.00  0.00    -0.218 OA
HETATM   38  C32 UNL     1      -5.875  -1.871   1.335  1.00  0.00     0.241 C 
HETATM   39  O6  UNL     1      -5.245   0.391   0.831  1.00  0.00    -0.218 OA
HETATM   40  O5  UNL     1      -6.825  -2.604   2.076  1.00  0.00    -0.215 OA
BRANCH  34  41
HETATM   41  C33 UNL     1      -6.625  -0.132  -1.962  1.00  0.00     0.214 C 
HETATM   42  O8  UNL     1      -7.372   1.009  -2.336  1.00  0.00    -0.218 OA
ENDBRANCH  34  41
ENDBRANCH  31  32
ENDBRANCH   2  31
TORSDOF 3
