REMARK  0 active torsions:
REMARK  status: ('A' for Active; 'I' for Inactive)
ROOT
HETATM    1  C1  UNL     1      -3.369   1.081   0.708  1.00  0.00     0.069 C 
HETATM    2  C2  UNL     1      -3.334  -0.380   0.265  1.00  0.00     0.029 C 
HETATM    3  C3  UNL     1      -1.945  -0.983   0.267  1.00  0.00    -0.049 C 
HETATM    4  C4  UNL     1      -0.818  -0.241   0.199  1.00  0.00    -0.019 C 
HETATM    5  C5  UNL     1      -0.839   1.280   0.261  1.00  0.00     0.071 C 
HETATM    6  C6  UNL     1      -2.248   1.828   0.023  1.00  0.00     0.154 C 
HETATM    7  O1  UNL     1      -2.473   2.804  -0.657  1.00  0.00    -0.296 OA
HETATM    8  C7  UNL     1       0.080   1.848  -0.841  1.00  0.00     0.044 C 
HETATM    9  C8  UNL     1       1.511   1.335  -0.741  1.00  0.00     0.156 C 
HETATM   10  C9  UNL     1       1.564  -0.189  -0.839  1.00  0.00     0.072 C 
HETATM   11  C10 UNL     1       0.556  -0.877   0.074  1.00  0.00     0.145 C 
HETATM   12  O2  UNL     1       1.194  -1.047   1.315  1.00  0.00    -0.300 OA
HETATM   13  C11 UNL     1       2.545  -0.991   1.177  1.00  0.00     0.272 C 
HETATM   14  C12 UNL     1       2.886  -0.738  -0.281  1.00  0.00     0.092 C 
HETATM   15  C13 UNL     1       3.358  -2.023  -0.974  1.00  0.00     0.011 C 
HETATM   16  O3  UNL     1       3.340  -1.130   2.080  1.00  0.00    -0.264 OA
HETATM   17  O4  UNL     1       2.274   1.885  -1.790  1.00  0.00    -0.223 OA
HETATM   18  C14 UNL     1      -0.413   1.774   1.659  1.00  0.00     0.012 C 
HETATM   19  C15 UNL     1      -1.964  -2.497   0.224  1.00  0.00     0.026 C 
ENDROOT
TORSDOF 0
