REMARK  4 active torsions:
REMARK  status: ('A' for Active; 'I' for Inactive)
REMARK    1  A    between atoms: C1_1  and  C17_24 
REMARK    2  A    between atoms: C5_5  and  O2_7 
REMARK    3  A    between atoms: O2_7  and  C6_8 
REMARK    4  A    between atoms: C9_11  and  C12_14 
ROOT
HETATM    1  C6  UNL     1       0.675  -0.744   0.115  1.00  0.00     0.097 A 
HETATM    2  C7  UNL     1       2.005  -0.837  -0.080  1.00  0.00     0.024 A 
HETATM    3  C8  UNL     1       2.812   0.234  -0.119  1.00  0.00     0.000 A 
HETATM    4  C9  UNL     1       2.324   1.477   0.034  1.00  0.00     0.006 A 
HETATM    5  C10 UNL     1       0.996   1.584   0.217  1.00  0.00     0.000 A 
HETATM    6  C11 UNL     1       0.196   0.507   0.259  1.00  0.00     0.024 A 
ENDROOT
BRANCH   1   7
HETATM    7  O2  UNL     1      -0.064  -1.901   0.134  1.00  0.00    -0.304 OA
BRANCH   7   8
HETATM    8  C5  UNL     1      -1.470  -1.857   0.227  1.00  0.00     0.274 C 
HETATM    9  C4  UNL     1      -1.938  -3.287   0.385  1.00  0.00     0.241 C 
HETATM   10  C3  UNL     1      -3.445  -3.401   0.253  1.00  0.00     0.220 C 
HETATM   11  O5  UNL     1      -1.314  -4.054  -0.619  1.00  0.00    -0.215 OA
HETATM   12  C2  UNL     1      -3.921  -2.659  -0.984  1.00  0.00     0.215 C 
HETATM   13  O6  UNL     1      -4.050  -2.854   1.400  1.00  0.00    -0.218 OA
HETATM   14  C1  UNL     1      -3.308  -1.270  -1.131  1.00  0.00     0.184 C 
HETATM   15  O7  UNL     1      -3.581  -3.424  -2.120  1.00  0.00    -0.218 OA
HETATM   16  O1  UNL     1      -1.914  -1.325  -1.001  1.00  0.00    -0.326 OA
BRANCH  14  17
HETATM   17  C17 UNL     1      -3.951  -0.214  -0.241  1.00  0.00     0.214 C 
HETATM   18  O8  UNL     1      -3.450   1.066  -0.572  1.00  0.00    -0.218 OA
ENDBRANCH  14  17
ENDBRANCH   7   8
ENDBRANCH   1   7
BRANCH   4  19
HETATM   19  C12 UNL     1       3.187   2.731  -0.009  1.00  0.00     0.151 C 
HETATM   20  O3  UNL     1       2.854   3.594   1.056  1.00  0.00    -0.296 OA
HETATM   21  C13 UNL     1       3.684   4.644   1.330  1.00  0.00     0.296 C 
HETATM   22  C14 UNL     1       4.922   4.790   0.792  1.00  0.00     0.064 C 
HETATM   23  O4  UNL     1       3.308   5.513   2.090  1.00  0.00    -0.259 OA
HETATM   24  C15 UNL     1       5.435   3.810   0.039  1.00  0.00    -0.018 C 
HETATM   25  C16 UNL     1       4.694   2.516  -0.129  1.00  0.00     0.061 C 
ENDBRANCH   4  19
TORSDOF 4
