REMARK  5 active torsions:
REMARK  status: ('A' for Active; 'I' for Inactive)
REMARK    1  A    between atoms: C7_7  and  C12_14 
REMARK    2  A    between atoms: C18_20  and  C23_27 
REMARK    3  A    between atoms: C32_38  and  C33_39 
REMARK    4  A    between atoms: C40_48  and  C44_52 
REMARK    5  A    between atoms: C44_52  and  C45_53 
ROOT
HETATM    1  C23 UNL     1      -0.395  -0.545  -2.452  1.00  0.00     0.081 A 
HETATM    2  C24 UNL     1      -0.217  -1.268  -3.795  1.00  0.00     0.044 C 
HETATM    3  C25 UNL     1       1.287  -1.574  -3.817  1.00  0.00     0.253 C 
HETATM    4  N5  UNL     1       1.923  -0.396  -3.250  1.00  0.00     0.160 N 
HETATM    5  C26 UNL     1       1.029   0.021  -2.176  1.00  0.00     0.326 A 
HETATM    6  N6  UNL     1       1.418  -0.656  -0.919  1.00  0.00    -0.242 NA
HETATM    7  C27 UNL     1       0.585  -1.505  -0.485  1.00  0.00     0.071 A 
HETATM    8  C28 UNL     1      -0.473  -1.542  -1.307  1.00  0.00    -0.002 A 
HETATM    9  C29 UNL     1      -1.470  -2.401  -1.057  1.00  0.00    -0.003 A 
HETATM   10  C30 UNL     1      -1.395  -3.175   0.036  1.00  0.00    -0.001 A 
HETATM   11  C31 UNL     1      -0.334  -3.101   0.857  1.00  0.00    -0.002 A 
HETATM   12  C32 UNL     1       0.697  -2.268   0.615  1.00  0.00     0.002 A 
HETATM   13  C56 UNL     1       2.123   0.641  -4.249  1.00  0.00     0.288 C 
ENDROOT
BRANCH  12  14
HETATM   14  C33 UNL     1       1.922  -2.170   1.509  1.00  0.00     0.094 C 
HETATM   15  C34 UNL     1       3.199  -2.313   0.724  1.00  0.00     0.002 A 
HETATM   16  C35 UNL     1       4.057  -1.302   0.925  1.00  0.00     0.074 A 
HETATM   17  C43 UNL     1       3.510  -3.349  -0.063  1.00  0.00    -0.002 A 
HETATM   18  N7  UNL     1       3.503  -0.469   1.701  1.00  0.00    -0.241 NA
HETATM   19  C40 UNL     1       5.278  -1.280   0.363  1.00  0.00     0.013 A 
HETATM   20  C36 UNL     1       2.111  -0.760   2.125  1.00  0.00     0.329 C 
HETATM   21  N8  UNL     1       1.852  -0.826   3.559  1.00  0.00     0.160 N 
HETATM   22  C37 UNL     1       1.313  -2.156   3.800  1.00  0.00     0.254 C 
HETATM   23  C39 UNL     1       3.024  -0.542   4.368  1.00  0.00     0.288 C 
HETATM   24  C38 UNL     1       1.986  -3.060   2.764  1.00  0.00     0.048 C 
HETATM   25  C41 UNL     1       5.569  -2.336  -0.429  1.00  0.00     0.001 A 
HETATM   26  C42 UNL     1       4.713  -3.347  -0.651  1.00  0.00    -0.000 A 
BRANCH  19  27
HETATM   27  C44 UNL     1       6.368  -0.230   0.527  1.00  0.00    -0.017 C 
BRANCH  27  28
HETATM   28  C45 UNL     1       6.169   1.214   1.024  1.00  0.00     0.092 A 
HETATM   29  C46 UNL     1       5.966   1.408   2.552  1.00  0.00     0.329 A 
HETATM   30  N9  UNL     1       7.100   2.149   3.074  1.00  0.00     0.160 N 
HETATM   31  N10 UNL     1       4.741   2.251   2.588  1.00  0.00    -0.241 NA
HETATM   32  C47 UNL     1       8.179   1.931   2.134  1.00  0.00     0.254 C 
HETATM   33  C49 UNL     1       7.434   1.818   4.444  1.00  0.00     0.288 C 
HETATM   34  C48 UNL     1       7.459   2.039   0.783  1.00  0.00     0.048 C 
HETATM   35  C50 UNL     1       4.229   2.483   1.452  1.00  0.00     0.075 A 
HETATM   36  C51 UNL     1       4.956   1.918   0.479  1.00  0.00     0.002 A 
HETATM   37  C55 UNL     1       3.116   3.174   1.181  1.00  0.00     0.018 A 
HETATM   38  C52 UNL     1       4.589   2.044  -0.803  1.00  0.00    -0.002 A 
HETATM   39  C53 UNL     1       3.478   2.745  -1.083  1.00  0.00    -0.000 A 
HETATM   40  C54 UNL     1       2.744   3.299  -0.103  1.00  0.00     0.002 A 
ENDBRANCH  27  28
ENDBRANCH  19  27
ENDBRANCH  12  14
BRANCH   1  41
HETATM   41  C18 UNL     1      -1.532   0.501  -2.368  1.00  0.00     0.081 A 
HETATM   42  C14 UNL     1      -2.918  -0.074  -2.592  1.00  0.00    -0.002 A 
HETATM   43  C13 UNL     1      -3.725   0.005  -1.522  1.00  0.00     0.071 A 
HETATM   44  C15 UNL     1      -3.374  -0.605  -3.735  1.00  0.00    -0.003 A 
HETATM   45  C12 UNL     1      -4.977  -0.494  -1.511  1.00  0.00     0.002 A 
HETATM   46  N3  UNL     1      -3.098   0.606  -0.599  1.00  0.00    -0.242 NA
HETATM   47  C17 UNL     1      -5.413  -0.990  -2.687  1.00  0.00    -0.002 A 
HETATM   48  C16 UNL     1      -4.635  -1.053  -3.779  1.00  0.00    -0.001 A 
HETATM   49  C19 UNL     1      -1.730   1.062  -0.932  1.00  0.00     0.326 A 
HETATM   50  N4  UNL     1      -1.561   2.500  -1.031  1.00  0.00     0.160 N 
HETATM   51  C20 UNL     1      -2.023   2.860  -2.356  1.00  0.00     0.253 C 
HETATM   52  C22 UNL     1      -2.175   3.254   0.041  1.00  0.00     0.288 C 
HETATM   53  C21 UNL     1      -1.383   1.771  -3.232  1.00  0.00     0.044 C 
BRANCH  45  54
HETATM   54  C7  UNL     1      -5.897  -0.456  -0.296  1.00  0.00     0.094 A 
HETATM   55  C4  UNL     1      -6.762   0.783  -0.360  1.00  0.00     0.002 A 
HETATM   56  C3  UNL     1      -8.072   0.513  -0.345  1.00  0.00     0.075 A 
HETATM   57  C5  UNL     1      -6.347   2.056  -0.418  1.00  0.00    -0.002 A 
HETATM   58  C2  UNL     1      -8.995   1.482  -0.391  1.00  0.00     0.018 A 
HETATM   59  N1  UNL     1      -8.262  -0.736  -0.280  1.00  0.00    -0.241 NA
HETATM   60  C1  UNL     1      -8.575   2.756  -0.450  1.00  0.00     0.002 A 
HETATM   61  C6  UNL     1      -7.261   3.041  -0.464  1.00  0.00    -0.000 A 
HETATM   62  C8  UNL     1      -7.021  -1.544  -0.223  1.00  0.00     0.329 A 
HETATM   63  N2  UNL     1      -6.850  -2.266   1.025  1.00  0.00     0.160 N 
HETATM   64  C9  UNL     1      -6.284  -1.309   1.949  1.00  0.00     0.254 C 
HETATM   65  C11 UNL     1      -8.049  -2.917   1.514  1.00  0.00     0.288 C 
HETATM   66  C10 UNL     1      -5.227  -0.607   1.086  1.00  0.00     0.048 C 
ENDBRANCH  45  54
ENDBRANCH   1  41
TORSDOF 5
