REMARK  5 active torsions:
REMARK  status: ('A' for Active; 'I' for Inactive)
REMARK    1  A    between atoms: C4_4  and  O3_9 
REMARK    2  A    between atoms: C5_6  and  C6_7 
REMARK    3  A    between atoms: O3_9  and  C7_10 
REMARK    4  A    between atoms: C7_10  and  C8_11 
REMARK    5  A    between atoms: C8_11  and  C9_12 
ROOT
HETATM    1  C8  UNL     1      -0.544  -1.191   0.698  1.00  0.00     0.058 C 
ENDROOT
BRANCH   1   2
HETATM    2  C7  UNL     1      -0.491   0.083  -0.154  1.00  0.00     0.150 C 
BRANCH   2   3
HETATM    3  O3  UNL     1      -1.791   0.599  -0.317  1.00  0.00    -0.329 OA
BRANCH   3   4
HETATM    4  C4  UNL     1      -1.831   2.006  -0.442  1.00  0.00     0.270 C 
HETATM    5  C3  UNL     1      -3.052   2.383  -1.241  1.00  0.00     0.241 C 
HETATM    6  C2  UNL     1      -3.193   3.889  -1.251  1.00  0.00     0.220 C 
HETATM    7  O5  UNL     1      -2.902   1.928  -2.563  1.00  0.00    -0.215 OA
HETATM    8  C1  UNL     1      -3.244   4.391   0.181  1.00  0.00     0.215 C 
HETATM    9  O6  UNL     1      -4.373   4.211  -1.948  1.00  0.00    -0.218 OA
HETATM   10  C5  UNL     1      -2.081   3.842   1.006  1.00  0.00     0.184 C 
HETATM   11  O7  UNL     1      -3.170   5.799   0.168  1.00  0.00    -0.218 OA
HETATM   12  O1  UNL     1      -1.974   2.450   0.889  1.00  0.00    -0.326 OA
BRANCH  10  13
HETATM   13  C6  UNL     1      -2.243   4.137   2.495  1.00  0.00     0.214 C 
HETATM   14  O2  UNL     1      -2.475   5.513   2.707  1.00  0.00    -0.218 OA
ENDBRANCH  10  13
ENDBRANCH   3   4
ENDBRANCH   2   3
ENDBRANCH   1   2
BRANCH   1  15
HETATM   15  C9  UNL     1       0.594  -2.157   0.385  1.00  0.00    -0.028 A 
HETATM   16  C10 UNL     1       0.312  -3.334  -0.230  1.00  0.00    -0.026 A 
HETATM   17  C11 UNL     1      -1.099  -3.753  -0.599  1.00  0.00     0.031 C 
HETATM   18  C12 UNL     1       1.306  -4.184  -0.543  1.00  0.00    -0.009 A 
HETATM   19  C13 UNL     1       2.571  -3.862  -0.265  1.00  0.00    -0.020 A 
HETATM   20  C14 UNL     1       2.847  -2.703   0.338  1.00  0.00     0.026 A 
HETATM   21  C19 UNL     1       3.772  -4.702  -0.591  1.00  0.00     0.034 A 
HETATM   22  C15 UNL     1       1.877  -1.837   0.693  1.00  0.00    -0.024 A 
HETATM   23  C17 UNL     1       4.187  -2.567   0.509  1.00  0.00     0.172 A 
HETATM   24  C16 UNL     1       2.244  -0.557   1.421  1.00  0.00     0.031 C 
HETATM   25  C18 UNL     1       4.895  -3.808  -0.036  1.00  0.00     0.066 A 
HETATM   26  O4  UNL     1       4.795  -1.638   0.985  1.00  0.00    -0.291 OA
HETATM   27  C20 UNL     1       5.957  -3.466  -1.089  1.00  0.00     0.009 C 
ENDBRANCH   1  15
TORSDOF 5
