REMARK  9 active torsions:
REMARK  status: ('A' for Active; 'I' for Inactive)
REMARK    1  A    between atoms: C15_20  and  O19_53 
REMARK    2  A    between atoms: C17_23  and  O12_37 
REMARK    3  A    between atoms: C18_24  and  O7_25 
REMARK    4  A    between atoms: O7_25  and  C19_26 
REMARK    5  A    between atoms: C19_26  and  C20_27 
REMARK    6  A    between atoms: O12_37  and  C26_38 
REMARK    7  A    between atoms: C26_38  and  C27_39 
REMARK    8  A    between atoms: O19_53  and  C35_54 
REMARK    9  A    between atoms: C35_54  and  C36_55 
ROOT
HETATM    1  C1  UNL     1      -3.074   4.710  -0.085  1.00  0.00     0.158 A 
HETATM    2  C2  UNL     1      -4.278   4.355  -0.572  1.00  0.00     0.181 A 
HETATM    3  C3  UNL     1      -4.920   3.279  -0.092  1.00  0.00     0.158 A 
HETATM    4  C4  UNL     1      -4.354   2.586   0.905  1.00  0.00     0.035 A 
HETATM    5  C5  UNL     1      -3.175   2.949   1.439  1.00  0.00     0.067 A 
HETATM    6  C6  UNL     1      -2.491   3.994   0.905  1.00  0.00     0.035 A 
HETATM    7  C7  UNL     1      -1.217   4.288   1.275  1.00  0.00     0.035 A 
HETATM    8  C8  UNL     1      -0.217   3.365   1.305  1.00  0.00     0.067 A 
HETATM    9  C9  UNL     1       0.982   3.715   1.808  1.00  0.00     0.035 A 
HETATM   10  C10 UNL     1       1.244   4.952   2.247  1.00  0.00     0.158 A 
HETATM   11  C11 UNL     1       0.270   5.870   2.175  1.00  0.00     0.181 A 
HETATM   12  C12 UNL     1      -0.944   5.546   1.695  1.00  0.00     0.158 A 
HETATM   13  O1  UNL     1      -1.891   6.525   1.723  1.00  0.00    -0.188 OA
HETATM   14  O2  UNL     1       0.509   7.133   2.621  1.00  0.00    -0.186 OA
HETATM   15  O3  UNL     1       2.461   5.291   2.753  1.00  0.00    -0.188 OA
HETATM   16  C13 UNL     1      -0.337   2.074   0.854  1.00  0.00     0.296 C 
HETATM   17  O4  UNL     1      -1.351   1.715   0.308  1.00  0.00    -0.259 OA
HETATM   18  O5  UNL     1       0.627   1.123   1.060  1.00  0.00    -0.296 OA
HETATM   19  C14 UNL     1       0.300  -0.237   1.201  1.00  0.00     0.187 C 
HETATM   20  C15 UNL     1      -0.477  -0.571   2.491  1.00  0.00     0.184 C 
HETATM   21  C16 UNL     1      -1.940  -1.025   2.273  1.00  0.00     0.178 C 
HETATM   22  O6  UNL     1      -2.061  -2.019   1.282  1.00  0.00    -0.326 OA
HETATM   23  C17 UNL     1      -0.907  -2.254   0.509  1.00  0.00     0.274 C 
HETATM   24  C18 UNL     1      -0.296  -0.953  -0.012  1.00  0.00     0.211 C 
HETATM   25  C33 UNL     1      -3.083  -0.027   2.020  1.00  0.00     0.184 C 
HETATM   26  O17 UNL     1      -3.151   1.026   2.956  1.00  0.00    -0.296 OA
HETATM   27  C34 UNL     1      -2.692   2.239   2.507  1.00  0.00     0.296 C 
HETATM   28  O18 UNL     1      -1.890   2.816   3.212  1.00  0.00    -0.259 OA
HETATM   29  O24 UNL     1      -6.131   2.919  -0.594  1.00  0.00    -0.188 OA
HETATM   30  O25 UNL     1      -4.858   5.062  -1.581  1.00  0.00    -0.186 OA
HETATM   31  O26 UNL     1      -2.445   5.763  -0.681  1.00  0.00    -0.188 OA
ENDROOT
BRANCH  20  32
HETATM   32  O19 UNL     1      -0.431   0.430   3.460  1.00  0.00    -0.296 OA
BRANCH  32  33
HETATM   33  C35 UNL     1       0.672   1.036   4.026  1.00  0.00     0.296 C 
HETATM   34  O23 UNL     1       0.409   2.050   4.646  1.00  0.00    -0.259 OA
BRANCH  33  35
HETATM   35  C36 UNL     1       2.005   0.710   4.033  1.00  0.00     0.067 A 
HETATM   36  C37 UNL     1       2.525  -0.439   3.569  1.00  0.00     0.035 A 
HETATM   37  C38 UNL     1       3.844  -0.699   3.566  1.00  0.00     0.158 A 
HETATM   38  C39 UNL     1       4.695   0.211   4.064  1.00  0.00     0.181 A 
HETATM   39  O22 UNL     1       4.335  -1.869   3.076  1.00  0.00    -0.188 OA
HETATM   40  C40 UNL     1       4.218   1.358   4.570  1.00  0.00     0.158 A 
HETATM   41  O21 UNL     1       6.033  -0.026   4.072  1.00  0.00    -0.186 OA
HETATM   42  C41 UNL     1       2.895   1.584   4.549  1.00  0.00     0.035 A 
HETATM   43  O20 UNL     1       5.077   2.282   5.076  1.00  0.00    -0.188 OA
ENDBRANCH  33  35
ENDBRANCH  32  33
ENDBRANCH  20  32
BRANCH  24  44
HETATM   44  O7  UNL     1       0.682  -1.324  -0.946  1.00  0.00    -0.293 OA
BRANCH  44  45
HETATM   45  C19 UNL     1       1.116  -0.452  -1.903  1.00  0.00     0.296 C 
HETATM   46  O11 UNL     1       0.959   0.739  -1.737  1.00  0.00    -0.259 OA
BRANCH  45  47
HETATM   47  C20 UNL     1       1.617  -0.901  -3.091  1.00  0.00     0.067 A 
HETATM   48  C21 UNL     1       1.694  -2.220  -3.338  1.00  0.00     0.035 A 
HETATM   49  C22 UNL     1       2.148  -2.694  -4.510  1.00  0.00     0.158 A 
HETATM   50  C23 UNL     1       2.567  -1.827  -5.446  1.00  0.00     0.181 A 
HETATM   51  O10 UNL     1       2.192  -4.028  -4.764  1.00  0.00    -0.188 OA
HETATM   52  C24 UNL     1       2.527  -0.503  -5.214  1.00  0.00     0.158 A 
HETATM   53  O9  UNL     1       3.041  -2.287  -6.633  1.00  0.00    -0.186 OA
HETATM   54  C25 UNL     1       2.043  -0.053  -4.044  1.00  0.00     0.035 A 
HETATM   55  O8  UNL     1       2.967   0.361  -6.167  1.00  0.00    -0.188 OA
ENDBRANCH  45  47
ENDBRANCH  44  45
ENDBRANCH  24  44
BRANCH  23  56
HETATM   56  O12 UNL     1      -1.346  -3.033  -0.589  1.00  0.00    -0.270 OA
BRANCH  56  57
HETATM   57  C26 UNL     1      -1.510  -4.382  -0.406  1.00  0.00     0.298 C 
HETATM   58  O16 UNL     1      -1.704  -4.798   0.716  1.00  0.00    -0.259 OA
BRANCH  57  59
HETATM   59  C27 UNL     1      -1.323  -5.277  -1.421  1.00  0.00     0.068 A 
HETATM   60  C28 UNL     1      -1.458  -6.600  -1.218  1.00  0.00     0.035 A 
HETATM   61  C29 UNL     1      -1.257  -7.486  -2.208  1.00  0.00     0.158 A 
HETATM   62  C30 UNL     1      -0.903  -7.041  -3.426  1.00  0.00     0.181 A 
HETATM   63  O15 UNL     1      -1.386  -8.825  -1.999  1.00  0.00    -0.188 OA
HETATM   64  C31 UNL     1      -0.771  -5.724  -3.658  1.00  0.00     0.158 A 
HETATM   65  O14 UNL     1      -0.671  -7.925  -4.433  1.00  0.00    -0.186 OA
HETATM   66  C32 UNL     1      -0.982  -4.858  -2.652  1.00  0.00     0.035 A 
HETATM   67  O13 UNL     1      -0.378  -5.286  -4.884  1.00  0.00    -0.188 OA
ENDBRANCH  57  59
ENDBRANCH  56  57
ENDBRANCH  23  56
TORSDOF 9
