REMARK  0 active torsions:
REMARK  status: ('A' for Active; 'I' for Inactive)
ROOT
HETATM    1  C1  UNL     1      -3.812  -0.160  -0.194  1.00  0.00     0.000 A 
HETATM    2  C2  UNL     1      -2.818   0.741  -0.230  1.00  0.00     0.003 A 
HETATM    3  C3  UNL     1      -1.531   0.355  -0.128  1.00  0.00     0.042 A 
HETATM    4  C4  UNL     1      -1.235  -0.949   0.014  1.00  0.00     0.042 A 
HETATM    5  C5  UNL     1      -2.240  -1.847   0.049  1.00  0.00     0.003 A 
HETATM    6  C6  UNL     1      -3.521  -1.460  -0.054  1.00  0.00     0.000 A 
HETATM    7  C7  UNL     1       0.057  -1.366   0.119  1.00  0.00     0.198 A 
HETATM    8  C8  UNL     1       1.061  -0.444   0.077  1.00  0.00     0.068 A 
HETATM    9  C9  UNL     1       0.749   0.862  -0.067  1.00  0.00     0.046 A 
HETATM   10  C10 UNL     1      -0.541   1.285  -0.171  1.00  0.00     0.196 A 
HETATM   11  O1  UNL     1      -0.806   2.462  -0.298  1.00  0.00    -0.287 OA
HETATM   12  C11 UNL     1       1.724   1.790  -0.115  1.00  0.00     0.031 A 
HETATM   13  C12 UNL     1       3.019   1.459  -0.022  1.00  0.00     0.133 A 
HETATM   14  C13 UNL     1       3.301   0.158   0.123  1.00  0.00     0.055 A 
HETATM   15  C14 UNL     1       2.365  -0.807   0.176  1.00  0.00     0.136 A 
HETATM   16  O2  UNL     1       2.832  -2.082   0.330  1.00  0.00    -0.190 OA
HETATM   17  O3  UNL     1       3.996   2.405  -0.073  1.00  0.00    -0.190 OA
HETATM   18  O4  UNL     1       0.273  -2.550   0.246  1.00  0.00    -0.286 OA
ENDROOT
TORSDOF 0
