REMARK  2 active torsions:
REMARK  status: ('A' for Active; 'I' for Inactive)
REMARK    1  A    between atoms: C8_9  and  O4_17 
REMARK    2  A    between atoms: O4_17  and  C14_18 
ROOT
HETATM    1  C1  UNL     1       0.879   0.243   2.372  1.00  0.00     0.060 C 
HETATM    2  C2  UNL     1      -0.208  -0.803   2.609  1.00  0.00     0.120 A 
HETATM    3  O1  UNL     1      -1.233  -0.477   3.800  1.00  0.00    -0.357 OA
HETATM    4  C3  UNL     1      -1.579  -0.389   2.440  1.00  0.00     0.140 A 
HETATM    5  C4  UNL     1      -2.636  -1.393   1.989  1.00  0.00     0.036 C 
HETATM    6  C5  UNL     1      -2.917  -1.296   0.475  1.00  0.00     0.024 C 
HETATM    7  C6  UNL     1      -1.615  -1.178  -0.295  1.00  0.00    -0.046 C 
HETATM    8  C7  UNL     1      -1.130   0.048  -0.560  1.00  0.00    -0.005 C 
HETATM    9  C8  UNL     1       0.191   0.449  -1.183  1.00  0.00     0.152 C 
HETATM   10  C9  UNL     1       1.003   1.162  -0.079  1.00  0.00     0.087 A 
HETATM   11  C10 UNL     1       1.544   0.172   0.985  1.00  0.00     0.134 A 
HETATM   12  O2  UNL     1       2.929   0.382   1.108  1.00  0.00    -0.301 OA
HETATM   13  C11 UNL     1       3.293   1.341   0.223  1.00  0.00     0.292 A 
HETATM   14  C12 UNL     1       2.274   1.859  -0.500  1.00  0.00     0.046 A 
HETATM   15  C13 UNL     1       2.423   2.860  -1.378  1.00  0.00     0.001 C 
HETATM   16  O3  UNL     1       4.443   1.713   0.123  1.00  0.00    -0.260 OA
HETATM   17  C16 UNL     1      -0.935  -2.483  -0.628  1.00  0.00     0.026 C 
HETATM   18  C17 UNL     1       0.270  -2.239   2.791  1.00  0.00     0.032 C 
ENDROOT
BRANCH   9  19
HETATM   19  O4  UNL     1      -0.099   1.303  -2.267  1.00  0.00    -0.299 OA
BRANCH  19  20
HETATM   20  C14 UNL     1       0.659   1.208  -3.395  1.00  0.00     0.273 C 
HETATM   21  C15 UNL     1       0.146   2.166  -4.452  1.00  0.00     0.106 C 
HETATM   22  O5  UNL     1       1.604   0.466  -3.539  1.00  0.00    -0.264 OA
ENDBRANCH  19  20
ENDBRANCH   9  19
TORSDOF 2
