REMARK  0 active torsions:
REMARK  status: ('A' for Active; 'I' for Inactive)
ROOT
HETATM    1  N1  UNL     1       0.944   0.905   0.382  1.00  0.00     0.339 N 
HETATM    2  C1  UNL     1      -0.475   0.964   0.721  1.00  0.00     0.290 C 
HETATM    3  C2  UNL     1      -1.157   0.045  -0.304  1.00  0.00     0.040 C 
HETATM    4  C3  UNL     1      -0.042  -0.903  -0.785  1.00  0.00     0.040 C 
HETATM    5  C4  UNL     1       1.198  -0.486   0.020  1.00  0.00     0.290 C 
ENDROOT
TORSDOF 0
