REMARK  3 active torsions:
REMARK  status: ('A' for Active; 'I' for Inactive)
REMARK    1  A    between atoms: C2_2  and  O4_18 
REMARK    2  A    between atoms: C5_5  and  O2_9 
REMARK    3  A    between atoms: C6_6  and  O1_7 
ROOT
HETATM    1  C1  UNL     1       1.937  -0.204  -0.612  1.00  0.00     0.177 A 
HETATM    2  C2  UNL     1       0.932   0.508  -1.165  1.00  0.00     0.123 A 
HETATM    3  C3  UNL     1      -0.285   0.268  -0.666  1.00  0.00     0.051 A 
HETATM    4  C4  UNL     1      -0.474  -0.542   0.382  1.00  0.00     0.126 A 
HETATM    5  C5  UNL     1       0.538  -1.176   1.002  1.00  0.00     0.141 A 
HETATM    6  C6  UNL     1       1.774  -1.026   0.458  1.00  0.00     0.145 A 
HETATM    7  O3  UNL     1      -1.665  -0.621   0.690  1.00  0.00    -0.305 OA
HETATM    8  C9  UNL     1      -2.305   0.080  -0.093  1.00  0.00     0.100 A 
HETATM    9  C10 UNL     1      -1.515   0.684  -0.991  1.00  0.00     0.027 A 
HETATM   10  C11 UNL     1      -2.021   1.492  -1.931  1.00  0.00     0.002 A 
HETATM   11  C12 UNL     1      -3.352   1.679  -1.948  1.00  0.00     0.000 A 
HETATM   12  C13 UNL     1      -4.148   1.069  -1.051  1.00  0.00     0.002 A 
HETATM   13  C14 UNL     1      -3.633   0.259  -0.111  1.00  0.00     0.025 A 
HETATM   14  O5  UNL     1       3.177  -0.071  -1.168  1.00  0.00    -0.186 OA
ENDROOT
BRANCH   2  15
HETATM   15  O4  UNL     1       1.143   1.287  -2.271  1.00  0.00    -0.326 OA
HETATM   16  C15 UNL     1       1.458   2.628  -1.967  1.00  0.00     0.181 C 
ENDBRANCH   2  15
BRANCH   6  17
HETATM   17  O1  UNL     1       2.930  -1.657   0.873  1.00  0.00    -0.324 OA
HETATM   18  C7  UNL     1       2.917  -2.729   1.782  1.00  0.00     0.182 C 
ENDBRANCH   6  17
BRANCH   5  19
HETATM   19  O2  UNL     1       0.252  -2.022   2.044  1.00  0.00    -0.324 OA
HETATM   20  C8  UNL     1      -0.016  -1.378   3.269  1.00  0.00     0.182 C 
ENDBRANCH   5  19
TORSDOF 3
