REMARK  2 active torsions:
REMARK  status: ('A' for Active; 'I' for Inactive)
REMARK    1  A    between atoms: C11_13  and  O4_18 
REMARK    2  A    between atoms: O4_18  and  C15_19 
ROOT
HETATM    1  C1  UNL     1      -0.564   2.722   0.082  1.00  0.00     0.024 A 
HETATM    2  C2  UNL     1      -0.623   1.381   0.153  1.00  0.00     0.094 A 
HETATM    3  C3  UNL     1       0.540   0.698   0.058  1.00  0.00     0.055 A 
HETATM    4  C4  UNL     1       1.725   1.331  -0.108  1.00  0.00     0.104 A 
HETATM    5  C5  UNL     1       1.740   2.678  -0.181  1.00  0.00     0.023 A 
HETATM    6  C6  UNL     1       0.593   3.370  -0.093  1.00  0.00     0.004 A 
HETATM    7  C7  UNL     1       2.908   3.328  -0.329  1.00  0.00     0.007 A 
HETATM    8  C8  UNL     1       4.066   2.657  -0.392  1.00  0.00     0.069 A 
HETATM    9  C9  UNL     1       4.049   1.304  -0.314  1.00  0.00     0.300 A 
HETATM   10  O1  UNL     1       2.884   0.607  -0.186  1.00  0.00    -0.273 OA
HETATM   11  O2  UNL     1       5.102   0.702  -0.366  1.00  0.00    -0.259 OA
HETATM   12  C10 UNL     1       0.502  -0.815   0.158  1.00  0.00     0.208 C 
HETATM   13  C11 UNL     1      -0.914  -1.349  -0.006  1.00  0.00     0.184 C 
HETATM   14  C12 UNL     1      -1.872  -0.508   0.839  1.00  0.00     0.127 C 
HETATM   15  O3  UNL     1      -1.849   0.803   0.372  1.00  0.00    -0.333 OA
HETATM   16  C13 UNL     1      -3.314  -1.025   0.699  1.00  0.00     0.033 C 
HETATM   17  C14 UNL     1      -1.517  -0.521   2.334  1.00  0.00     0.033 C 
HETATM   18  O6  UNL     1       1.327  -1.440  -0.807  1.00  0.00    -0.216 OA
ENDROOT
BRANCH  13  19
HETATM   19  O4  UNL     1      -1.294  -1.251  -1.355  1.00  0.00    -0.299 OA
BRANCH  19  20
HETATM   20  C15 UNL     1      -1.324  -2.300  -2.226  1.00  0.00     0.273 C 
HETATM   21  O5  UNL     1      -1.589  -2.148  -3.400  1.00  0.00    -0.264 OA
HETATM   22  C16 UNL     1      -1.078  -3.684  -1.655  1.00  0.00     0.106 C 
ENDBRANCH  19  20
ENDBRANCH  13  19
TORSDOF 2
