REMARK  5 active torsions:
REMARK  status: ('A' for Active; 'I' for Inactive)
REMARK    1  A    between atoms: O1_2  and  C2_3 
REMARK    2  A    between atoms: C3_4  and  O2_5 
REMARK    3  A    between atoms: C11_14  and  C12_16 
REMARK    4  A    between atoms: C14_19  and  O7_25 
REMARK    5  A    between atoms: C15_20  and  O6_23 
ROOT
HETATM    1  C2  UNL     1      -2.929   3.460  -0.007  1.00  0.00     0.142 A 
HETATM    2  C3  UNL     1      -3.404   2.190  -0.067  1.00  0.00     0.120 A 
HETATM    3  C5  UNL     1      -2.495   1.198  -0.083  1.00  0.00     0.051 A 
HETATM    4  C6  UNL     1      -1.167   1.382  -0.044  1.00  0.00     0.107 A 
HETATM    5  C7  UNL     1      -0.716   2.640   0.021  1.00  0.00     0.091 A 
HETATM    6  C8  UNL     1      -1.590   3.670   0.036  1.00  0.00     0.160 A 
HETATM    7  O3  UNL     1      -1.151   4.963   0.101  1.00  0.00    -0.188 OA
HETATM    8  C9  UNL     1       0.632   2.817   0.081  1.00  0.00     0.227 A 
HETATM    9  C10 UNL     1       1.476   1.741   0.077  1.00  0.00     0.192 A 
HETATM   10  C11 UNL     1       1.008   0.472  -0.027  1.00  0.00     0.130 A 
HETATM   11  O4  UNL     1      -0.348   0.300  -0.055  1.00  0.00    -0.305 OA
HETATM   12  O8  UNL     1       2.779   2.083   0.293  1.00  0.00    -0.185 OA
HETATM   13  O9  UNL     1       1.124   3.922   0.168  1.00  0.00    -0.284 OA
ENDROOT
BRANCH  10  14
HETATM   14  C12 UNL     1       1.783  -0.656  -0.058  1.00  0.00     0.052 A 
HETATM   15  C13 UNL     1       1.235  -1.900   0.015  1.00  0.00     0.157 A 
HETATM   16  O5  UNL     1      -0.119  -2.065   0.129  1.00  0.00    -0.188 OA
HETATM   17  C14 UNL     1       1.968  -3.046   0.016  1.00  0.00     0.141 A 
HETATM   18  C15 UNL     1       3.318  -2.995  -0.094  1.00  0.00     0.118 A 
HETATM   19  C16 UNL     1       3.858  -1.771  -0.205  1.00  0.00     0.026 A 
HETATM   20  C17 UNL     1       3.120  -0.656  -0.203  1.00  0.00     0.006 A 
BRANCH  17  21
HETATM   21  O7  UNL     1       1.236  -4.214   0.112  1.00  0.00    -0.324 OA
HETATM   22  C19 UNL     1       1.795  -5.491  -0.070  1.00  0.00     0.182 C 
ENDBRANCH  17  21
BRANCH  18  23
HETATM   23  O6  UNL     1       4.081  -4.138  -0.082  1.00  0.00    -0.326 OA
HETATM   24  C18 UNL     1       5.487  -4.053  -0.069  1.00  0.00     0.181 C 
ENDBRANCH  18  23
ENDBRANCH  10  14
BRANCH   2  25
HETATM   25  O2  UNL     1      -4.756   1.942  -0.096  1.00  0.00    -0.326 OA
HETATM   26  C4  UNL     1      -5.237   0.618  -0.085  1.00  0.00     0.181 C 
ENDBRANCH   2  25
BRANCH   1  27
HETATM   27  O1  UNL     1      -3.700   4.605   0.022  1.00  0.00    -0.324 OA
HETATM   28  C1  UNL     1      -5.105   4.582   0.006  1.00  0.00     0.182 C 
ENDBRANCH   1  27
TORSDOF 5
