REMARK  0 active torsions:
REMARK  status: ('A' for Active; 'I' for Inactive)
ROOT
HETATM    1  C1  UNL     1       0.770   1.243  -0.715  1.00  0.00     0.188 C 
HETATM    2  C2  UNL     1      -0.757   1.321  -0.678  1.00  0.00     0.071 C 
HETATM    3  C3  UNL     1      -1.321   0.581   0.532  1.00  0.00     0.188 C 
HETATM    4  C4  UNL     1      -0.841  -0.855   0.546  1.00  0.00     0.215 C 
HETATM    5  C5  UNL     1       0.673  -0.921   0.577  1.00  0.00     0.218 C 
HETATM    6  C6  UNL     1       1.292  -0.182  -0.596  1.00  0.00     0.215 C 
HETATM    7  O1  UNL     1       0.991  -0.900  -1.769  1.00  0.00    -0.218 OA
HETATM    8  O2  UNL     1       1.047  -2.277   0.514  1.00  0.00    -0.218 OA
HETATM    9  O3  UNL     1      -1.351  -1.495   1.689  1.00  0.00    -0.218 OA
HETATM   10  O4  UNL     1      -2.727   0.567   0.489  1.00  0.00    -0.221 OA
HETATM   11  O5  UNL     1       1.294   2.003   0.349  1.00  0.00    -0.221 OA
ENDROOT
TORSDOF 0
