REMARK  2 active torsions:
REMARK  status: ('A' for Active; 'I' for Inactive)
REMARK    1  A    between atoms: C1_1  and  O6_21 
REMARK    2  A    between atoms: C12_13  and  C15_17 
ROOT
HETATM    1  C1  UNL     1      -2.245  -1.758   0.259  1.00  0.00     0.099 A 
HETATM    2  C2  UNL     1      -3.521  -1.368   0.072  1.00  0.00     0.052 A 
HETATM    3  C3  UNL     1      -3.875  -0.135  -0.310  1.00  0.00     0.133 A 
HETATM    4  C4  UNL     1      -2.887   0.756  -0.465  1.00  0.00     0.031 A 
HETATM    5  C5  UNL     1      -1.600   0.432  -0.242  1.00  0.00     0.046 A 
HETATM    6  C6  UNL     1      -1.269  -0.819   0.135  1.00  0.00     0.065 A 
HETATM    7  C7  UNL     1       0.042  -1.122   0.366  1.00  0.00     0.200 A 
HETATM    8  C8  UNL     1       1.005  -0.166   0.217  1.00  0.00     0.067 A 
HETATM    9  C9  UNL     1       0.647   1.079  -0.157  1.00  0.00     0.044 A 
HETATM   10  C10 UNL     1      -0.654   1.398  -0.394  1.00  0.00     0.196 A 
HETATM   11  O1  UNL     1      -0.970   2.519  -0.733  1.00  0.00    -0.287 OA
HETATM   12  C11 UNL     1       1.578   2.041  -0.308  1.00  0.00     0.002 A 
HETATM   13  C12 UNL     1       2.879   1.797  -0.093  1.00  0.00     0.013 A 
HETATM   14  C13 UNL     1       3.212   0.552   0.274  1.00  0.00     0.026 A 
HETATM   15  C14 UNL     1       2.316  -0.437   0.442  1.00  0.00     0.134 A 
HETATM   16  O2  UNL     1       2.828  -1.654   0.794  1.00  0.00    -0.190 OA
HETATM   17  O4  UNL     1       0.361  -2.239   0.699  1.00  0.00    -0.286 OA
HETATM   18  O5  UNL     1      -5.181   0.194  -0.504  1.00  0.00    -0.190 OA
ENDROOT
BRANCH   1  19
HETATM   19  O6  UNL     1      -2.042  -3.046   0.701  1.00  0.00    -0.328 OA
HETATM   20  C16 UNL     1      -1.880  -3.988  -0.336  1.00  0.00     0.181 C 
ENDBRANCH   1  19
BRANCH  13  21
HETATM   21  C15 UNL     1       3.954   2.848  -0.256  1.00  0.00     0.209 C 
HETATM   22  O3  UNL     1       3.449   4.177  -0.261  1.00  0.00    -0.215 OA
ENDBRANCH  13  21
TORSDOF 2
