REMARK  6 active torsions:
REMARK  status: ('A' for Active; 'I' for Inactive)
REMARK    1  A    between atoms: C1_1  and  O2_23 
REMARK    2  A    between atoms: C7_7  and  C10_11 
REMARK    3  A    between atoms: C10_11  and  C11_12 
REMARK    4  A    between atoms: C11_12  and  C12_13 
REMARK    5  A    between atoms: C12_13  and  C13_14 
REMARK    6  A    between atoms: C14_15  and  C15_16 
ROOT
HETATM    1  C1  UNL     1       2.819  -0.398  -0.640  1.00  0.00     0.094 A 
HETATM    2  C2  UNL     1       4.040   0.050  -0.977  1.00  0.00     0.026 A 
HETATM    3  C3  UNL     1       4.346   1.345  -0.843  1.00  0.00     0.021 A 
HETATM    4  C4  UNL     1       3.443   2.232  -0.387  1.00  0.00     0.082 A 
HETATM    5  C5  UNL     1       2.195   1.844  -0.028  1.00  0.00     0.022 A 
HETATM    6  C6  UNL     1       1.951   0.527  -0.184  1.00  0.00     0.026 A 
HETATM    7  C7  UNL     1       1.324   2.788   0.416  1.00  0.00     0.038 A 
HETATM    8  C8  UNL     1       1.797   4.054   0.436  1.00  0.00     0.024 A 
HETATM    9  C9  UNL     1       3.053   4.322   0.062  1.00  0.00     0.099 A 
HETATM   10  N1  UNL     1       3.852   3.430  -0.331  1.00  0.00    -0.244 NA
ENDROOT
BRANCH   7  11
HETATM   11  C10 UNL     1       0.031   2.639   0.850  1.00  0.00     0.173 C 
HETATM   12  O1  UNL     1      -0.608   3.626   1.157  1.00  0.00    -0.291 OA
BRANCH  11  13
HETATM   13  C11 UNL     1      -0.778   1.363   1.075  1.00  0.00     0.069 C 
BRANCH  13  14
HETATM   14  C12 UNL     1      -1.552   0.864  -0.158  1.00  0.00     0.009 C 
BRANCH  14  15
HETATM   15  C13 UNL     1      -2.672  -0.148   0.167  1.00  0.00     0.009 C 
HETATM   16  C14 UNL     1      -2.250  -1.300   1.104  1.00  0.00     0.058 C 
HETATM   17  C17 UNL     1      -3.416  -2.282   1.313  1.00  0.00     0.294 C 
HETATM   18  N2  UNL     1      -3.935  -2.786   0.045  1.00  0.00     0.339 N 
HETATM   19  C18 UNL     1      -4.410  -1.717  -0.830  1.00  0.00     0.290 C 
HETATM   20  C19 UNL     1      -3.299  -0.700  -1.127  1.00  0.00     0.038 C 
BRANCH  16  21
HETATM   21  C15 UNL     1      -1.031  -2.054   0.624  1.00  0.00    -0.024 C 
HETATM   22  C16 UNL     1      -0.016  -2.403   1.428  1.00  0.00    -0.005 C 
ENDBRANCH  16  21
ENDBRANCH  14  15
ENDBRANCH  13  14
ENDBRANCH  11  13
ENDBRANCH   7  11
BRANCH   1  23
HETATM   23  O2  UNL     1       2.394  -1.698  -0.779  1.00  0.00    -0.328 OA
HETATM   24  C20 UNL     1       3.181  -2.594  -1.528  1.00  0.00     0.181 C 
ENDBRANCH   1  23
TORSDOF 6
