REMARK  4 active torsions:
REMARK  status: ('A' for Active; 'I' for Inactive)
REMARK    1  A    between atoms: C2_2  and  O5_35 
REMARK    2  A    between atoms: C11_11  and  C26_28 
REMARK    3  A    between atoms: C16_16  and  C25_25 
REMARK    4  A    between atoms: O5_35  and  C31_36 
ROOT
HETATM    1  C1  UNL     1      -1.530   1.798   0.008  1.00  0.00     0.030 C 
HETATM    2  C2  UNL     1      -1.750   1.236   1.413  1.00  0.00     0.118 C 
HETATM    3  C3  UNL     1      -0.642   0.218   1.791  1.00  0.00     0.025 C 
HETATM    4  C4  UNL     1       0.778   0.854   1.581  1.00  0.00     0.002 C 
HETATM    5  C5  UNL     1       1.077   1.640   0.267  1.00  0.00     0.001 C 
HETATM    6  C6  UNL     1      -0.172   2.489  -0.115  1.00  0.00     0.003 C 
HETATM    7  C7  UNL     1       1.534   0.657  -0.871  1.00  0.00     0.005 C 
HETATM    8  C8  UNL     1       2.602  -0.443  -0.560  1.00  0.00     0.013 C 
HETATM    9  C9  UNL     1       2.369  -1.044   0.846  1.00  0.00     0.001 C 
HETATM   10  C10 UNL     1       1.986  -0.039   1.934  1.00  0.00     0.000 C 
HETATM   11  C11 UNL     1       2.556  -1.587  -1.666  1.00  0.00     0.096 C 
HETATM   12  C12 UNL     1       2.453  -1.009  -3.075  1.00  0.00    -0.025 C 
HETATM   13  C13 UNL     1       2.195   0.297  -3.281  1.00  0.00    -0.030 C 
HETATM   14  C14 UNL     1       1.925   1.318  -2.207  1.00  0.00     0.026 C 
HETATM   15  C15 UNL     1       2.389  -1.975  -4.260  1.00  0.00    -0.039 C 
HETATM   16  C16 UNL     1       1.952  -3.420  -3.898  1.00  0.00     0.093 C 
HETATM   17  C17 UNL     1       0.837  -3.229  -2.848  1.00  0.00     0.015 C 
HETATM   18  C18 UNL     1       1.339  -2.554  -1.553  1.00  0.00     0.015 C 
HETATM   19  C19 UNL     1       1.421  -4.102  -5.178  1.00  0.00     0.014 C 
HETATM   20  C20 UNL     1       2.467  -4.051  -6.304  1.00  0.00     0.001 C 
HETATM   21  C21 UNL     1       2.823  -2.603  -6.686  1.00  0.00     0.004 C 
HETATM   22  C22 UNL     1       3.320  -1.766  -5.479  1.00  0.00     0.018 C 
HETATM   23  C23 UNL     1       4.824  -1.888  -5.201  1.00  0.00     0.004 C 
HETATM   24  C24 UNL     1       3.779  -2.582  -7.891  1.00  0.00     0.000 C 
HETATM   25  C27 UNL     1       4.030   0.176  -0.539  1.00  0.00     0.001 C 
HETATM   26  C28 UNL     1       2.139   2.745   0.554  1.00  0.00     0.000 C 
HETATM   27  C29 UNL     1      -0.968  -1.081   1.019  1.00  0.00     0.002 C 
HETATM   28  C30 UNL     1      -0.799  -0.196   3.283  1.00  0.00     0.002 C 
ENDROOT
BRANCH   2  29
HETATM   29  O5  UNL     1      -1.786   2.256   2.378  1.00  0.00    -0.332 OA
BRANCH  29  30
HETATM   30  C31 UNL     1      -3.070   2.770   2.687  1.00  0.00     0.270 C 
HETATM   31  O6  UNL     1      -2.706   3.762   3.641  1.00  0.00    -0.329 OA
HETATM   32  C32 UNL     1      -3.778   4.493   4.190  1.00  0.00     0.148 C 
HETATM   33  C33 UNL     1      -4.931   3.570   4.551  1.00  0.00     0.175 C 
HETATM   34  C39 UNL     1      -3.245   5.285   5.385  1.00  0.00     0.035 C 
HETATM   35  C34 UNL     1      -4.427   2.163   4.659  1.00  0.00     0.183 C 
HETATM   36  O9  UNL     1      -5.518   3.704   5.806  1.00  0.00    -0.332 OA
HETATM   37  C35 UNL     1      -3.989   1.709   3.292  1.00  0.00     0.238 C 
HETATM   38  O8  UNL     1      -5.537   1.516   5.174  1.00  0.00    -0.332 OA
HETATM   39  O7  UNL     1      -5.122   1.544   2.473  1.00  0.00    -0.215 OA
HETATM   40  C36 UNL     1      -6.074   2.434   6.106  1.00  0.00     0.188 C 
HETATM   41  C37 UNL     1      -5.675   2.026   7.519  1.00  0.00     0.061 C 
HETATM   42  C38 UNL     1      -7.587   2.470   5.957  1.00  0.00     0.061 C 
ENDBRANCH  29  30
ENDBRANCH   2  29
BRANCH  11  43
HETATM   43  C26 UNL     1       3.890  -2.344  -1.558  1.00  0.00     0.188 C 
HETATM   44  O3  UNL     1       4.943  -2.018  -2.054  1.00  0.00    -0.647 OA
HETATM   45  O4  UNL     1       3.842  -3.450  -0.792  1.00  0.00    -0.647 OA
ENDBRANCH  11  43
BRANCH  16  46
HETATM   46  C25 UNL     1       3.010  -4.379  -3.352  1.00  0.00     0.188 C 
HETATM   47  O1  UNL     1       4.205  -4.348  -3.505  1.00  0.00    -0.647 OA
HETATM   48  O2  UNL     1       2.477  -5.371  -2.612  1.00  0.00    -0.647 OA
ENDBRANCH  16  46
TORSDOF 4
