REMARK  11 active torsions:
REMARK  status: ('A' for Active; 'I' for Inactive)
REMARK    1  A    between atoms: C2_2  and  O5_35 
REMARK    2  A    between atoms: C15_16  and  C18_19 
REMARK    3  A    between atoms: C18_19  and  C20_22 
REMARK    4  A    between atoms: C20_22  and  C21_23 
REMARK    5  A    between atoms: C21_23  and  C22_24 
REMARK    6  A    between atoms: C22_24  and  C23_25 
REMARK    7  A    between atoms: O5_35  and  C31_36 
REMARK    8  A    between atoms: C32_38  and  C42_56 
REMARK    9  A    between atoms: C35_41  and  O7_42 
REMARK   10  A    between atoms: O7_42  and  C36_43 
REMARK   11  A    between atoms: C37_45  and  C41_52 
ROOT
HETATM    1  C1  UNL     1      -1.082   0.270  -2.877  1.00  0.00     0.030 C 
HETATM    2  C2  UNL     1      -1.816  -0.746  -2.005  1.00  0.00     0.118 C 
HETATM    3  C3  UNL     1      -0.835  -1.895  -1.658  1.00  0.00     0.025 C 
HETATM    4  C4  UNL     1       0.598  -1.329  -1.317  1.00  0.00     0.002 C 
HETATM    5  C5  UNL     1       0.747   0.199  -1.014  1.00  0.00     0.000 C 
HETATM    6  C6  UNL     1      -0.048   1.045  -2.054  1.00  0.00     0.003 C 
HETATM    7  C7  UNL     1       2.259   0.646  -1.073  1.00  0.00     0.003 C 
HETATM    8  C8  UNL     1       3.321  -0.417  -0.644  1.00  0.00     0.000 C 
HETATM    9  C9  UNL     1       3.118  -1.697  -1.499  1.00  0.00     0.000 C 
HETATM   10  C10 UNL     1       1.761  -1.774  -2.228  1.00  0.00     0.000 C 
HETATM   11  C11 UNL     1       4.761   0.176  -0.877  1.00  0.00     0.002 C 
HETATM   12  C12 UNL     1       4.873   1.468  -0.021  1.00  0.00     0.033 C 
HETATM   13  C13 UNL     1       3.995   2.553  -0.633  1.00  0.00     0.152 C 
HETATM   14  C14 UNL     1       2.536   2.074  -0.530  1.00  0.00     0.033 C 
HETATM   15  O1  UNL     1       4.131   3.774   0.048  1.00  0.00    -0.224 OA
HETATM   16  C15 UNL     1       6.358   1.625   0.348  1.00  0.00     0.031 C 
HETATM   17  C16 UNL     1       6.721   0.152   0.641  1.00  0.00     0.003 C 
HETATM   18  C17 UNL     1       5.946  -0.695  -0.380  1.00  0.00     0.000 C 
HETATM   19  C26 UNL     1       5.092   0.475  -2.373  1.00  0.00     0.000 C 
HETATM   20  C27 UNL     1       3.131  -0.812   0.850  1.00  0.00     0.000 C 
HETATM   21  C28 UNL     1       0.147   0.497   0.389  1.00  0.00     0.000 C 
HETATM   22  C29 UNL     1      -1.343  -2.699  -0.428  1.00  0.00     0.002 C 
HETATM   23  C30 UNL     1      -0.810  -2.936  -2.808  1.00  0.00     0.002 C 
ENDROOT
BRANCH   2  24
HETATM   24  O5  UNL     1      -2.974  -1.145  -2.694  1.00  0.00    -0.332 OA
BRANCH  24  25
HETATM   25  C31 UNL     1      -4.072  -1.489  -1.877  1.00  0.00     0.267 C 
HETATM   26  O6  UNL     1      -4.665  -2.659  -2.400  1.00  0.00    -0.326 OA
HETATM   27  C32 UNL     1      -5.394  -2.524  -3.591  1.00  0.00     0.184 C 
HETATM   28  C33 UNL     1      -6.376  -1.359  -3.557  1.00  0.00     0.215 C 
HETATM   29  C34 UNL     1      -5.776  -0.078  -3.018  1.00  0.00     0.217 C 
HETATM   30  O14 UNL     1      -7.494  -1.699  -2.762  1.00  0.00    -0.218 OA
HETATM   31  C35 UNL     1      -5.051  -0.347  -1.708  1.00  0.00     0.207 C 
HETATM   32  O13 UNL     1      -4.893   0.491  -3.958  1.00  0.00    -0.218 OA
BRANCH  27  33
HETATM   33  C42 UNL     1      -4.511  -2.559  -4.834  1.00  0.00     0.214 C 
HETATM   34  O15 UNL     1      -3.803  -3.782  -4.888  1.00  0.00    -0.218 OA
ENDBRANCH  27  33
BRANCH  31  35
HETATM   35  O7  UNL     1      -6.017  -0.661  -0.736  1.00  0.00    -0.324 OA
BRANCH  35  36
HETATM   36  C36 UNL     1      -5.620  -0.509   0.611  1.00  0.00     0.270 C 
HETATM   37  O8  UNL     1      -5.163  -1.740   1.129  1.00  0.00    -0.326 OA
HETATM   38  C37 UNL     1      -6.124  -2.716   1.435  1.00  0.00     0.184 C 
HETATM   39  C38 UNL     1      -7.284  -2.174   2.257  1.00  0.00     0.215 C 
HETATM   40  C39 UNL     1      -7.865  -0.894   1.688  1.00  0.00     0.220 C 
HETATM   41  O11 UNL     1      -6.816  -1.910   3.561  1.00  0.00    -0.218 OA
HETATM   42  C40 UNL     1      -6.744   0.090   1.429  1.00  0.00     0.241 C 
HETATM   43  O10 UNL     1      -8.548  -1.165   0.488  1.00  0.00    -0.218 OA
HETATM   44  O9  UNL     1      -6.231   0.549   2.660  1.00  0.00    -0.215 OA
BRANCH  38  45
HETATM   45  C41 UNL     1      -6.518  -3.554   0.226  1.00  0.00     0.214 C 
HETATM   46  O12 UNL     1      -7.256  -4.684   0.646  1.00  0.00    -0.218 OA
ENDBRANCH  38  45
ENDBRANCH  35  36
ENDBRANCH  31  35
ENDBRANCH  24  25
ENDBRANCH   2  24
BRANCH  16  47
HETATM   47  C18 UNL     1       6.778   2.606   1.469  1.00  0.00     0.127 C 
HETATM   48  O2  UNL     1       6.867   3.875   0.860  1.00  0.00    -0.226 OA
HETATM   49  C19 UNL     1       8.198   2.294   1.968  1.00  0.00     0.033 C 
BRANCH  47  50
HETATM   50  C20 UNL     1       5.840   2.807   2.676  1.00  0.00     0.033 C 
BRANCH  50  51
HETATM   51  C21 UNL     1       5.420   1.609   3.542  1.00  0.00     0.038 C 
BRANCH  51  52
HETATM   52  C22 UNL     1       4.697   1.974   4.849  1.00  0.00     0.180 C 
HETATM   53  O4  UNL     1       4.320   0.765   5.471  1.00  0.00    -0.221 OA
BRANCH  52  54
HETATM   54  C23 UNL     1       3.470   2.893   4.777  1.00  0.00     0.155 C 
HETATM   55  C24 UNL     1       2.452   2.469   3.716  1.00  0.00     0.036 C 
HETATM   56  C25 UNL     1       2.769   2.987   6.140  1.00  0.00     0.036 C 
HETATM   57  O3  UNL     1       3.897   4.198   4.480  1.00  0.00    -0.223 OA
ENDBRANCH  52  54
ENDBRANCH  51  52
ENDBRANCH  50  51
ENDBRANCH  47  50
ENDBRANCH  16  47
TORSDOF 11
