REMARK  1 active torsions:
REMARK  status: ('A' for Active; 'I' for Inactive)
REMARK    1  A    between atoms: C5_5  and  C18_23 
ROOT
HETATM    1  C1  UNL     1       2.787  -1.502  -1.495  1.00  0.00     0.033 C 
HETATM    2  C2  UNL     1       3.650  -0.398  -0.878  1.00  0.00     0.003 C 
HETATM    3  C3  UNL     1       2.881   0.912  -0.585  1.00  0.00     0.000 C 
HETATM    4  C4  UNL     1       1.529   0.567   0.117  1.00  0.00     0.007 C 
HETATM    5  C5  UNL     1       0.595  -0.546  -0.497  1.00  0.00     0.060 C 
HETATM    6  C6  UNL     1       1.538  -1.775  -0.655  1.00  0.00     0.154 C 
HETATM    7  O1  UNL     1       0.898  -2.901  -1.205  1.00  0.00    -0.223 OA
HETATM    8  C7  UNL     1      -0.577  -0.844   0.532  1.00  0.00     0.019 C 
HETATM    9  C8  UNL     1      -1.245   0.385   1.218  1.00  0.00     0.112 C 
HETATM   10  C9  UNL     1      -0.179   1.343   1.736  1.00  0.00     0.161 C 
HETATM   11  C10 UNL     1       0.735   1.795   0.609  1.00  0.00     0.034 C 
HETATM   12  O2  UNL     1      -0.773   2.423   2.411  1.00  0.00    -0.223 OA
HETATM   13  C11 UNL     1      -2.373   0.972   0.351  1.00  0.00     0.168 C 
HETATM   14  C12 UNL     1      -3.466  -0.098   0.444  1.00  0.00     0.086 C 
HETATM   15  C13 UNL     1      -3.031  -1.356  -0.300  1.00  0.00     0.159 C 
HETATM   16  C14 UNL     1      -1.670  -1.887   0.170  1.00  0.00     0.034 C 
HETATM   17  O3  UNL     1      -3.008  -1.092  -1.681  1.00  0.00    -0.223 OA
HETATM   18  C15 UNL     1      -3.438  -0.361   1.925  1.00  0.00     0.017 C 
HETATM   19  C16 UNL     1      -2.092  -0.033   2.427  1.00  0.00     0.173 C 
HETATM   20  O4  UNL     1      -1.749   0.118   3.592  1.00  0.00    -0.291 OA
HETATM   21  C17 UNL     1      -4.446  -0.808   2.694  1.00  0.00    -0.002 C 
HETATM   22  O5  UNL     1      -2.879   2.162   0.911  1.00  0.00    -0.223 OA
HETATM   23  C19 UNL     1       3.793   1.733   0.372  1.00  0.00     0.000 C 
HETATM   24  C20 UNL     1       2.762   1.769  -1.864  1.00  0.00     0.000 C 
ENDROOT
BRANCH   5  25
HETATM   25  C18 UNL     1       0.080  -0.088  -1.873  1.00  0.00     0.185 C 
HETATM   26  O6  UNL     1      -0.713  -1.046  -2.539  1.00  0.00    -0.221 OA
ENDBRANCH   5  25
TORSDOF 1
