REMARK  6 active torsions:
REMARK  status: ('A' for Active; 'I' for Inactive)
REMARK    1  A    between atoms: C3_4  and  C20_26 
REMARK    2  A    between atoms: C4_5  and  C17_21 
REMARK    3  A    between atoms: C17_21  and  O5_22 
REMARK    4  A    between atoms: O5_22  and  C18_23 
REMARK    5  A    between atoms: C20_26  and  O7_27 
REMARK    6  A    between atoms: O7_27  and  C21_28 
ROOT
HETATM    1  O1  UNL     1      -3.064  -0.168  -0.084  1.00  0.00    -0.356 OA
HETATM    2  C1  UNL     1      -2.800  -1.531   0.053  1.00  0.00     0.142 C 
HETATM    3  C2  UNL     1      -1.647  -1.813   1.024  1.00  0.00     0.030 C 
HETATM    4  C3  UNL     1      -0.401  -0.943   0.672  1.00  0.00     0.037 C 
HETATM    5  C4  UNL     1      -0.569  -0.001  -0.557  1.00  0.00     0.059 C 
HETATM    6  C5  UNL     1      -1.974   0.642  -0.437  1.00  0.00     0.125 C 
HETATM    7  C6  UNL     1      -2.369   1.493  -1.652  1.00  0.00     0.095 C 
HETATM    8  C7  UNL     1      -1.175   2.209  -2.258  1.00  0.00     0.159 C 
HETATM    9  C8  UNL     1      -0.055   2.519  -1.280  1.00  0.00     0.109 C 
HETATM   10  C9  UNL     1       0.438   1.246  -0.530  1.00  0.00     0.049 C 
HETATM   11  C10 UNL     1       1.274   1.629   0.730  1.00  0.00     0.153 C 
HETATM   12  C11 UNL     1       0.977   2.982   1.385  1.00  0.00     0.037 C 
HETATM   13  C12 UNL     1       0.669   4.095   0.376  1.00  0.00     0.029 C 
HETATM   14  C13 UNL     1      -0.590   3.649  -0.369  1.00  0.00     0.019 C 
HETATM   15  C14 UNL     1       1.642   4.141  -0.773  1.00  0.00     0.013 C 
HETATM   16  C15 UNL     1       1.199   3.213  -1.836  1.00  0.00     0.175 C 
HETATM   17  O2  UNL     1       1.756   2.979  -2.901  1.00  0.00    -0.291 OA
HETATM   18  C16 UNL     1       2.763   4.879  -0.846  1.00  0.00    -0.002 C 
HETATM   19  O3  UNL     1       2.644   1.648   0.375  1.00  0.00    -0.223 OA
HETATM   20  O4  UNL     1      -1.165   2.579  -3.410  1.00  0.00    -0.296 OA
HETATM   21  C23 UNL     1      -1.396  -3.339   1.021  1.00  0.00     0.003 C 
HETATM   22  C24 UNL     1      -2.134  -1.476   2.461  1.00  0.00     0.003 C 
ENDROOT
BRANCH   4  23
HETATM   23  C20 UNL     1       0.965  -1.647   0.740  1.00  0.00     0.152 C 
BRANCH  23  24
HETATM   24  O7  UNL     1       1.331  -1.817   2.086  1.00  0.00    -0.302 OA
BRANCH  24  25
HETATM   25  C21 UNL     1       2.608  -2.213   2.337  1.00  0.00     0.272 C 
HETATM   26  C22 UNL     1       2.861  -2.241   3.830  1.00  0.00     0.106 C 
HETATM   27  O8  UNL     1       3.431  -2.478   1.491  1.00  0.00    -0.264 OA
ENDBRANCH  24  25
ENDBRANCH  23  24
ENDBRANCH   4  23
BRANCH   5  28
HETATM   28  C17 UNL     1      -0.364  -0.752  -1.920  1.00  0.00     0.154 C 
BRANCH  28  29
HETATM   29  O5  UNL     1      -0.468  -2.147  -1.831  1.00  0.00    -0.302 OA
BRANCH  29  30
HETATM   30  C18 UNL     1      -0.403  -2.854  -2.994  1.00  0.00     0.272 C 
HETATM   31  C19 UNL     1      -0.576  -4.335  -2.723  1.00  0.00     0.106 C 
HETATM   32  O6  UNL     1      -0.242  -2.371  -4.092  1.00  0.00    -0.264 OA
ENDBRANCH  29  30
ENDBRANCH  28  29
ENDBRANCH   5  28
TORSDOF 6
