REMARK  1 active torsions:
REMARK  status: ('A' for Active; 'I' for Inactive)
REMARK    1  A    between atoms: C2_2  and  C7_13 
ROOT
HETATM    1  C1  UNL     1       0.037   1.574   1.636  1.00  0.00     0.118 A 
HETATM    2  C2  UNL     1       0.885   1.680   0.488  1.00  0.00     0.112 A 
HETATM    3  N1  UNL     1       0.862   0.758  -0.436  1.00  0.00    -0.239 NA
HETATM    4  C3  UNL     1       0.006  -0.293  -0.273  1.00  0.00     0.162 A 
HETATM    5  C4  UNL     1      -0.834  -0.388   0.861  1.00  0.00     0.202 A 
HETATM    6  N2  UNL     1      -0.795   0.585   1.832  1.00  0.00    -0.222 NA
HETATM    7  N3  UNL     1      -1.688  -1.446   0.988  1.00  0.00    -0.037 NA
HETATM    8  C5  UNL     1      -1.725  -2.389   0.029  1.00  0.00     0.772 A 
HETATM    9  N4  UNL     1      -0.913  -2.330  -1.091  1.00  0.00    -0.029 NA
HETATM   10  C6  UNL     1      -0.071  -1.326  -1.253  1.00  0.00     0.251 A 
HETATM   11  O1  UNL     1       0.686  -1.354  -2.382  1.00  0.00    -0.167 OA
HETATM   12  N5  UNL     1      -2.593  -3.443   0.159  1.00  0.00     0.062 N 
ENDROOT
BRANCH   2  13
HETATM   13  C7  UNL     1       1.821   2.847   0.300  1.00  0.00     0.229 C 
HETATM   14  O2  UNL     1       2.570   2.782  -0.908  1.00  0.00    -0.214 OA
ENDBRANCH   2  13
TORSDOF 1
