REMARK  6 active torsions:
REMARK  status: ('A' for Active; 'I' for Inactive)
REMARK    1  A    between atoms: C16_18  and  C19_21 
REMARK    2  A    between atoms: C19_21  and  C21_23 
REMARK    3  A    between atoms: C21_23  and  C22_24 
REMARK    4  A    between atoms: C22_24  and  C23_25 
REMARK    5  A    between atoms: C23_25  and  C24_26 
REMARK    6  A    between atoms: C24_26  and  C25_27 
ROOT
HETATM    1  C1  UNL     1      -5.771  -0.920  -1.655  1.00  0.00     0.033 C 
HETATM    2  C2  UNL     1      -6.503  -1.841  -0.690  1.00  0.00     0.152 C 
HETATM    3  C3  UNL     1      -5.550  -2.675   0.170  1.00  0.00     0.033 C 
HETATM    4  C4  UNL     1      -4.110  -2.119   0.241  1.00  0.00     0.005 C 
HETATM    5  C5  UNL     1      -4.045  -0.571   0.296  1.00  0.00     0.000 C 
HETATM    6  C6  UNL     1      -4.777   0.018  -0.948  1.00  0.00     0.003 C 
HETATM    7  C7  UNL     1      -2.554  -0.072   0.373  1.00  0.00     0.005 C 
HETATM    8  C8  UNL     1      -1.521  -1.165   0.023  1.00  0.00     0.031 C 
HETATM    9  C9  UNL     1      -1.951  -2.001  -1.178  1.00  0.00     0.152 C 
HETATM   10  C10 UNL     1      -3.229  -2.772  -0.849  1.00  0.00     0.033 C 
HETATM   11  O1  UNL     1      -2.156  -1.192  -2.312  1.00  0.00    -0.224 OA
HETATM   12  C11 UNL     1      -0.069  -0.653  -0.063  1.00  0.00     0.005 C 
HETATM   13  C12 UNL     1       0.422   0.112   1.190  1.00  0.00     0.028 C 
HETATM   14  C13 UNL     1      -0.658   1.135   1.628  1.00  0.00     0.152 C 
HETATM   15  C14 UNL     1      -2.088   0.582   1.694  1.00  0.00     0.033 C 
HETATM   16  O2  UNL     1      -0.684   2.276   0.797  1.00  0.00    -0.224 OA
HETATM   17  C15 UNL     1       0.586  -0.895   2.348  1.00  0.00     0.003 C 
HETATM   18  C16 UNL     1       1.734   0.843   0.729  1.00  0.00     0.002 C 
HETATM   19  C17 UNL     1       1.554   0.957  -0.808  1.00  0.00     0.000 C 
HETATM   20  C18 UNL     1       0.250   0.275  -1.235  1.00  0.00     0.000 C 
HETATM   21  C26 UNL     1      -4.837  -0.101   1.547  1.00  0.00     0.000 C 
HETATM   22  O5  UNL     1      -7.354  -2.698  -1.415  1.00  0.00    -0.224 OA
ENDROOT
BRANCH  18  23
HETATM   23  C19 UNL     1       3.175   0.349   1.079  1.00  0.00     0.000 C 
HETATM   24  C20 UNL     1       3.417   0.021   2.574  1.00  0.00     0.000 C 
BRANCH  23  25
HETATM   25  C21 UNL     1       4.293   1.389   0.754  1.00  0.00     0.003 C 
BRANCH  25  26
HETATM   26  C22 UNL     1       4.499   1.897  -0.682  1.00  0.00     0.033 C 
BRANCH  26  27
HETATM   27  C23 UNL     1       5.779   2.721  -0.888  1.00  0.00     0.155 C 
HETATM   28  O4  UNL     1       5.918   3.641   0.172  1.00  0.00    -0.223 OA
BRANCH  27  29
HETATM   29  C24 UNL     1       7.068   1.905  -1.009  1.00  0.00     0.069 C 
BRANCH  29  30
HETATM   30  C25 UNL     1       7.210   1.211  -2.362  1.00  0.00     0.185 C 
HETATM   31  O3  UNL     1       8.453   0.540  -2.421  1.00  0.00    -0.221 OA
ENDBRANCH  29  30
ENDBRANCH  27  29
ENDBRANCH  26  27
ENDBRANCH  25  26
ENDBRANCH  23  25
ENDBRANCH  18  23
TORSDOF 6
