REMARK  3 active torsions:
REMARK  status: ('A' for Active; 'I' for Inactive)
REMARK    1  A    between atoms: C5_5  and  O1_9 
REMARK    2  A    between atoms: O1_9  and  C9_10 
REMARK    3  A    between atoms: C9_10  and  C10_12 
ROOT
HETATM    1  C1  UNL     1      -2.006   1.121  -0.443  1.00  0.00     0.026 C 
HETATM    2  C2  UNL     1      -2.063  -0.404  -0.712  1.00  0.00     0.062 C 
HETATM    3  C3  UNL     1      -0.886  -1.187  -0.117  1.00  0.00     0.134 C 
HETATM    4  C4  UNL     1       0.458  -0.838  -0.800  1.00  0.00     0.084 C 
HETATM    5  C5  UNL     1       1.298   0.229  -0.090  1.00  0.00     0.135 C 
HETATM    6  C6  UNL     1       0.441   1.392   0.424  1.00  0.00     0.053 C 
HETATM    7  C7  UNL     1      -0.652   1.795  -0.541  1.00  0.00    -0.042 C 
HETATM    8  C8  UNL     1      -0.409   2.732  -1.474  1.00  0.00    -0.009 C 
HETATM    9  C13 UNL     1       1.114  -2.186  -0.932  1.00  0.00     0.045 C 
HETATM   10  C14 UNL     1       0.038  -3.154  -0.671  1.00  0.00     0.292 C 
HETATM   11  O4  UNL     1      -1.111  -2.571  -0.253  1.00  0.00    -0.301 OA
HETATM   12  O5  UNL     1       0.154  -4.364  -0.837  1.00  0.00    -0.260 OA
HETATM   13  C15 UNL     1       2.379  -2.514  -1.249  1.00  0.00     0.001 C 
HETATM   14  C16 UNL     1      -3.433  -0.712  -0.125  1.00  0.00     0.150 A 
HETATM   15  C17 UNL     1      -3.865   0.305   0.910  1.00  0.00     0.180 C 
HETATM   16  C18 UNL     1      -2.730   1.334   0.904  1.00  0.00     0.040 C 
HETATM   17  O6  UNL     1      -3.988  -0.282   2.192  1.00  0.00    -0.221 OA
HETATM   18  O7  UNL     1      -3.849  -2.219   0.187  1.00  0.00    -0.351 OA
HETATM   19  C19 UNL     1      -4.398  -1.471  -0.867  1.00  0.00     0.172 A 
ENDROOT
BRANCH   5  20
HETATM   20  O1  UNL     1       2.237   0.734  -0.999  1.00  0.00    -0.302 OA
BRANCH  20  21
HETATM   21  C9  UNL     1       3.504   1.113  -0.663  1.00  0.00     0.299 C 
HETATM   22  O2  UNL     1       4.248   1.656  -1.452  1.00  0.00    -0.262 OA
BRANCH  21  23
HETATM   23  C10 UNL     1       3.982   0.801   0.689  1.00  0.00     0.197 A 
HETATM   24  C11 UNL     1       3.628   1.735   1.835  1.00  0.00     0.043 C 
HETATM   25  O3  UNL     1       4.108  -0.737   1.110  1.00  0.00    -0.344 OA
HETATM   26  C12 UNL     1       5.215   0.063   0.782  1.00  0.00     0.180 A 
ENDBRANCH  21  23
ENDBRANCH  20  21
ENDBRANCH   5  20
TORSDOF 3
