REMARK  2 active torsions:
REMARK  status: ('A' for Active; 'I' for Inactive)
REMARK    1  A    between atoms: C5_5  and  C7_8 
REMARK    2  A    between atoms: C11_13  and  C19_23 
ROOT
HETATM    1  C1  UNL     1      -0.287   1.277   1.020  1.00  0.00     0.032 C 
HETATM    2  C2  UNL     1      -0.492   0.383  -0.222  1.00  0.00     0.139 C 
HETATM    3  C3  UNL     1       0.829  -0.311  -0.590  1.00  0.00     0.083 C 
HETATM    4  C4  UNL     1       1.890   0.736  -0.973  1.00  0.00     0.190 C 
HETATM    5  C5  UNL     1       2.046   1.884   0.036  1.00  0.00     0.170 C 
HETATM    6  C6  UNL     1       1.205   1.597   1.287  1.00  0.00     0.040 C 
HETATM    7  O1  UNL     1       1.542   3.065  -0.553  1.00  0.00    -0.219 OA
HETATM    8  O2  UNL     1       1.572   1.273  -2.240  1.00  0.00    -0.220 OA
HETATM    9  C10 UNL     1       0.682  -1.385  -1.647  1.00  0.00    -0.027 C 
HETATM   10  C11 UNL     1       0.009  -2.549  -1.559  1.00  0.00    -0.013 C 
HETATM   11  C12 UNL     1      -0.824  -3.030  -0.386  1.00  0.00     0.063 C 
HETATM   12  C13 UNL     1      -1.294  -1.968   0.604  1.00  0.00     0.191 C 
HETATM   13  C14 UNL     1      -1.629  -0.643  -0.101  1.00  0.00     0.086 C 
HETATM   14  C15 UNL     1      -2.935  -0.227   0.523  1.00  0.00    -0.022 C 
HETATM   15  C16 UNL     1      -3.493  -1.178   1.288  1.00  0.00     0.011 C 
HETATM   16  C17 UNL     1      -2.586  -2.340   1.325  1.00  0.00     0.197 C 
HETATM   17  O3  UNL     1      -2.732  -3.386   1.938  1.00  0.00    -0.289 OA
HETATM   18  C18 UNL     1      -4.816  -1.095   1.985  1.00  0.00     0.034 C 
HETATM   19  O4  UNL     1      -0.356  -1.844   1.648  1.00  0.00    -0.217 OA
HETATM   20  O6  UNL     1      -0.809   1.200  -1.322  1.00  0.00    -0.225 OA
HETATM   21  C20 UNL     1      -1.129   2.570   1.047  1.00  0.00     0.003 C 
ENDROOT
BRANCH   5  22
HETATM   22  C7  UNL     1       3.507   2.213   0.330  1.00  0.00    -0.014 C 
HETATM   23  C8  UNL     1       3.903   2.622   1.730  1.00  0.00     0.029 C 
HETATM   24  C9  UNL     1       4.422   2.258  -0.654  1.00  0.00    -0.007 C 
ENDBRANCH   5  22
BRANCH  10  25
HETATM   25  C19 UNL     1       0.032  -3.518  -2.723  1.00  0.00     0.204 C 
HETATM   26  O5  UNL     1      -1.227  -3.528  -3.384  1.00  0.00    -0.216 OA
ENDBRANCH  10  25
TORSDOF 2
