REMARK  3 active torsions:
REMARK  status: ('A' for Active; 'I' for Inactive)
REMARK    1  A    between atoms: C1_1  and  O3_19 
REMARK    2  A    between atoms: C8_9  and  C10_12 
REMARK    3  A    between atoms: O3_19  and  C17_20 
ROOT
HETATM    1  C1  UNL     1      -3.426   0.570  -0.062  1.00  0.00     0.105 A 
HETATM    2  C2  UNL     1      -3.266  -0.733   0.467  1.00  0.00     0.025 A 
HETATM    3  C3  UNL     1      -1.971  -1.268   0.658  1.00  0.00     0.007 A 
HETATM    4  C4  UNL     1      -0.834  -0.492   0.319  1.00  0.00     0.062 A 
HETATM    5  C5  UNL     1      -0.992   0.814  -0.211  1.00  0.00     0.105 A 
HETATM    6  C6  UNL     1      -2.291   1.342  -0.400  1.00  0.00     0.050 A 
HETATM    7  O1  UNL     1       0.092   1.553  -0.531  1.00  0.00    -0.311 OA
HETATM    8  C7  UNL     1       1.361   1.125  -0.381  1.00  0.00     0.081 A 
HETATM    9  C8  UNL     1       1.643  -0.108   0.115  1.00  0.00     0.058 A 
HETATM   10  C9  UNL     1       0.541  -1.026   0.510  1.00  0.00     0.199 A 
HETATM   11  O2  UNL     1       0.832  -2.117   0.946  1.00  0.00    -0.286 OA
HETATM   12  C16 UNL     1       2.482   2.055  -0.779  1.00  0.00     0.058 C 
ENDROOT
BRANCH   9  13
HETATM   13  C10 UNL     1       3.066  -0.559   0.274  1.00  0.00     0.005 A 
HETATM   14  C11 UNL     1       3.492  -1.764  -0.314  1.00  0.00     0.000 A 
HETATM   15  C12 UNL     1       4.824  -2.188  -0.168  1.00  0.00     0.000 A 
HETATM   16  C13 UNL     1       5.732  -1.406   0.569  1.00  0.00     0.000 A 
HETATM   17  C14 UNL     1       5.309  -0.201   1.156  1.00  0.00     0.000 A 
HETATM   18  C15 UNL     1       3.975   0.223   1.008  1.00  0.00     0.000 A 
ENDBRANCH   9  13
BRANCH   1  19
HETATM   19  O3  UNL     1      -4.656   1.074  -0.244  1.00  0.00    -0.276 OA
BRANCH  19  20
HETATM   20  C17 UNL     1      -5.627   0.267  -0.664  1.00  0.00     0.277 C 
HETATM   21  C18 UNL     1      -7.024   0.801  -0.484  1.00  0.00     0.107 C 
HETATM   22  O4  UNL     1      -5.434  -0.818  -1.156  1.00  0.00    -0.264 OA
ENDBRANCH  19  20
ENDBRANCH   1  19
TORSDOF 3
