REMARK  12 active torsions:
REMARK  status: ('A' for Active; 'I' for Inactive)
REMARK    1  A    between atoms: C23_23  and  O1_27 
REMARK    2  A    between atoms: O1_27  and  C27_28 
REMARK    3  A    between atoms: C30_31  and  O5_37 
REMARK    4  A    between atoms: C31_32  and  C32_34 
REMARK    5  A    between atoms: O5_37  and  C33_38 
REMARK    6  A    between atoms: C36_41  and  O8_46 
REMARK    7  A    between atoms: C37_42  and  C38_44 
REMARK    8  A    between atoms: O8_46  and  C39_47 
REMARK    9  A    between atoms: C42_50  and  O10_54 
REMARK   10  A    between atoms: O10_54  and  C45_55 
REMARK   11  A    between atoms: C46_56  and  O14_64 
REMARK   12  A    between atoms: O14_64  and  C51_65 
ROOT
HETATM    1  C27 UNL     1      -0.065  -1.955   2.586  1.00  0.00     0.270 C 
HETATM    2  C28 UNL     1      -1.088  -1.979   1.475  1.00  0.00     0.241 C 
HETATM    3  C29 UNL     1      -2.412  -2.574   1.896  1.00  0.00     0.217 C 
HETATM    4  C30 UNL     1      -2.906  -1.967   3.206  1.00  0.00     0.189 C 
HETATM    5  C31 UNL     1      -1.786  -2.002   4.255  1.00  0.00     0.234 C 
HETATM    6  O2  UNL     1      -0.587  -1.417   3.781  1.00  0.00    -0.318 OA
HETATM    7  O23 UNL     1      -2.241  -3.959   2.080  1.00  0.00    -0.218 OA
HETATM    8  O24 UNL     1      -1.279  -0.687   0.948  1.00  0.00    -0.215 OA
ENDROOT
BRANCH   4   9
HETATM    9  O5  UNL     1      -3.290  -0.622   3.096  1.00  0.00    -0.326 OA
BRANCH   9  10
HETATM   10  C33 UNL     1      -4.367  -0.329   2.233  1.00  0.00     0.270 C 
HETATM   11  C34 UNL     1      -5.627   0.109   2.952  1.00  0.00     0.241 C 
HETATM   12  C35 UNL     1      -5.671   1.581   3.312  1.00  0.00     0.217 C 
HETATM   13  O22 UNL     1      -6.745  -0.168   2.135  1.00  0.00    -0.215 OA
HETATM   14  C36 UNL     1      -5.117   2.468   2.209  1.00  0.00     0.181 C 
HETATM   15  O21 UNL     1      -7.004   1.932   3.600  1.00  0.00    -0.218 OA
HETATM   16  C37 UNL     1      -3.745   1.936   1.798  1.00  0.00     0.181 C 
HETATM   17  O6  UNL     1      -3.846   0.618   1.324  1.00  0.00    -0.326 OA
BRANCH  14  18
HETATM   18  O8  UNL     1      -5.919   2.432   1.062  1.00  0.00    -0.326 OA
BRANCH  18  19
HETATM   19  C39 UNL     1      -6.976   3.366   0.996  1.00  0.00     0.270 C 
HETATM   20  C40 UNL     1      -6.672   4.456   0.002  1.00  0.00     0.241 C 
HETATM   21  C41 UNL     1      -6.537   3.905  -1.402  1.00  0.00     0.217 C 
HETATM   22  O20 UNL     1      -7.715   5.402  -0.013  1.00  0.00    -0.215 OA
HETATM   23  C42 UNL     1      -7.719   3.010  -1.770  1.00  0.00     0.178 C 
HETATM   24  O19 UNL     1      -6.463   5.026  -2.249  1.00  0.00    -0.218 OA
HETATM   25  C43 UNL     1      -8.010   2.016  -0.637  1.00  0.00     0.148 C 
HETATM   26  O9  UNL     1      -8.121   2.637   0.617  1.00  0.00    -0.329 OA
HETATM   27  C44 UNL     1      -9.309   1.240  -0.879  1.00  0.00     0.035 C 
BRANCH  23  28
HETATM   28  O10 UNL     1      -7.432   2.240  -2.909  1.00  0.00    -0.326 OA
BRANCH  28  29
HETATM   29  C45 UNL     1      -7.410   2.910  -4.154  1.00  0.00     0.267 C 
HETATM   30  C46 UNL     1      -6.002   2.905  -4.736  1.00  0.00     0.207 C 
HETATM   31  C47 UNL     1      -5.602   1.465  -5.025  1.00  0.00     0.217 C 
HETATM   32  C48 UNL     1      -6.638   0.827  -5.927  1.00  0.00     0.212 C 
HETATM   33  O13 UNL     1      -4.350   1.395  -5.664  1.00  0.00    -0.218 OA
HETATM   34  C49 UNL     1      -8.014   0.909  -5.286  1.00  0.00     0.151 C 
HETATM   35  O12 UNL     1      -6.257  -0.511  -6.132  1.00  0.00    -0.218 OA
HETATM   36  O11 UNL     1      -8.342   2.238  -4.981  1.00  0.00    -0.329 OA
HETATM   37  C50 UNL     1      -9.103   0.361  -6.210  1.00  0.00     0.035 C 
BRANCH  30  38
HETATM   38  O14 UNL     1      -5.883   3.626  -5.932  1.00  0.00    -0.324 OA
BRANCH  38  39
HETATM   39  C51 UNL     1      -6.166   5.006  -5.861  1.00  0.00     0.270 C 
HETATM   40  C52 UNL     1      -5.104   5.805  -6.586  1.00  0.00     0.241 C 
HETATM   41  C53 UNL     1      -5.169   5.587  -8.081  1.00  0.00     0.220 C 
HETATM   42  O18 UNL     1      -5.282   7.180  -6.340  1.00  0.00    -0.215 OA
HETATM   43  C54 UNL     1      -6.588   5.787  -8.571  1.00  0.00     0.212 C 
HETATM   44  O17 UNL     1      -4.339   6.528  -8.717  1.00  0.00    -0.218 OA
HETATM   45  C55 UNL     1      -7.549   4.912  -7.782  1.00  0.00     0.151 C 
HETATM   46  O16 UNL     1      -6.614   5.464  -9.941  1.00  0.00    -0.218 OA
HETATM   47  O15 UNL     1      -7.455   5.194  -6.410  1.00  0.00    -0.329 OA
HETATM   48  C56 UNL     1      -9.001   5.134  -8.211  1.00  0.00     0.035 C 
ENDBRANCH  38  39
ENDBRANCH  30  38
ENDBRANCH  28  29
ENDBRANCH  23  28
ENDBRANCH  18  19
ENDBRANCH  14  18
BRANCH  16  49
HETATM   49  C38 UNL     1      -2.672   2.153   2.862  1.00  0.00     0.214 C 
HETATM   50  O7  UNL     1      -1.421   1.677   2.412  1.00  0.00    -0.218 OA
ENDBRANCH  16  49
ENDBRANCH   9  10
ENDBRANCH   4   9
BRANCH   5  51
HETATM   51  C32 UNL     1      -1.597  -3.318   5.005  1.00  0.00     0.216 C 
HETATM   52  O3  UNL     1      -0.567  -3.253   5.868  1.00  0.00    -0.646 OA
HETATM   53  O4  UNL     1      -2.296  -4.301   4.946  1.00  0.00    -0.646 OA
ENDBRANCH   5  51
BRANCH   1  54
HETATM   54  O1  UNL     1       0.431  -3.253   2.869  1.00  0.00    -0.332 OA
BRANCH  54  55
HETATM   55  C23 UNL     1       1.833  -3.388   2.897  1.00  0.00     0.118 C 
HETATM   56  C22 UNL     1       2.217  -4.375   4.003  1.00  0.00     0.030 C 
HETATM   57  C21 UNL     1       3.725  -4.258   4.267  1.00  0.00     0.003 C 
HETATM   58  C20 UNL     1       4.607  -4.637   3.034  1.00  0.00     0.000 C 
HETATM   59  C15 UNL     1       5.889  -3.722   2.860  1.00  0.00     0.000 C 
HETATM   60  C19 UNL     1       3.737  -4.719   1.740  1.00  0.00     0.002 C 
HETATM   61  C57 UNL     1       5.035  -6.095   3.412  1.00  0.00     0.000 C 
HETATM   62  C14 UNL     1       5.521  -2.245   3.144  1.00  0.00     0.002 C 
HETATM   63  C16 UNL     1       6.788  -3.871   1.574  1.00  0.00     0.002 C 
HETATM   64  C13 UNL     1       6.424  -1.164   2.557  1.00  0.00     0.027 C 
HETATM   65  C12 UNL     1       7.867  -1.643   2.501  1.00  0.00     0.093 C 
HETATM   66  C2  UNL     1       8.835  -0.458   2.448  1.00  0.00     0.030 C 
HETATM   67  C11 UNL     1       7.968  -2.761   1.421  1.00  0.00     0.025 C 
HETATM   68  O25 UNL     1       8.223  -2.206   3.745  1.00  0.00    -0.359 OA
HETATM   69  C1  UNL     1       8.956   0.624   1.380  1.00  0.00     0.003 C 
HETATM   70  C3  UNL     1      10.133  -1.177   2.809  1.00  0.00     0.058 C 
HETATM   71  C6  UNL     1       9.980   1.708   1.826  1.00  0.00     0.000 C 
HETATM   72  C5  UNL     1      10.801   1.283   3.075  1.00  0.00     0.000 C 
HETATM   73  C7  UNL     1       9.229   3.014   2.173  1.00  0.00     0.000 C 
HETATM   74  C8  UNL     1      10.943   2.017   0.657  1.00  0.00     0.000 C 
HETATM   75  C4  UNL     1      11.276  -0.179   3.060  1.00  0.00     0.005 C 
HETATM   76  C9  UNL     1      10.529  -2.269   1.803  1.00  0.00     0.154 C 
HETATM   77  C59 UNL     1       9.564  -1.870   4.053  1.00  0.00     0.144 C 
HETATM   78  C10 UNL     1       9.427  -3.310   1.558  1.00  0.00     0.035 C 
HETATM   79  O26 UNL     1      10.968  -1.714   0.585  1.00  0.00    -0.223 OA
HETATM   80  C60 UNL     1       7.934  -2.188  -0.023  1.00  0.00     0.002 C 
HETATM   81  C17 UNL     1       5.763  -3.844   0.405  1.00  0.00     0.000 C 
HETATM   82  C58 UNL     1       7.468  -5.266   1.516  1.00  0.00     0.000 C 
HETATM   83  C18 UNL     1       4.612  -4.856   0.481  1.00  0.00     0.000 C 
HETATM   84  C24 UNL     1       2.434  -3.860   1.545  1.00  0.00     0.025 C 
HETATM   85  C25 UNL     1       2.634  -2.628   0.629  1.00  0.00     0.002 C 
HETATM   86  C26 UNL     1       1.416  -4.779   0.801  1.00  0.00     0.002 C 
ENDBRANCH  54  55
ENDBRANCH   1  54
TORSDOF 12
