REMARK  9 active torsions:
REMARK  status: ('A' for Active; 'I' for Inactive)
REMARK    1  A    between atoms: C1_1  and  O16_44 
REMARK    2  A    between atoms: C2_2  and  O11_33 
REMARK    3  A    between atoms: C5_5  and  C7_7 
REMARK    4  A    between atoms: C7_7  and  O2_9 
REMARK    5  A    between atoms: O2_9  and  C8_10 
REMARK    6  A    between atoms: C15_18  and  O4_19 
REMARK    7  A    between atoms: O4_19  and  C16_20 
REMARK    8  A    between atoms: C20_24  and  C21_26 
REMARK    9  A    between atoms: O11_33  and  C23_34 
ROOT
HETATM    1  C8  UNL     1      -1.084   1.803   3.404  1.00  0.00     0.131 C 
HETATM    2  C9  UNL     1      -2.125   0.788   3.877  1.00  0.00     0.061 C 
HETATM    3  C10 UNL     1      -1.326  -0.427   4.390  1.00  0.00     0.134 C 
HETATM    4  C11 UNL     1       0.165  -0.038   4.296  1.00  0.00     0.092 C 
HETATM    5  C12 UNL     1       0.081   1.505   4.349  1.00  0.00     0.059 C 
HETATM    6  C13 UNL     1       1.381   2.123   3.929  1.00  0.00     0.003 C 
HETATM    7  C14 UNL     1       2.347   1.413   3.332  1.00  0.00     0.115 C 
HETATM    8  O3  UNL     1       2.219   0.100   2.991  1.00  0.00    -0.304 OA
HETATM    9  C15 UNL     1       0.919  -0.453   3.032  1.00  0.00     0.244 C 
HETATM   10  C22 UNL     1      -1.747  -1.716   3.692  1.00  0.00     0.033 C 
HETATM   11  O10 UNL     1      -1.629  -0.591   5.754  1.00  0.00    -0.226 OA
ENDROOT
BRANCH   1  12
HETATM   12  O2  UNL     1      -1.521   3.129   3.470  1.00  0.00    -0.301 OA
BRANCH  12  13
HETATM   13  C7  UNL     1      -1.458   3.944   2.356  1.00  0.00     0.296 C 
HETATM   14  O1  UNL     1      -1.268   5.123   2.586  1.00  0.00    -0.259 OA
BRANCH  13  15
HETATM   15  C5  UNL     1      -1.589   3.599   1.034  1.00  0.00     0.065 A 
HETATM   16  C4  UNL     1      -2.028   2.396   0.631  1.00  0.00     0.007 A 
HETATM   17  C3  UNL     1      -2.055   2.064  -0.664  1.00  0.00     0.026 A 
HETATM   18  C2  UNL     1      -1.673   2.919  -1.628  1.00  0.00     0.119 A 
HETATM   19  C1  UNL     1      -1.320   4.174  -1.266  1.00  0.00     0.117 A 
HETATM   20  C6  UNL     1      -1.299   4.477   0.051  1.00  0.00     0.032 A 
BRANCH  18  21
HETATM   21  O11 UNL     1      -1.641   2.540  -2.949  1.00  0.00    -0.302 OA
BRANCH  21  22
HETATM   22  C23 UNL     1      -0.985   1.314  -3.213  1.00  0.00     0.274 C 
HETATM   23  C24 UNL     1      -0.148   1.463  -4.462  1.00  0.00     0.241 C 
HETATM   24  C25 UNL     1       0.389   0.117  -4.897  1.00  0.00     0.220 C 
HETATM   25  O15 UNL     1      -0.943   1.989  -5.495  1.00  0.00    -0.215 OA
HETATM   26  C26 UNL     1      -0.720  -0.916  -4.942  1.00  0.00     0.212 C 
HETATM   27  O14 UNL     1       0.943   0.241  -6.184  1.00  0.00    -0.218 OA
HETATM   28  C27 UNL     1      -1.511  -0.922  -3.643  1.00  0.00     0.151 C 
HETATM   29  O13 UNL     1      -0.127  -2.173  -5.166  1.00  0.00    -0.218 OA
HETATM   30  O12 UNL     1      -2.010   0.363  -3.389  1.00  0.00    -0.329 OA
HETATM   31  C28 UNL     1      -2.694  -1.889  -3.696  1.00  0.00     0.035 C 
ENDBRANCH  21  22
ENDBRANCH  18  21
BRANCH  19  32
HETATM   32  O16 UNL     1      -0.978   5.047  -2.274  1.00  0.00    -0.326 OA
HETATM   33  C29 UNL     1      -0.655   6.381  -1.960  1.00  0.00     0.181 C 
ENDBRANCH  19  32
ENDBRANCH  13  15
ENDBRANCH  12  13
ENDBRANCH   1  12
BRANCH   9  34
HETATM   34  O4  UNL     1       1.140  -1.848   2.986  1.00  0.00    -0.304 OA
BRANCH  34  35
HETATM   35  C16 UNL     1       1.630  -2.298   1.732  1.00  0.00     0.272 C 
HETATM   36  C17 UNL     1       0.599  -3.178   1.070  1.00  0.00     0.241 C 
HETATM   37  C18 UNL     1       1.189  -3.866  -0.140  1.00  0.00     0.220 C 
HETATM   38  O9  UNL     1       0.169  -4.164   1.978  1.00  0.00    -0.215 OA
HETATM   39  C19 UNL     1       2.514  -4.515   0.213  1.00  0.00     0.215 C 
HETATM   40  O8  UNL     1       0.295  -4.865  -0.570  1.00  0.00    -0.218 OA
HETATM   41  C20 UNL     1       3.451  -3.560   0.945  1.00  0.00     0.184 C 
HETATM   42  O7  UNL     1       3.089  -4.995  -0.977  1.00  0.00    -0.218 OA
HETATM   43  O5  UNL     1       2.798  -3.016   2.063  1.00  0.00    -0.326 OA
BRANCH  41  44
HETATM   44  C21 UNL     1       4.084  -2.471   0.084  1.00  0.00     0.214 C 
HETATM   45  O6  UNL     1       5.225  -2.975  -0.583  1.00  0.00    -0.218 OA
ENDBRANCH  41  44
ENDBRANCH  34  35
ENDBRANCH   9  34
TORSDOF 9
