REMARK  4 active torsions:
REMARK  status: ('A' for Active; 'I' for Inactive)
REMARK    1  A    between atoms: C1_1  and  O7_23 
REMARK    2  A    between atoms: C2_2  and  O6_21 
REMARK    3  A    between atoms: C7_8  and  C10_12 
REMARK    4  A    between atoms: O7_23  and  C17_24 
ROOT
HETATM    1  C1  UNL     1       1.316  -1.530   0.734  1.00  0.00     0.123 A 
HETATM    2  C2  UNL     1       2.668  -1.639   0.704  1.00  0.00     0.142 A 
HETATM    3  C3  UNL     1       3.425  -0.520   0.579  1.00  0.00     0.160 A 
HETATM    4  C4  UNL     1       2.863   0.702   0.456  1.00  0.00     0.089 A 
HETATM    5  C5  UNL     1       1.528   0.830   0.481  1.00  0.00     0.107 A 
HETATM    6  C6  UNL     1       0.805  -0.290   0.627  1.00  0.00     0.051 A 
HETATM    7  O1  UNL     1       0.875   2.022   0.372  1.00  0.00    -0.307 OA
HETATM    8  C7  UNL     1       1.626   3.137   0.130  1.00  0.00     0.103 A 
HETATM    9  C8  UNL     1       2.968   3.016   0.122  1.00  0.00     0.067 A 
HETATM   10  C9  UNL     1       3.611   1.830   0.296  1.00  0.00     0.202 A 
HETATM   11  O2  UNL     1       4.823   1.844   0.268  1.00  0.00    -0.286 OA
HETATM   12  O5  UNL     1       4.784  -0.667   0.561  1.00  0.00    -0.188 OA
ENDROOT
BRANCH   1  13
HETATM   13  O7  UNL     1       0.519  -2.646   0.843  1.00  0.00    -0.301 OA
BRANCH  13  14
HETATM   14  C17 UNL     1      -0.883  -2.563   0.730  1.00  0.00     0.274 C 
HETATM   15  C18 UNL     1      -1.454  -3.949   0.936  1.00  0.00     0.241 C 
HETATM   16  C19 UNL     1      -2.932  -3.967   0.609  1.00  0.00     0.220 C 
HETATM   17  O11 UNL     1      -0.803  -4.848   0.070  1.00  0.00    -0.215 OA
HETATM   18  C20 UNL     1      -3.198  -3.321  -0.738  1.00  0.00     0.212 C 
HETATM   19  O10 UNL     1      -3.370  -5.303   0.558  1.00  0.00    -0.218 OA
HETATM   20  C21 UNL     1      -2.510  -1.967  -0.833  1.00  0.00     0.151 C 
HETATM   21  O9  UNL     1      -4.591  -3.184  -0.887  1.00  0.00    -0.218 OA
HETATM   22  O8  UNL     1      -1.141  -2.129  -0.587  1.00  0.00    -0.329 OA
HETATM   23  C22 UNL     1      -2.672  -1.326  -2.211  1.00  0.00     0.035 C 
ENDBRANCH  13  14
ENDBRANCH   1  13
BRANCH   2  24
HETATM   24  O6  UNL     1       3.383  -2.815   0.810  1.00  0.00    -0.324 OA
HETATM   25  C16 UNL     1       2.777  -4.051   1.097  1.00  0.00     0.182 C 
ENDBRANCH   2  24
BRANCH   8  26
HETATM   26  C10 UNL     1       0.992   4.317  -0.093  1.00  0.00     0.025 A 
HETATM   27  C11 UNL     1      -0.357   4.354  -0.056  1.00  0.00     0.032 A 
HETATM   28  C12 UNL     1      -1.083   5.463  -0.282  1.00  0.00     0.156 A 
HETATM   29  C13 UNL     1      -0.451   6.614  -0.563  1.00  0.00     0.156 A 
HETATM   30  O4  UNL     1      -2.443   5.443  -0.238  1.00  0.00    -0.188 OA
HETATM   31  C14 UNL     1       0.889   6.610  -0.602  1.00  0.00     0.030 A 
HETATM   32  O3  UNL     1      -1.162   7.746  -0.804  1.00  0.00    -0.188 OA
HETATM   33  C15 UNL     1       1.594   5.492  -0.370  1.00  0.00     0.004 A 
ENDBRANCH   8  26
TORSDOF 4
