REMARK  7 active torsions:
REMARK  status: ('A' for Active; 'I' for Inactive)
REMARK    1  A    between atoms: C8_9  and  C17_24 
REMARK    2  A    between atoms: C10_11  and  O2_12 
REMARK    3  A    between atoms: O2_12  and  C11_13 
REMARK    4  A    between atoms: C15_17  and  C16_19 
REMARK    5  A    between atoms: C18_28  and  O11_32 
REMARK    6  A    between atoms: O11_32  and  C22_33 
REMARK    7  A    between atoms: C26_37  and  C27_39 
ROOT
HETATM    1  C1  UNL     1       0.296   3.322   1.763  1.00  0.00     0.044 A 
HETATM    2  C2  UNL     1       0.340   1.978   1.888  1.00  0.00     0.065 A 
HETATM    3  C3  UNL     1       0.958   1.266   0.905  1.00  0.00     0.200 C 
HETATM    4  C4  UNL     1       1.374   1.861  -0.248  1.00  0.00     0.065 A 
HETATM    5  C5  UNL     1       1.284   3.200  -0.358  1.00  0.00     0.044 A 
HETATM    6  C6  UNL     1       0.778   3.952   0.656  1.00  0.00     0.196 C 
HETATM    7  O1  UNL     1       0.728   5.160   0.563  1.00  0.00    -0.287 OA
HETATM    8  C7  UNL     1       1.717   3.817  -1.475  1.00  0.00     0.009 A 
HETATM    9  C8  UNL     1       2.234   3.115  -2.495  1.00  0.00     0.067 A 
HETATM   10  C9  UNL     1       2.292   1.780  -2.373  1.00  0.00     0.030 A 
HETATM   11  C10 UNL     1       1.840   1.120  -1.288  1.00  0.00     0.100 A 
HETATM   12  O10 UNL     1       1.180   0.094   1.079  1.00  0.00    -0.286 OA
HETATM   13  C18 UNL     1      -0.241   1.363   2.957  1.00  0.00     0.100 A 
HETATM   14  C19 UNL     1      -0.735   2.167   3.921  1.00  0.00     0.024 A 
HETATM   15  C20 UNL     1      -0.724   3.502   3.844  1.00  0.00     0.002 A 
HETATM   16  C21 UNL     1      -0.229   4.079   2.745  1.00  0.00     0.003 A 
ENDROOT
BRANCH  11  17
HETATM   17  O2  UNL     1       1.966  -0.253  -1.291  1.00  0.00    -0.303 OA
BRANCH  17  18
HETATM   18  C11 UNL     1       0.764  -0.980  -1.447  1.00  0.00     0.274 C 
HETATM   19  C12 UNL     1       0.271  -1.073  -2.873  1.00  0.00     0.241 C 
HETATM   20  C13 UNL     1       1.075  -2.037  -3.721  1.00  0.00     0.220 C 
HETATM   21  O7  UNL     1      -1.070  -1.514  -2.851  1.00  0.00    -0.215 OA
HETATM   22  C14 UNL     1       1.267  -3.335  -2.958  1.00  0.00     0.215 C 
HETATM   23  O6  UNL     1       2.313  -1.458  -4.050  1.00  0.00    -0.218 OA
HETATM   24  C15 UNL     1       1.747  -3.146  -1.525  1.00  0.00     0.184 C 
HETATM   25  O5  UNL     1       2.145  -4.182  -3.660  1.00  0.00    -0.218 OA
HETATM   26  O3  UNL     1       0.942  -2.235  -0.826  1.00  0.00    -0.326 OA
BRANCH  24  27
HETATM   27  C16 UNL     1       3.235  -2.866  -1.347  1.00  0.00     0.214 C 
HETATM   28  O4  UNL     1       3.979  -4.006  -1.735  1.00  0.00    -0.218 OA
ENDBRANCH  24  27
ENDBRANCH  17  18
ENDBRANCH  11  17
BRANCH   9  29
HETATM   29  C17 UNL     1       2.682   3.739  -3.622  1.00  0.00     0.211 C 
HETATM   30  O8  UNL     1       2.648   5.079  -3.795  1.00  0.00    -0.644 OA
HETATM   31  O9  UNL     1       3.134   3.105  -4.550  1.00  0.00    -0.644 OA
ENDBRANCH   9  29
BRANCH  13  32
HETATM   32  O11 UNL     1      -0.415   0.009   3.192  1.00  0.00    -0.303 OA
BRANCH  32  33
HETATM   33  C22 UNL     1      -0.960  -0.885   2.235  1.00  0.00     0.274 C 
HETATM   34  C23 UNL     1      -1.757  -1.998   2.890  1.00  0.00     0.241 C 
HETATM   35  C24 UNL     1      -3.229  -1.685   3.012  1.00  0.00     0.220 C 
HETATM   36  O16 UNL     1      -1.647  -3.177   2.121  1.00  0.00    -0.215 OA
HETATM   37  C25 UNL     1      -3.736  -1.210   1.671  1.00  0.00     0.215 C 
HETATM   38  O15 UNL     1      -3.926  -2.861   3.350  1.00  0.00    -0.218 OA
HETATM   39  C26 UNL     1      -2.963   0.010   1.206  1.00  0.00     0.184 C 
HETATM   40  O14 UNL     1      -5.109  -0.929   1.793  1.00  0.00    -0.218 OA
HETATM   41  O12 UNL     1      -1.583  -0.235   1.146  1.00  0.00    -0.326 OA
BRANCH  39  42
HETATM   42  C27 UNL     1      -3.291   1.294   1.953  1.00  0.00     0.214 C 
HETATM   43  O13 UNL     1      -2.576   2.374   1.382  1.00  0.00    -0.218 OA
ENDBRANCH  39  42
ENDBRANCH  32  33
ENDBRANCH  13  32
TORSDOF 7
