REMARK  7 active torsions:
REMARK  status: ('A' for Active; 'I' for Inactive)
REMARK    1  A    between atoms: C8_9  and  C11_13 
REMARK    2  A    between atoms: C12_17  and  O6_21 
REMARK    3  A    between atoms: O6_21  and  C16_22 
REMARK    4  A    between atoms: C20_26  and  C21_28 
REMARK    5  A    between atoms: C21_28  and  O8_29 
REMARK    6  A    between atoms: O8_29  and  C22_30 
REMARK    7  A    between atoms: C22_30  and  C23_32 
ROOT
HETATM    1  C1  UNL     1       1.322   1.883   0.600  1.00  0.00     0.044 A 
HETATM    2  C2  UNL     1       1.316   0.534   0.542  1.00  0.00     0.065 A 
HETATM    3  C3  UNL     1       1.999  -0.071  -0.473  1.00  0.00     0.200 A 
HETATM    4  C4  UNL     1       2.609   0.665  -1.446  1.00  0.00     0.068 A 
HETATM    5  C5  UNL     1       2.574   2.010  -1.375  1.00  0.00     0.044 A 
HETATM    6  C6  UNL     1       1.945   2.638  -0.345  1.00  0.00     0.196 A 
HETATM    7  O1  UNL     1       1.941   3.850  -0.275  1.00  0.00    -0.287 OA
HETATM    8  C7  UNL     1       3.174   2.759  -2.322  1.00  0.00     0.009 A 
HETATM    9  C8  UNL     1       3.810   2.188  -3.357  1.00  0.00     0.067 A 
HETATM   10  C9  UNL     1       3.835   0.849  -3.412  1.00  0.00     0.034 A 
HETATM   11  C10 UNL     1       3.258   0.070  -2.478  1.00  0.00     0.134 A 
HETATM   12  O2  UNL     1       3.332  -1.279  -2.682  1.00  0.00    -0.190 OA
HETATM   13  O5  UNL     1       2.104  -1.272  -0.497  1.00  0.00    -0.286 OA
HETATM   14  C12 UNL     1       0.630  -0.188   1.473  1.00  0.00     0.100 A 
HETATM   15  C13 UNL     1       0.087   0.498   2.500  1.00  0.00     0.024 A 
HETATM   16  C14 UNL     1       0.119   1.831   2.590  1.00  0.00     0.002 A 
HETATM   17  C15 UNL     1       0.719   2.525   1.619  1.00  0.00     0.003 A 
ENDROOT
BRANCH  14  18
HETATM   18  O6  UNL     1       0.482  -1.559   1.536  1.00  0.00    -0.303 OA
BRANCH  18  19
HETATM   19  C16 UNL     1      -0.198  -2.279   0.519  1.00  0.00     0.274 C 
HETATM   20  C17 UNL     1      -0.971  -3.463   1.091  1.00  0.00     0.241 C 
HETATM   21  C18 UNL     1      -2.477  -3.324   1.084  1.00  0.00     0.220 C 
HETATM   22  O14 UNL     1      -0.667  -4.625   0.347  1.00  0.00    -0.215 OA
HETATM   23  C19 UNL     1      -2.897  -2.669  -0.207  1.00  0.00     0.215 C 
HETATM   24  O13 UNL     1      -3.084  -4.594   1.150  1.00  0.00    -0.218 OA
HETATM   25  C20 UNL     1      -2.245  -1.303  -0.313  1.00  0.00     0.181 C 
HETATM   26  O12 UNL     1      -4.299  -2.563  -0.221  1.00  0.00    -0.218 OA
HETATM   27  O7  UNL     1      -0.853  -1.425  -0.400  1.00  0.00    -0.326 OA
BRANCH  25  28
HETATM   28  C21 UNL     1      -2.671  -0.309   0.764  1.00  0.00     0.185 C 
BRANCH  28  29
HETATM   29  O8  UNL     1      -2.255   0.979   0.399  1.00  0.00    -0.291 OA
BRANCH  29  30
HETATM   30  C22 UNL     1      -2.694   2.091   1.075  1.00  0.00     0.361 C 
HETATM   31  O9  UNL     1      -2.467   3.166   0.550  1.00  0.00    -0.252 OA
BRANCH  30  32
HETATM   32  C23 UNL     1      -3.293   2.121   2.296  1.00  0.00     0.277 C 
HETATM   33  O10 UNL     1      -3.623   3.166   2.820  1.00  0.00    -0.640 OA
HETATM   34  O11 UNL     1      -3.551   1.025   3.039  1.00  0.00    -0.640 OA
ENDBRANCH  30  32
ENDBRANCH  29  30
ENDBRANCH  28  29
ENDBRANCH  25  28
ENDBRANCH  18  19
ENDBRANCH  14  18
BRANCH   9  35
HETATM   35  C11 UNL     1       4.404   2.947  -4.320  1.00  0.00     0.211 C 
HETATM   36  O3  UNL     1       4.400   4.299  -4.311  1.00  0.00    -0.644 OA
HETATM   37  O4  UNL     1       4.978   2.440  -5.258  1.00  0.00    -0.644 OA
ENDBRANCH   9  35
TORSDOF 7
