REMARK  3 active torsions:
REMARK  status: ('A' for Active; 'I' for Inactive)
REMARK    1  A    between atoms: C4_4  and  C6_8 
REMARK    2  A    between atoms: C6_8  and  C7_9 
REMARK    3  A    between atoms: C8_10  and  C9_11 
ROOT
HETATM    1  C6  UNL     1       0.039   2.098   1.475  1.00  0.00     0.183 C 
HETATM    2  O5  UNL     1      -0.138   2.787   2.458  1.00  0.00    -0.291 OA
ENDROOT
BRANCH   1   3
HETATM    3  C4  UNL     1      -1.082   1.107   1.170  1.00  0.00     0.155 C 
HETATM    4  C3  UNL     1      -1.136  -0.005   2.228  1.00  0.00     0.074 C 
HETATM    5  C2  UNL     1      -2.064  -1.039   1.663  1.00  0.00     0.134 C 
HETATM    6  C1  UNL     1      -3.131  -0.619   0.965  1.00  0.00     0.148 C 
HETATM    7  O6  UNL     1      -1.775  -2.348   1.882  1.00  0.00    -0.193 OA
HETATM    8  O1  UNL     1      -3.417   0.697   0.726  1.00  0.00    -0.272 OA
HETATM    9  C5  UNL     1      -2.503   1.659   1.065  1.00  0.00     0.284 C 
HETATM   10  O2  UNL     1      -2.787   2.832   1.179  1.00  0.00    -0.263 OA
ENDBRANCH   1   3
BRANCH   1  11
HETATM   11  C7  UNL     1       1.155   2.305   0.720  1.00  0.00     0.038 C 
HETATM   12  C8  UNL     1       1.711   1.690  -0.346  1.00  0.00     0.003 C 
BRANCH  12  13
HETATM   13  C9  UNL     1       1.542   0.522  -1.004  1.00  0.00     0.004 A 
HETATM   14  C10 UNL     1       2.088   0.362  -2.227  1.00  0.00     0.028 A 
HETATM   15  C11 UNL     1       1.957  -0.766  -2.947  1.00  0.00     0.133 A 
HETATM   16  C12 UNL     1       1.264  -1.784  -2.412  1.00  0.00     0.055 A 
HETATM   17  O4  UNL     1       2.499  -0.878  -4.191  1.00  0.00    -0.190 OA
HETATM   18  C13 UNL     1       0.746  -1.709  -1.177  1.00  0.00     0.133 A 
HETATM   19  C14 UNL     1       0.933  -0.565  -0.501  1.00  0.00     0.028 A 
HETATM   20  O3  UNL     1       0.066  -2.747  -0.615  1.00  0.00    -0.190 OA
ENDBRANCH  12  13
ENDBRANCH   1  11
TORSDOF 3
