REMARK  3 active torsions:
REMARK  status: ('A' for Active; 'I' for Inactive)
REMARK    1  A    between atoms: C2_2  and  O4_27 
REMARK    2  A    between atoms: C15_16  and  C18_19 
REMARK    3  A    between atoms: O4_27  and  C24_28 
ROOT
HETATM    1  C1  UNL     1      -1.944  -0.090  -1.879  1.00  0.00     0.030 C 
HETATM    2  C2  UNL     1      -2.553  -1.045  -0.859  1.00  0.00     0.118 C 
HETATM    3  C3  UNL     1      -1.451  -1.827  -0.127  1.00  0.00     0.030 C 
HETATM    4  C4  UNL     1      -0.076  -1.119  -0.071  1.00  0.00     0.003 C 
HETATM    5  C5  UNL     1      -0.172   0.427   0.013  1.00  0.00     0.003 C 
HETATM    6  C6  UNL     1      -0.955   0.910  -1.244  1.00  0.00     0.003 C 
HETATM    7  C7  UNL     1       1.255   1.104   0.072  1.00  0.00     0.030 C 
HETATM    8  C8  UNL     1       2.388   0.094  -0.229  1.00  0.00     0.003 C 
HETATM    9  C9  UNL     1       2.043  -0.722  -1.479  1.00  0.00     0.000 C 
HETATM   10  C10 UNL     1       0.848  -1.639  -1.195  1.00  0.00     0.000 C 
HETATM   11  C11 UNL     1       3.797   0.703  -0.324  1.00  0.00     0.001 C 
HETATM   12  C12 UNL     1       4.180   1.557   0.900  1.00  0.00     0.006 C 
HETATM   13  C13 UNL     1       3.042   2.546   1.202  1.00  0.00     0.033 C 
HETATM   14  C14 UNL     1       1.654   1.911   1.323  1.00  0.00     0.152 C 
HETATM   15  O1  UNL     1       0.760   2.981   1.540  1.00  0.00    -0.224 OA
HETATM   16  C15 UNL     1       5.451   2.267   0.378  1.00  0.00     0.021 C 
HETATM   17  C16 UNL     1       5.144   2.618  -1.088  1.00  0.00     0.004 C 
HETATM   18  C17 UNL     1       4.094   1.588  -1.549  1.00  0.00     0.000 C 
HETATM   19  C22 UNL     1       4.497   0.700   2.141  1.00  0.00     0.000 C 
HETATM   20  C23 UNL     1      -0.993   0.766   1.286  1.00  0.00     0.000 C 
ENDROOT
BRANCH   2  21
HETATM   21  O4  UNL     1      -3.434  -1.929  -1.501  1.00  0.00    -0.332 OA
BRANCH  21  22
HETATM   22  C24 UNL     1      -4.373  -2.509  -0.615  1.00  0.00     0.270 C 
HETATM   23  C25 UNL     1      -4.752  -3.876  -1.131  1.00  0.00     0.241 C 
HETATM   24  C26 UNL     1      -5.923  -4.421  -0.344  1.00  0.00     0.220 C 
HETATM   25  O8  UNL     1      -5.126  -3.779  -2.483  1.00  0.00    -0.215 OA
HETATM   26  C27 UNL     1      -7.042  -3.399  -0.276  1.00  0.00     0.212 C 
HETATM   27  O7  UNL     1      -6.404  -5.577  -0.984  1.00  0.00    -0.218 OA
HETATM   28  C28 UNL     1      -6.521  -2.047   0.191  1.00  0.00     0.151 C 
HETATM   29  O6  UNL     1      -8.015  -3.890   0.614  1.00  0.00    -0.218 OA
HETATM   30  O5  UNL     1      -5.473  -1.626  -0.639  1.00  0.00    -0.329 OA
HETATM   31  C29 UNL     1      -7.613  -0.976   0.151  1.00  0.00     0.035 C 
ENDBRANCH  21  22
ENDBRANCH   2  21
BRANCH  16  32
HETATM   32  C18 UNL     1       5.972   3.390   1.230  1.00  0.00    -0.009 A 
HETATM   33  C19 UNL     1       6.828   3.261   2.250  1.00  0.00     0.062 A 
HETATM   34  C20 UNL     1       7.009   4.497   2.772  1.00  0.00     0.296 A 
HETATM   35  O2  UNL     1       6.303   5.487   2.149  1.00  0.00    -0.294 OA
HETATM   36  O3  UNL     1       7.734   4.704   3.720  1.00  0.00    -0.259 OA
HETATM   37  C21 UNL     1       5.586   4.841   1.104  1.00  0.00     0.175 A 
ENDBRANCH  16  32
TORSDOF 3
