REMARK  1 active torsions:
REMARK  status: ('A' for Active; 'I' for Inactive)
REMARK    1  A    between atoms: C8_9  and  C9_10 
ROOT
HETATM    1  C1  UNL     1      -2.484   1.165  -0.855  1.00  0.00     0.115 C 
HETATM    2  O1  UNL     1      -2.382  -0.181  -1.060  1.00  0.00    -0.302 OA
HETATM    3  C2  UNL     1      -1.130  -0.761  -0.777  1.00  0.00     0.278 C 
HETATM    4  C3  UNL     1      -0.530  -0.290   0.533  1.00  0.00     0.087 C 
HETATM    5  C4  UNL     1      -0.417   1.248   0.518  1.00  0.00     0.068 C 
HETATM    6  C5  UNL     1      -1.586   1.884  -0.168  1.00  0.00     0.003 C 
HETATM    7  C6  UNL     1       0.938   1.558  -0.122  1.00  0.00     0.178 C 
HETATM    8  C7  UNL     1       1.725   0.346   0.289  1.00  0.00     0.001 C 
HETATM    9  C8  UNL     1       0.928  -0.667   0.656  1.00  0.00    -0.008 C 
HETATM   10  O3  UNL     1       1.468   2.760   0.396  1.00  0.00    -0.218 OA
HETATM   11  O4  UNL     1      -1.423  -2.146  -0.715  1.00  0.00    -0.189 OA
ENDROOT
BRANCH   9  12
HETATM   12  C9  UNL     1       1.396  -2.015   1.115  1.00  0.00     0.205 C 
HETATM   13  O2  UNL     1       0.978  -3.037   0.223  1.00  0.00    -0.216 OA
ENDBRANCH   9  12
TORSDOF 1
