REMARK  4 active torsions:
REMARK  status: ('A' for Active; 'I' for Inactive)
REMARK    1  A    between atoms: C2_2  and  O5_12 
REMARK    2  A    between atoms: C6_6  and  C7_7 
REMARK    3  A    between atoms: O5_12  and  C8_13 
REMARK    4  A    between atoms: C8_13  and  C9_14 
ROOT
HETATM    1  C9  UNL     1      -0.429  -1.441  -2.357  1.00  0.00     0.012 C 
HETATM    2  C10 UNL     1      -0.786  -2.405  -3.223  1.00  0.00     0.045 C 
HETATM    3  C11 UNL     1       0.133  -2.836  -4.341  1.00  0.00     0.042 C 
HETATM    4  C12 UNL     1      -1.958  -2.991  -3.109  1.00  0.00     0.096 C 
HETATM    5  N1  UNL     1      -2.994  -3.499  -3.018  1.00  0.00    -0.192 NA
ENDROOT
BRANCH   1   6
HETATM    6  C8  UNL     1      -1.259  -0.917  -1.207  1.00  0.00     0.169 C 
BRANCH   6   7
HETATM    7  O5  UNL     1      -0.447  -0.789  -0.054  1.00  0.00    -0.349 OA
BRANCH   7   8
HETATM    8  C2  UNL     1      -1.078  -0.185   1.042  1.00  0.00     0.149 C 
HETATM    9  C1  UNL     1      -1.212   1.333   0.877  1.00  0.00     0.038 C 
HETATM   10  C6  UNL     1       0.128   2.094   0.890  1.00  0.00     0.069 C 
HETATM   11  C5  UNL     1       0.968   1.701   2.111  1.00  0.00     0.188 C 
HETATM   12  C4  UNL     1       1.081   0.202   2.352  1.00  0.00     0.215 C 
HETATM   13  O2  UNL     1       0.367   2.271   3.253  1.00  0.00    -0.221 OA
HETATM   14  C3  UNL     1      -0.269  -0.497   2.300  1.00  0.00     0.212 C 
HETATM   15  O3  UNL     1       1.974  -0.377   1.431  1.00  0.00    -0.218 OA
HETATM   16  O4  UNL     1      -1.010  -0.114   3.440  1.00  0.00    -0.218 OA
BRANCH  10  17
HETATM   17  C7  UNL     1       0.883   2.010  -0.439  1.00  0.00     0.185 C 
HETATM   18  O1  UNL     1       1.942   2.946  -0.448  1.00  0.00    -0.221 OA
ENDBRANCH  10  17
ENDBRANCH   7   8
ENDBRANCH   6   7
ENDBRANCH   1   6
TORSDOF 4
