REMARK  3 active torsions:
REMARK  status: ('A' for Active; 'I' for Inactive)
REMARK    1  A    between atoms: C5_5  and  C7_7 
REMARK    2  A    between atoms: C7_7  and  C8_8 
REMARK    3  A    between atoms: C8_8  and  C9_9 
ROOT
HETATM    1  C1  UNL     1       3.069   0.221  -0.463  1.00  0.00     0.027 A 
HETATM    2  C2  UNL     1       3.568  -0.982  -0.135  1.00  0.00     0.131 A 
HETATM    3  C3  UNL     1       2.689  -1.964   0.124  1.00  0.00     0.027 A 
HETATM    4  C4  UNL     1       1.366  -1.750   0.059  1.00  0.00    -0.002 A 
HETATM    5  C5  UNL     1       0.864  -0.544  -0.266  1.00  0.00    -0.022 A 
HETATM    6  C6  UNL     1       1.746   0.437  -0.528  1.00  0.00    -0.002 A 
HETATM    7  O2  UNL     1       4.908  -1.202  -0.067  1.00  0.00    -0.190 OA
ENDROOT
BRANCH   5   8
HETATM    8  C7  UNL     1      -0.641  -0.348  -0.323  1.00  0.00     0.029 C 
BRANCH   8   9
HETATM    9  C8  UNL     1      -1.149   1.092  -0.148  1.00  0.00     0.038 C 
BRANCH   9  10
HETATM   10  C9  UNL     1      -2.675   1.221  -0.154  1.00  0.00     0.153 C 
HETATM   11  C10 UNL     1      -3.369   0.519   1.010  1.00  0.00     0.036 C 
HETATM   12  O1  UNL     1      -3.002   2.592  -0.094  1.00  0.00    -0.223 OA
ENDBRANCH   9  10
ENDBRANCH   8   9
ENDBRANCH   5   8
TORSDOF 3
