REMARK  4 active torsions:
REMARK  status: ('A' for Active; 'I' for Inactive)
REMARK    1  A    between atoms: C3_3  and  O5_22 
REMARK    2  A    between atoms: C12_13  and  O2_14 
REMARK    3  A    between atoms: O2_14  and  C13_15 
REMARK    4  A    between atoms: O5_22  and  C18_23 
ROOT
HETATM    1  C1  UNL     1       0.364   0.396   1.919  1.00  0.00     0.061 C 
HETATM    2  C2  UNL     1      -0.140  -1.031   1.649  1.00  0.00     0.157 C 
HETATM    3  C3  UNL     1      -0.299  -1.398   0.175  1.00  0.00     0.152 C 
HETATM    4  C4  UNL     1       0.864  -1.043  -0.761  1.00  0.00     0.035 C 
HETATM    5  C5  UNL     1       1.101   0.448  -1.101  1.00  0.00     0.033 C 
HETATM    6  C6  UNL     1       2.005   1.129  -0.024  1.00  0.00     0.031 C 
HETATM    7  C7  UNL     1       1.775   0.860   1.499  1.00  0.00     0.129 C 
HETATM    8  C8  UNL     1       2.913  -0.024   2.050  1.00  0.00     0.033 C 
HETATM    9  O1  UNL     1       1.958   2.078   2.184  1.00  0.00    -0.226 OA
HETATM   10  C9  UNL     1       2.313   2.596  -0.427  1.00  0.00     0.003 C 
HETATM   11  C10 UNL     1       1.135   3.341  -1.072  1.00  0.00     0.005 C 
HETATM   12  C11 UNL     1       0.379   2.487  -2.105  1.00  0.00     0.056 C 
HETATM   13  C12 UNL     1      -0.175   1.272  -1.356  1.00  0.00     0.127 C 
HETATM   14  C15 UNL     1       1.266   1.858  -3.187  1.00  0.00     0.129 C 
HETATM   15  C16 UNL     1       1.804   0.590  -2.499  1.00  0.00     0.033 C 
HETATM   16  C17 UNL     1       2.313   2.775  -3.818  1.00  0.00     0.033 C 
HETATM   17  O4  UNL     1       0.443   1.473  -4.265  1.00  0.00    -0.226 OA
HETATM   18  C20 UNL     1      -1.442  -1.159   2.518  1.00  0.00     0.056 C 
HETATM   19  C21 UNL     1      -1.332  -0.025   3.562  1.00  0.00     0.155 C 
HETATM   20  C22 UNL     1       0.073   0.544   3.427  1.00  0.00     0.038 C 
HETATM   21  O7  UNL     1      -1.569  -0.442   4.883  1.00  0.00    -0.223 OA
HETATM   22  C23 UNL     1      -1.593  -2.542   3.194  1.00  0.00     0.005 C 
HETATM   23  C24 UNL     1      -2.752  -0.919   1.728  1.00  0.00     0.005 C 
HETATM   24  O8  UNL     1       0.805  -1.938   2.154  1.00  0.00    -0.223 OA
ENDROOT
BRANCH   3  25
HETATM   25  O5  UNL     1      -0.508  -2.785   0.132  1.00  0.00    -0.302 OA
BRANCH  25  26
HETATM   26  C18 UNL     1      -1.247  -3.317  -0.878  1.00  0.00     0.272 C 
HETATM   27  C19 UNL     1      -1.334  -4.822  -0.721  1.00  0.00     0.106 C 
HETATM   28  O6  UNL     1      -1.767  -2.689  -1.773  1.00  0.00    -0.264 OA
ENDBRANCH  25  26
ENDBRANCH   3  25
BRANCH  13  29
HETATM   29  O2  UNL     1      -1.082   0.563  -2.151  1.00  0.00    -0.304 OA
BRANCH  29  30
HETATM   30  C13 UNL     1      -2.400   0.885  -2.071  1.00  0.00     0.272 C 
HETATM   31  C14 UNL     1      -3.222   0.005  -2.991  1.00  0.00     0.106 C 
HETATM   32  O3  UNL     1      -2.867   1.745  -1.359  1.00  0.00    -0.264 OA
ENDBRANCH  29  30
ENDBRANCH  13  29
TORSDOF 4
