REMARK  3 active torsions:
REMARK  status: ('A' for Active; 'I' for Inactive)
REMARK    1  A    between atoms: N2_12  and  C12_14 
REMARK    2  A    between atoms: C12_14  and  C13_15 
REMARK    3  A    between atoms: C13_15  and  C14_16 
ROOT
HETATM    1  C1  UNL     1      -3.191   0.121  -3.219  1.00  0.00     0.006 A 
HETATM    2  C2  UNL     1      -3.241  -1.216  -3.152  1.00  0.00     0.061 A 
HETATM    3  C3  UNL     1      -2.265  -1.935  -2.543  1.00  0.00     0.261 A 
HETATM    4  N1  UNL     1      -1.223  -1.235  -1.982  1.00  0.00    -0.299 N 
HETATM    5  C4  UNL     1      -1.164   0.119  -2.068  1.00  0.00     0.042 A 
HETATM    6  C5  UNL     1      -2.156   0.782  -2.685  1.00  0.00     0.013 A 
HETATM    7  C6  UNL     1       0.018   0.891  -1.500  1.00  0.00     0.072 C 
HETATM    8  C7  UNL     1       1.217  -0.027  -1.295  1.00  0.00     0.012 C 
HETATM    9  C8  UNL     1       0.669  -1.124  -0.376  1.00  0.00     0.057 C 
HETATM   10  C9  UNL     1      -0.187  -2.017  -1.290  1.00  0.00     0.111 C 
HETATM   11  C10 UNL     1      -0.226  -0.587   0.769  1.00  0.00     0.252 C 
HETATM   12  N2  UNL     1      -0.074   0.829   1.053  1.00  0.00     0.138 N 
HETATM   13  C11 UNL     1      -0.308   1.604  -0.167  1.00  0.00     0.256 C 
HETATM   14  O1  UNL     1      -2.333  -3.142  -2.502  1.00  0.00    -0.267 OA
ENDROOT
BRANCH  12  15
HETATM   15  C12 UNL     1       1.167   1.167   1.746  1.00  0.00     0.255 C 
BRANCH  15  16
HETATM   16  C13 UNL     1       1.249   0.582   3.170  1.00  0.00     0.061 C 
BRANCH  16  17
HETATM   17  C14 UNL     1       2.420   1.149   3.936  1.00  0.00    -0.024 C 
HETATM   18  C15 UNL     1       3.391   0.405   4.484  1.00  0.00    -0.005 C 
ENDBRANCH  16  17
ENDBRANCH  15  16
ENDBRANCH  12  15
TORSDOF 3
