REMARK  3 active torsions:
REMARK  status: ('A' for Active; 'I' for Inactive)
REMARK    1  A    between atoms: C7_8  and  C10_12 
REMARK    2  A    between atoms: C12_14  and  C16_19 
REMARK    3  A    between atoms: C24_29  and  C25_31 
ROOT
HETATM    1  C10 UNL     1      -2.749   2.580   0.369  1.00  0.00     0.023 A 
HETATM    2  C11 UNL     1      -1.548   1.985   0.201  1.00  0.00     0.004 A 
HETATM    3  C12 UNL     1      -0.346   2.561   0.422  1.00  0.00     0.029 A 
HETATM    4  C13 UNL     1      -0.343   3.851   0.825  1.00  0.00     0.131 A 
HETATM    5  C14 UNL     1      -1.523   4.470   0.990  1.00  0.00     0.028 A 
HETATM    6  C15 UNL     1      -2.697   3.868   0.756  1.00  0.00     0.004 A 
HETATM    7  O3  UNL     1       0.782   4.527   1.191  1.00  0.00    -0.190 OA
ENDROOT
BRANCH   3   8
HETATM    8  C16 UNL     1       0.790   1.839   0.242  1.00  0.00     0.053 A 
HETATM    9  C17 UNL     1       1.845   2.382  -0.405  1.00  0.00     0.135 A 
HETATM   10  O4  UNL     1       1.832   3.617  -0.981  1.00  0.00    -0.190 OA
HETATM   11  C18 UNL     1       2.935   1.627  -0.598  1.00  0.00     0.052 A 
HETATM   12  C19 UNL     1       3.052   0.363  -0.166  1.00  0.00     0.107 A 
HETATM   13  C20 UNL     1       1.996  -0.168   0.478  1.00  0.00     0.087 A 
HETATM   14  O6  UNL     1       4.216  -0.302  -0.417  1.00  0.00    -0.307 OA
HETATM   15  C21 UNL     1       0.870   0.557   0.684  1.00  0.00     0.138 A 
HETATM   16  C22 UNL     1       2.109  -1.462   0.893  1.00  0.00     0.202 A 
HETATM   17  O5  UNL     1      -0.167   0.042   1.413  1.00  0.00    -0.190 OA
HETATM   18  C23 UNL     1       3.259  -2.141   0.640  1.00  0.00     0.067 A 
HETATM   19  O8  UNL     1       1.234  -2.068   1.470  1.00  0.00    -0.286 OA
HETATM   20  C24 UNL     1       4.311  -1.600  -0.002  1.00  0.00     0.103 A 
BRANCH  20  21
HETATM   21  C25 UNL     1       5.455  -2.293  -0.242  1.00  0.00     0.023 A 
HETATM   22  C26 UNL     1       6.476  -1.675  -0.876  1.00  0.00     0.004 A 
HETATM   23  C27 UNL     1       7.638  -2.291  -1.142  1.00  0.00     0.028 A 
HETATM   24  C28 UNL     1       7.850  -3.568  -0.791  1.00  0.00     0.131 A 
HETATM   25  C29 UNL     1       6.844  -4.197  -0.166  1.00  0.00     0.028 A 
HETATM   26  O7  UNL     1       9.024  -4.203  -1.056  1.00  0.00    -0.190 OA
HETATM   27  C30 UNL     1       5.683  -3.578   0.102  1.00  0.00     0.004 A 
ENDBRANCH  20  21
ENDBRANCH   3   8
BRANCH   1  28
HETATM   28  C7  UNL     1      -3.886   1.864   0.166  1.00  0.00     0.103 C 
HETATM   29  O1  UNL     1      -3.787   0.539  -0.158  1.00  0.00    -0.307 OA
HETATM   30  C5  UNL     1      -4.935  -0.196  -0.193  1.00  0.00     0.107 A 
HETATM   31  C4  UNL     1      -6.164   0.343  -0.063  1.00  0.00     0.087 A 
HETATM   32  C6  UNL     1      -4.836  -1.526  -0.369  1.00  0.00     0.052 A 
HETATM   33  C3  UNL     1      -7.268  -0.435  -0.126  1.00  0.00     0.138 A 
HETATM   34  C9  UNL     1      -6.260   1.685   0.146  1.00  0.00     0.202 C 
HETATM   35  C2  UNL     1      -7.108  -1.758  -0.302  1.00  0.00     0.055 A 
HETATM   36  O9  UNL     1      -8.537   0.045  -0.003  1.00  0.00    -0.190 OA
HETATM   37  C1  UNL     1      -5.904  -2.333  -0.423  1.00  0.00     0.135 A 
HETATM   38  O10 UNL     1      -5.763  -3.676  -0.590  1.00  0.00    -0.190 OA
HETATM   39  C8  UNL     1      -5.114   2.405   0.277  1.00  0.00     0.067 C 
HETATM   40  O2  UNL     1      -7.314   2.272   0.263  1.00  0.00    -0.286 OA
ENDBRANCH   1  28
TORSDOF 3
