REMARK  9 active torsions:
REMARK  status: ('A' for Active; 'I' for Inactive)
REMARK    1  A    between atoms: S1_2  and  C2_3 
REMARK    2  A    between atoms: C2_3  and  C3_4 
REMARK    3  A    between atoms: C3_4  and  C4_5 
REMARK    4  A    between atoms: C4_5  and  C5_6 
REMARK    5  A    between atoms: C5_6  and  C6_7 
REMARK    6  A    between atoms: C6_7  and  C7_8 
REMARK    7  A    between atoms: C7_8  and  C8_9 
REMARK    8  A    between atoms: C8_9  and  C9_10 
REMARK    9  A    between atoms: C9_10  and  C10_11 
ROOT
HETATM    1  C10 UNL     1       2.192   5.781  -0.000  1.00  0.00     0.105 C 
HETATM    2  C11 UNL     1       3.463   6.525   0.000  1.00  0.00     0.074 C 
HETATM    3  N1  UNL     1       4.463   7.109   0.000  1.00  0.00    -0.196 NA
ENDROOT
BRANCH   1   4
HETATM    4  C9  UNL     1       2.441   4.266   0.000  1.00  0.00     0.016 C 
BRANCH   4   5
HETATM    5  C8  UNL     1       1.123   3.475  -0.000  1.00  0.00     0.001 C 
BRANCH   5   6
HETATM    6  C7  UNL     1       1.362   1.957   0.000  1.00  0.00     0.000 C 
BRANCH   6   7
HETATM    7  C6  UNL     1       0.043   1.167  -0.000  1.00  0.00     0.000 C 
BRANCH   7   8
HETATM    8  C5  UNL     1       0.294  -0.349   0.000  1.00  0.00     0.000 C 
BRANCH   8   9
HETATM    9  C4  UNL     1      -1.011  -1.161  -0.000  1.00  0.00     0.001 C 
BRANCH   9  10
HETATM   10  C3  UNL     1      -0.725  -2.672   0.000  1.00  0.00     0.017 C 
BRANCH  10  11
HETATM   11  C2  UNL     1      -2.011  -3.512  -0.000  1.00  0.00     0.123 C 
BRANCH  11  12
HETATM   12  S1  UNL     1      -1.675  -5.271   0.000  1.00  0.00     0.171 S 
HETATM   13  C1  UNL     1      -3.294  -6.016  -0.000  1.00  0.00     0.140 C 
HETATM   14  O1  UNL     1      -1.001  -5.619   1.235  1.00  0.00    -0.226 OA
HETATM   15  O2  UNL     1      -1.000  -5.619  -1.235  1.00  0.00    -0.226 OA
ENDBRANCH  11  12
ENDBRANCH  10  11
ENDBRANCH   9  10
ENDBRANCH   8   9
ENDBRANCH   7   8
ENDBRANCH   6   7
ENDBRANCH   5   6
ENDBRANCH   4   5
ENDBRANCH   1   4
TORSDOF 9
