REMARK  5 active torsions:
REMARK  status: ('A' for Active; 'I' for Inactive)
REMARK    1  A    between atoms: C3_3  and  O4_10 
REMARK    2  A    between atoms: C4_5  and  C6_8 
REMARK    3  A    between atoms: O4_10  and  C7_11 
REMARK    4  A    between atoms: C8_12  and  O10_32 
REMARK    5  A    between atoms: C17_22  and  O7_28 
ROOT
HETATM    1  C7  UNL     1      -1.421  -1.035  -0.464  1.00  0.00     0.121 A 
HETATM    2  C8  UNL     1      -2.200  -0.261  -1.340  1.00  0.00     0.142 A 
HETATM    3  C9  UNL     1      -1.937   1.111  -1.519  1.00  0.00     0.158 A 
HETATM    4  C10 UNL     1      -0.809   1.702  -0.928  1.00  0.00     0.070 A 
HETATM    5  C11 UNL     1      -0.001   0.928  -0.082  1.00  0.00     0.046 A 
HETATM    6  C12 UNL     1      -0.320  -0.412   0.146  1.00  0.00     0.030 A 
HETATM    7  C13 UNL     1       1.171   1.516   0.611  1.00  0.00     0.196 A 
HETATM    8  C14 UNL     1       1.477   2.946   0.365  1.00  0.00     0.044 A 
HETATM    9  C15 UNL     1       0.693   3.738  -0.495  1.00  0.00     0.066 A 
HETATM   10  C16 UNL     1      -0.490   3.135  -1.176  1.00  0.00     0.200 A 
HETATM   11  O5  UNL     1      -1.198   3.799  -1.929  1.00  0.00    -0.286 OA
HETATM   12  C17 UNL     1       1.010   5.100  -0.678  1.00  0.00     0.122 A 
HETATM   13  C18 UNL     1       2.185   5.610  -0.090  1.00  0.00     0.149 A 
HETATM   14  C19 UNL     1       2.954   4.830   0.776  1.00  0.00     0.006 A 
HETATM   15  C20 UNL     1       2.587   3.501   1.006  1.00  0.00     0.001 A 
HETATM   16  C21 UNL     1       4.180   5.417   1.436  1.00  0.00     0.033 C 
HETATM   17  O6  UNL     1       2.554   6.891  -0.365  1.00  0.00    -0.188 OA
HETATM   18  O8  UNL     1       1.856   0.845   1.381  1.00  0.00    -0.287 OA
HETATM   19  O9  UNL     1      -2.808   1.820  -2.290  1.00  0.00    -0.188 OA
ENDROOT
BRANCH   1  20
HETATM   20  O4  UNL     1      -1.800  -2.340  -0.262  1.00  0.00    -0.302 OA
BRANCH  20  21
HETATM   21  C3  UNL     1      -1.136  -3.138   0.688  1.00  0.00     0.274 C 
HETATM   22  C2  UNL     1      -1.951  -4.396   0.883  1.00  0.00     0.241 C 
HETATM   23  C1  UNL     1      -1.211  -5.316   1.829  1.00  0.00     0.220 C 
HETATM   24  O11 UNL     1      -3.199  -4.064   1.437  1.00  0.00    -0.215 OA
HETATM   25  C5  UNL     1       0.171  -5.577   1.265  1.00  0.00     0.215 C 
HETATM   26  O12 UNL     1      -1.906  -6.530   1.953  1.00  0.00    -0.218 OA
HETATM   27  C4  UNL     1       0.889  -4.259   0.993  1.00  0.00     0.184 C 
HETATM   28  O2  UNL     1       0.877  -6.355   2.201  1.00  0.00    -0.218 OA
HETATM   29  O1  UNL     1       0.115  -3.471   0.127  1.00  0.00    -0.326 OA
BRANCH  27  30
HETATM   30  C6  UNL     1       2.253  -4.480   0.356  1.00  0.00     0.214 C 
HETATM   31  O3  UNL     1       2.916  -3.240   0.205  1.00  0.00    -0.218 OA
ENDBRANCH  27  30
ENDBRANCH  20  21
ENDBRANCH   1  20
BRANCH   2  32
HETATM   32  O10 UNL     1      -3.350  -0.788  -1.871  1.00  0.00    -0.324 OA
HETATM   33  C23 UNL     1      -3.171  -1.383  -3.136  1.00  0.00     0.182 C 
ENDBRANCH   2  32
BRANCH  12  34
HETATM   34  O7  UNL     1       0.358   5.907  -1.576  1.00  0.00    -0.326 OA
HETATM   35  C22 UNL     1      -0.699   6.653  -1.015  1.00  0.00     0.181 C 
ENDBRANCH  12  34
TORSDOF 5
