REMARK  0 active torsions:
REMARK  status: ('A' for Active; 'I' for Inactive)
ROOT
HETATM    1  C1  UNL     1      -1.570   1.299   0.104  1.00  0.00     0.201 A 
HETATM    2  C2  UNL     1      -2.183   0.010  -0.032  1.00  0.00     0.126 A 
HETATM    3  C3  UNL     1      -1.352  -1.213  -0.348  1.00  0.00     0.035 C 
HETATM    4  C4  UNL     1      -0.026  -0.873  -1.033  1.00  0.00     0.031 C 
HETATM    5  C5  UNL     1       0.680   0.225  -0.265  1.00  0.00     0.007 C 
HETATM    6  C6  UNL     1      -0.091   1.282   0.122  1.00  0.00     0.198 C 
HETATM    7  O1  UNL     1       0.372   2.288   0.615  1.00  0.00    -0.289 OA
HETATM    8  C7  UNL     1       2.002   0.151   0.019  1.00  0.00    -0.045 C 
HETATM    9  C8  UNL     1       2.778   1.109   0.903  1.00  0.00     0.026 C 
HETATM   10  C9  UNL     1       2.910  -0.938  -0.521  1.00  0.00     0.026 C 
HETATM   11  C10 UNL     1      -3.589  -0.197   0.498  1.00  0.00     0.033 C 
HETATM   12  O2  UNL     1      -2.101   1.112  -1.187  1.00  0.00    -0.348 OA
ENDROOT
TORSDOF 0
