REMARK  8 active torsions:
REMARK  status: ('A' for Active; 'I' for Inactive)
REMARK    1  A    between atoms: C2_2  and  C3_3 
REMARK    2  A    between atoms: C3_3  and  C4_4 
REMARK    3  A    between atoms: C4_4  and  C5_5 
REMARK    4  A    between atoms: C5_5  and  C6_6 
REMARK    5  A    between atoms: C6_6  and  C7_7 
REMARK    6  A    between atoms: C7_7  and  O1_8 
REMARK    7  A    between atoms: C7_7  and  C10_12 
REMARK    8  A    between atoms: O1_8  and  C8_9 
ROOT
HETATM    1  C7  UNL     1       1.836   0.747   0.941  1.00  0.00     0.146 C 
ENDROOT
BRANCH   1   2
HETATM    2  C6  UNL     1       1.288   0.088  -0.325  1.00  0.00     0.035 C 
BRANCH   2   3
HETATM    3  C5  UNL     1      -0.241   0.078  -0.371  1.00  0.00     0.003 C 
BRANCH   3   4
HETATM    4  C4  UNL     1      -0.789  -0.566  -1.645  1.00  0.00     0.000 C 
BRANCH   4   5
HETATM    5  C3  UNL     1      -2.317  -0.577  -1.690  1.00  0.00     0.000 C 
BRANCH   5   6
HETATM    6  C2  UNL     1      -2.865  -1.221  -2.964  1.00  0.00     0.000 C 
HETATM    7  C1  UNL     1      -4.393  -1.232  -3.010  1.00  0.00     0.000 C 
ENDBRANCH   5   6
ENDBRANCH   4   5
ENDBRANCH   3   4
ENDBRANCH   2   3
ENDBRANCH   1   2
BRANCH   1   8
HETATM    8  O1  UNL     1       1.402   0.017   2.079  1.00  0.00    -0.300 OA
BRANCH   8   9
HETATM    9  C8  UNL     1       1.596   0.685   3.213  1.00  0.00     0.273 C 
HETATM   10  O2  UNL     1       2.023   1.815   3.264  1.00  0.00    -0.264 OA
HETATM   11  C9  UNL     1       1.243  -0.067   4.468  1.00  0.00     0.106 C 
ENDBRANCH   8   9
ENDBRANCH   1   8
BRANCH   1  12
HETATM   12  C10 UNL     1       3.339   0.829   0.941  1.00  0.00     0.004 C 
HETATM   13  C11 UNL     1       3.914   2.043   0.941  1.00  0.00    -0.002 C 
ENDBRANCH   1  12
TORSDOF 8
