REMARK  11 active torsions:
REMARK  status: ('A' for Active; 'I' for Inactive)
REMARK    1  A    between atoms: C1_1  and  C27_40 
REMARK    2  A    between atoms: C3_3  and  O2_6 
REMARK    3  A    between atoms: O2_6  and  C5_7 
REMARK    4  A    between atoms: C5_7  and  C6_8 
REMARK    5  A    between atoms: C10_12  and  O4_14 
REMARK    6  A    between atoms: O4_14  and  C11_15 
REMARK    7  A    between atoms: C11_15  and  C14_18 
REMARK    8  A    between atoms: C14_18  and  C15_20 
REMARK    9  A    between atoms: C15_20  and  C16_21 
REMARK   10  A    between atoms: C22_28  and  O8_33 
REMARK   11  A    between atoms: C24_30  and  O7_31 
ROOT
HETATM    1  O4  UNL     1      -1.574   1.713  -1.156  1.00  0.00    -0.331 OA
ENDROOT
BRANCH   1   2
HETATM    2  C10 UNL     1      -0.274   1.289  -1.518  1.00  0.00     0.272 C 
HETATM    3  C9  UNL     1      -0.133   1.219  -3.063  1.00  0.00     0.265 C 
HETATM    4  C8  UNL     1       1.330   0.912  -3.486  1.00  0.00     0.285 C 
HETATM    5  O10 UNL     1      -1.031   0.254  -3.592  1.00  0.00    -0.212 OA
HETATM    6  C7  UNL     1       2.283   1.883  -2.762  1.00  0.00     0.097 C 
HETATM    7  O11 UNL     1       1.693  -0.414  -3.141  1.00  0.00    -0.190 OA
HETATM    8  O12 UNL     1       1.482   1.080  -4.883  1.00  0.00    -0.190 OA
HETATM    9  C6  UNL     1       2.029   1.912  -1.240  1.00  0.00     0.153 C 
HETATM   10  O3  UNL     1       0.664   2.221  -0.992  1.00  0.00    -0.329 OA
BRANCH   9  11
HETATM   11  C5  UNL     1       2.875   2.977  -0.537  1.00  0.00     0.175 C 
BRANCH  11  12
HETATM   12  O2  UNL     1       2.750   2.791   0.853  1.00  0.00    -0.326 OA
BRANCH  12  13
HETATM   13  C3  UNL     1       3.476   3.736   1.609  1.00  0.00     0.270 C 
HETATM   14  C2  UNL     1       3.267   3.547   3.113  1.00  0.00     0.241 C 
HETATM   15  C1  UNL     1       4.547   4.203   3.707  1.00  0.00     0.217 C 
HETATM   16  O13 UNL     1       2.047   4.129   3.543  1.00  0.00    -0.215 OA
HETATM   17  C4  UNL     1       5.529   4.232   2.520  1.00  0.00     0.181 C 
HETATM   18  O15 UNL     1       4.338   5.531   4.166  1.00  0.00    -0.218 OA
HETATM   19  O1  UNL     1       4.861   3.543   1.490  1.00  0.00    -0.326 OA
BRANCH  15  20
HETATM   20  C27 UNL     1       5.090   3.393   4.881  1.00  0.00     0.218 C 
HETATM   21  O14 UNL     1       6.320   3.955   5.275  1.00  0.00    -0.218 OA
ENDBRANCH  15  20
ENDBRANCH  12  13
ENDBRANCH  11  12
ENDBRANCH   9  11
ENDBRANCH   1   2
BRANCH   1  22
HETATM   22  C11 UNL     1      -2.070   1.062  -0.010  1.00  0.00     0.124 C 
HETATM   23  C12 UNL     1      -3.307   1.824   0.473  1.00  0.00     0.032 C 
HETATM   24  C13 UNL     1      -0.957   1.023   1.037  1.00  0.00     0.032 C 
BRANCH  22  25
HETATM   25  C14 UNL     1      -2.408  -0.320  -0.566  1.00  0.00     0.181 C 
HETATM   26  O5  UNL     1      -3.469  -0.180  -1.484  1.00  0.00    -0.221 OA
BRANCH  25  27
HETATM   27  C15 UNL     1      -2.844  -1.303   0.521  1.00  0.00     0.066 C 
BRANCH  27  28
HETATM   28  C16 UNL     1      -2.928  -2.680   0.006  1.00  0.00     0.026 A 
HETATM   29  C17 UNL     1      -4.190  -3.248  -0.295  1.00  0.00     0.103 A 
HETATM   30  O6  UNL     1      -5.321  -2.529  -0.111  1.00  0.00    -0.273 OA
HETATM   31  C21 UNL     1      -4.260  -4.580  -0.791  1.00  0.00     0.045 A 
HETATM   32  C18 UNL     1      -6.551  -3.012  -0.377  1.00  0.00     0.300 A 
HETATM   33  C19 UNL     1      -6.692  -4.391  -0.895  1.00  0.00     0.069 A 
HETATM   34  O9  UNL     1      -7.553  -2.354  -0.207  1.00  0.00    -0.259 OA
HETATM   35  C20 UNL     1      -5.598  -5.150  -1.098  1.00  0.00     0.009 A 
HETATM   36  C22 UNL     1      -3.078  -5.338  -0.988  1.00  0.00     0.098 A 
HETATM   37  C23 UNL     1      -1.822  -4.762  -0.684  1.00  0.00     0.048 A 
HETATM   38  C24 UNL     1      -1.744  -3.438  -0.188  1.00  0.00     0.094 A 
BRANCH  36  39
HETATM   39  O8  UNL     1      -3.137  -6.592  -1.457  1.00  0.00    -0.328 OA
HETATM   40  C26 UNL     1      -1.916  -7.297  -1.629  1.00  0.00     0.181 C 
ENDBRANCH  36  39
BRANCH  38  41
HETATM   41  O7  UNL     1      -0.547  -2.908   0.096  1.00  0.00    -0.328 OA
HETATM   42  C25 UNL     1       0.601  -3.725  -0.084  1.00  0.00     0.181 C 
ENDBRANCH  38  41
ENDBRANCH  27  28
ENDBRANCH  25  27
ENDBRANCH  22  25
ENDBRANCH   1  22
TORSDOF 11
