REMARK  0 active torsions:
REMARK  status: ('A' for Active; 'I' for Inactive)
ROOT
HETATM    1  C1  UNL     1       3.547  -0.006   1.740  1.00  0.00     0.182 C 
HETATM    2  C2  UNL     1       4.098   0.680   0.469  1.00  0.00     0.183 C 
HETATM    3  C3  UNL     1       3.442   0.115  -0.805  1.00  0.00     0.043 C 
HETATM    4  C4  UNL     1       1.901   0.176  -0.736  1.00  0.00     0.065 C 
HETATM    5  C5  UNL     1       1.344  -0.527   0.525  1.00  0.00     0.013 C 
HETATM    6  C6  UNL     1       2.010   0.076   1.787  1.00  0.00     0.036 C 
HETATM    7  C7  UNL     1      -0.213  -0.416   0.582  1.00  0.00     0.021 C 
HETATM    8  C8  UNL     1      -0.892  -0.605  -0.774  1.00  0.00    -0.014 C 
HETATM    9  C9  UNL     1      -0.201  -0.652  -1.932  1.00  0.00     0.031 C 
HETATM   10  C10 UNL     1       1.242  -0.381  -1.983  1.00  0.00     0.172 C 
HETATM   11  O1  UNL     1       1.867  -0.600  -2.996  1.00  0.00    -0.291 OA
HETATM   12  C11 UNL     1      -2.404  -0.680  -0.715  1.00  0.00     0.148 C 
HETATM   13  C12 UNL     1      -2.902   0.672  -0.149  1.00  0.00     0.081 C 
HETATM   14  C13 UNL     1      -2.353   0.875   1.277  1.00  0.00     0.010 C 
HETATM   15  C14 UNL     1      -0.799   0.855   1.248  1.00  0.00     0.005 C 
HETATM   16  C15 UNL     1      -4.387   0.566  -0.348  1.00  0.00     0.152 C 
HETATM   17  C16 UNL     1      -4.664  -0.352  -1.508  1.00  0.00     0.068 C 
HETATM   18  C17 UNL     1      -3.271  -0.801  -1.990  1.00  0.00     0.043 C 
HETATM   19  O2  UNL     1      -5.225   1.123   0.320  1.00  0.00    -0.296 OA
HETATM   20  C18 UNL     1      -2.441   1.838  -1.033  1.00  0.00     0.010 C 
HETATM   21  O3  UNL     1      -2.762  -1.773   0.125  1.00  0.00    -0.221 OA
HETATM   22  C19 UNL     1       1.709  -2.023   0.463  1.00  0.00     0.001 C 
HETATM   23  O4  UNL     1       5.498   0.488   0.377  1.00  0.00    -0.221 OA
HETATM   24  O5  UNL     1       4.063   0.627   2.898  1.00  0.00    -0.221 OA
ENDROOT
TORSDOF 0
