REMARK  4 active torsions:
REMARK  status: ('A' for Active; 'I' for Inactive)
REMARK    1  A    between atoms: C3_3  and  O4_10 
REMARK    2  A    between atoms: C4_5  and  C6_8 
REMARK    3  A    between atoms: O4_10  and  C7_11 
REMARK    4  A    between atoms: C15_21  and  C16_22 
ROOT
HETATM    1  C7  UNL     1       0.720   0.676  -0.222  1.00  0.00     0.101 A 
HETATM    2  C8  UNL     1      -0.353  -0.213  -0.033  1.00  0.00     0.049 A 
HETATM    3  C9  UNL     1      -1.564   0.247   0.474  1.00  0.00     0.107 A 
HETATM    4  C10 UNL     1      -1.713   1.585   0.831  1.00  0.00     0.089 A 
HETATM    5  C11 UNL     1      -0.677   2.512   0.710  1.00  0.00     0.138 A 
HETATM    6  C12 UNL     1       0.521   2.015   0.175  1.00  0.00     0.052 A 
HETATM    7  O5  UNL     1      -0.815   3.817   1.058  1.00  0.00    -0.190 OA
HETATM    8  C13 UNL     1      -3.091   1.779   1.318  1.00  0.00     0.222 A 
HETATM    9  C14 UNL     1      -3.690   0.428   1.139  1.00  0.00     0.139 A 
HETATM   10  O6  UNL     1      -2.724  -0.481   0.687  1.00  0.00    -0.304 OA
HETATM   11  C15 UNL     1      -4.994   0.158   1.388  1.00  0.00     0.028 C 
HETATM   12  O9  UNL     1      -3.620   2.799   1.748  1.00  0.00    -0.284 OA
ENDROOT
BRANCH   1  13
HETATM   13  O4  UNL     1       1.881   0.143  -0.719  1.00  0.00    -0.303 OA
BRANCH  13  14
HETATM   14  C3  UNL     1       3.135   0.744  -0.475  1.00  0.00     0.274 C 
HETATM   15  C2  UNL     1       3.983  -0.239   0.296  1.00  0.00     0.241 C 
HETATM   16  C1  UNL     1       5.394   0.292   0.404  1.00  0.00     0.220 C 
HETATM   17  O10 UNL     1       3.439  -0.396   1.582  1.00  0.00    -0.215 OA
HETATM   18  C5  UNL     1       5.905   0.547  -0.999  1.00  0.00     0.215 C 
HETATM   19  O11 UNL     1       6.213  -0.659   1.035  1.00  0.00    -0.218 OA
HETATM   20  C4  UNL     1       4.966   1.498  -1.735  1.00  0.00     0.184 C 
HETATM   21  O2  UNL     1       7.198   1.090  -0.894  1.00  0.00    -0.218 OA
HETATM   22  O1  UNL     1       3.669   0.961  -1.764  1.00  0.00    -0.326 OA
BRANCH  20  23
HETATM   23  C6  UNL     1       5.419   1.729  -3.170  1.00  0.00     0.214 C 
HETATM   24  O3  UNL     1       4.581   2.686  -3.787  1.00  0.00    -0.218 OA
ENDBRANCH  20  23
ENDBRANCH  13  14
ENDBRANCH   1  13
BRANCH  11  25
HETATM   25  C16 UNL     1      -5.662  -1.141   1.214  1.00  0.00     0.004 A 
HETATM   26  C17 UNL     1      -6.895  -1.353   1.850  1.00  0.00     0.002 A 
HETATM   27  C18 UNL     1      -7.585  -2.552   1.682  1.00  0.00     0.029 A 
HETATM   28  C19 UNL     1      -7.088  -3.565   0.857  1.00  0.00     0.156 A 
HETATM   29  C20 UNL     1      -5.861  -3.371   0.213  1.00  0.00     0.156 A 
HETATM   30  O8  UNL     1      -7.747  -4.743   0.703  1.00  0.00    -0.188 OA
HETATM   31  C21 UNL     1      -5.185  -2.158   0.373  1.00  0.00     0.030 A 
HETATM   32  O7  UNL     1      -5.391  -4.338  -0.620  1.00  0.00    -0.188 OA
ENDBRANCH  11  25
TORSDOF 4
