REMARK  4 active torsions:
REMARK  status: ('A' for Active; 'I' for Inactive)
REMARK    1  A    between atoms: C1_1  and  C19_27 
REMARK    2  A    between atoms: C5_5  and  O2_7 
REMARK    3  A    between atoms: O2_7  and  C6_8 
REMARK    4  A    between atoms: C11_13  and  O3_14 
ROOT
HETATM    1  C6  UNL     1       1.213   0.393  -1.131  1.00  0.00     0.136 A 
HETATM    2  C7  UNL     1      -0.125   0.285  -1.586  1.00  0.00     0.106 A 
HETATM    3  C8  UNL     1      -0.463  -0.498  -2.688  1.00  0.00     0.021 A 
HETATM    4  C9  UNL     1       0.508  -1.227  -3.410  1.00  0.00     0.004 A 
HETATM    5  C10 UNL     1       1.854  -1.137  -2.979  1.00  0.00     0.026 A 
HETATM    6  C11 UNL     1       2.199  -0.336  -1.854  1.00  0.00     0.118 A 
HETATM    7  C13 UNL     1      -1.793  -0.414  -2.891  1.00  0.00     0.022 A 
HETATM    8  C14 UNL     1      -2.334   0.424  -1.922  1.00  0.00     0.095 A 
HETATM    9  C15 UNL     1      -3.729   0.650  -1.953  1.00  0.00     0.077 A 
HETATM   10  N1  UNL     1      -4.570   0.086  -2.889  1.00  0.00    -0.247 NA
HETATM   11  C16 UNL     1      -4.008  -0.750  -3.850  1.00  0.00     0.099 A 
HETATM   12  C17 UNL     1      -2.607  -1.027  -3.883  1.00  0.00     0.022 A 
HETATM   13  C18 UNL     1      -4.332   1.533  -0.941  1.00  0.00     0.054 C 
HETATM   14  N2  UNL     1      -1.301   0.881  -1.082  1.00  0.00    -0.242 NA
ENDROOT
BRANCH   1  15
HETATM   15  O2  UNL     1       1.668   1.107  -0.090  1.00  0.00    -0.300 OA
BRANCH  15  16
HETATM   16  C5  UNL     1       1.100   0.863   1.188  1.00  0.00     0.274 C 
HETATM   17  C4  UNL     1       1.664   1.832   2.270  1.00  0.00     0.241 C 
HETATM   18  C3  UNL     1       1.699   1.213   3.701  1.00  0.00     0.220 C 
HETATM   19  O4  UNL     1       2.930   2.357   1.895  1.00  0.00    -0.215 OA
HETATM   20  C2  UNL     1       0.576   0.162   3.846  1.00  0.00     0.215 C 
HETATM   21  O5  UNL     1       2.928   0.553   3.971  1.00  0.00    -0.218 OA
HETATM   22  C1  UNL     1       0.625  -0.928   2.725  1.00  0.00     0.184 C 
HETATM   23  O6  UNL     1      -0.664   0.850   3.828  1.00  0.00    -0.218 OA
HETATM   24  O1  UNL     1       1.336  -0.484   1.568  1.00  0.00    -0.326 OA
BRANCH  22  25
HETATM   25  C19 UNL     1      -0.740  -1.469   2.272  1.00  0.00     0.214 C 
HETATM   26  O7  UNL     1      -1.320  -2.162   3.352  1.00  0.00    -0.218 OA
ENDBRANCH  22  25
ENDBRANCH  15  16
ENDBRANCH   1  15
BRANCH   6  27
HETATM   27  O3  UNL     1       3.484  -0.273  -1.475  1.00  0.00    -0.326 OA
HETATM   28  C12 UNL     1       4.430  -1.061  -2.184  1.00  0.00     0.181 C 
ENDBRANCH   6  27
TORSDOF 4
