REMARK  2 active torsions:
REMARK  status: ('A' for Active; 'I' for Inactive)
REMARK    1  A    between atoms: C10_10  and  C11_11 
REMARK    2  A    between atoms: C11_11  and  C12_12 
ROOT
HETATM    1  C1  UNL     1      -2.730  -0.367  -0.381  1.00  0.00     0.073 A 
HETATM    2  C2  UNL     1      -2.808   1.127  -0.525  1.00  0.00     0.169 A 
HETATM    3  C3  UNL     1      -1.484   1.692  -0.340  1.00  0.00     0.005 A 
HETATM    4  C4  UNL     1      -0.586   0.727  -0.100  1.00  0.00    -0.041 A 
HETATM    5  C5  UNL     1      -1.230  -0.650  -0.113  1.00  0.00     0.026 A 
HETATM    6  C6  UNL     1      -0.658  -1.576  -1.197  1.00  0.00     0.004 C 
HETATM    7  C7  UNL     1       0.619  -2.336  -0.787  1.00  0.00     0.000 C 
HETATM    8  C8  UNL     1       1.631  -1.508   0.025  1.00  0.00     0.001 C 
HETATM    9  C9  UNL     1       1.836  -0.068  -0.480  1.00  0.00     0.009 C 
HETATM   10  C10 UNL     1       0.889   0.971   0.150  1.00  0.00     0.046 C 
HETATM   11  C14 UNL     1       1.282  -2.955  -2.023  1.00  0.00     0.000 C 
HETATM   12  C15 UNL     1      -1.181   3.166  -0.406  1.00  0.00     0.033 C 
HETATM   13  O3  UNL     1      -3.816   1.756  -0.760  1.00  0.00    -0.292 OA
ENDROOT
BRANCH  10  14
HETATM   14  C11 UNL     1       1.116   1.110   1.637  1.00  0.00     0.046 C 
HETATM   15  C13 UNL     1       2.221   1.740   2.061  1.00  0.00     0.002 C 
BRANCH  14  16
HETATM   16  C12 UNL     1       0.147   0.567   2.598  1.00  0.00     0.207 C 
HETATM   17  O1  UNL     1      -0.967   1.276   2.760  1.00  0.00    -0.644 OA
HETATM   18  O2  UNL     1       0.383  -0.463   3.188  1.00  0.00    -0.644 OA
ENDBRANCH  14  16
ENDBRANCH  10  14
TORSDOF 2
