REMARK  4 active torsions:
REMARK  status: ('A' for Active; 'I' for Inactive)
REMARK    1  A    between atoms: C7_7  and  C30_33 
REMARK    2  A    between atoms: C8_8  and  C9_10 
REMARK    3  A    between atoms: C30_33  and  C31_34 
REMARK    4  A    between atoms: C31_34  and  N4_35 
ROOT
HETATM    1  C9  UNL     1       0.402  -1.556   0.270  1.00  0.00     0.048 C 
HETATM    2  C10 UNL     1      -0.838  -1.472  -0.635  1.00  0.00     0.014 C 
HETATM    3  C11 UNL     1      -2.001  -1.809   0.303  1.00  0.00     0.073 C 
HETATM    4  C12 UNL     1      -3.296  -1.483  -0.380  1.00  0.00    -0.031 C 
HETATM    5  C13 UNL     1      -3.409  -1.500  -1.721  1.00  0.00    -0.048 C 
HETATM    6  C14 UNL     1      -2.240  -1.802  -2.641  1.00  0.00     0.022 C 
HETATM    7  C15 UNL     1      -0.942  -2.286  -1.942  1.00  0.00     0.004 C 
HETATM    8  C16 UNL     1       0.270  -2.013  -2.857  1.00  0.00     0.000 C 
HETATM    9  C17 UNL     1      -1.024  -3.814  -1.729  1.00  0.00     0.000 C 
HETATM   10  C18 UNL     1      -4.708  -1.164  -2.411  1.00  0.00     0.026 C 
HETATM   11  C19 UNL     1      -1.653  -1.103   1.620  1.00  0.00     0.282 C 
HETATM   12  C20 UNL     1      -0.088  -1.157   1.680  1.00  0.00     0.075 C 
HETATM   13  C21 UNL     1       0.252   0.256   2.088  1.00  0.00    -0.001 A 
HETATM   14  C22 UNL     1       1.496   0.759   2.466  1.00  0.00    -0.003 A 
HETATM   15  C23 UNL     1       1.601   2.115   2.793  1.00  0.00    -0.000 A 
HETATM   16  C24 UNL     1       0.484   2.959   2.741  1.00  0.00     0.002 A 
HETATM   17  C25 UNL     1      -0.767   2.464   2.368  1.00  0.00     0.018 A 
HETATM   18  C26 UNL     1      -0.861   1.103   2.062  1.00  0.00     0.074 A 
HETATM   19  N2  UNL     1      -1.959   0.346   1.689  1.00  0.00    -0.244 NA
HETATM   20  C27 UNL     1       0.179  -2.149   2.823  1.00  0.00     0.044 C 
HETATM   21  C28 UNL     1      -1.042  -1.910   3.724  1.00  0.00     0.253 C 
HETATM   22  N3  UNL     1      -2.143  -1.839   2.782  1.00  0.00     0.156 N 
HETATM   23  C29 UNL     1      -3.367  -1.328   3.367  1.00  0.00     0.288 C 
ENDROOT
BRANCH   1  24
HETATM   24  C8  UNL     1       1.665  -0.865  -0.192  1.00  0.00     0.055 A 
HETATM   25  C7  UNL     1       1.851   0.385  -0.766  1.00  0.00    -0.005 A 
HETATM   26  C5  UNL     1       3.252   0.522  -1.041  1.00  0.00     0.015 A 
HETATM   27  C4  UNL     1       3.894  -0.639  -0.601  1.00  0.00     0.081 A 
HETATM   28  C6  UNL     1       4.032   1.539  -1.656  1.00  0.00     0.001 A 
HETATM   29  C3  UNL     1       5.295  -0.832  -0.709  1.00  0.00     0.019 A 
HETATM   30  N1  UNL     1       2.919  -1.460  -0.096  1.00  0.00    -0.250 NA
HETATM   31  C2  UNL     1       6.031   0.180  -1.284  1.00  0.00     0.002 A 
HETATM   32  C1  UNL     1       5.395   1.360  -1.762  1.00  0.00     0.000 A 
BRANCH  25  33
HETATM   33  C30 UNL     1       0.789   1.423  -1.042  1.00  0.00     0.063 C 
BRANCH  33  34
HETATM   34  C31 UNL     1       1.152   2.905  -0.844  1.00  0.00     0.255 C 
BRANCH  34  35
HETATM   35  N4  UNL     1      -0.010   3.742  -0.546  1.00  0.00     0.142 N 
HETATM   36  C32 UNL     1       0.398   5.112  -0.269  1.00  0.00     0.285 C 
HETATM   37  C33 UNL     1      -1.002   3.715  -1.611  1.00  0.00     0.285 C 
ENDBRANCH  34  35
ENDBRANCH  33  34
ENDBRANCH  25  33
ENDBRANCH   1  24
TORSDOF 4
