REMARK  1 active torsions:
REMARK  status: ('A' for Active; 'I' for Inactive)
REMARK    1  A    between atoms: C11_13  and  C13_15 
ROOT
HETATM    1  C1  UNL     1      -4.672   1.211   0.912  1.00  0.00     0.131 A 
HETATM    2  C2  UNL     1      -4.799  -0.023   0.242  1.00  0.00     0.029 A 
HETATM    3  C3  UNL     1      -3.648  -0.756  -0.125  1.00  0.00     0.019 A 
HETATM    4  C4  UNL     1      -2.340  -0.273   0.170  1.00  0.00     0.065 A 
HETATM    5  C5  UNL     1      -2.230   0.986   0.853  1.00  0.00     0.057 A 
HETATM    6  C6  UNL     1      -3.389   1.717   1.219  1.00  0.00     0.032 A 
HETATM    7  C7  UNL     1      -0.887   1.535   1.184  1.00  0.00     0.197 A 
HETATM    8  C8  UNL     1       0.215   0.674   0.742  1.00  0.00     0.059 A 
HETATM    9  C9  UNL     1       0.008  -0.490   0.113  1.00  0.00     0.158 A 
HETATM   10  N1  UNL     1      -1.236  -1.016  -0.203  1.00  0.00    -0.307 N 
HETATM   11  C10 UNL     1      -1.328  -2.313  -0.904  1.00  0.00     0.133 C 
HETATM   12  O1  UNL     1       1.151  -1.109  -0.191  1.00  0.00    -0.316 OA
HETATM   13  C11 UNL     1       2.254  -0.355   0.330  1.00  0.00     0.155 A 
HETATM   14  C12 UNL     1       1.676   0.939   0.914  1.00  0.00     0.066 A 
HETATM   15  O3  UNL     1      -0.621   2.570   1.752  1.00  0.00    -0.287 OA
HETATM   16  O4  UNL     1      -5.766   1.904   1.258  1.00  0.00    -0.190 OA
ENDROOT
BRANCH  13  17
HETATM   17  C13 UNL     1       3.266  -0.096  -0.779  1.00  0.00     0.152 C 
HETATM   18  C14 UNL     1       4.447   0.693  -0.217  1.00  0.00     0.036 C 
HETATM   19  C15 UNL     1       3.688  -1.426  -1.406  1.00  0.00     0.036 C 
HETATM   20  O2  UNL     1       2.649   0.686  -1.777  1.00  0.00    -0.224 OA
ENDBRANCH  13  17
TORSDOF 1
