REMARK  5 active torsions:
REMARK  status: ('A' for Active; 'I' for Inactive)
REMARK    1  A    between atoms: C8_8  and  C10_12 
REMARK    2  A    between atoms: C10_12  and  C11_13 
REMARK    3  A    between atoms: C15_18  and  C17_20 
REMARK    4  A    between atoms: C17_20  and  O4_23 
REMARK    5  A    between atoms: O4_23  and  C20_24 
ROOT
HETATM    1  C1  UNL     1      -0.089   0.181  -1.206  1.00  0.00     0.003 A 
HETATM    2  C2  UNL     1       0.224  -1.175  -1.385  1.00  0.00     0.092 A 
HETATM    3  C3  UNL     1       0.996  -1.830  -0.388  1.00  0.00     0.049 A 
HETATM    4  C4  UNL     1       1.448  -1.154   0.766  1.00  0.00     0.105 A 
HETATM    5  C5  UNL     1       1.119   0.211   0.931  1.00  0.00     0.023 A 
HETATM    6  C6  UNL     1       0.355   0.876  -0.051  1.00  0.00    -0.000 A 
HETATM    7  C7  UNL     1       1.592   0.917   2.148  1.00  0.00     0.003 A 
HETATM    8  C8  UNL     1       2.322   0.235   3.054  1.00  0.00     0.044 A 
HETATM    9  C9  UNL     1       2.638  -1.196   2.819  1.00  0.00     0.296 A 
HETATM   10  O1  UNL     1       2.183  -1.799   1.700  1.00  0.00    -0.273 OA
HETATM   11  O2  UNL     1       3.299  -1.789   3.640  1.00  0.00    -0.259 OA
HETATM   12  O3  UNL     1      -0.276  -1.664  -2.520  1.00  0.00    -0.331 OA
HETATM   13  C15 UNL     1      -0.995  -0.650  -3.243  1.00  0.00     0.151 A 
HETATM   14  C16 UNL     1      -0.904   0.651  -2.383  1.00  0.00     0.061 A 
ENDROOT
BRANCH  13  15
HETATM   15  C17 UNL     1      -2.439  -1.098  -3.447  1.00  0.00     0.127 C 
HETATM   16  C18 UNL     1      -2.468  -2.322  -4.363  1.00  0.00     0.033 C 
HETATM   17  C19 UNL     1      -3.087  -1.363  -2.088  1.00  0.00     0.033 C 
BRANCH  15  18
HETATM   18  O4  UNL     1      -3.100  -0.015  -4.084  1.00  0.00    -0.304 OA
BRANCH  18  19
HETATM   19  C20 UNL     1      -4.358  -0.305  -4.401  1.00  0.00     0.272 C 
HETATM   20  C21 UNL     1      -4.984   0.597  -5.431  1.00  0.00     0.106 C 
HETATM   21  O5  UNL     1      -4.981  -1.220  -3.915  1.00  0.00    -0.264 OA
ENDBRANCH  18  19
ENDBRANCH  15  18
ENDBRANCH  13  15
BRANCH   8  22
HETATM   22  C10 UNL     1       2.813   0.931   4.298  1.00  0.00     0.043 C 
HETATM   23  C13 UNL     1       2.264   0.297   5.576  1.00  0.00     0.009 C 
HETATM   24  C14 UNL     1       2.154   2.296   4.501  1.00  0.00     0.009 C 
BRANCH  22  25
HETATM   25  C11 UNL     1       4.316   1.014   4.298  1.00  0.00    -0.022 C 
HETATM   26  C12 UNL     1       4.891   2.227   4.298  1.00  0.00    -0.005 C 
ENDBRANCH  22  25
ENDBRANCH   8  22
TORSDOF 5
