REMARK  1 active torsions:
REMARK  status: ('A' for Active; 'I' for Inactive)
REMARK    1  A    between atoms: C16_16  and  C25_25 
ROOT
HETATM    1  C1  UNL     1      -5.018  -0.072   1.221  1.00  0.00     0.065 C 
HETATM    2  C2  UNL     1      -5.463  -1.348   0.543  1.00  0.00     0.150 C 
HETATM    3  C3  UNL     1      -5.018  -1.553  -0.893  1.00  0.00     0.051 C 
HETATM    4  C4  UNL     1      -3.485  -1.285  -1.027  1.00  0.00     0.006 C 
HETATM    5  C5  UNL     1      -3.033   0.068  -0.395  1.00  0.00     0.001 C 
HETATM    6  C6  UNL     1      -3.506   0.141   1.078  1.00  0.00     0.008 C 
HETATM    7  C7  UNL     1      -1.490   0.236  -0.555  1.00  0.00     0.001 C 
HETATM    8  C8  UNL     1      -0.602  -0.947  -0.063  1.00  0.00     0.003 C 
HETATM    9  C9  UNL     1      -1.125  -2.244  -0.717  1.00  0.00     0.000 C 
HETATM   10  C10 UNL     1      -2.629  -2.459  -0.494  1.00  0.00     0.000 C 
HETATM   11  C11 UNL     1       0.887  -0.654  -0.447  1.00  0.00     0.015 C 
HETATM   12  C12 UNL     1       1.383   0.561   0.334  1.00  0.00    -0.053 C 
HETATM   13  C13 UNL     1       0.350   1.623   0.688  1.00  0.00     0.021 C 
HETATM   14  C14 UNL     1      -0.947   1.625  -0.141  1.00  0.00     0.004 C 
HETATM   15  C15 UNL     1       2.682   0.688   0.717  1.00  0.00    -0.050 C 
HETATM   16  C16 UNL     1       3.762  -0.344   0.395  1.00  0.00     0.045 C 
HETATM   17  C17 UNL     1       3.258  -1.523  -0.461  1.00  0.00     0.007 C 
HETATM   18  C18 UNL     1       1.801  -1.867  -0.154  1.00  0.00     0.004 C 
HETATM   19  C19 UNL     1       4.912   0.379  -0.346  1.00  0.00     0.006 C 
HETATM   20  C20 UNL     1       5.432   1.623   0.398  1.00  0.00     0.001 C 
HETATM   21  C21 UNL     1       4.309   2.619   0.746  1.00  0.00     0.004 C 
HETATM   22  C22 UNL     1       3.197   1.879   1.512  1.00  0.00     0.021 C 
HETATM   23  C23 UNL     1       4.871   3.746   1.617  1.00  0.00     0.000 C 
HETATM   24  C24 UNL     1       3.734   3.242  -0.533  1.00  0.00     0.000 C 
HETATM   25  C26 UNL     1       1.010  -0.314  -1.945  1.00  0.00     0.004 C 
HETATM   26  C27 UNL     1      -0.684  -1.123   1.465  1.00  0.00     0.000 C 
HETATM   27  C28 UNL     1      -3.692   1.231  -1.160  1.00  0.00     0.000 C 
HETATM   28  C29 UNL     1      -5.824  -0.594  -1.773  1.00  0.00     0.007 C 
HETATM   29  C30 UNL     1      -5.371  -2.971  -1.361  1.00  0.00     0.007 C 
HETATM   30  O2  UNL     1      -6.137  -2.164   1.133  1.00  0.00    -0.296 OA
ENDROOT
BRANCH  16  31
HETATM   31  C25 UNL     1       4.271  -0.912   1.727  1.00  0.00     0.186 C 
HETATM   32  O1  UNL     1       5.330  -1.801   1.451  1.00  0.00    -0.220 OA
ENDBRANCH  16  31
TORSDOF 1
