REMARK  1 active torsions:
REMARK  status: ('A' for Active; 'I' for Inactive)
REMARK    1  A    between atoms: C3_3  and  C8_8 
ROOT
HETATM    1  C1  UNL     1      -0.561   1.269   0.354  1.00  0.00     0.018 A 
HETATM    2  C2  UNL     1      -1.338   0.365   1.283  1.00  0.00     0.004 A 
HETATM    3  C3  UNL     1      -0.393  -0.229   0.256  1.00  0.00     0.004 A 
HETATM    4  C4  UNL     1       1.027  -0.633   0.686  1.00  0.00     0.004 C 
HETATM    5  C5  UNL     1       1.813   0.684   0.822  1.00  0.00     0.022 C 
HETATM    6  C6  UNL     1       0.793   1.785   0.756  1.00  0.00    -0.044 C 
HETATM    7  C7  UNL     1       1.072   3.068   1.037  1.00  0.00    -0.009 C 
ENDROOT
BRANCH   3   8
HETATM    8  C8  UNL     1      -1.002  -0.963  -0.932  1.00  0.00     0.000 C 
HETATM    9  C9  UNL     1      -1.098  -2.455  -0.611  1.00  0.00     0.000 C 
HETATM   10  C10 UNL     1      -0.174  -0.682  -2.186  1.00  0.00     0.000 C 
ENDBRANCH   3   8
TORSDOF 1
