REMARK  6 active torsions:
REMARK  status: ('A' for Active; 'I' for Inactive)
REMARK    1  A    between atoms: C1_2  and  O10_21 
REMARK    2  A    between atoms: C5_6  and  C6_7 
REMARK    3  A    between atoms: C6_7  and  O2_8 
REMARK    4  A    between atoms: O2_8  and  C7_9 
REMARK    5  A    between atoms: O10_21  and  C12_22 
REMARK    6  A    between atoms: C12_22  and  C13_23 
ROOT
HETATM    1  O1  UNL     1      -0.652   1.496   0.978  1.00  0.00    -0.326 OA
HETATM    2  C1  UNL     1      -1.881   1.084   1.562  1.00  0.00     0.270 C 
HETATM    3  C2  UNL     1      -2.187   1.951   2.810  1.00  0.00     0.241 C 
HETATM    4  C3  UNL     1      -2.160   3.457   2.461  1.00  0.00     0.220 C 
HETATM    5  C4  UNL     1      -0.857   3.797   1.705  1.00  0.00     0.215 C 
HETATM    6  C5  UNL     1      -0.629   2.840   0.514  1.00  0.00     0.180 C 
HETATM    7  O7  UNL     1      -0.920   5.125   1.213  1.00  0.00    -0.218 OA
HETATM    8  O8  UNL     1      -2.242   4.227   3.648  1.00  0.00    -0.218 OA
HETATM    9  O9  UNL     1      -3.469   1.609   3.316  1.00  0.00    -0.215 OA
ENDROOT
BRANCH   2  10
HETATM   10  O10 UNL     1      -1.766  -0.279   1.922  1.00  0.00    -0.325 OA
BRANCH  10  11
HETATM   11  C12 UNL     1      -1.676  -1.141   0.810  1.00  0.00     0.167 C 
BRANCH  11  12
HETATM   12  C13 UNL     1      -1.674  -2.570   1.283  1.00  0.00    -0.019 C 
HETATM   13  C14 UNL     1      -2.822  -3.240   1.506  1.00  0.00    -0.032 C 
HETATM   14  C15 UNL     1      -2.717  -4.676   1.980  1.00  0.00     0.025 C 
HETATM   15  C16 UNL     1      -1.244  -5.123   2.123  1.00  0.00     0.005 C 
HETATM   16  C17 UNL     1      -0.346  -4.750   0.902  1.00  0.00     0.004 C 
HETATM   17  C19 UNL     1      -0.393  -4.072   2.887  1.00  0.00     0.004 C 
HETATM   18  C18 UNL     1      -0.357  -3.320   1.529  1.00  0.00     0.020 C 
HETATM   19  C20 UNL     1       1.025  -5.432   0.881  1.00  0.00     0.000 C 
HETATM   20  C21 UNL     1      -1.016  -4.873  -0.465  1.00  0.00     0.000 C 
ENDBRANCH  11  12
ENDBRANCH  10  11
ENDBRANCH   2  10
BRANCH   6  21
HETATM   21  C6  UNL     1       0.727   3.047  -0.168  1.00  0.00     0.177 C 
BRANCH  21  22
HETATM   22  O2  UNL     1       0.758   2.256  -1.336  1.00  0.00    -0.326 OA
BRANCH  22  23
HETATM   23  C7  UNL     1       1.992   2.326  -2.022  1.00  0.00     0.270 C 
HETATM   24  O3  UNL     1       2.141   3.637  -2.555  1.00  0.00    -0.326 OA
HETATM   25  C8  UNL     1       3.359   3.867  -3.252  1.00  0.00     0.181 C 
HETATM   26  C9  UNL     1       3.486   2.916  -4.463  1.00  0.00     0.215 C 
HETATM   27  C10 UNL     1       3.318   1.445  -4.014  1.00  0.00     0.220 C 
HETATM   28  O6  UNL     1       2.514   3.275  -5.432  1.00  0.00    -0.218 OA
HETATM   29  C11 UNL     1       2.039   1.273  -3.164  1.00  0.00     0.241 C 
HETATM   30  O5  UNL     1       3.315   0.572  -5.133  1.00  0.00    -0.218 OA
HETATM   31  O4  UNL     1       2.018  -0.029  -2.602  1.00  0.00    -0.215 OA
ENDBRANCH  22  23
ENDBRANCH  21  22
ENDBRANCH   6  21
TORSDOF 6
