REMARK  7 active torsions:
REMARK  status: ('A' for Active; 'I' for Inactive)
REMARK    1  A    between atoms: C2_2  and  C7_8 
REMARK    2  A    between atoms: C8_9  and  C9_10 
REMARK    3  A    between atoms: C9_10  and  C10_11 
REMARK    4  A    between atoms: C12_13  and  C22_30 
REMARK    5  A    between atoms: C14_15  and  C16_18 
REMARK    6  A    between atoms: C16_18  and  C17_20 
REMARK    7  A    between atoms: C26_34  and  C27_36 
ROOT
HETATM    1  C10 UNL     1      -0.364   2.317   0.497  1.00  0.00     0.102 C 
HETATM    2  C11 UNL     1      -1.480   1.759   1.007  1.00  0.00     0.151 C 
HETATM    3  C12 UNL     1      -1.680   0.265   1.037  1.00  0.00     0.237 C 
HETATM    4  C13 UNL     1      -0.319  -0.376   1.131  1.00  0.00     0.146 C 
HETATM    5  C14 UNL     1       0.756   0.215   0.576  1.00  0.00     0.073 C 
HETATM    6  C15 UNL     1       0.678   1.505   0.144  1.00  0.00     0.201 C 
HETATM    7  O2  UNL     1       1.647   1.947  -0.430  1.00  0.00    -0.287 OA
HETATM    8  O8  UNL     1      -0.273  -1.624   1.666  1.00  0.00    -0.192 OA
HETATM    9  O14 UNL     1      -2.431  -0.049   2.196  1.00  0.00    -0.210 OA
HETATM   10  O15 UNL     1      -2.555   2.434   1.505  1.00  0.00    -0.192 OA
ENDROOT
BRANCH   3  11
HETATM   11  C22 UNL     1      -2.491  -0.163  -0.203  1.00  0.00     0.188 C 
HETATM   12  C23 UNL     1      -3.105  -1.561  -0.147  1.00  0.00     0.215 C 
HETATM   13  C24 UNL     1      -3.880  -1.830  -1.420  1.00  0.00     0.218 C 
HETATM   14  O13 UNL     1      -2.131  -2.565  -0.035  1.00  0.00    -0.218 OA
HETATM   15  C25 UNL     1      -4.928  -0.754  -1.592  1.00  0.00     0.214 C 
HETATM   16  O12 UNL     1      -4.509  -3.084  -1.337  1.00  0.00    -0.218 OA
HETATM   17  C26 UNL     1      -4.248   0.607  -1.583  1.00  0.00     0.181 C 
HETATM   18  O11 UNL     1      -5.590  -0.985  -2.811  1.00  0.00    -0.218 OA
HETATM   19  O9  UNL     1      -3.534   0.762  -0.386  1.00  0.00    -0.348 OA
BRANCH  17  20
HETATM   20  C27 UNL     1      -5.254   1.744  -1.685  1.00  0.00     0.214 C 
HETATM   21  O10 UNL     1      -4.560   2.970  -1.804  1.00  0.00    -0.218 OA
ENDBRANCH  17  20
ENDBRANCH   3  11
BRANCH   1  22
HETATM   22  C9  UNL     1      -0.319   3.678   0.336  1.00  0.00     0.201 C 
HETATM   23  O16 UNL     1      -1.357   4.297   0.210  1.00  0.00    -0.286 OA
BRANCH  22  24
HETATM   24  C8  UNL     1       0.800   4.460   0.311  1.00  0.00     0.042 C 
HETATM   25  C7  UNL     1       2.070   4.285   0.726  1.00  0.00     0.003 C 
BRANCH  25  26
HETATM   26  C2  UNL     1       2.650   3.396   1.559  1.00  0.00     0.000 A 
HETATM   27  C1  UNL     1       3.994   3.304   1.587  1.00  0.00     0.002 A 
HETATM   28  C6  UNL     1       4.624   2.429   2.385  1.00  0.00     0.027 A 
HETATM   29  C5  UNL     1       3.943   1.634   3.225  1.00  0.00     0.131 A 
HETATM   30  C4  UNL     1       2.607   1.762   3.243  1.00  0.00     0.027 A 
HETATM   31  O1  UNL     1       4.589   0.740   4.021  1.00  0.00    -0.190 OA
HETATM   32  C3  UNL     1       1.977   2.632   2.439  1.00  0.00     0.002 A 
ENDBRANCH  25  26
ENDBRANCH  22  24
ENDBRANCH   1  22
BRANCH   5  33
HETATM   33  C16 UNL     1       2.088  -0.529   0.462  1.00  0.00     0.209 C 
HETATM   34  O3  UNL     1       3.183   0.348   0.697  1.00  0.00    -0.216 OA
BRANCH  33  35
HETATM   35  C17 UNL     1       2.349  -1.290  -0.842  1.00  0.00     0.183 C 
HETATM   36  C18 UNL     1       1.257  -2.298  -1.174  1.00  0.00     0.215 C 
HETATM   37  C19 UNL     1       1.615  -3.178  -2.355  1.00  0.00     0.218 C 
HETATM   38  O7  UNL     1       0.067  -1.629  -1.496  1.00  0.00    -0.218 OA
HETATM   39  C20 UNL     1       2.995  -3.769  -2.173  1.00  0.00     0.214 C 
HETATM   40  O6  UNL     1       0.680  -4.228  -2.432  1.00  0.00    -0.218 OA
HETATM   41  C21 UNL     1       3.981  -2.670  -1.826  1.00  0.00     0.178 C 
HETATM   42  O5  UNL     1       2.927  -4.715  -1.132  1.00  0.00    -0.218 OA
HETATM   43  O4  UNL     1       3.568  -1.971  -0.680  1.00  0.00    -0.348 OA
ENDBRANCH  33  35
ENDBRANCH   5  33
TORSDOF 7
