REMARK  6 active torsions:
REMARK  status: ('A' for Active; 'I' for Inactive)
REMARK    1  A    between atoms: C3_3  and  C4_4 
REMARK    2  A    between atoms: C5_5  and  C6_6 
REMARK    3  A    between atoms: C7_7  and  C8_8 
REMARK    4  A    between atoms: C9_9  and  C10_10 
REMARK    5  A    between atoms: C11_11  and  C12_12 
REMARK    6  A    between atoms: C12_12  and  C13_13 
ROOT
HETATM    1  C8  UNL     1       0.619  -0.807   0.217  1.00  0.00    -0.009 C 
HETATM    2  C9  UNL     1       1.806  -0.762   0.217  1.00  0.00    -0.051 C 
ENDROOT
BRANCH   1   3
HETATM    3  C7  UNL     1      -0.760  -0.859   0.217  1.00  0.00    -0.001 C 
HETATM    4  C6  UNL     1      -1.949  -0.904   0.217  1.00  0.00    -0.001 C 
BRANCH   4   5
HETATM    5  C5  UNL     1      -3.328  -0.957   0.217  1.00  0.00    -0.009 C 
HETATM    6  C4  UNL     1      -4.518  -1.002   0.217  1.00  0.00    -0.051 C 
BRANCH   6   7
HETATM    7  C3  UNL     1      -5.953  -1.055   0.217  1.00  0.00     0.045 C 
HETATM    8  C2  UNL     1      -6.682   0.072   0.217  1.00  0.00    -0.017 C 
HETATM    9  C1  UNL     1      -8.184  -0.041   0.217  1.00  0.00     0.031 C 
ENDBRANCH   6   7
ENDBRANCH   4   5
ENDBRANCH   1   3
BRANCH   2  10
HETATM   10  C10 UNL     1       3.244  -0.707   0.217  1.00  0.00     0.048 C 
HETATM   11  C11 UNL     1       3.885   0.473   0.217  1.00  0.00     0.018 C 
BRANCH  11  12
HETATM   12  C12 UNL     1       5.389   0.473   0.217  1.00  0.00     0.208 C 
HETATM   13  O2  UNL     1       5.859   1.053   1.412  1.00  0.00    -0.216 OA
BRANCH  12  14
HETATM   14  C13 UNL     1       5.973   1.258  -0.959  1.00  0.00     0.220 C 
HETATM   15  O1  UNL     1       5.623   0.594  -2.151  1.00  0.00    -0.217 OA
ENDBRANCH  12  14
ENDBRANCH  11  12
ENDBRANCH   2  10
TORSDOF 6
