REMARK  9 active torsions:
REMARK  status: ('A' for Active; 'I' for Inactive)
REMARK    1  A    between atoms: C1_1  and  O14_42 
REMARK    2  A    between atoms: C7_8  and  C23_35 
REMARK    3  A    between atoms: C8_9  and  O3_12 
REMARK    4  A    between atoms: O3_12  and  C10_13 
REMARK    5  A    between atoms: C12_16  and  O11_30 
REMARK    6  A    between atoms: C13_17  and  O6_20 
REMARK    7  A    between atoms: O6_20  and  C15_21 
REMARK    8  A    between atoms: O11_30  and  C20_31 
REMARK    9  A    between atoms: O14_42  and  C29_43 
ROOT
HETATM    1  C1  UNL     1      -5.125   0.078  -2.430  1.00  0.00     0.099 A 
HETATM    2  C2  UNL     1      -4.965  -1.225  -1.900  1.00  0.00     0.025 A 
HETATM    3  C3  UNL     1      -3.670  -1.760  -1.709  1.00  0.00     0.007 A 
HETATM    4  C4  UNL     1      -2.535  -0.982  -2.049  1.00  0.00     0.064 A 
HETATM    5  C5  UNL     1      -2.691   0.324  -2.578  1.00  0.00     0.105 A 
HETATM    6  C6  UNL     1      -3.990   0.852  -2.770  1.00  0.00     0.049 A 
HETATM    7  O1  UNL     1      -1.607   1.061  -2.900  1.00  0.00    -0.305 OA
HETATM    8  C7  UNL     1      -0.338   0.629  -2.746  1.00  0.00     0.125 A 
HETATM    9  C8  UNL     1      -0.057  -0.602  -2.252  1.00  0.00     0.158 A 
HETATM   10  C9  UNL     1      -1.160  -1.514  -1.861  1.00  0.00     0.222 A 
HETATM   11  O2  UNL     1      -0.854  -2.602  -1.426  1.00  0.00    -0.284 OA
ENDROOT
BRANCH   9  12
HETATM   12  O3  UNL     1       1.203  -1.016  -2.106  1.00  0.00    -0.298 OA
BRANCH  12  13
HETATM   13  C10 UNL     1       1.791  -0.545  -0.902  1.00  0.00     0.274 C 
HETATM   14  O4  UNL     1       1.104  -1.119   0.201  1.00  0.00    -0.329 OA
HETATM   15  C11 UNL     1       1.568  -0.705   1.478  1.00  0.00     0.148 C 
HETATM   16  C12 UNL     1       3.043  -1.119   1.648  1.00  0.00     0.181 C 
HETATM   17  C22 UNL     1       0.656  -1.350   2.525  1.00  0.00     0.035 C 
HETATM   18  C13 UNL     1       3.910  -0.563   0.506  1.00  0.00     0.183 C 
HETATM   19  C14 UNL     1       3.283  -0.939  -0.854  1.00  0.00     0.238 C 
HETATM   20  O5  UNL     1       3.965  -0.270  -1.900  1.00  0.00    -0.215 OA
BRANCH  16  21
HETATM   21  O11 UNL     1       3.525  -0.631   2.895  1.00  0.00    -0.299 OA
BRANCH  21  22
HETATM   22  C20 UNL     1       3.250  -1.455   3.902  1.00  0.00     0.273 C 
HETATM   23  C21 UNL     1       3.305  -0.832   5.272  1.00  0.00     0.106 C 
HETATM   24  O12 UNL     1       2.973  -2.623   3.760  1.00  0.00    -0.264 OA
ENDBRANCH  21  22
ENDBRANCH  16  21
BRANCH  18  25
HETATM   25  O6  UNL     1       5.219  -1.094   0.611  1.00  0.00    -0.326 OA
BRANCH  25  26
HETATM   26  C15 UNL     1       5.984  -0.486   1.633  1.00  0.00     0.270 C 
HETATM   27  O7  UNL     1       6.139  -1.418   2.697  1.00  0.00    -0.326 OA
HETATM   28  C16 UNL     1       6.854  -0.928   3.820  1.00  0.00     0.181 C 
HETATM   29  C17 UNL     1       8.289  -0.555   3.400  1.00  0.00     0.215 C 
HETATM   30  C18 UNL     1       8.283   0.455   2.230  1.00  0.00     0.220 C 
HETATM   31  O10 UNL     1       8.953  -0.002   4.523  1.00  0.00    -0.218 OA
HETATM   32  C19 UNL     1       7.379  -0.070   1.094  1.00  0.00     0.241 C 
HETATM   33  O9  UNL     1       9.606   0.639   1.750  1.00  0.00    -0.218 OA
HETATM   34  O8  UNL     1       7.221   0.943   0.113  1.00  0.00    -0.215 OA
ENDBRANCH  25  26
ENDBRANCH  18  25
ENDBRANCH  12  13
ENDBRANCH   9  12
BRANCH   8  35
HETATM   35  C23 UNL     1       0.783   1.535  -3.135  1.00  0.00     0.025 A 
HETATM   36  C24 UNL     1       1.887   1.027  -3.844  1.00  0.00     0.004 A 
HETATM   37  C25 UNL     1       2.941   1.883  -4.209  1.00  0.00     0.028 A 
HETATM   38  C26 UNL     1       2.898   3.246  -3.867  1.00  0.00     0.131 A 
HETATM   39  C27 UNL     1       1.793   3.752  -3.160  1.00  0.00     0.028 A 
HETATM   40  O13 UNL     1       3.887   4.047  -4.211  1.00  0.00    -0.190 OA
HETATM   41  C28 UNL     1       0.738   2.898  -2.793  1.00  0.00     0.004 A 
ENDBRANCH   8  35
BRANCH   1  42
HETATM   42  O14 UNL     1      -6.356   0.580  -2.611  1.00  0.00    -0.304 OA
BRANCH  42  43
HETATM   43  C29 UNL     1      -7.426   0.006  -1.873  1.00  0.00     0.274 C 
HETATM   44  O15 UNL     1      -7.111   0.066  -0.488  1.00  0.00    -0.329 OA
HETATM   45  C30 UNL     1      -8.080  -0.520   0.373  1.00  0.00     0.151 C 
HETATM   46  C31 UNL     1      -9.424   0.230   0.219  1.00  0.00     0.212 C 
HETATM   47  C34 UNL     1      -7.512  -0.443   1.793  1.00  0.00     0.035 C 
HETATM   48  C32 UNL     1      -9.883   0.266  -1.256  1.00  0.00     0.220 C 
HETATM   49  O18 UNL     1     -10.403  -0.424   1.010  1.00  0.00    -0.218 OA
HETATM   50  C33 UNL     1      -8.733   0.777  -2.149  1.00  0.00     0.241 C 
HETATM   51  O17 UNL     1     -11.012   1.115  -1.389  1.00  0.00    -0.218 OA
HETATM   52  O16 UNL     1      -9.072   0.617  -3.514  1.00  0.00    -0.215 OA
ENDBRANCH  42  43
ENDBRANCH   1  42
TORSDOF 9
