REMARK  1 active torsions:
REMARK  status: ('A' for Active; 'I' for Inactive)
REMARK    1  A    between atoms: C3_3  and  C30_32 
ROOT
HETATM    1  C1  UNL     1       4.002   0.539  -2.115  1.00  0.00     0.033 C 
HETATM    2  C2  UNL     1       5.066   1.068  -1.123  1.00  0.00     0.154 C 
HETATM    3  C3  UNL     1       4.830   0.643   0.361  1.00  0.00     0.059 C 
HETATM    4  C4  UNL     1       3.311   0.418   0.543  1.00  0.00     0.005 C 
HETATM    5  C5  UNL     1       2.752  -0.787  -0.279  1.00  0.00     0.004 C 
HETATM    6  C6  UNL     1       3.434  -0.816  -1.682  1.00  0.00     0.003 C 
HETATM    7  C7  UNL     1       1.213  -0.594  -0.346  1.00  0.00     0.022 C 
HETATM    8  C8  UNL     1       0.521  -0.451   1.059  1.00  0.00     0.006 C 
HETATM    9  C9  UNL     1       1.260   0.570   1.965  1.00  0.00     0.000 C 
HETATM   10  C10 UNL     1       2.783   0.385   1.984  1.00  0.00     0.000 C 
HETATM   11  C11 UNL     1      -0.953   0.018   0.807  1.00  0.00     0.029 C 
HETATM   12  C12 UNL     1      -1.711  -1.086  -0.025  1.00  0.00     0.111 C 
HETATM   13  C13 UNL     1      -0.867  -1.772  -1.086  1.00  0.00    -0.004 C 
HETATM   14  C14 UNL     1       0.461  -1.582  -1.213  1.00  0.00    -0.029 C 
HETATM   15  C15 UNL     1      -3.080  -0.623  -0.561  1.00  0.00     0.034 C 
HETATM   16  C16 UNL     1      -3.834  -0.514   0.777  1.00  0.00     0.058 C 
HETATM   17  C17 UNL     1      -3.273   0.510   1.818  1.00  0.00     0.155 C 
HETATM   18  C18 UNL     1      -1.766   0.303   2.100  1.00  0.00     0.036 C 
HETATM   19  O1  UNL     1      -3.473   1.846   1.402  1.00  0.00    -0.223 OA
HETATM   20  C19 UNL     1      -5.336  -0.373   0.465  1.00  0.00     0.005 C 
HETATM   21  C20 UNL     1      -5.643   0.764  -0.539  1.00  0.00     0.000 C 
HETATM   22  C21 UNL     1      -4.803   0.689  -1.838  1.00  0.00     0.000 C 
HETATM   23  C22 UNL     1      -3.299   0.576  -1.500  1.00  0.00     0.003 C 
HETATM   24  C23 UNL     1      -5.035   1.957  -2.666  1.00  0.00     0.000 C 
HETATM   25  C24 UNL     1      -5.252  -0.512  -2.684  1.00  0.00     0.000 C 
HETATM   26  C25 UNL     1      -3.471  -1.918   1.289  1.00  0.00     0.145 C 
HETATM   27  O2  UNL     1      -2.139  -2.127   0.848  1.00  0.00    -0.355 OA
HETATM   28  C26 UNL     1      -0.896   1.328   0.004  1.00  0.00     0.003 C 
HETATM   29  C27 UNL     1       0.553  -1.799   1.807  1.00  0.00     0.000 C 
HETATM   30  C28 UNL     1       3.059  -2.131   0.404  1.00  0.00     0.000 C 
HETATM   31  C29 UNL     1       5.588  -0.633   0.762  1.00  0.00     0.005 C 
HETATM   32  O4  UNL     1       6.359   0.695  -1.562  1.00  0.00    -0.223 OA
ENDROOT
BRANCH   3  33
HETATM   33  C30 UNL     1       5.330   1.775   1.268  1.00  0.00     0.185 C 
HETATM   34  O3  UNL     1       6.678   2.037   0.943  1.00  0.00    -0.221 OA
ENDBRANCH   3  33
TORSDOF 1
