REMARK  3 active torsions:
REMARK  status: ('A' for Active; 'I' for Inactive)
REMARK    1  A    between atoms: C2_2  and  O4_19 
REMARK    2  A    between atoms: C8_8  and  C9_10 
REMARK    3  A    between atoms: C12_13  and  O2_16 
ROOT
HETATM    1  C1  UNL     1      -4.322  -0.938   0.033  1.00  0.00     0.153 A 
HETATM    2  C2  UNL     1      -4.315   0.484  -0.084  1.00  0.00     0.121 A 
HETATM    3  C3  UNL     1      -3.082   1.189  -0.160  1.00  0.00     0.051 A 
HETATM    4  C4  UNL     1      -1.897   0.426  -0.109  1.00  0.00     0.102 A 
HETATM    5  C5  UNL     1      -1.889  -0.932   0.004  1.00  0.00     0.027 A 
HETATM    6  C6  UNL     1      -3.098  -1.662   0.080  1.00  0.00     0.032 A 
HETATM    7  C7  UNL     1      -0.625  -1.406   0.031  1.00  0.00     0.027 A 
HETATM    8  C8  UNL     1       0.213  -0.270  -0.076  1.00  0.00     0.102 A 
HETATM    9  O1  UNL     1      -0.600   0.902  -0.166  1.00  0.00    -0.307 OA
HETATM   10  O5  UNL     1      -5.487  -1.598   0.104  1.00  0.00    -0.188 OA
ENDROOT
BRANCH   8  11
HETATM   11  C9  UNL     1       1.693  -0.205  -0.098  1.00  0.00     0.048 A 
HETATM   12  C10 UNL     1       2.369   0.476  -1.133  1.00  0.00     0.135 A 
HETATM   13  C11 UNL     1       3.773   0.523  -1.131  1.00  0.00     0.052 A 
HETATM   14  O3  UNL     1       1.701   1.070  -2.103  1.00  0.00    -0.190 OA
HETATM   15  C12 UNL     1       4.510  -0.100  -0.109  1.00  0.00     0.096 A 
HETATM   16  C13 UNL     1       3.832  -0.777   0.920  1.00  0.00     0.024 A 
HETATM   17  C14 UNL     1       2.430  -0.830   0.926  1.00  0.00     0.006 A 
BRANCH  15  18
HETATM   18  O2  UNL     1       5.826  -0.051  -0.115  1.00  0.00    -0.328 OA
HETATM   19  C15 UNL     1       6.518  -0.594   1.000  1.00  0.00     0.181 C 
ENDBRANCH  15  18
ENDBRANCH   8  11
BRANCH   2  20
HETATM   20  O4  UNL     1      -5.471   1.160  -0.125  1.00  0.00    -0.326 OA
HETATM   21  C16 UNL     1      -5.412   2.574  -0.242  1.00  0.00     0.181 C 
ENDBRANCH   2  20
TORSDOF 3
