REMARK  2 active torsions:
REMARK  status: ('A' for Active; 'I' for Inactive)
REMARK    1  A    between atoms: C1_1  and  O5_20 
REMARK    2  A    between atoms: C7_8  and  C10_12 
ROOT
HETATM    1  C1  UNL     1      -3.639   0.543   0.563  1.00  0.00     0.098 A 
HETATM    2  C2  UNL     1      -3.527   1.834   1.129  1.00  0.00     0.052 A 
HETATM    3  C3  UNL     1      -2.258   2.432   1.293  1.00  0.00     0.138 A 
HETATM    4  C4  UNL     1      -1.090   1.732   0.885  1.00  0.00     0.083 A 
HETATM    5  C5  UNL     1      -1.197   0.418   0.352  1.00  0.00     0.101 A 
HETATM    6  C6  UNL     1      -2.477  -0.162   0.174  1.00  0.00     0.049 A 
HETATM    7  O1  UNL     1      -0.103  -0.291   0.006  1.00  0.00    -0.328 OA
HETATM    8  C7  UNL     1       1.184   0.066   0.522  1.00  0.00     0.151 C 
HETATM    9  C8  UNL     1       1.410   1.586   0.410  1.00  0.00     0.104 C 
HETATM   10  C9  UNL     1       0.256   2.367   1.002  1.00  0.00     0.180 C 
HETATM   11  O2  UNL     1       0.512   3.434   1.512  1.00  0.00    -0.291 OA
HETATM   12  O4  UNL     1      -2.174   3.660   1.824  1.00  0.00    -0.190 OA
ENDROOT
BRANCH   8  13
HETATM   13  C10 UNL     1       2.231  -0.715  -0.191  1.00  0.00     0.006 A 
HETATM   14  C11 UNL     1       3.195  -1.432   0.539  1.00  0.00     0.000 A 
HETATM   15  C12 UNL     1       4.184  -2.168  -0.135  1.00  0.00     0.027 A 
HETATM   16  C13 UNL     1       4.211  -2.193  -1.541  1.00  0.00     0.131 A 
HETATM   17  C14 UNL     1       3.246  -1.477  -2.270  1.00  0.00     0.027 A 
HETATM   18  O3  UNL     1       5.139  -2.887  -2.172  1.00  0.00    -0.190 OA
HETATM   19  C15 UNL     1       2.256  -0.738  -1.598  1.00  0.00     0.000 A 
ENDBRANCH   8  13
BRANCH   1  20
HETATM   20  O5  UNL     1      -4.848  -0.014   0.398  1.00  0.00    -0.328 OA
HETATM   21  C16 UNL     1      -4.914  -1.293  -0.215  1.00  0.00     0.181 C 
ENDBRANCH   1  20
TORSDOF 2
