REMARK  4 active torsions:
REMARK  status: ('A' for Active; 'I' for Inactive)
REMARK    1  A    between atoms: C2_2  and  C13_19 
REMARK    2  A    between atoms: C3_3  and  O1_7 
REMARK    3  A    between atoms: O1_7  and  C7_8 
REMARK    4  A    between atoms: C8_10  and  C12_17 
ROOT
HETATM    1  C7  UNL     1       0.510   0.719   0.420  1.00  0.00     0.274 C 
HETATM    2  O2  UNL     1      -0.810   0.392   0.006  1.00  0.00    -0.326 OA
HETATM    3  C8  UNL     1      -1.822   1.279   0.471  1.00  0.00     0.184 C 
HETATM    4  C9  UNL     1      -1.551   2.699  -0.078  1.00  0.00     0.215 C 
HETATM    5  C10 UNL     1      -0.129   3.182   0.287  1.00  0.00     0.220 C 
HETATM    6  C11 UNL     1       0.902   2.107  -0.127  1.00  0.00     0.241 C 
HETATM    7  O3  UNL     1       2.184   2.449   0.373  1.00  0.00    -0.215 OA
HETATM    8  O4  UNL     1       0.152   4.400  -0.381  1.00  0.00    -0.218 OA
HETATM    9  O5  UNL     1      -2.512   3.586   0.465  1.00  0.00    -0.218 OA
ENDROOT
BRANCH   1  10
HETATM   10  O1  UNL     1       1.406  -0.268  -0.072  1.00  0.00    -0.304 OA
BRANCH  10  11
HETATM   11  C3  UNL     1       1.133  -1.531   0.188  1.00  0.00     0.095 A 
HETATM   12  C2  UNL     1       1.574  -2.553  -0.678  1.00  0.00     0.033 A 
HETATM   13  C1  UNL     1       1.277  -3.897  -0.391  1.00  0.00     0.000 A 
HETATM   14  C6  UNL     1       0.541  -4.225   0.760  1.00  0.00    -0.000 A 
HETATM   15  C5  UNL     1       0.102  -3.209   1.625  1.00  0.00     0.002 A 
HETATM   16  C4  UNL     1       0.397  -1.865   1.338  1.00  0.00     0.024 A 
BRANCH  12  17
HETATM   17  C13 UNL     1       2.354  -2.217  -1.900  1.00  0.00     0.211 C 
HETATM   18  O7  UNL     1       3.717  -2.082  -1.564  1.00  0.00    -0.215 OA
ENDBRANCH  12  17
ENDBRANCH  10  11
ENDBRANCH   1  10
BRANCH   3  19
HETATM   19  C12 UNL     1      -3.164   0.707   0.002  1.00  0.00     0.214 C 
HETATM   20  O6  UNL     1      -3.383  -0.504   0.688  1.00  0.00    -0.218 OA
ENDBRANCH   3  19
TORSDOF 4
