REMARK  1 active torsions:
REMARK  status: ('A' for Active; 'I' for Inactive)
REMARK    1  A    between atoms: C3_3  and  O1_12 
ROOT
HETATM    1  C1  UNL     1      -1.785   0.727  -1.091  1.00  0.00     0.025 A 
HETATM    2  C2  UNL     1      -2.495  -0.047  -0.145  1.00  0.00     0.153 A 
HETATM    3  C3  UNL     1      -1.793  -0.857   0.777  1.00  0.00     0.119 A 
HETATM    4  C4  UNL     1      -0.380  -0.885   0.758  1.00  0.00     0.024 A 
HETATM    5  C5  UNL     1       0.344  -0.106  -0.181  1.00  0.00     0.009 A 
HETATM    6  C6  UNL     1      -0.368   0.700  -1.118  1.00  0.00    -0.020 A 
HETATM    7  C7  UNL     1       0.366   1.502  -2.129  1.00  0.00     0.064 C 
HETATM    8  C8  UNL     1       1.858   1.691  -1.794  1.00  0.00     0.295 C 
HETATM    9  N1  UNL     1       2.462   0.421  -1.382  1.00  0.00     0.342 N 
HETATM   10  C9  UNL     1       1.835  -0.136  -0.171  1.00  0.00     0.279 C 
HETATM   11  C10 UNL     1       2.377   0.608   1.056  1.00  0.00     0.043 C 
HETATM   12  O2  UNL     1      -3.835  -0.012  -0.128  1.00  0.00    -0.188 OA
ENDROOT
BRANCH   3  13
HETATM   13  O1  UNL     1      -2.462  -1.597   1.671  1.00  0.00    -0.326 OA
HETATM   14  C11 UNL     1      -1.712  -2.435   2.539  1.00  0.00     0.181 C 
ENDBRANCH   3  13
TORSDOF 1
