REMARK  9 active torsions:
REMARK  status: ('A' for Active; 'I' for Inactive)
REMARK    1  A    between atoms: C4_4  and  C7_7 
REMARK    2  A    between atoms: C8_8  and  C9_9 
REMARK    3  A    between atoms: C14_14  and  C15_15 
REMARK    4  A    between atoms: C16_16  and  C17_17 
REMARK    5  A    between atoms: C17_17  and  O1_18 
REMARK    6  A    between atoms: O1_18  and  C18_19 
REMARK    7  A    between atoms: C18_19  and  C19_20 
REMARK    8  A    between atoms: C18_19  and  C20_23 
REMARK    9  A    between atoms: C20_23  and  C21_24 
ROOT
HETATM    1  C9  UNL     1      -2.170   0.260  -1.053  1.00  0.00     0.028 A 
HETATM    2  C10 UNL     1      -2.361   1.369  -0.203  1.00  0.00     0.156 A 
HETATM    3  C11 UNL     1      -1.377   1.707   0.744  1.00  0.00     0.156 A 
HETATM    4  C12 UNL     1      -0.203   0.941   0.838  1.00  0.00     0.029 A 
HETATM    5  C13 UNL     1      -0.010  -0.162  -0.008  1.00  0.00     0.002 A 
HETATM    6  C14 UNL     1      -0.990  -0.506  -0.955  1.00  0.00     0.002 A 
HETATM    7  O7  UNL     1      -1.549   2.742   1.543  1.00  0.00    -0.188 OA
HETATM    8  O8  UNL     1      -3.461   2.094  -0.287  1.00  0.00    -0.188 OA
ENDROOT
BRANCH   6   9
HETATM    9  C15 UNL     1      -0.766  -1.686  -1.846  1.00  0.00     0.005 C 
HETATM   10  C16 UNL     1      -0.445  -2.865  -1.287  1.00  0.00     0.068 C 
BRANCH  10  11
HETATM   11  C17 UNL     1      -0.318  -2.992   0.168  1.00  0.00     0.296 C 
HETATM   12  O6  UNL     1      -1.273  -2.799   0.885  1.00  0.00    -0.259 OA
BRANCH  11  13
HETATM   13  O1  UNL     1       0.889  -3.326   0.617  1.00  0.00    -0.290 OA
BRANCH  13  14
HETATM   14  C18 UNL     1       0.885  -3.631   2.004  1.00  0.00     0.215 C 
BRANCH  14  15
HETATM   15  C19 UNL     1       0.103  -4.897   2.236  1.00  0.00     0.215 C 
HETATM   16  O2  UNL     1      -0.902  -4.789   3.100  1.00  0.00    -0.646 OA
HETATM   17  O3  UNL     1       0.395  -5.922   1.666  1.00  0.00    -0.646 OA
ENDBRANCH  14  15
BRANCH  14  18
HETATM   18  C20 UNL     1       2.326  -3.734   2.506  1.00  0.00     0.068 C 
BRANCH  18  19
HETATM   19  C21 UNL     1       3.023  -2.424   2.436  1.00  0.00    -0.017 A 
HETATM   20  C22 UNL     1       3.545  -1.969   1.211  1.00  0.00     0.025 A 
HETATM   21  C23 UNL     1       4.207  -0.730   1.139  1.00  0.00     0.156 A 
HETATM   22  C24 UNL     1       4.350   0.057   2.299  1.00  0.00     0.156 A 
HETATM   23  O5  UNL     1       4.691  -0.311  -0.012  1.00  0.00    -0.188 OA
HETATM   24  C25 UNL     1       3.828  -0.400   3.521  1.00  0.00     0.029 A 
HETATM   25  O4  UNL     1       4.969   1.217   2.240  1.00  0.00    -0.188 OA
HETATM   26  C26 UNL     1       3.168  -1.639   3.592  1.00  0.00    -0.002 A 
ENDBRANCH  18  19
ENDBRANCH  14  18
ENDBRANCH  13  14
ENDBRANCH  11  13
ENDBRANCH  10  11
ENDBRANCH   6   9
BRANCH   1  27
HETATM   27  C8  UNL     1      -3.221  -0.096  -2.059  1.00  0.00     0.002 C 
HETATM   28  C7  UNL     1      -3.549   0.809  -2.996  1.00  0.00     0.000 C 
BRANCH  28  29
HETATM   29  C4  UNL     1      -2.848   2.127  -2.996  1.00  0.00     0.002 A 
HETATM   30  C3  UNL     1      -3.592   3.320  -2.996  1.00  0.00     0.029 A 
HETATM   31  C2  UNL     1      -2.938   4.565  -2.996  1.00  0.00     0.156 A 
HETATM   32  C1  UNL     1      -1.531   4.615  -2.996  1.00  0.00     0.156 A 
HETATM   33  O9  UNL     1      -3.643   5.678  -2.996  1.00  0.00    -0.188 OA
HETATM   34  C6  UNL     1      -0.787   3.422  -2.996  1.00  0.00     0.029 A 
HETATM   35  O10 UNL     1      -0.908   5.777  -2.996  1.00  0.00    -0.188 OA
HETATM   36  C5  UNL     1      -1.443   2.180  -2.996  1.00  0.00     0.002 A 
ENDBRANCH  28  29
ENDBRANCH   1  27
TORSDOF 9
