REMARK  14 active torsions:
REMARK  status: ('A' for Active; 'I' for Inactive)
REMARK    1  A    between atoms: C3_3  and  O4_10 
REMARK    2  A    between atoms: C4_5  and  C6_8 
REMARK    3  A    between atoms: O4_10  and  C7_11 
REMARK    4  A    between atoms: C8_12  and  O13_30 
REMARK    5  A    between atoms: C10_15  and  O7_18 
REMARK    6  A    between atoms: O7_18  and  C12_19 
REMARK    7  A    between atoms: C13_21  and  C17_28 
REMARK    8  A    between atoms: O13_30  and  C18_31 
REMARK    9  A    between atoms: C19_32  and  C54_73 
REMARK   10  A    between atoms: C37_52  and  O17_58 
REMARK   11  A    between atoms: C38_53  and  C40_55 
REMARK   12  A    between atoms: O17_58  and  C42_59 
REMARK   13  A    between atoms: C42_59  and  C43_61 
REMARK   14  A    between atoms: C44_62  and  N1_63 
ROOT
HETATM    1  C18 UNL     1      -2.882  -2.614  -2.995  1.00  0.00     0.120 C 
HETATM    2  C19 UNL     1      -1.998  -3.777  -2.403  1.00  0.00     0.056 C 
HETATM    3  C20 UNL     1      -0.493  -3.345  -2.193  1.00  0.00     0.005 C 
HETATM    4  C21 UNL     1      -0.298  -1.866  -1.774  1.00  0.00     0.000 C 
HETATM    5  C22 UNL     1      -0.884  -1.016  -2.944  1.00  0.00     0.003 C 
HETATM    6  C23 UNL     1      -1.992  -1.665  -3.788  1.00  0.00     0.030 C 
HETATM    7  C24 UNL     1       1.216  -1.494  -1.639  1.00  0.00     0.003 C 
HETATM    8  C25 UNL     1       2.159  -2.396  -0.777  1.00  0.00     0.002 C 
HETATM    9  C26 UNL     1       1.924  -3.818  -1.381  1.00  0.00     0.000 C 
HETATM   10  C27 UNL     1       0.439  -4.269  -1.377  1.00  0.00     0.000 C 
HETATM   11  C28 UNL     1       3.639  -1.814  -0.912  1.00  0.00     0.028 C 
HETATM   12  C29 UNL     1       3.725  -0.327  -0.499  1.00  0.00     0.118 A 
HETATM   13  C30 UNL     1       2.676   0.569  -0.894  1.00  0.00     0.140 A 
HETATM   14  C31 UNL     1       1.441   0.035  -1.578  1.00  0.00     0.032 C 
HETATM   15  O14 UNL     1       2.581   0.241   0.468  1.00  0.00    -0.357 OA
HETATM   16  C32 UNL     1       5.064   0.324  -0.155  1.00  0.00     0.030 C 
HETATM   17  C33 UNL     1       5.978  -0.533   0.745  1.00  0.00     0.033 C 
HETATM   18  C34 UNL     1       6.038  -1.953   0.141  1.00  0.00     0.152 C 
HETATM   19  C35 UNL     1       4.664  -2.612  -0.050  1.00  0.00     0.035 C 
HETATM   20  O15 UNL     1       6.830  -2.785   0.960  1.00  0.00    -0.224 OA
HETATM   21  C36 UNL     1       7.395   0.111   0.783  1.00  0.00     0.033 C 
HETATM   22  C37 UNL     1       7.417   1.636   0.562  1.00  0.00     0.132 C 
HETATM   23  C38 UNL     1       6.861   1.988  -0.844  1.00  0.00     0.084 C 
HETATM   24  C39 UNL     1       5.858   0.914  -1.332  1.00  0.00     0.012 C 
HETATM   25  C41 UNL     1       8.016   2.088  -1.866  1.00  0.00     0.010 C 
HETATM   26  C50 UNL     1       5.392  -0.576   2.178  1.00  0.00     0.003 C 
HETATM   27  C51 UNL     1       4.153  -1.913  -2.376  1.00  0.00     0.003 C 
HETATM   28  C52 UNL     1       1.841  -2.580   0.736  1.00  0.00     0.000 C 
HETATM   29  C53 UNL     1      -0.975  -1.588  -0.413  1.00  0.00     0.000 C 
HETATM   30  C55 UNL     1      -2.005  -4.913  -3.470  1.00  0.00     0.005 C 
ENDROOT
BRANCH   1  31
HETATM   31  O13 UNL     1      -3.644  -1.949  -2.016  1.00  0.00    -0.332 OA
BRANCH  31  32
HETATM   32  C8  UNL     1      -4.554  -0.943  -2.424  1.00  0.00     0.267 C 
HETATM   33  C7  UNL     1      -5.737  -0.819  -1.467  1.00  0.00     0.207 C 
HETATM   34  C11 UNL     1      -5.202  -0.593  -0.059  1.00  0.00     0.214 C 
HETATM   35  C10 UNL     1      -4.310   0.644  -0.025  1.00  0.00     0.180 C 
HETATM   36  O6  UNL     1      -4.517  -1.736   0.407  1.00  0.00    -0.218 OA
HETATM   37  C9  UNL     1      -3.449   0.850  -1.267  1.00  0.00     0.177 C 
HETATM   38  O5  UNL     1      -3.905   0.309  -2.485  1.00  0.00    -0.326 OA
BRANCH  33  39
HETATM   39  O4  UNL     1      -6.491   0.290  -1.900  1.00  0.00    -0.324 OA
BRANCH  39  40
HETATM   40  C3  UNL     1      -7.761   0.467  -1.307  1.00  0.00     0.270 C 
HETATM   41  C2  UNL     1      -8.026   1.956  -1.207  1.00  0.00     0.241 C 
HETATM   42  C1  UNL     1      -9.430   2.175  -0.697  1.00  0.00     0.220 C 
HETATM   43  O20 UNL     1      -7.136   2.560  -0.305  1.00  0.00    -0.215 OA
HETATM   44  C5  UNL     1     -10.380   1.488  -1.652  1.00  0.00     0.215 C 
HETATM   45  O21 UNL     1      -9.710   3.551  -0.655  1.00  0.00    -0.218 OA
HETATM   46  C4  UNL     1     -10.012   0.013  -1.786  1.00  0.00     0.184 C 
HETATM   47  O2  UNL     1     -11.681   1.647  -1.140  1.00  0.00    -0.218 OA
HETATM   48  O1  UNL     1      -8.677  -0.122  -2.207  1.00  0.00    -0.326 OA
BRANCH  46  49
HETATM   49  C6  UNL     1     -10.911  -0.681  -2.797  1.00  0.00     0.214 C 
HETATM   50  O3  UNL     1     -10.630  -2.066  -2.819  1.00  0.00    -0.218 OA
ENDBRANCH  46  49
ENDBRANCH  39  40
ENDBRANCH  33  39
BRANCH  35  51
HETATM   51  O7  UNL     1      -3.447   0.619   1.082  1.00  0.00    -0.326 OA
BRANCH  51  52
HETATM   52  C12 UNL     1      -4.069   0.845   2.328  1.00  0.00     0.270 C 
HETATM   53  O8  UNL     1      -3.810   2.206   2.598  1.00  0.00    -0.326 OA
HETATM   54  C13 UNL     1      -4.336   2.619   3.831  1.00  0.00     0.184 C 
HETATM   55  C14 UNL     1      -3.697   1.806   4.953  1.00  0.00     0.215 C 
HETATM   56  C15 UNL     1      -3.933   0.327   4.725  1.00  0.00     0.220 C 
HETATM   57  O11 UNL     1      -4.241   2.133   6.208  1.00  0.00    -0.218 OA
HETATM   58  C16 UNL     1      -3.410  -0.043   3.356  1.00  0.00     0.241 C 
HETATM   59  O10 UNL     1      -3.260  -0.419   5.706  1.00  0.00    -0.218 OA
HETATM   60  O9  UNL     1      -3.739  -1.387   3.099  1.00  0.00    -0.215 OA
BRANCH  54  61
HETATM   61  C17 UNL     1      -4.085   4.116   3.963  1.00  0.00     0.214 C 
HETATM   62  O12 UNL     1      -5.013   4.690   4.862  1.00  0.00    -0.218 OA
ENDBRANCH  54  61
ENDBRANCH  51  52
ENDBRANCH  35  51
ENDBRANCH  31  32
ENDBRANCH   1  31
BRANCH   2  63
HETATM   63  C54 UNL     1      -2.691  -4.366  -1.157  1.00  0.00     0.184 C 
HETATM   64  O19 UNL     1      -2.165  -5.622  -0.774  1.00  0.00    -0.221 OA
ENDBRANCH   2  63
BRANCH  23  65
HETATM   65  C40 UNL     1       6.218   3.378  -0.838  1.00  0.00     0.209 C 
HETATM   66  O16 UNL     1       5.088   3.592  -1.212  1.00  0.00    -0.288 OA
ENDBRANCH  23  65
BRANCH  22  67
HETATM   67  O17 UNL     1       6.663   2.239   1.577  1.00  0.00    -0.300 OA
BRANCH  67  68
HETATM   68  C42 UNL     1       7.064   3.353   2.259  1.00  0.00     0.297 C 
HETATM   69  O18 UNL     1       6.254   3.905   3.001  1.00  0.00    -0.259 OA
BRANCH  68  70
HETATM   70  C43 UNL     1       8.409   4.016   2.202  1.00  0.00     0.080 A 
HETATM   71  C44 UNL     1       9.597   3.300   2.447  1.00  0.00     0.081 A 
HETATM   72  C46 UNL     1      10.827   3.978   2.353  1.00  0.00     0.019 A 
HETATM   73  C47 UNL     1      10.866   5.340   2.059  1.00  0.00     0.002 A 
HETATM   74  C48 UNL     1       9.678   6.053   1.865  1.00  0.00     0.000 A 
HETATM   75  C49 UNL     1       8.453   5.392   1.940  1.00  0.00     0.007 A 
BRANCH  71  76
HETATM   76  N1  UNL     1       9.506   1.949   2.805  1.00  0.00    -0.268 NA
HETATM   77  C45 UNL     1      10.657   1.072   3.075  1.00  0.00     0.152 C 
ENDBRANCH  71  76
ENDBRANCH  68  70
ENDBRANCH  67  68
ENDBRANCH  22  67
TORSDOF 14
