REMARK  1 active torsions:
REMARK  status: ('A' for Active; 'I' for Inactive)
REMARK    1  A    between atoms: C12_12  and  C15_16 
ROOT
HETATM    1  C1  UNL     1      -3.477  -0.018  -0.043  1.00  0.00     0.152 C 
HETATM    2  C2  UNL     1      -2.598   0.512   1.098  1.00  0.00     0.033 C 
HETATM    3  C3  UNL     1      -1.760   1.742   0.678  1.00  0.00     0.003 C 
HETATM    4  C4  UNL     1      -1.355   1.691  -0.838  1.00  0.00     0.004 C 
HETATM    5  C5  UNL     1      -1.264   0.250  -1.416  1.00  0.00     0.021 C 
HETATM    6  C6  UNL     1      -2.666  -0.428  -1.293  1.00  0.00     0.037 C 
HETATM    7  C7  UNL     1      -0.121  -0.443  -0.733  1.00  0.00    -0.025 A 
HETATM    8  C8  UNL     1       1.109   0.271  -0.600  1.00  0.00    -0.026 A 
HETATM    9  C9  UNL     1       1.240   1.654  -1.139  1.00  0.00     0.026 C 
HETATM   10  C10 UNL     1      -0.064   2.494  -1.141  1.00  0.00     0.005 C 
HETATM   11  C11 UNL     1       2.217  -0.334   0.047  1.00  0.00    -0.007 A 
HETATM   12  C12 UNL     1       2.115  -1.645   0.564  1.00  0.00     0.003 A 
HETATM   13  C13 UNL     1       0.902  -2.359   0.434  1.00  0.00     0.127 A 
HETATM   14  C14 UNL     1      -0.207  -1.766  -0.211  1.00  0.00     0.022 A 
HETATM   15  O1  UNL     1       0.791  -3.604   0.920  1.00  0.00    -0.191 OA
HETATM   16  C18 UNL     1      -0.932   0.301  -2.920  1.00  0.00     0.004 C 
HETATM   17  C19 UNL     1      -0.539   1.812   1.607  1.00  0.00     0.000 C 
HETATM   18  C20 UNL     1      -2.576   3.020   0.920  1.00  0.00     0.000 C 
HETATM   19  O2  UNL     1      -4.227  -1.123   0.422  1.00  0.00    -0.224 OA
ENDROOT
BRANCH  12  20
HETATM   20  C15 UNL     1       3.273  -2.256   1.236  1.00  0.00     0.024 C 
HETATM   21  C16 UNL     1       3.984  -3.262   0.330  1.00  0.00     0.005 C 
HETATM   22  C17 UNL     1       4.221  -1.195   1.799  1.00  0.00     0.005 C 
ENDBRANCH  12  20
TORSDOF 1
