REMARK  0 active torsions:
REMARK  status: ('A' for Active; 'I' for Inactive)
ROOT
HETATM    1  C1  UNL     1      -1.496  -0.609   0.797  1.00  0.00     0.027 C 
HETATM    2  C2  UNL     1      -2.328   0.615   0.314  1.00  0.00     0.007 C 
HETATM    3  C3  UNL     1      -1.772   1.943   0.867  1.00  0.00     0.000 C 
HETATM    4  C4  UNL     1      -0.232   2.020   0.811  1.00  0.00     0.000 C 
HETATM    5  C5  UNL     1       0.367   0.947  -0.115  1.00  0.00     0.000 C 
HETATM    6  C6  UNL     1       0.010  -0.477   0.377  1.00  0.00     0.002 C 
HETATM    7  C7  UNL     1       0.564  -1.520  -0.611  1.00  0.00     0.000 C 
HETATM    8  C8  UNL     1       2.092  -1.389  -0.740  1.00  0.00     0.000 C 
HETATM    9  C9  UNL     1       2.480   0.027  -1.203  1.00  0.00     0.003 C 
HETATM   10  C10 UNL     1       1.885   1.129  -0.313  1.00  0.00     0.003 C 
HETATM   11  C11 UNL     1       2.752   1.107   0.951  1.00  0.00     0.033 C 
HETATM   12  C12 UNL     1       4.115   0.580   0.488  1.00  0.00     0.152 C 
HETATM   13  C13 UNL     1       3.977   0.301  -1.012  1.00  0.00     0.033 C 
HETATM   14  O1  UNL     1       5.139   1.529   0.721  1.00  0.00    -0.224 OA
HETATM   15  C14 UNL     1       2.105   0.260  -2.666  1.00  0.00     0.000 C 
HETATM   16  C15 UNL     1      -3.842   0.439   0.584  1.00  0.00     0.068 C 
HETATM   17  C16 UNL     1      -4.320  -0.973   0.176  1.00  0.00     0.375 C 
HETATM   18  N1  UNL     1      -3.994  -1.314  -1.211  1.00  0.00     0.369 N 
HETATM   19  C17 UNL     1      -2.643  -1.887  -1.178  1.00  0.00     0.323 C 
HETATM   20  C18 UNL     1      -2.232  -1.895   0.301  1.00  0.00     0.154 C 
HETATM   21  O2  UNL     1      -3.529  -1.914   0.859  1.00  0.00    -0.327 OA
HETATM   22  C19 UNL     1      -1.553  -0.680   2.342  1.00  0.00     0.003 C 
ENDROOT
TORSDOF 0
