REMARK  5 active torsions:
REMARK  status: ('A' for Active; 'I' for Inactive)
REMARK    1  A    between atoms: C10_12  and  O6_25 
REMARK    2  A    between atoms: C11_13  and  O4_18 
REMARK    3  A    between atoms: O4_18  and  C15_19 
REMARK    4  A    between atoms: C15_19  and  C16_20 
REMARK    5  A    between atoms: O6_25  and  C20_26 
ROOT
HETATM    1  C1  UNL     1      -2.820   3.441  -1.512  1.00  0.00     0.004 A 
HETATM    2  C2  UNL     1      -1.434   3.693  -1.412  1.00  0.00     0.024 A 
HETATM    3  C3  UNL     1      -0.555   2.695  -0.928  1.00  0.00     0.094 A 
HETATM    4  C4  UNL     1      -1.072   1.428  -0.523  1.00  0.00     0.053 A 
HETATM    5  C5  UNL     1      -2.465   1.174  -0.623  1.00  0.00     0.103 A 
HETATM    6  C6  UNL     1      -3.332   2.184  -1.117  1.00  0.00     0.023 A 
HETATM    7  C7  UNL     1      -4.785   1.893  -1.209  1.00  0.00     0.007 A 
HETATM    8  C8  UNL     1      -5.230   0.682  -0.820  1.00  0.00     0.069 A 
HETATM    9  C9  UNL     1      -4.279  -0.330  -0.313  1.00  0.00     0.300 A 
HETATM   10  O1  UNL     1      -2.967  -0.025  -0.248  1.00  0.00    -0.273 OA
HETATM   11  O2  UNL     1      -4.709  -1.406   0.029  1.00  0.00    -0.259 OA
HETATM   12  C10 UNL     1      -0.156   0.385   0.002  1.00  0.00     0.180 C 
HETATM   13  C11 UNL     1       1.197   0.975   0.439  1.00  0.00     0.182 C 
HETATM   14  C12 UNL     1       1.744   1.963  -0.609  1.00  0.00     0.127 C 
HETATM   15  O3  UNL     1       0.766   2.982  -0.852  1.00  0.00    -0.333 OA
HETATM   16  C13 UNL     1       3.008   2.658  -0.098  1.00  0.00     0.033 C 
HETATM   17  C14 UNL     1       2.057   1.270  -1.943  1.00  0.00     0.033 C 
ENDROOT
BRANCH  13  18
HETATM   18  O4  UNL     1       2.131  -0.072   0.664  1.00  0.00    -0.296 OA
BRANCH  18  19
HETATM   19  C15 UNL     1       1.914  -0.705   1.814  1.00  0.00     0.295 C 
HETATM   20  O5  UNL     1       0.998  -0.451   2.561  1.00  0.00    -0.259 OA
BRANCH  19  21
HETATM   21  C16 UNL     1       2.875  -1.764   2.150  1.00  0.00     0.060 C 
HETATM   22  C17 UNL     1       2.447  -2.973   2.553  1.00  0.00    -0.038 C 
HETATM   23  C18 UNL     1       3.473  -4.002   2.943  1.00  0.00     0.026 C 
HETATM   24  C19 UNL     1       0.967  -3.234   2.590  1.00  0.00     0.026 C 
ENDBRANCH  19  21
ENDBRANCH  18  19
ENDBRANCH  13  18
BRANCH  12  25
HETATM   25  O6  UNL     1       0.049  -0.596  -1.008  1.00  0.00    -0.297 OA
BRANCH  25  26
HETATM   26  C20 UNL     1      -0.836  -1.586  -0.941  1.00  0.00     0.273 C 
HETATM   27  C21 UNL     1      -1.225  -2.188  -2.266  1.00  0.00     0.106 C 
HETATM   28  O7  UNL     1      -1.312  -1.994   0.092  1.00  0.00    -0.264 OA
ENDBRANCH  25  26
ENDBRANCH  12  25
TORSDOF 5
