REMARK  6 active torsions:
REMARK  status: ('A' for Active; 'I' for Inactive)
REMARK    1  A    between atoms: C2_2  and  C21_27 
REMARK    2  A    between atoms: C8_9  and  C16_20 
REMARK    3  A    between atoms: C16_20  and  C17_21 
REMARK    4  A    between atoms: C25_31  and  C34_43 
REMARK    5  A    between atoms: C26_32  and  C27_33 
REMARK    6  A    between atoms: C27_33  and  C28_34 
ROOT
HETATM    1  C1  UNL     1      -1.960  -1.367  -0.160  1.00  0.00     0.131 A 
HETATM    2  C2  UNL     1      -1.037  -1.152   0.891  1.00  0.00     0.033 A 
HETATM    3  C3  UNL     1      -0.714   0.168   1.290  1.00  0.00     0.134 A 
HETATM    4  C4  UNL     1      -1.314   1.278   0.633  1.00  0.00     0.085 A 
HETATM    5  C5  UNL     1      -2.235   1.059  -0.425  1.00  0.00     0.104 A 
HETATM    6  C6  UNL     1      -2.556  -0.264  -0.810  1.00  0.00     0.052 A 
HETATM    7  O1  UNL     1      -2.841   2.065  -1.083  1.00  0.00    -0.302 OA
HETATM    8  C7  UNL     1      -2.341   3.407  -1.075  1.00  0.00     0.275 C 
HETATM    9  C8  UNL     1      -1.552   3.806   0.239  1.00  0.00     0.210 C 
HETATM   10  C9  UNL     1      -0.987   2.665   1.060  1.00  0.00     0.207 C 
HETATM   11  O2  UNL     1      -0.303   2.973   2.010  1.00  0.00    -0.288 OA
HETATM   12  O3  UNL     1      -2.502   4.542   1.031  1.00  0.00    -0.323 OA
HETATM   13  C10 UNL     1      -3.552   4.907   0.296  1.00  0.00     0.097 A 
HETATM   14  C11 UNL     1      -3.540   4.323  -0.980  1.00  0.00     0.057 A 
HETATM   15  C12 UNL     1      -4.566   4.622  -1.914  1.00  0.00     0.005 A 
HETATM   16  C13 UNL     1      -5.622   5.494  -1.577  1.00  0.00     0.027 A 
HETATM   17  C14 UNL     1      -5.657   6.068  -0.292  1.00  0.00     0.133 A 
HETATM   18  C15 UNL     1      -4.630   5.770   0.630  1.00  0.00     0.051 A 
HETATM   19  O4  UNL     1      -6.656   6.892   0.053  1.00  0.00    -0.190 OA
HETATM   20  O5  UNL     1      -1.605   3.641  -2.264  1.00  0.00    -0.187 OA
HETATM   21  O6  UNL     1       0.160   0.360   2.290  1.00  0.00    -0.190 OA
HETATM   22  O12 UNL     1      -2.274  -2.612  -0.545  1.00  0.00    -0.190 OA
ENDROOT
BRANCH   2  23
HETATM   23  C21 UNL     1      -0.412  -2.305   1.571  1.00  0.00     0.055 C 
HETATM   24  C22 UNL     1      -1.472  -3.261   2.083  1.00  0.00    -0.030 C 
HETATM   25  C23 UNL     1      -1.335  -4.602   2.033  1.00  0.00    -0.048 C 
HETATM   26  C24 UNL     1      -0.116  -5.268   1.435  1.00  0.00     0.027 C 
HETATM   27  C40 UNL     1      -2.419  -5.492   2.583  1.00  0.00     0.026 C 
HETATM   28  C25 UNL     1       1.098  -4.329   1.297  1.00  0.00     0.036 C 
HETATM   29  C26 UNL     1       0.664  -2.980   0.680  1.00  0.00     0.075 C 
BRANCH  28  30
HETATM   30  C34 UNL     1       2.183  -4.991   0.522  1.00  0.00     0.004 A 
HETATM   31  C35 UNL     1       3.172  -5.744   1.184  1.00  0.00     0.129 A 
HETATM   32  C36 UNL     1       4.190  -6.363   0.437  1.00  0.00     0.054 A 
HETATM   33  O11 UNL     1       3.151  -5.872   2.495  1.00  0.00    -0.190 OA
HETATM   34  C37 UNL     1       4.226  -6.234  -0.963  1.00  0.00     0.133 A 
HETATM   35  C38 UNL     1       3.236  -5.482  -1.618  1.00  0.00     0.027 A 
HETATM   36  O10 UNL     1       5.182  -6.817  -1.657  1.00  0.00    -0.190 OA
HETATM   37  C39 UNL     1       2.216  -4.861  -0.877  1.00  0.00    -0.000 A 
ENDBRANCH  28  30
BRANCH  29  38
HETATM   38  C27 UNL     1       1.839  -2.049   0.460  1.00  0.00     0.175 C 
HETATM   39  O9  UNL     1       2.473  -1.616   1.393  1.00  0.00    -0.291 OA
BRANCH  38  40
HETATM   40  C28 UNL     1       2.191  -1.682  -0.946  1.00  0.00     0.060 A 
HETATM   41  C29 UNL     1       1.167  -1.400  -1.868  1.00  0.00     0.007 A 
HETATM   42  C30 UNL     1       1.486  -1.054  -3.191  1.00  0.00     0.028 A 
HETATM   43  C31 UNL     1       2.830  -0.987  -3.599  1.00  0.00     0.133 A 
HETATM   44  C32 UNL     1       3.852  -1.268  -2.676  1.00  0.00     0.055 A 
HETATM   45  O8  UNL     1       3.130  -0.662  -4.840  1.00  0.00    -0.190 OA
HETATM   46  C33 UNL     1       3.539  -1.616  -1.349  1.00  0.00     0.136 A 
HETATM   47  O7  UNL     1       4.510  -1.877  -0.497  1.00  0.00    -0.190 OA
ENDBRANCH  38  40
ENDBRANCH  29  38
ENDBRANCH   2  23
BRANCH   9  48
HETATM   48  C16 UNL     1      -0.413   4.787  -0.077  1.00  0.00     0.066 C 
BRANCH  48  49
HETATM   49  C17 UNL     1       0.098   5.489   1.152  1.00  0.00    -0.032 C 
HETATM   50  C18 UNL     1       1.309   6.068   1.103  1.00  0.00    -0.048 C 
HETATM   51  C19 UNL     1       1.821   6.769   2.332  1.00  0.00     0.026 C 
HETATM   52  C20 UNL     1       2.093   5.986  -0.180  1.00  0.00     0.026 C 
ENDBRANCH  48  49
ENDBRANCH   9  48
TORSDOF 6
