REMARK  8 active torsions:
REMARK  status: ('A' for Active; 'I' for Inactive)
REMARK    1  A    between atoms: C3_3  and  C4_4 
REMARK    2  A    between atoms: C5_5  and  C6_6 
REMARK    3  A    between atoms: C7_7  and  C8_8 
REMARK    4  A    between atoms: C8_8  and  C9_9 
REMARK    5  A    between atoms: C9_9  and  C10_10 
REMARK    6  A    between atoms: C11_11  and  C12_12 
REMARK       I    between atoms: C12_12  and  N1_13 
REMARK    7  A    between atoms: N1_13  and  C13_14 
REMARK    8  A    between atoms: C13_14  and  C14_15 
ROOT
HETATM    1  C9  UNL     1      -1.795  -1.147  -1.307  1.00  0.00     0.031 C 
ENDROOT
BRANCH   1   2
HETATM    2  C8  UNL     1      -2.621  -1.301  -0.029  1.00  0.00     0.031 C 
BRANCH   2   3
HETATM    3  C7  UNL     1      -1.852  -1.975   1.076  1.00  0.00    -0.026 C 
HETATM    4  C6  UNL     1      -1.783  -1.365   2.271  1.00  0.00    -0.005 C 
BRANCH   4   5
HETATM    5  C5  UNL     1      -1.045  -1.979   3.381  1.00  0.00    -0.000 C 
HETATM    6  C4  UNL     1      -0.975  -1.371   4.576  1.00  0.00    -0.000 C 
BRANCH   6   7
HETATM    7  C3  UNL     1      -0.238  -1.984   5.687  1.00  0.00    -0.005 C 
HETATM    8  C2  UNL     1      -0.168  -1.375   6.883  1.00  0.00    -0.026 C 
HETATM    9  C1  UNL     1       0.601  -2.049   7.986  1.00  0.00     0.031 C 
ENDBRANCH   6   7
ENDBRANCH   4   5
ENDBRANCH   2   3
ENDBRANCH   1   2
BRANCH   1  10
HETATM   10  C10 UNL     1      -2.569  -0.486  -2.416  1.00  0.00    -0.021 C 
HETATM   11  C11 UNL     1      -1.885   0.104  -3.410  1.00  0.00     0.058 C 
BRANCH  11  12
HETATM   12  C12 UNL     1      -0.416   0.100  -3.410  1.00  0.00     0.275 C 
HETATM   13  N1  UNL     1       0.254   1.289  -3.410  1.00  0.00    -0.234 NA
HETATM   14  O1  UNL     1       0.193  -0.943  -3.410  1.00  0.00    -0.266 OA
BRANCH  13  15
HETATM   15  C13 UNL     1       1.724   1.289  -3.410  1.00  0.00     0.129 C 
BRANCH  15  16
HETATM   16  C14 UNL     1       2.271   2.711  -3.545  1.00  0.00     0.025 C 
HETATM   17  C15 UNL     1       3.775   2.791  -3.283  1.00  0.00     0.002 C 
HETATM   18  C16 UNL     1       1.867   3.377  -4.861  1.00  0.00     0.002 C 
ENDBRANCH  15  16
ENDBRANCH  13  15
ENDBRANCH  11  12
ENDBRANCH   1  10
TORSDOF 8
