REMARK  4 active torsions:
REMARK  status: ('A' for Active; 'I' for Inactive)
REMARK    1  A    between atoms: C2_2  and  C15_15 
REMARK    2  A    between atoms: C3_3  and  C4_4 
REMARK    3  A    between atoms: C4_4  and  C5_5 
REMARK    4  A    between atoms: C5_5  and  C6_6 
ROOT
HETATM    1  C6  UNL     1      -5.330   3.304  -0.333  1.00  0.00     0.000 C 
HETATM    2  C7  UNL     1      -5.906   2.324  -1.384  1.00  0.00     0.000 C 
HETATM    3  C8  UNL     1      -6.409   3.485   0.746  1.00  0.00     0.000 C 
HETATM    4  C9  UNL     1      -5.950   4.684   1.563  1.00  0.00     0.000 C 
HETATM    5  C10 UNL     1      -6.012   5.610   0.317  1.00  0.00     0.000 A 
HETATM    6  C11 UNL     1      -6.806   5.136  -0.775  1.00  0.00     0.000 A 
HETATM    7  C12 UNL     1      -7.633   4.015  -0.129  1.00  0.00     0.000 C 
HETATM    8  C13 UNL     1      -5.272   4.777  -0.839  1.00  0.00     0.000 A 
HETATM    9  C14 UNL     1      -4.054   5.551  -0.262  1.00  0.00     0.000 C 
ENDROOT
BRANCH   1  10
HETATM   10  C5  UNL     1      -3.918   2.815   0.089  1.00  0.00     0.005 C 
BRANCH  10  11
HETATM   11  C4  UNL     1      -3.943   1.359   0.596  1.00  0.00     0.026 C 
BRANCH  11  12
HETATM   12  C3  UNL     1      -2.520   0.919   0.800  1.00  0.00    -0.027 C 
HETATM   13  C2  UNL     1      -2.163  -0.347   0.592  1.00  0.00     0.016 C 
HETATM   14  C1  UNL     1      -0.732  -0.759   0.779  1.00  0.00     0.034 C 
BRANCH  13  15
HETATM   15  C15 UNL     1      -3.151  -1.335   0.150  1.00  0.00     0.230 C 
HETATM   16  O1  UNL     1      -2.802  -2.499  -0.073  1.00  0.00    -0.283 OA
ENDBRANCH  13  15
ENDBRANCH  11  12
ENDBRANCH  10  11
ENDBRANCH   1  10
TORSDOF 4
