REMARK  9 active torsions:
REMARK  status: ('A' for Active; 'I' for Inactive)
REMARK    1  A    between atoms: C2_2  and  O7_32 
REMARK    2  A    between atoms: C3_3  and  C22_27 
REMARK    3  A    between atoms: C15_17  and  C16_18 
REMARK    4  A    between atoms: C16_18  and  O4_20 
REMARK    5  A    between atoms: O4_20  and  C17_21 
REMARK    6  A    between atoms: C17_21  and  C18_22 
REMARK    7  A    between atoms: C18_22  and  N1_23 
REMARK    8  A    between atoms: C22_27  and  O5_28 
REMARK    9  A    between atoms: O7_32  and  C25_33 
ROOT
HETATM    1  C1  UNL     1      -3.588  -1.320   0.686  1.00  0.00     0.031 C 
HETATM    2  C2  UNL     1      -4.387  -0.045   0.969  1.00  0.00     0.133 C 
HETATM    3  C3  UNL     1      -3.777   1.193   0.279  1.00  0.00     0.110 C 
HETATM    4  C4  UNL     1      -2.279   1.328   0.690  1.00  0.00     0.071 C 
HETATM    5  C5  UNL     1      -1.420   0.053   0.440  1.00  0.00     0.007 C 
HETATM    6  C6  UNL     1      -2.119  -1.162   1.100  1.00  0.00     0.003 C 
HETATM    7  C7  UNL     1       0.006   0.256   1.047  1.00  0.00     0.004 C 
HETATM    8  C8  UNL     1       0.707   1.535   0.512  1.00  0.00     0.042 C 
HETATM    9  C9  UNL     1      -0.189   2.791   0.653  1.00  0.00     0.209 C 
HETATM   10  C10 UNL     1      -1.582   2.547   0.117  1.00  0.00     0.181 C 
HETATM   11  O1  UNL     1      -2.104   3.264  -0.707  1.00  0.00    -0.293 OA
HETATM   12  O2  UNL     1       0.416   3.887  -0.012  1.00  0.00    -0.215 OA
HETATM   13  C11 UNL     1       2.102   1.740   1.160  1.00  0.00     0.021 C 
HETATM   14  C12 UNL     1       2.961   0.500   1.045  1.00  0.00    -0.039 C 
HETATM   15  C13 UNL     1       2.311  -0.801   1.469  1.00  0.00     0.022 C 
HETATM   16  C14 UNL     1       0.924  -0.973   0.838  1.00  0.00     0.004 C 
HETATM   17  C15 UNL     1       4.231   0.574   0.586  1.00  0.00     0.060 C 
HETATM   18  C20 UNL     1       2.006   2.147   2.637  1.00  0.00     0.004 C 
HETATM   19  C21 UNL     1      -1.289  -0.211  -1.070  1.00  0.00     0.000 C 
HETATM   20  C24 UNL     1      -4.557   2.440   0.725  1.00  0.00     0.013 C 
ENDROOT
BRANCH  17  21
HETATM   21  C16 UNL     1       5.135  -0.578   0.449  1.00  0.00     0.295 C 
HETATM   22  O3  UNL     1       5.285  -1.350   1.367  1.00  0.00    -0.259 OA
BRANCH  21  23
HETATM   23  O4  UNL     1       5.746  -0.695  -0.724  1.00  0.00    -0.296 OA
BRANCH  23  24
HETATM   24  C17 UNL     1       6.600  -1.828  -0.779  1.00  0.00     0.190 C 
BRANCH  24  25
HETATM   25  C18 UNL     1       7.266  -1.900  -2.154  1.00  0.00     0.323 C 
BRANCH  25  26
HETATM   26  N1  UNL     1       8.141  -3.057  -2.236  1.00  0.00     0.344 N 
HETATM   27  C19 UNL     1       8.754  -3.139  -3.551  1.00  0.00     0.328 C 
ENDBRANCH  25  26
ENDBRANCH  24  25
ENDBRANCH  23  24
ENDBRANCH  21  23
ENDBRANCH  17  21
BRANCH   3  28
HETATM   28  C22 UNL     1      -3.943   1.084  -1.221  1.00  0.00     0.274 C 
HETATM   29  O6  UNL     1      -3.184   1.645  -1.974  1.00  0.00    -0.264 OA
BRANCH  28  30
HETATM   30  O5  UNL     1      -4.969   0.338  -1.621  1.00  0.00    -0.299 OA
HETATM   31  C23 UNL     1      -5.070   0.273  -3.035  1.00  0.00     0.184 C 
ENDBRANCH  28  30
ENDBRANCH   3  28
BRANCH   2  32
HETATM   32  O7  UNL     1      -5.734  -0.232   0.549  1.00  0.00    -0.304 OA
BRANCH  32  33
HETATM   33  C25 UNL     1      -6.410  -1.039   1.362  1.00  0.00     0.272 C 
HETATM   34  C26 UNL     1      -7.797  -1.398   0.899  1.00  0.00     0.106 C 
HETATM   35  O8  UNL     1      -5.971  -1.467   2.403  1.00  0.00    -0.264 OA
ENDBRANCH  32  33
ENDBRANCH   2  32
TORSDOF 9
