REMARK  0 active torsions:
REMARK  status: ('A' for Active; 'I' for Inactive)
ROOT
HETATM    1  C1  UNL     1       2.910  -1.453  -0.180  1.00  0.00     0.058 C 
HETATM    2  C2  UNL     1       1.791  -2.414   0.166  1.00  0.00    -0.032 C 
HETATM    3  C3  UNL     1       0.545  -2.002   0.479  1.00  0.00    -0.046 C 
HETATM    4  C4  UNL     1       0.188  -0.523   0.551  1.00  0.00     0.049 C 
HETATM    5  C5  UNL     1       1.123   0.361  -0.336  1.00  0.00     0.034 C 
HETATM    6  C6  UNL     1       2.572   0.027   0.096  1.00  0.00     0.157 C 
HETATM    7  O1  UNL     1       3.510   0.842  -0.580  1.00  0.00    -0.223 OA
HETATM    8  C7  UNL     1       0.793   1.869  -0.139  1.00  0.00     0.003 C 
HETATM    9  C8  UNL     1      -0.689   2.225  -0.400  1.00  0.00     0.007 C 
HETATM   10  C9  UNL     1      -1.494   1.326   0.535  1.00  0.00     0.056 C 
HETATM   11  C10 UNL     1      -1.252  -0.139   0.162  1.00  0.00     0.132 C 
HETATM   12  O2  UNL     1      -2.299  -0.879   0.803  1.00  0.00    -0.301 OA
HETATM   13  C11 UNL     1      -3.379  -0.088   0.807  1.00  0.00     0.292 C 
HETATM   14  C12 UNL     1      -2.990   1.293   0.524  1.00  0.00     0.043 C 
HETATM   15  C13 UNL     1      -3.801   2.342   0.295  1.00  0.00     0.001 C 
HETATM   16  O3  UNL     1      -4.518  -0.438   1.022  1.00  0.00    -0.260 OA
HETATM   17  C14 UNL     1       0.945   0.021  -1.830  1.00  0.00     0.003 C 
HETATM   18  C15 UNL     1      -0.516  -3.031   0.774  1.00  0.00     0.026 C 
ENDROOT
TORSDOF 0
