REMARK  1 active torsions:
REMARK  status: ('A' for Active; 'I' for Inactive)
REMARK    1  A    between atoms: C8_9  and  C10_12 
ROOT
HETATM    1  C1  UNL     1      -3.755  -0.947  -0.066  1.00  0.00     0.052 A 
HETATM    2  C2  UNL     1      -4.574   0.113  -0.061  1.00  0.00     0.135 A 
HETATM    3  C3  UNL     1      -3.992   1.319  -0.032  1.00  0.00     0.055 A 
HETATM    4  C4  UNL     1      -2.658   1.490  -0.010  1.00  0.00     0.138 A 
HETATM    5  C5  UNL     1      -1.857   0.397  -0.017  1.00  0.00     0.087 A 
HETATM    6  C6  UNL     1      -2.416  -0.828  -0.044  1.00  0.00     0.107 A 
HETATM    7  O1  UNL     1      -1.672  -1.960  -0.051  1.00  0.00    -0.305 OA
HETATM    8  C7  UNL     1      -0.326  -1.796  -0.033  1.00  0.00     0.126 A 
HETATM    9  C8  UNL     1       0.316  -0.607  -0.006  1.00  0.00     0.064 A 
HETATM   10  C9  UNL     1      -0.492   0.503   0.003  1.00  0.00     0.201 A 
HETATM   11  O2  UNL     1      -0.040   1.623   0.027  1.00  0.00    -0.286 OA
HETATM   12  O5  UNL     1      -2.202   2.776   0.018  1.00  0.00    -0.190 OA
HETATM   13  O6  UNL     1      -5.925  -0.037  -0.084  1.00  0.00    -0.190 OA
ENDROOT
BRANCH   9  14
HETATM   14  C10 UNL     1       1.685  -0.549   0.011  1.00  0.00     0.007 A 
HETATM   15  C11 UNL     1       2.462  -1.659  -0.002  1.00  0.00     0.002 A 
HETATM   16  C12 UNL     1       3.804  -1.645   0.013  1.00  0.00     0.029 A 
HETATM   17  C13 UNL     1       4.487  -0.495   0.041  1.00  0.00     0.156 A 
HETATM   18  C14 UNL     1       3.775   0.640   0.055  1.00  0.00     0.156 A 
HETATM   19  O4  UNL     1       5.846  -0.455   0.056  1.00  0.00    -0.188 OA
HETATM   20  C15 UNL     1       2.431   0.582   0.040  1.00  0.00     0.030 A 
HETATM   21  O3  UNL     1       4.424   1.835   0.084  1.00  0.00    -0.188 OA
ENDBRANCH   9  14
TORSDOF 1
