REMARK  1 active torsions:
REMARK  status: ('A' for Active; 'I' for Inactive)
REMARK    1  A    between atoms: C15_16  and  C18_19 
ROOT
HETATM    1  C1  UNL     1      -4.100  -1.537  -1.779  1.00  0.00     0.034 C 
HETATM    2  C2  UNL     1      -4.912  -1.533  -0.473  1.00  0.00     0.156 C 
HETATM    3  C3  UNL     1      -4.645  -0.285   0.379  1.00  0.00     0.055 C 
HETATM    4  C4  UNL     1      -3.168  -0.107   0.682  1.00  0.00    -0.046 C 
HETATM    5  C5  UNL     1      -2.137  -0.791  -0.223  1.00  0.00     0.018 C 
HETATM    6  C6  UNL     1      -2.736  -0.824  -1.654  1.00  0.00     0.006 C 
HETATM    7  C7  UNL     1      -0.691  -0.143  -0.170  1.00  0.00     0.037 C 
HETATM    8  C8  UNL     1      -0.547   1.107   0.734  1.00  0.00     0.157 C 
HETATM    9  C9  UNL     1      -1.365   0.932   2.033  1.00  0.00     0.058 C 
HETATM   10  C10 UNL     1      -2.813   0.656   1.734  1.00  0.00    -0.032 C 
HETATM   11  C11 UNL     1       0.973   1.375   1.045  1.00  0.00     0.157 C 
HETATM   12  C12 UNL     1       1.967   1.199  -0.172  1.00  0.00     0.085 C 
HETATM   13  C13 UNL     1       1.260   0.977  -1.537  1.00  0.00     0.157 C 
HETATM   14  C14 UNL     1       0.025   0.033  -1.539  1.00  0.00     0.036 C 
HETATM   15  O1  UNL     1       0.867   2.227  -2.084  1.00  0.00    -0.223 OA
HETATM   16  C15 UNL     1       2.912   0.020   0.213  1.00  0.00     0.159 C 
HETATM   17  C16 UNL     1       2.994   0.158   1.732  1.00  0.00     0.036 C 
HETATM   18  C17 UNL     1       1.539   0.398   2.109  1.00  0.00     0.036 C 
HETATM   19  O3  UNL     1       2.365  -1.250  -0.102  1.00  0.00    -0.223 OA
HETATM   20  C20 UNL     1       2.955   2.387  -0.277  1.00  0.00     0.008 C 
HETATM   21  O4  UNL     1       1.092   2.674   1.621  1.00  0.00    -0.223 OA
HETATM   22  O5  UNL     1      -1.117   2.211   0.031  1.00  0.00    -0.223 OA
HETATM   23  C21 UNL     1      -2.029  -2.244   0.273  1.00  0.00     0.004 C 
HETATM   24  O6  UNL     1      -6.293  -1.619  -0.768  1.00  0.00    -0.223 OA
ENDROOT
BRANCH  16  25
HETATM   25  C18 UNL     1       4.313   0.010  -0.408  1.00  0.00     0.180 C 
HETATM   26  C19 UNL     1       5.090  -1.201   0.105  1.00  0.00     0.038 C 
HETATM   27  O2  UNL     1       4.172  -0.115  -1.805  1.00  0.00    -0.221 OA
ENDBRANCH  16  25
TORSDOF 1
