REMARK  6 active torsions:
REMARK  status: ('A' for Active; 'I' for Inactive)
REMARK    1  A    between atoms: C2_2  and  N2_29 
REMARK    2  A    between atoms: C3_3  and  O1_25 
REMARK    3  A    between atoms: C15_15  and  C18_18 
REMARK    4  A    between atoms: C18_18  and  N1_20 
REMARK    5  A    between atoms: O1_25  and  C24_26 
REMARK       I    between atoms: N2_29  and  C26_30 
REMARK    6  A    between atoms: C26_30  and  C27_31 
ROOT
HETATM    1  C1  UNL     1       3.381   1.189   0.182  1.00  0.00     0.027 C 
HETATM    2  C2  UNL     1       4.006  -0.217   0.217  1.00  0.00     0.134 C 
HETATM    3  C3  UNL     1       3.393  -1.066   1.355  1.00  0.00     0.146 C 
HETATM    4  C4  UNL     1       1.842  -1.074   1.406  1.00  0.00     0.030 C 
HETATM    5  C5  UNL     1       1.270   0.375   1.400  1.00  0.00     0.002 C 
HETATM    6  C6  UNL     1       1.842   1.160   0.193  1.00  0.00     0.002 C 
HETATM    7  C7  UNL     1      -0.287   0.336   1.383  1.00  0.00     0.000 C 
HETATM    8  C8  UNL     1      -0.828  -0.533   0.227  1.00  0.00     0.000 C 
HETATM    9  C9  UNL     1      -0.326  -1.973   0.369  1.00  0.00     0.000 C 
HETATM   10  C10 UNL     1       1.205  -1.990   0.334  1.00  0.00     0.003 C 
HETATM   11  C11 UNL     1      -2.356  -0.432   0.088  1.00  0.00     0.000 C 
HETATM   12  C12 UNL     1      -2.813   1.025  -0.184  1.00  0.00     0.002 C 
HETATM   13  C13 UNL     1      -1.731   2.074   0.145  1.00  0.00     0.000 C 
HETATM   14  C14 UNL     1      -0.965   1.727   1.432  1.00  0.00     0.000 C 
HETATM   15  C15 UNL     1      -4.049   1.219   0.723  1.00  0.00     0.031 C 
HETATM   16  C16 UNL     1      -4.498  -0.203   1.049  1.00  0.00     0.002 C 
HETATM   17  C17 UNL     1      -3.162  -0.883   1.307  1.00  0.00     0.000 C 
HETATM   18  C22 UNL     1      -3.207   1.121  -1.662  1.00  0.00     0.000 C 
HETATM   19  C23 UNL     1       1.707   1.076   2.697  1.00  0.00     0.000 C 
ENDROOT
BRANCH   2  20
HETATM   20  N2  UNL     1       3.912  -0.871  -1.105  1.00  0.00    -0.234 NA
HETATM   21  C26 UNL     1       4.602  -0.350  -2.162  1.00  0.00     0.271 C 
HETATM   22  O3  UNL     1       5.283   0.639  -2.020  1.00  0.00    -0.266 OA
BRANCH  21  23
HETATM   23  C27 UNL     1       4.508  -1.004  -3.475  1.00  0.00     0.031 C 
HETATM   24  C28 UNL     1       3.764  -2.100  -3.693  1.00  0.00    -0.025 C 
HETATM   25  C29 UNL     1       3.740  -2.686  -5.080  1.00  0.00     0.030 C 
HETATM   26  C30 UNL     1       5.283  -0.418  -4.625  1.00  0.00     0.036 C 
ENDBRANCH  21  23
ENDBRANCH   2  20
BRANCH   3  27
HETATM   27  O1  UNL     1       3.889  -2.398   1.305  1.00  0.00    -0.302 OA
BRANCH  27  28
HETATM   28  C24 UNL     1       5.170  -2.475   1.647  1.00  0.00     0.272 C 
HETATM   29  O2  UNL     1       5.801  -1.553   2.109  1.00  0.00    -0.264 OA
HETATM   30  C25 UNL     1       5.816  -3.816   1.418  1.00  0.00     0.106 C 
ENDBRANCH  27  28
ENDBRANCH   3  27
BRANCH  15  31
HETATM   31  C18 UNL     1      -5.193   2.031   0.119  1.00  0.00     0.219 C 
HETATM   32  C19 UNL     1      -4.711   3.453  -0.166  1.00  0.00     0.035 C 
BRANCH  31  33
HETATM   33  N1  UNL     1      -6.332   2.051   1.021  1.00  0.00     0.139 N 
HETATM   34  C20 UNL     1      -7.082   0.811   0.922  1.00  0.00     0.285 C 
HETATM   35  C21 UNL     1      -5.897   2.275   2.389  1.00  0.00     0.285 C 
ENDBRANCH  31  33
ENDBRANCH  15  31
TORSDOF 6
