REMARK  4 active torsions:
REMARK  status: ('A' for Active; 'I' for Inactive)
REMARK    1  A    between atoms: C3_3  and  O4_10 
REMARK    2  A    between atoms: C4_5  and  C6_8 
REMARK    3  A    between atoms: O4_10  and  C7_11 
REMARK    4  A    between atoms: C9_13  and  O5_18 
ROOT
HETATM    1  C1  UNL     1       1.365   3.391  -0.420  1.00  0.00     0.220 C 
HETATM    2  C2  UNL     1      -0.053   2.902  -0.785  1.00  0.00     0.241 C 
HETATM    3  C3  UNL     1      -0.309   1.480  -0.238  1.00  0.00     0.274 C 
HETATM    4  O1  UNL     1       0.705   0.598  -0.699  1.00  0.00    -0.326 OA
HETATM    5  C4  UNL     1       2.026   0.928  -0.283  1.00  0.00     0.184 C 
HETATM    6  C5  UNL     1       2.402   2.322  -0.830  1.00  0.00     0.215 C 
HETATM    7  O2  UNL     1       3.680   2.676  -0.330  1.00  0.00    -0.218 OA
HETATM    8  O6  UNL     1      -1.023   3.779  -0.242  1.00  0.00    -0.215 OA
HETATM    9  O7  UNL     1       1.641   4.611  -1.086  1.00  0.00    -0.218 OA
ENDROOT
BRANCH   3  10
HETATM   10  O4  UNL     1      -1.572   1.008  -0.686  1.00  0.00    -0.304 OA
BRANCH  10  11
HETATM   11  C7  UNL     1      -1.896  -0.240  -0.408  1.00  0.00     0.099 A 
HETATM   12  C8  UNL     1      -1.320  -0.891   0.695  1.00  0.00     0.048 A 
HETATM   13  C9  UNL     1      -1.660  -2.223   0.996  1.00  0.00     0.092 A 
HETATM   14  C10 UNL     1      -2.586  -2.904   0.182  1.00  0.00     0.001 A 
HETATM   15  C11 UNL     1      -3.164  -2.254  -0.924  1.00  0.00    -0.000 A 
HETATM   16  C13 UNL     1      -2.959  -4.313   0.484  1.00  0.00     0.033 C 
HETATM   17  C12 UNL     1      -2.818  -0.926  -1.217  1.00  0.00     0.024 A 
BRANCH  13  18
HETATM   18  O5  UNL     1      -1.113  -2.820   2.035  1.00  0.00    -0.328 OA
HETATM   19  C14 UNL     1      -0.215  -2.072   2.838  1.00  0.00     0.181 C 
ENDBRANCH  13  18
ENDBRANCH  10  11
ENDBRANCH   3  10
BRANCH   5  20
HETATM   20  C6  UNL     1       2.945  -0.182  -0.801  1.00  0.00     0.214 C 
HETATM   21  O3  UNL     1       2.637  -1.363  -0.098  1.00  0.00    -0.218 OA
ENDBRANCH   5  20
TORSDOF 4
