REMARK  3 active torsions:
REMARK  status: ('A' for Active; 'I' for Inactive)
REMARK    1  A    between atoms: C5_5  and  O1_10 
REMARK    2  A    between atoms: C6_6  and  C7_7 
REMARK    3  A    between atoms: C7_7  and  C8_8 
ROOT
HETATM    1  C1  UNL     1       0.566   1.252   0.680  1.00  0.00     0.024 A 
HETATM    2  C2  UNL     1       1.844   0.635   0.623  1.00  0.00     0.119 A 
HETATM    3  C3  UNL     1       1.935  -0.730   0.336  1.00  0.00     0.121 A 
HETATM    4  C4  UNL     1       0.750  -1.476   0.107  1.00  0.00     0.050 A 
HETATM    5  C5  UNL     1      -0.522  -0.865   0.160  1.00  0.00     0.092 A 
HETATM    6  C6  UNL     1      -0.615   0.512   0.449  1.00  0.00     0.007 A 
HETATM    7  O2  UNL     1       3.219  -1.088   0.336  1.00  0.00    -0.299 OA
HETATM    8  C11 UNL     1       4.037   0.069   0.625  1.00  0.00     0.304 A 
HETATM    9  O3  UNL     1       3.070   1.127   0.801  1.00  0.00    -0.300 OA
ENDROOT
BRANCH   6  10
HETATM   10  C7  UNL     1      -1.928   1.180   0.514  1.00  0.00     0.054 C 
BRANCH  10  11
HETATM   11  C8  UNL     1      -2.459   1.514  -0.855  1.00  0.00    -0.021 C 
HETATM   12  C9  UNL     1      -1.996   2.615  -1.471  1.00  0.00    -0.005 C 
ENDBRANCH  10  11
ENDBRANCH   6  10
BRANCH   5  13
HETATM   13  O1  UNL     1      -1.623  -1.596  -0.062  1.00  0.00    -0.328 OA
HETATM   14  C10 UNL     1      -1.459  -2.965  -0.398  1.00  0.00     0.181 C 
ENDBRANCH   5  13
TORSDOF 3
