REMARK  5 active torsions:
REMARK  status: ('A' for Active; 'I' for Inactive)
REMARK    1  A    between atoms: C3_3  and  O4_10 
REMARK    2  A    between atoms: C4_5  and  C6_8 
REMARK    3  A    between atoms: O4_10  and  C7_11 
REMARK    4  A    between atoms: C7_11  and  C8_12 
REMARK    5  A    between atoms: C9_13  and  C10_14 
ROOT
HETATM    1  C8  UNL     1      -1.221   0.463   2.111  1.00  0.00     0.187 A 
HETATM    2  C9  UNL     1      -2.475   0.060   2.975  1.00  0.00     0.228 A 
HETATM    3  C11 UNL     1      -3.738  -0.401   2.406  1.00  0.00     0.105 C 
HETATM    4  N1  UNL     1      -4.744  -0.770   1.959  1.00  0.00    -0.194 NA
HETATM    5  O6  UNL     1      -2.199   1.340   2.551  1.00  0.00    -0.337 OA
ENDROOT
BRANCH   2   6
HETATM    6  C10 UNL     1      -2.442   0.002   4.502  1.00  0.00     0.226 C 
HETATM    7  O5  UNL     1      -2.420  -1.352   4.891  1.00  0.00    -0.217 OA
ENDBRANCH   2   6
BRANCH   1   8
HETATM    8  C7  UNL     1      -1.248   0.402   0.590  1.00  0.00     0.178 C 
BRANCH   8   9
HETATM    9  O4  UNL     1      -0.281  -0.531   0.168  1.00  0.00    -0.326 OA
BRANCH   9  10
HETATM   10  C3  UNL     1      -0.244  -0.701  -1.240  1.00  0.00     0.270 C 
HETATM   11  C2  UNL     1       0.742  -1.820  -1.674  1.00  0.00     0.241 C 
HETATM   12  C1  UNL     1       2.230  -1.424  -1.514  1.00  0.00     0.220 C 
HETATM   13  O7  UNL     1       0.455  -3.047  -1.023  1.00  0.00    -0.215 OA
HETATM   14  C5  UNL     1       2.474  -0.035  -2.143  1.00  0.00     0.215 C 
HETATM   15  O8  UNL     1       2.599  -1.363  -0.144  1.00  0.00    -0.218 OA
HETATM   16  C4  UNL     1       1.416   1.004  -1.686  1.00  0.00     0.184 C 
HETATM   17  O2  UNL     1       2.447  -0.168  -3.553  1.00  0.00    -0.218 OA
HETATM   18  O1  UNL     1       0.090   0.516  -1.902  1.00  0.00    -0.326 OA
BRANCH  16  19
HETATM   19  C6  UNL     1       1.533   2.350  -2.406  1.00  0.00     0.214 C 
HETATM   20  O3  UNL     1       0.750   3.293  -1.713  1.00  0.00    -0.218 OA
ENDBRANCH  16  19
ENDBRANCH   9  10
ENDBRANCH   8   9
ENDBRANCH   1   8
TORSDOF 5
