REMARK  1 active torsions:
REMARK  status: ('A' for Active; 'I' for Inactive)
REMARK    1  A    between atoms: C12_14  and  C19_21 
ROOT
HETATM    1  C1  UNL     1       3.789   0.287   1.607  1.00  0.00     0.029 A 
HETATM    2  C2  UNL     1       5.188   0.363   1.377  1.00  0.00     0.131 A 
HETATM    3  C3  UNL     1       5.740  -0.121   0.158  1.00  0.00     0.029 A 
HETATM    4  C4  UNL     1       4.897  -0.682  -0.834  1.00  0.00     0.021 A 
HETATM    5  C5  UNL     1       3.508  -0.746  -0.580  1.00  0.00     0.081 A 
HETATM    6  C6  UNL     1       2.973  -0.279   0.598  1.00  0.00     0.017 A 
HETATM    7  C7  UNL     1       1.633  -0.438   0.639  1.00  0.00    -0.003 A 
HETATM    8  C8  UNL     1       1.279  -1.033  -0.576  1.00  0.00     0.086 A 
HETATM    9  N1  UNL     1       2.451  -1.233  -1.342  1.00  0.00    -0.248 NA
HETATM   10  C9  UNL     1      -0.156  -1.373  -0.949  1.00  0.00     0.259 C 
HETATM   11  N2  UNL     1      -0.965  -1.518   0.303  1.00  0.00     0.143 N 
HETATM   12  C10 UNL     1      -0.850  -0.274   1.131  1.00  0.00     0.227 C 
HETATM   13  C11 UNL     1       0.594  -0.106   1.697  1.00  0.00     0.061 C 
HETATM   14  C12 UNL     1      -1.322   0.955   0.283  1.00  0.00     0.069 C 
HETATM   15  C13 UNL     1      -1.895   0.482  -1.076  1.00  0.00     0.027 C 
HETATM   16  C14 UNL     1      -0.775  -0.254  -1.842  1.00  0.00     0.044 C 
HETATM   17  C15 UNL     1      -2.938  -0.576  -0.783  1.00  0.00    -0.016 C 
HETATM   18  C16 UNL     1      -2.387  -1.768  -0.021  1.00  0.00     0.273 C 
HETATM   19  C17 UNL     1      -4.233  -0.498  -1.150  1.00  0.00    -0.032 C 
HETATM   20  C18 UNL     1      -4.783   0.682  -1.908  1.00  0.00     0.030 C 
HETATM   21  O2  UNL     1       5.990   0.893   2.311  1.00  0.00    -0.190 OA
ENDROOT
BRANCH  14  22
HETATM   22  C19 UNL     1      -2.324   1.828   1.049  1.00  0.00     0.184 C 
HETATM   23  O1  UNL     1      -1.662   2.394   2.156  1.00  0.00    -0.221 OA
ENDBRANCH  14  22
TORSDOF 1
