REMARK  3 active torsions:
REMARK  status: ('A' for Active; 'I' for Inactive)
REMARK    1  A    between atoms: C1_1  and  O2_3 
REMARK    2  A    between atoms: O2_3  and  C2_4 
REMARK    3  A    between atoms: C2_4  and  C3_5 
ROOT
HETATM    1  C3  UNL     1       0.070   2.073   0.218  1.00  0.00     0.163 C 
HETATM    2  N1  UNL     1      -1.383   1.649  -0.180  1.00  0.00    -0.239 NA
HETATM    3  C4  UNL     1      -1.733   0.413  -0.215  1.00  0.00     0.224 C 
HETATM    4  N2  UNL     1      -1.149  -0.236  -1.173  1.00  0.00    -0.199 NA
HETATM    5  C5  UNL     1       0.324  -0.076  -1.109  1.00  0.00     0.231 C 
HETATM    6  C6  UNL     1       0.837   1.352  -0.873  1.00  0.00     0.188 C 
HETATM    7  N3  UNL     1       2.283   1.075  -0.966  1.00  0.00    -0.081 NA
HETATM    8  C7  UNL     1       2.388   0.236  -1.909  1.00  0.00     0.761 C 
HETATM    9  N4  UNL     1       1.277  -0.362  -2.214  1.00  0.00    -0.066 NA
HETATM   10  N5  UNL     1       3.487   0.047  -2.564  1.00  0.00     0.061 N 
HETATM   11  C8  UNL     1       0.485  -1.343  -0.258  1.00  0.00     0.285 C 
HETATM   12  C9  UNL     1      -0.251  -2.410  -1.072  1.00  0.00     0.084 C 
HETATM   13  C10 UNL     1      -1.533  -1.649  -1.500  1.00  0.00     0.087 C 
HETATM   14  O3  UNL     1       1.773  -1.672   0.163  1.00  0.00    -0.189 OA
HETATM   15  O4  UNL     1      -0.159  -1.247   0.983  1.00  0.00    -0.189 OA
HETATM   16  N6  UNL     1      -2.522  -0.019   0.775  1.00  0.00    -0.114 N 
ENDROOT
BRANCH   1  17
HETATM   17  C2  UNL     1       0.488   1.795   1.677  1.00  0.00     0.180 C 
BRANCH  17  18
HETATM   18  O2  UNL     1      -0.785   1.426   2.010  1.00  0.00    -0.280 OA
BRANCH  18  19
HETATM   19  C1  UNL     1      -1.268   0.677   2.969  1.00  0.00     0.406 C 
HETATM   20  O1  UNL     1      -2.154   0.060   2.463  1.00  0.00    -0.234 OA
HETATM   21  N7  UNL     1      -0.745   0.709   4.226  1.00  0.00    -0.079 N 
ENDBRANCH  18  19
ENDBRANCH  17  18
ENDBRANCH   1  17
TORSDOF 3
