REMARK  4 active torsions:
REMARK  status: ('A' for Active; 'I' for Inactive)
REMARK    1  A    between atoms: C2_2  and  O4_34 
REMARK    2  A    between atoms: C3_3  and  C30_32 
REMARK    3  A    between atoms: C16_16  and  C25_25 
REMARK    4  A    between atoms: O4_34  and  C31_35 
ROOT
HETATM    1  C1  UNL     1       3.647  -1.668  -0.119  1.00  0.00     0.030 C 
HETATM    2  C2  UNL     1       4.367  -0.332   0.129  1.00  0.00     0.120 C 
HETATM    3  C3  UNL     1       3.836   0.818  -0.770  1.00  0.00     0.056 C 
HETATM    4  C4  UNL     1       2.275   0.898  -0.760  1.00  0.00     0.005 C 
HETATM    5  C5  UNL     1       1.564  -0.459  -1.004  1.00  0.00     0.001 C 
HETATM    6  C6  UNL     1       2.121  -1.527  -0.035  1.00  0.00     0.003 C 
HETATM    7  C7  UNL     1       0.006  -0.322  -0.877  1.00  0.00     0.005 C 
HETATM    8  C8  UNL     1      -0.574   1.098  -1.135  1.00  0.00     0.004 C 
HETATM    9  C9  UNL     1       0.297   1.807  -2.187  1.00  0.00     0.000 C 
HETATM   10  C10 UNL     1       1.742   2.016  -1.701  1.00  0.00     0.000 C 
HETATM   11  C11 UNL     1      -2.064   0.912  -1.582  1.00  0.00     0.015 C 
HETATM   12  C12 UNL     1      -2.818  -0.074  -0.680  1.00  0.00    -0.049 C 
HETATM   13  C13 UNL     1      -2.184  -0.820   0.262  1.00  0.00    -0.035 C 
HETATM   14  C14 UNL     1      -0.672  -0.867   0.400  1.00  0.00     0.025 C 
HETATM   15  C15 UNL     1      -4.322  -0.199  -0.930  1.00  0.00     0.028 C 
HETATM   16  C16 UNL     1      -5.055   1.162  -0.988  1.00  0.00     0.082 C 
HETATM   17  C17 UNL     1      -4.318   2.111  -1.957  1.00  0.00     0.011 C 
HETATM   18  C18 UNL     1      -2.828   2.262  -1.607  1.00  0.00     0.004 C 
HETATM   19  C19 UNL     1      -6.504   0.936  -1.482  1.00  0.00     0.011 C 
HETATM   20  C20 UNL     1      -7.276  -0.092  -0.633  1.00  0.00     0.001 C 
HETATM   21  C21 UNL     1      -6.541  -1.443  -0.525  1.00  0.00     0.000 C 
HETATM   22  C22 UNL     1      -5.090  -1.217  -0.049  1.00  0.00     0.004 C 
HETATM   23  C23 UNL     1      -7.274  -2.342   0.473  1.00  0.00     0.000 C 
HETATM   24  C24 UNL     1      -6.541  -2.156  -1.885  1.00  0.00     0.000 C 
HETATM   25  C26 UNL     1      -2.107   0.316  -3.002  1.00  0.00     0.004 C 
HETATM   26  C27 UNL     1      -0.523   1.953   0.150  1.00  0.00     0.000 C 
HETATM   27  C28 UNL     1       1.881  -0.928  -2.439  1.00  0.00     0.000 C 
HETATM   28  C29 UNL     1       4.367   0.580  -2.191  1.00  0.00     0.005 C 
ENDROOT
BRANCH   2  29
HETATM   29  O4  UNL     1       4.232  -0.002   1.500  1.00  0.00    -0.332 OA
BRANCH  29  30
HETATM   30  C31 UNL     1       4.967  -0.857   2.354  1.00  0.00     0.270 C 
HETATM   31  O5  UNL     1       4.047  -1.645   3.100  1.00  0.00    -0.326 OA
HETATM   32  C32 UNL     1       4.645  -2.584   3.988  1.00  0.00     0.181 C 
HETATM   33  C33 UNL     1       5.516  -1.863   5.039  1.00  0.00     0.215 C 
HETATM   34  C34 UNL     1       6.551  -0.947   4.348  1.00  0.00     0.220 C 
HETATM   35  O8  UNL     1       4.670  -1.125   5.908  1.00  0.00    -0.218 OA
HETATM   36  C35 UNL     1       5.863  -0.027   3.311  1.00  0.00     0.241 C 
HETATM   37  O7  UNL     1       7.277  -0.191   5.303  1.00  0.00    -0.218 OA
HETATM   38  O6  UNL     1       6.854   0.650   2.555  1.00  0.00    -0.215 OA
ENDBRANCH  29  30
ENDBRANCH   2  29
BRANCH   3  39
HETATM   39  C30 UNL     1       4.416   2.164  -0.305  1.00  0.00     0.184 C 
HETATM   40  O3  UNL     1       5.816   2.035  -0.221  1.00  0.00    -0.221 OA
ENDBRANCH   3  39
BRANCH  16  41
HETATM   41  C25 UNL     1      -5.096   1.801   0.383  1.00  0.00     0.184 C 
HETATM   42  O1  UNL     1      -6.024   2.740   0.543  1.00  0.00    -0.647 OA
HETATM   43  O2  UNL     1      -4.324   1.463   1.250  1.00  0.00    -0.647 OA
ENDBRANCH  16  41
TORSDOF 4
