REMARK  5 active torsions:
REMARK  status: ('A' for Active; 'I' for Inactive)
REMARK    1  A    between atoms: C1_1  and  O6_16 
REMARK    2  A    between atoms: C3_4  and  C10_13 
REMARK    3  A    between atoms: C6_7  and  C9_11 
REMARK    4  A    between atoms: O6_16  and  C11_17 
REMARK    5  A    between atoms: C12_19  and  C16_26 
ROOT
HETATM    1  C1  UNL     1      -1.695  -0.458   0.556  1.00  0.00     0.246 C 
HETATM    2  O1  UNL     1      -2.076  -1.818   0.421  1.00  0.00    -0.303 OA
HETATM    3  C2  UNL     1      -1.268  -2.785   0.968  1.00  0.00     0.121 C 
HETATM    4  C3  UNL     1      -0.157  -2.554   1.696  1.00  0.00     0.069 C 
HETATM    5  C4  UNL     1       0.247  -1.128   1.935  1.00  0.00     0.074 C 
HETATM    6  C5  UNL     1      -1.027  -0.263   1.900  1.00  0.00     0.085 C 
HETATM    7  C6  UNL     1      -0.483   1.042   2.418  1.00  0.00    -0.008 C 
HETATM    8  C7  UNL     1       0.606   0.806   3.167  1.00  0.00     0.001 C 
HETATM    9  C8  UNL     1       0.959  -0.661   3.205  1.00  0.00     0.178 C 
HETATM   10  O2  UNL     1       2.352  -0.884   3.117  1.00  0.00    -0.218 OA
ENDROOT
BRANCH   1  11
HETATM   11  O6  UNL     1      -0.842  -0.238  -0.548  1.00  0.00    -0.304 OA
BRANCH  11  12
HETATM   12  C11 UNL     1      -0.728   1.109  -0.942  1.00  0.00     0.272 C 
HETATM   13  O7  UNL     1      -1.405   1.283  -2.166  1.00  0.00    -0.326 OA
HETATM   14  C12 UNL     1      -0.776   0.758  -3.301  1.00  0.00     0.184 C 
HETATM   15  C13 UNL     1       0.664   1.237  -3.425  1.00  0.00     0.215 C 
HETATM   16  C14 UNL     1       1.481   1.031  -2.164  1.00  0.00     0.220 C 
HETATM   17  O10 UNL     1       0.655   2.620  -3.713  1.00  0.00    -0.218 OA
HETATM   18  C15 UNL     1       0.715   1.564  -0.970  1.00  0.00     0.241 C 
HETATM   19  O9  UNL     1       1.769  -0.333  -1.974  1.00  0.00    -0.218 OA
HETATM   20  O8  UNL     1       0.731   2.973  -0.999  1.00  0.00    -0.215 OA
BRANCH  14  21
HETATM   21  C16 UNL     1      -0.983  -0.745  -3.437  1.00  0.00     0.214 C 
HETATM   22  O11 UNL     1      -0.709  -1.148  -4.765  1.00  0.00    -0.218 OA
ENDBRANCH  14  21
ENDBRANCH  11  12
ENDBRANCH   1  11
BRANCH   7  23
HETATM   23  C9  UNL     1      -1.187   2.364   2.355  1.00  0.00     0.205 C 
HETATM   24  O3  UNL     1      -0.467   3.294   1.554  1.00  0.00    -0.216 OA
ENDBRANCH   7  23
BRANCH   4  25
HETATM   25  C10 UNL     1       0.588  -3.594   2.159  1.00  0.00     0.209 C 
HETATM   26  O4  UNL     1       1.595  -3.379   2.792  1.00  0.00    -0.644 OA
HETATM   27  O5  UNL     1       0.279  -4.893   1.956  1.00  0.00    -0.644 OA
ENDBRANCH   4  25
TORSDOF 5
