REMARK  0 active torsions:
REMARK  status: ('A' for Active; 'I' for Inactive)
ROOT
HETATM    1  C1  UNL     1      -2.455   1.193  -0.082  1.00  0.00     0.002 A 
HETATM    2  C2  UNL     1      -2.433  -0.225   0.005  1.00  0.00     0.000 A 
HETATM    3  C3  UNL     1      -1.195  -0.918   0.053  1.00  0.00     0.001 A 
HETATM    4  C4  UNL     1       0.003  -0.162   0.013  1.00  0.00     0.015 A 
HETATM    5  C5  UNL     1      -0.022   1.207  -0.072  1.00  0.00     0.081 A 
HETATM    6  C6  UNL     1      -1.240   1.925  -0.121  1.00  0.00     0.019 A 
HETATM    7  N1  UNL     1       1.297   1.631  -0.091  1.00  0.00    -0.244 NA
HETATM    8  C7  UNL     1       2.108   0.471  -0.016  1.00  0.00     0.095 A 
HETATM    9  C8  UNL     1       1.263  -0.653   0.049  1.00  0.00    -0.001 A 
HETATM   10  C9  UNL     1       1.694  -2.104   0.140  1.00  0.00     0.033 C 
ENDROOT
TORSDOF 0
