REMARK  3 active torsions:
REMARK  status: ('A' for Active; 'I' for Inactive)
REMARK    1  A    between atoms: C2_2  and  O5_16 
REMARK    2  A    between atoms: C3_3  and  O4_14 
REMARK    3  A    between atoms: C8_8  and  O3_12 
ROOT
HETATM    1  C1  UNL     1       0.545   0.664   1.904  1.00  0.00     0.026 A 
HETATM    2  C2  UNL     1      -0.290  -0.481   1.901  1.00  0.00     0.118 A 
HETATM    3  C3  UNL     1      -0.707  -1.053   0.674  1.00  0.00     0.139 A 
HETATM    4  C4  UNL     1      -0.290  -0.481  -0.551  1.00  0.00     0.128 A 
HETATM    5  C5  UNL     1       0.547   0.666  -0.541  1.00  0.00     0.027 A 
HETATM    6  C6  UNL     1       0.966   1.240   0.683  1.00  0.00     0.004 A 
HETATM    7  C7  UNL     1       0.970   1.245  -1.841  1.00  0.00     0.032 A 
HETATM    8  C8  UNL     1       0.551   0.672  -2.988  1.00  0.00     0.158 A 
HETATM    9  C9  UNL     1      -0.324  -0.523  -2.924  1.00  0.00     0.323 A 
HETATM   10  O1  UNL     1      -0.687  -1.022  -1.725  1.00  0.00    -0.269 OA
HETATM   11  O2  UNL     1      -0.693  -1.023  -3.962  1.00  0.00    -0.257 OA
ENDROOT
BRANCH   2  12
HETATM   12  O5  UNL     1      -0.683  -1.020   3.063  1.00  0.00    -0.326 OA
HETATM   13  C12 UNL     1      -0.239  -0.410   4.266  1.00  0.00     0.181 C 
ENDBRANCH   2  12
BRANCH   3  14
HETATM   14  O4  UNL     1      -1.496  -2.137   0.674  1.00  0.00    -0.324 OA
HETATM   15  C11 UNL     1      -1.248  -3.143   1.645  1.00  0.00     0.182 C 
ENDBRANCH   3  14
BRANCH   8  16
HETATM   16  O3  UNL     1       0.922   1.177  -4.163  1.00  0.00    -0.323 OA
HETATM   17  C10 UNL     1       0.523   2.531  -4.319  1.00  0.00     0.182 C 
ENDBRANCH   8  16
TORSDOF 3
