REMARK  7 active torsions:
REMARK  status: ('A' for Active; 'I' for Inactive)
REMARK    1  A    between atoms: C4_4  and  O3_11 
REMARK    2  A    between atoms: C5_5  and  O2_9 
REMARK    3  A    between atoms: C6_6  and  O1_7 
REMARK    4  A    between atoms: C10_13  and  O8_31 
REMARK    5  A    between atoms: C16_19  and  O6_26 
REMARK    6  A    between atoms: O8_31  and  C24_32 
REMARK    7  A    between atoms: C24_32  and  C25_33 
ROOT
HETATM    1  C1  UNL     1       0.109   0.723   0.898  1.00  0.00     0.024 A 
HETATM    2  C2  UNL     1       1.350   0.736   0.174  1.00  0.00     0.012 A 
HETATM    3  C3  UNL     1       2.246   1.801   0.385  1.00  0.00     0.025 A 
HETATM    4  C4  UNL     1       1.943   2.840   1.277  1.00  0.00     0.118 A 
HETATM    5  C5  UNL     1       0.731   2.828   1.979  1.00  0.00     0.138 A 
HETATM    6  C6  UNL     1      -0.182   1.775   1.795  1.00  0.00     0.118 A 
HETATM    7  C10 UNL     1       1.768  -0.316  -0.818  1.00  0.00     0.175 C 
HETATM    8  C11 UNL     1       2.596  -1.518  -0.258  1.00  0.00     0.156 C 
HETATM    9  C12 UNL     1       1.776  -2.617   0.473  1.00  0.00     0.035 C 
HETATM   10  C13 UNL     1       0.820  -2.098   1.574  1.00  0.00     0.029 C 
HETATM   11  C14 UNL     1      -0.519  -1.711   1.049  1.00  0.00    -0.018 A 
HETATM   12  C15 UNL     1      -0.867  -0.371   0.719  1.00  0.00     0.022 A 
HETATM   13  C16 UNL     1      -2.174  -0.074   0.221  1.00  0.00     0.118 A 
HETATM   14  C17 UNL     1      -3.123  -1.123   0.078  1.00  0.00     0.141 A 
HETATM   15  C18 UNL     1      -2.787  -2.438   0.396  1.00  0.00     0.121 A 
HETATM   16  C19 UNL     1      -1.488  -2.725   0.873  1.00  0.00     0.022 A 
HETATM   17  O4  UNL     1      -3.838  -3.227   0.172  1.00  0.00    -0.299 OA
HETATM   18  C20 UNL     1      -4.939  -2.426  -0.307  1.00  0.00     0.304 A 
HETATM   19  O5  UNL     1      -4.389  -1.092  -0.342  1.00  0.00    -0.298 OA
HETATM   20  C22 UNL     1       2.686  -3.719   1.041  1.00  0.00     0.003 C 
HETATM   21  O7  UNL     1       3.602  -1.035   0.619  1.00  0.00    -0.223 OA
HETATM   22  C23 UNL     1       3.377  -2.164  -1.410  1.00  0.00     0.036 C 
ENDROOT
BRANCH   7  23
HETATM   23  O8  UNL     1       0.668  -0.799  -1.580  1.00  0.00    -0.294 OA
BRANCH  23  24
HETATM   24  C24 UNL     1       0.125   0.148  -2.342  1.00  0.00     0.292 C 
HETATM   25  O9  UNL     1       0.502   1.297  -2.357  1.00  0.00    -0.260 OA
BRANCH  24  26
HETATM   26  C25 UNL     1      -0.992  -0.279  -3.191  1.00  0.00     0.037 C 
HETATM   27  C26 UNL     1      -1.771   0.627  -3.805  1.00  0.00    -0.025 C 
HETATM   28  C27 UNL     1      -2.904   0.135  -4.666  1.00  0.00     0.030 C 
HETATM   29  C28 UNL     1      -1.291  -1.740  -3.395  1.00  0.00     0.036 C 
ENDBRANCH  24  26
ENDBRANCH  23  24
ENDBRANCH   7  23
BRANCH   6  30
HETATM   30  O1  UNL     1      -1.312   1.779   2.477  1.00  0.00    -0.326 OA
HETATM   31  C7  UNL     1      -1.244   1.994   3.879  1.00  0.00     0.181 C 
ENDBRANCH   6  30
BRANCH   4  32
HETATM   32  O3  UNL     1       2.805   3.822   1.453  1.00  0.00    -0.326 OA
HETATM   33  C9  UNL     1       3.934   3.883   0.594  1.00  0.00     0.181 C 
ENDBRANCH   4  32
BRANCH   5  34
HETATM   34  O2  UNL     1       0.443   3.809   2.813  1.00  0.00    -0.324 OA
HETATM   35  C8  UNL     1       1.477   4.281   3.664  1.00  0.00     0.182 C 
ENDBRANCH   5  34
BRANCH  13  36
HETATM   36  O6  UNL     1      -2.408   1.211  -0.092  1.00  0.00    -0.326 OA
HETATM   37  C21 UNL     1      -3.693   1.553  -0.586  1.00  0.00     0.181 C 
ENDBRANCH  13  36
TORSDOF 7
