REMARK  4 active torsions:
REMARK  status: ('A' for Active; 'I' for Inactive)
REMARK    1  A    between atoms: C7_8  and  C9_10 
REMARK    2  A    between atoms: C9_10  and  O2_11 
REMARK    3  A    between atoms: O2_11  and  C10_12 
REMARK    4  A    between atoms: C11_14  and  C15_21 
ROOT
HETATM    1  O2  UNL     1       1.113  -0.371   0.457  1.00  0.00    -0.325 OA
ENDROOT
BRANCH   1   2
HETATM    2  C9  UNL     1       1.469  -0.639  -0.879  1.00  0.00     0.167 C 
BRANCH   2   3
HETATM    3  C7  UNL     1       0.775  -1.898  -1.340  1.00  0.00    -0.016 C 
HETATM    4  C5  UNL     1      -0.572  -1.992  -1.453  1.00  0.00     0.007 C 
HETATM    5  C4  UNL     1      -1.193  -3.311  -1.891  1.00  0.00     0.029 C 
HETATM    6  C6  UNL     1      -1.481  -0.846  -1.170  1.00  0.00     0.169 C 
HETATM    7  C3  UNL     1      -2.623  -3.537  -1.383  1.00  0.00     0.005 C 
HETATM    8  C2  UNL     1      -3.512  -2.320  -1.648  1.00  0.00     0.008 C 
HETATM    9  C1  UNL     1      -2.951  -1.094  -0.914  1.00  0.00     0.069 C 
HETATM   10  C16 UNL     1      -4.965  -2.590  -1.244  1.00  0.00     0.001 C 
HETATM   11  O1  UNL     1      -1.066   0.289  -1.143  1.00  0.00    -0.292 OA
HETATM   12  C8  UNL     1       1.686  -3.057  -1.668  1.00  0.00     0.029 C 
ENDBRANCH   2   3
ENDBRANCH   1   2
BRANCH   1  13
HETATM   13  C10 UNL     1       1.762   0.770   0.986  1.00  0.00     0.270 C 
HETATM   14  O3  UNL     1       1.260   1.920   0.320  1.00  0.00    -0.326 OA
HETATM   15  C11 UNL     1       1.857   3.148   0.709  1.00  0.00     0.184 C 
HETATM   16  C12 UNL     1       1.586   3.397   2.211  1.00  0.00     0.215 C 
HETATM   17  C13 UNL     1       2.064   2.209   3.072  1.00  0.00     0.220 C 
HETATM   18  O6  UNL     1       2.264   4.578   2.604  1.00  0.00    -0.218 OA
HETATM   19  C14 UNL     1       1.496   0.887   2.510  1.00  0.00     0.241 C 
HETATM   20  O5  UNL     1       1.637   2.385   4.414  1.00  0.00    -0.218 OA
HETATM   21  O4  UNL     1       2.102  -0.209   3.178  1.00  0.00    -0.215 OA
BRANCH  15  22
HETATM   22  C15 UNL     1       1.262   4.234  -0.193  1.00  0.00     0.214 C 
HETATM   23  O7  UNL     1       1.707   4.006  -1.512  1.00  0.00    -0.218 OA
ENDBRANCH  15  22
ENDBRANCH   1  13
TORSDOF 4
