REMARK  9 active torsions:
REMARK  status: ('A' for Active; 'I' for Inactive)
REMARK    1  A    between atoms: C5_5  and  O4_20 
REMARK    2  A    between atoms: C10_10  and  O1_11 
REMARK    3  A    between atoms: O1_11  and  C11_12 
REMARK    4  A    between atoms: C11_12  and  C12_13 
REMARK    5  A    between atoms: C12_13  and  C13_15 
REMARK    6  A    between atoms: O4_20  and  C17_21 
REMARK    7  A    between atoms: C17_21  and  C18_22 
REMARK    8  A    between atoms: C18_22  and  C21_26 
REMARK    9  A    between atoms: C19_23  and  C20_24 
ROOT
HETATM    1  C1  UNL     1      -2.425  -1.420  -0.438  1.00  0.00    -0.018 C 
HETATM    2  C2  UNL     1      -1.292  -1.150   0.245  1.00  0.00    -0.002 C 
HETATM    3  C3  UNL     1      -0.555   0.129   0.586  1.00  0.00     0.152 C 
HETATM    4  C4  UNL     1       0.955   0.222   0.265  1.00  0.00     0.088 C 
HETATM    5  C5  UNL     1       1.500  -0.592  -0.926  1.00  0.00     0.135 C 
HETATM    6  C6  UNL     1       1.042  -0.155  -2.330  1.00  0.00     0.052 C 
HETATM    7  C7  UNL     1      -0.352  -0.645  -2.661  1.00  0.00    -0.046 C 
HETATM    8  C8  UNL     1      -1.396   0.201  -2.605  1.00  0.00    -0.032 C 
HETATM    9  C9  UNL     1      -2.851  -0.185  -2.620  1.00  0.00     0.060 C 
HETATM   10  C10 UNL     1      -3.347  -0.466  -1.193  1.00  0.00     0.147 C 
HETATM   11  C16 UNL     1      -0.456  -2.126  -2.959  1.00  0.00     0.026 C 
HETATM   12  C22 UNL     1       1.103   1.714   0.077  1.00  0.00     0.046 C 
HETATM   13  C23 UNL     1      -0.141   2.241   0.006  1.00  0.00     0.292 C 
HETATM   14  O8  UNL     1      -1.143   1.345   0.199  1.00  0.00    -0.296 OA
HETATM   15  O9  UNL     1      -0.366   3.413  -0.210  1.00  0.00    -0.259 OA
HETATM   16  C24 UNL     1       2.234   2.423  -0.035  1.00  0.00     0.001 C 
HETATM   17  C25 UNL     1      -2.893  -2.861  -0.534  1.00  0.00     0.029 C 
ENDROOT
BRANCH   5  18
HETATM   18  O4  UNL     1       2.903  -0.535  -0.916  1.00  0.00    -0.300 OA
BRANCH  18  19
HETATM   19  C17 UNL     1       3.622  -1.419  -0.157  1.00  0.00     0.294 C 
HETATM   20  O7  UNL     1       3.032  -2.272   0.473  1.00  0.00    -0.259 OA
BRANCH  19  21
HETATM   21  C18 UNL     1       4.983  -1.331  -0.071  1.00  0.00     0.072 C 
HETATM   22  C19 UNL     1       5.663  -2.216   0.686  1.00  0.00     0.013 C 
BRANCH  22  23
HETATM   23  C20 UNL     1       7.154  -2.260   0.906  1.00  0.00     0.208 C 
HETATM   24  O5  UNL     1       7.458  -2.762   2.202  1.00  0.00    -0.215 OA
ENDBRANCH  22  23
BRANCH  21  25
HETATM   25  C21 UNL     1       5.672  -0.224  -0.846  1.00  0.00     0.214 C 
HETATM   26  O6  UNL     1       5.331  -0.261  -2.226  1.00  0.00    -0.215 OA
ENDBRANCH  21  25
ENDBRANCH  19  21
ENDBRANCH  18  19
ENDBRANCH   5  18
BRANCH  10  27
HETATM   27  O1  UNL     1      -3.610   0.737  -0.517  1.00  0.00    -0.298 OA
BRANCH  27  28
HETATM   28  C11 UNL     1      -4.296   0.658   0.654  1.00  0.00     0.303 C 
HETATM   29  O3  UNL     1      -4.742  -0.364   1.124  1.00  0.00    -0.261 OA
BRANCH  28  30
HETATM   30  C12 UNL     1      -4.366   2.028   1.322  1.00  0.00     0.237 C 
HETATM   31  O2  UNL     1      -5.536   2.691   0.878  1.00  0.00    -0.213 OA
BRANCH  30  32
HETATM   32  C13 UNL     1      -4.349   1.958   2.854  1.00  0.00     0.040 C 
HETATM   33  C14 UNL     1      -4.483   3.356   3.485  1.00  0.00     0.003 C 
HETATM   34  C15 UNL     1      -3.060   1.289   3.366  1.00  0.00     0.003 C 
ENDBRANCH  30  32
ENDBRANCH  28  30
ENDBRANCH  27  28
ENDBRANCH  10  27
TORSDOF 9
