REMARK  6 active torsions:
REMARK  status: ('A' for Active; 'I' for Inactive)
REMARK    1  A    between atoms: C2_2  and  O7_33 
REMARK    2  A    between atoms: C10_10  and  O1_11 
REMARK    3  A    between atoms: O1_11  and  C11_12 
REMARK    4  A    between atoms: C17_19  and  C20_22 
REMARK    5  A    between atoms: O7_33  and  C27_34 
REMARK    6  A    between atoms: C28_36  and  C32_43 
ROOT
HETATM    1  C1  UNL     1      -3.328  -2.175  -1.445  1.00  0.00     0.035 C 
HETATM    2  C2  UNL     1      -3.651  -2.906  -0.084  1.00  0.00     0.139 C 
HETATM    3  C3  UNL     1      -2.454  -3.805   0.107  1.00  0.00    -0.003 C 
HETATM    4  C4  UNL     1      -1.182  -3.394  -0.011  1.00  0.00    -0.019 C 
HETATM    5  C5  UNL     1      -0.873  -1.908  -0.249  1.00  0.00     0.020 C 
HETATM    6  C6  UNL     1      -1.814  -1.485  -1.477  1.00  0.00     0.007 C 
HETATM    7  C7  UNL     1       0.737  -1.768  -0.467  1.00  0.00     0.034 C 
HETATM    8  C8  UNL     1       1.549  -2.471   0.766  1.00  0.00     0.155 C 
HETATM    9  C9  UNL     1       1.116  -3.964   0.942  1.00  0.00     0.067 C 
HETATM   10  C10 UNL     1      -0.013  -4.439  -0.020  1.00  0.00     0.145 C 
HETATM   11  C13 UNL     1       3.100  -2.356   0.494  1.00  0.00     0.152 C 
HETATM   12  C14 UNL     1       3.591  -0.882   0.347  1.00  0.00     0.032 C 
HETATM   13  C15 UNL     1       2.828  -0.239  -0.877  1.00  0.00     0.003 C 
HETATM   14  C16 UNL     1       1.237  -0.259  -0.624  1.00  0.00     0.003 C 
HETATM   15  C17 UNL     1       5.111  -1.269   0.110  1.00  0.00     0.027 C 
HETATM   16  C18 UNL     1       5.013  -2.291  -1.060  1.00  0.00     0.007 C 
HETATM   17  C19 UNL     1       3.604  -2.986  -0.838  1.00  0.00     0.033 C 
HETATM   18  C25 UNL     1       3.392   0.010   1.614  1.00  0.00     0.003 C 
HETATM   19  O5  UNL     1       3.795  -3.005   1.579  1.00  0.00    -0.224 OA
HETATM   20  O6  UNL     1       1.344  -1.888   2.061  1.00  0.00    -0.223 OA
HETATM   21  C26 UNL     1      -1.306  -1.003   0.971  1.00  0.00     0.004 C 
ENDROOT
BRANCH   2  22
HETATM   22  O7  UNL     1      -4.808  -3.826   0.059  1.00  0.00    -0.327 OA
BRANCH  22  23
HETATM   23  C27 UNL     1      -6.221  -3.557  -0.268  1.00  0.00     0.270 C 
HETATM   24  O8  UNL     1      -6.957  -4.512   0.586  1.00  0.00    -0.326 OA
HETATM   25  C28 UNL     1      -8.403  -4.536   0.431  1.00  0.00     0.184 C 
HETATM   26  C29 UNL     1      -8.938  -3.073   0.719  1.00  0.00     0.215 C 
HETATM   27  C30 UNL     1      -8.262  -2.071  -0.248  1.00  0.00     0.220 C 
HETATM   28  O11 UNL     1     -10.366  -2.977   0.617  1.00  0.00    -0.218 OA
HETATM   29  C31 UNL     1      -6.724  -2.129   0.024  1.00  0.00     0.241 C 
HETATM   30  O10 UNL     1      -8.742  -0.758   0.023  1.00  0.00    -0.218 OA
HETATM   31  O9  UNL     1      -6.497  -1.793   1.385  1.00  0.00    -0.215 OA
BRANCH  25  32
HETATM   32  C32 UNL     1      -8.739  -5.152  -0.982  1.00  0.00     0.214 C 
HETATM   33  O12 UNL     1     -10.147  -5.402  -1.188  1.00  0.00    -0.218 OA
ENDBRANCH  25  32
ENDBRANCH  22  23
ENDBRANCH   2  22
BRANCH  10  34
HETATM   34  O1  UNL     1      -0.390  -5.815   0.375  1.00  0.00    -0.300 OA
BRANCH  34  35
HETATM   35  C11 UNL     1      -1.168  -6.646  -0.517  1.00  0.00     0.273 C 
HETATM   36  C12 UNL     1      -1.545  -6.242  -1.932  1.00  0.00     0.106 C 
HETATM   37  O2  UNL     1      -1.502  -7.768  -0.120  1.00  0.00    -0.264 OA
ENDBRANCH  34  35
ENDBRANCH  10  34
BRANCH  15  38
HETATM   38  C20 UNL     1       6.254  -0.241  -0.097  1.00  0.00     0.003 A 
HETATM   39  C21 UNL     1       7.593  -0.793  -0.379  1.00  0.00     0.003 A 
HETATM   40  C22 UNL     1       8.649   0.021  -0.444  1.00  0.00     0.068 A 
HETATM   41  C23 UNL     1       8.449   1.438  -0.241  1.00  0.00     0.300 A 
HETATM   42  O3  UNL     1       7.193   1.926  -0.025  1.00  0.00    -0.271 OA
HETATM   43  O4  UNL     1       9.424   2.212  -0.264  1.00  0.00    -0.259 OA
HETATM   44  C24 UNL     1       6.113   1.066   0.072  1.00  0.00     0.122 A 
ENDBRANCH  15  38
TORSDOF 6
