REMARK  4 active torsions:
REMARK  status: ('A' for Active; 'I' for Inactive)
REMARK    1  A    between atoms: C3_3  and  C27_30 
REMARK    2  A    between atoms: C10_10  and  O1_11 
REMARK    3  A    between atoms: O1_11  and  C11_12 
REMARK    4  A    between atoms: C11_12  and  C12_13 
ROOT
HETATM    1  C1  UNL     1      -2.307   2.731   1.080  1.00  0.00     0.000 C 
HETATM    2  C2  UNL     1      -2.873   2.104  -0.207  1.00  0.00     0.003 C 
HETATM    3  C3  UNL     1      -1.939   1.061  -0.871  1.00  0.00     0.033 C 
HETATM    4  C4  UNL     1      -1.086   0.342   0.211  1.00  0.00     0.030 C 
HETATM    5  C5  UNL     1      -0.186   1.311   1.059  1.00  0.00     0.002 C 
HETATM    6  C6  UNL     1      -0.775   2.748   1.076  1.00  0.00     0.000 C 
HETATM    7  C7  UNL     1       1.336   1.274   0.668  1.00  0.00     0.001 C 
HETATM    8  C8  UNL     1       1.922  -0.182   0.527  1.00  0.00     0.010 C 
HETATM    9  C9  UNL     1       0.852  -1.277   0.582  1.00  0.00     0.031 C 
HETATM   10  C10 UNL     1      -0.322  -0.894  -0.318  1.00  0.00     0.125 C 
HETATM   11  C18 UNL     1       3.109  -0.443   1.471  1.00  0.00     0.065 C 
HETATM   12  C19 UNL     1       4.135   0.656   1.322  1.00  0.00     0.150 C 
HETATM   13  C20 UNL     1       3.586   2.045   1.045  1.00  0.00     0.051 C 
HETATM   14  C21 UNL     1       2.178   2.154   1.625  1.00  0.00     0.007 C 
HETATM   15  C22 UNL     1       4.479   3.143   1.621  1.00  0.00     0.007 C 
HETATM   16  C23 UNL     1       3.285   2.272  -0.445  1.00  0.00     0.007 C 
HETATM   17  C24 UNL     1       1.781   2.018  -0.613  1.00  0.00     0.000 C 
HETATM   18  O3  UNL     1       5.320   0.438   1.416  1.00  0.00    -0.296 OA
HETATM   19  C25 UNL     1      -0.201   0.809   2.518  1.00  0.00     0.000 C 
HETATM   20  C26 UNL     1      -2.807   0.053  -1.639  1.00  0.00     0.003 C 
ENDROOT
BRANCH  10  21
HETATM   21  O1  UNL     1      -1.209  -2.002  -0.416  1.00  0.00    -0.301 OA
BRANCH  21  22
HETATM   22  C11 UNL     1      -0.729  -2.969  -1.193  1.00  0.00     0.296 C 
HETATM   23  O2  UNL     1       0.299  -2.879  -1.822  1.00  0.00    -0.259 OA
BRANCH  22  24
HETATM   24  C12 UNL     1      -1.557  -4.211  -1.246  1.00  0.00     0.063 A 
HETATM   25  C13 UNL     1      -2.750  -4.295  -0.506  1.00  0.00     0.005 A 
HETATM   26  C14 UNL     1      -3.527  -5.465  -0.557  1.00  0.00     0.000 A 
HETATM   27  C15 UNL     1      -3.113  -6.551  -1.346  1.00  0.00     0.000 A 
HETATM   28  C16 UNL     1      -1.922  -6.469  -2.086  1.00  0.00     0.000 A 
HETATM   29  C17 UNL     1      -1.143  -5.299  -2.037  1.00  0.00     0.005 A 
ENDBRANCH  22  24
ENDBRANCH  21  22
ENDBRANCH  10  21
BRANCH   3  30
HETATM   30  C27 UNL     1      -1.035   1.752  -1.898  1.00  0.00     0.182 C 
HETATM   31  O4  UNL     1      -1.844   2.217  -2.955  1.00  0.00    -0.221 OA
ENDBRANCH   3  30
TORSDOF 4
