REMARK  8 active torsions:
REMARK  status: ('A' for Active; 'I' for Inactive)
REMARK    1  A    between atoms: C3_3  and  C27_30 
REMARK    2  A    between atoms: C7_7  and  C19_21 
REMARK    3  A    between atoms: C10_10  and  O1_11 
REMARK    4  A    between atoms: O1_11  and  C11_12 
REMARK    5  A    between atoms: C11_12  and  C12_13 
REMARK    6  A    between atoms: C19_21  and  C20_22 
REMARK    7  A    between atoms: C20_22  and  C21_23 
REMARK    8  A    between atoms: C23_25  and  C24_26 
ROOT
HETATM    1  C1  UNL     1       3.617   0.326  -0.742  1.00  0.00     0.001 C 
HETATM    2  C2  UNL     1       3.672  -0.885   0.193  1.00  0.00     0.010 C 
HETATM    3  C3  UNL     1       2.443  -1.803   0.037  1.00  0.00     0.081 C 
HETATM    4  C4  UNL     1       1.127  -0.984   0.209  1.00  0.00     0.038 C 
HETATM    5  C5  UNL     1       1.051   0.279  -0.701  1.00  0.00     0.006 C 
HETATM    6  C6  UNL     1       2.330   1.131  -0.523  1.00  0.00     0.000 C 
HETATM    7  C7  UNL     1      -0.184   1.131  -0.291  1.00  0.00     0.019 C 
HETATM    8  C8  UNL     1      -1.439   0.301  -0.105  1.00  0.00    -0.042 C 
HETATM    9  C9  UNL     1      -1.385  -1.162  -0.471  1.00  0.00     0.052 C 
HETATM   10  C10 UNL     1      -0.150  -1.869   0.117  1.00  0.00     0.129 C 
HETATM   11  C18 UNL     1      -2.568   0.852   0.379  1.00  0.00    -0.009 C 
HETATM   12  C25 UNL     1       0.938  -0.131  -2.182  1.00  0.00     0.000 C 
HETATM   13  C26 UNL     1       2.496  -2.502  -1.328  1.00  0.00     0.011 C 
ENDROOT
BRANCH  10  14
HETATM   14  O1  UNL     1      -0.473  -2.342   1.420  1.00  0.00    -0.301 OA
BRANCH  14  15
HETATM   15  C11 UNL     1      -1.266  -3.408   1.389  1.00  0.00     0.296 C 
HETATM   16  O2  UNL     1      -1.660  -3.924   0.371  1.00  0.00    -0.259 OA
BRANCH  15  17
HETATM   17  C12 UNL     1      -1.656  -3.949   2.725  1.00  0.00     0.063 A 
HETATM   18  C13 UNL     1      -2.492  -5.078   2.813  1.00  0.00     0.005 A 
HETATM   19  C14 UNL     1      -2.859  -5.586   4.070  1.00  0.00     0.000 A 
HETATM   20  C15 UNL     1      -2.389  -4.971   5.242  1.00  0.00     0.000 A 
HETATM   21  C16 UNL     1      -1.553  -3.844   5.156  1.00  0.00     0.000 A 
HETATM   22  C17 UNL     1      -1.186  -3.334   3.901  1.00  0.00     0.005 A 
ENDBRANCH  15  17
ENDBRANCH  14  15
ENDBRANCH  10  14
BRANCH   3  23
HETATM   23  C27 UNL     1       2.524  -2.887   1.086  1.00  0.00     0.184 C 
HETATM   24  O4  UNL     1       2.348  -4.047   0.797  1.00  0.00    -0.647 OA
HETATM   25  O5  UNL     1       2.797  -2.463   2.317  1.00  0.00    -0.647 OA
ENDBRANCH   3  23
BRANCH   7  26
HETATM   26  C19 UNL     1      -0.439   2.289  -1.264  1.00  0.00     0.008 C 
BRANCH  26  27
HETATM   27  C20 UNL     1      -0.695   3.615  -0.547  1.00  0.00     0.022 C 
BRANCH  27  28
HETATM   28  C21 UNL     1      -0.850   4.766  -1.504  1.00  0.00    -0.046 C 
HETATM   29  C22 UNL     1       0.045   5.977  -1.484  1.00  0.00     0.026 C 
HETATM   30  C23 UNL     1      -1.832   4.711  -2.418  1.00  0.00     0.001 C 
BRANCH  30  31
HETATM   31  C24 UNL     1      -1.988   5.861  -3.377  1.00  0.00     0.208 C 
HETATM   32  O3  UNL     1      -2.912   5.514  -4.383  1.00  0.00    -0.215 OA
ENDBRANCH  30  31
ENDBRANCH  27  28
ENDBRANCH  26  27
ENDBRANCH   7  26
TORSDOF 8
