REMARK  2 active torsions:
REMARK  status: ('A' for Active; 'I' for Inactive)
REMARK    1  A    between atoms: C4_4  and  O2_9 
REMARK    2  A    between atoms: C5_5  and  O1_7 
ROOT
HETATM    1  C1  UNL     1      -1.217  -0.486  -0.262  1.00  0.00     0.025 A 
HETATM    2  C2  UNL     1      -1.149   0.844   0.234  1.00  0.00     0.105 A 
HETATM    3  C3  UNL     1       0.111   1.412   0.535  1.00  0.00     0.051 A 
HETATM    4  C4  UNL     1       1.293   0.660   0.342  1.00  0.00     0.118 A 
HETATM    5  C5  UNL     1       1.221  -0.666  -0.154  1.00  0.00     0.116 A 
HETATM    6  C6  UNL     1      -0.035  -1.242  -0.457  1.00  0.00     0.028 A 
HETATM    7  O3  UNL     1      -2.279   1.563   0.418  1.00  0.00    -0.273 OA
HETATM    8  C9  UNL     1      -3.510   1.076   0.150  1.00  0.00     0.300 A 
HETATM    9  C10 UNL     1      -3.645  -0.306  -0.369  1.00  0.00     0.069 A 
HETATM   10  C11 UNL     1      -2.549  -1.062  -0.570  1.00  0.00     0.007 A 
HETATM   11  O4  UNL     1      -4.514   1.729   0.318  1.00  0.00    -0.259 OA
ENDROOT
BRANCH   4  12
HETATM   12  O2  UNL     1       2.484   1.205   0.631  1.00  0.00    -0.326 OA
HETATM   13  C8  UNL     1       2.508   2.551   1.082  1.00  0.00     0.181 C 
ENDBRANCH   4  12
BRANCH   5  14
HETATM   14  O1  UNL     1       2.340  -1.379  -0.336  1.00  0.00    -0.326 OA
HETATM   15  C7  UNL     1       2.215  -2.703  -0.836  1.00  0.00     0.181 C 
ENDBRANCH   5  14
TORSDOF 2
