REMARK  2 active torsions:
REMARK  status: ('A' for Active; 'I' for Inactive)
REMARK    1  A    between atoms: C6_6  and  O1_7 
REMARK    2  A    between atoms: C10_11  and  C11_13 
ROOT
HETATM    1  C1  UNL     1      -3.314   2.497   0.004  1.00  0.00     0.052 A 
HETATM    2  C2  UNL     1      -3.787   1.184  -0.031  1.00  0.00     0.135 A 
HETATM    3  C3  UNL     1      -2.846   0.153  -0.037  1.00  0.00     0.052 A 
HETATM    4  C4  UNL     1      -1.469   0.392  -0.010  1.00  0.00     0.107 A 
HETATM    5  C5  UNL     1      -1.054   1.730   0.026  1.00  0.00     0.086 A 
HETATM    6  C6  UNL     1      -1.950   2.820   0.034  1.00  0.00     0.101 A 
HETATM    7  C8  UNL     1       0.408   1.958   0.055  1.00  0.00     0.227 A 
HETATM    8  C9  UNL     1       1.285   0.763   0.039  1.00  0.00     0.192 A 
HETATM    9  C10 UNL     1       0.741  -0.484   0.002  1.00  0.00     0.128 A 
HETATM   10  O2  UNL     1      -0.616  -0.672  -0.017  1.00  0.00    -0.305 OA
HETATM   11  O5  UNL     1       2.606   1.081   0.067  1.00  0.00    -0.185 OA
HETATM   12  O6  UNL     1       0.954   3.058   0.093  1.00  0.00    -0.284 OA
HETATM   13  O7  UNL     1      -5.118   0.908  -0.058  1.00  0.00    -0.190 OA
ENDROOT
BRANCH   9  14
HETATM   14  C11 UNL     1       1.576  -1.716  -0.014  1.00  0.00     0.027 A 
HETATM   15  C12 UNL     1       2.979  -1.789  -0.020  1.00  0.00     0.032 A 
HETATM   16  C13 UNL     1       3.688  -2.995  -0.032  1.00  0.00     0.156 A 
HETATM   17  C14 UNL     1       2.993  -4.206  -0.045  1.00  0.00     0.156 A 
HETATM   18  O4  UNL     1       5.048  -3.024  -0.033  1.00  0.00    -0.188 OA
HETATM   19  C15 UNL     1       1.597  -4.169  -0.044  1.00  0.00     0.030 A 
HETATM   20  O3  UNL     1       3.669  -5.383  -0.059  1.00  0.00    -0.188 OA
HETATM   21  C16 UNL     1       0.909  -2.958  -0.029  1.00  0.00     0.004 A 
ENDBRANCH   9  14
BRANCH   6  22
HETATM   22  O1  UNL     1      -1.467   4.105   0.068  1.00  0.00    -0.328 OA
HETATM   23  C7  UNL     1      -2.375   5.181   0.071  1.00  0.00     0.181 C 
ENDBRANCH   6  22
TORSDOF 2
