REMARK  1 active torsions:
REMARK  status: ('A' for Active; 'I' for Inactive)
REMARK    1  A    between atoms: C5_5  and  O1_7 
ROOT
HETATM    1  C1  UNL     1      -0.914  -0.014  -0.078  1.00  0.00     0.025 A 
HETATM    2  C2  UNL     1      -0.848   1.316   0.418  1.00  0.00     0.105 A 
HETATM    3  C3  UNL     1       0.412   1.885   0.719  1.00  0.00     0.054 A 
HETATM    4  C4  UNL     1       1.595   1.131   0.527  1.00  0.00     0.155 A 
HETATM    5  C5  UNL     1       1.522  -0.194   0.031  1.00  0.00     0.119 A 
HETATM    6  C6  UNL     1       0.266  -0.770  -0.273  1.00  0.00     0.028 A 
HETATM    7  O2  UNL     1       2.785   1.677   0.815  1.00  0.00    -0.188 OA
HETATM    8  O3  UNL     1      -1.978   2.035   0.602  1.00  0.00    -0.273 OA
HETATM    9  C8  UNL     1      -3.208   1.548   0.334  1.00  0.00     0.300 A 
HETATM   10  C9  UNL     1      -3.344   0.166  -0.184  1.00  0.00     0.069 A 
HETATM   11  C10 UNL     1      -2.248  -0.591  -0.386  1.00  0.00     0.007 A 
HETATM   12  O4  UNL     1      -4.212   2.201   0.502  1.00  0.00    -0.259 OA
ENDROOT
BRANCH   5  13
HETATM   13  O1  UNL     1       2.642  -0.907  -0.152  1.00  0.00    -0.326 OA
HETATM   14  C7  UNL     1       2.514  -2.246  -0.606  1.00  0.00     0.181 C 
ENDBRANCH   5  13
TORSDOF 1
