REMARK  2 active torsions:
REMARK  status: ('A' for Active; 'I' for Inactive)
REMARK    1  A    between atoms: C4_4  and  O2_8 
REMARK    2  A    between atoms: C16_19  and  O3_22 
ROOT
HETATM    1  C1  UNL     1      -0.973  -0.445   1.509  1.00  0.00     0.007 A 
HETATM    2  C2  UNL     1      -0.572   0.133   2.750  1.00  0.00    -0.020 A 
HETATM    3  C3  UNL     1      -0.999  -0.444   3.972  1.00  0.00     0.022 A 
HETATM    4  C4  UNL     1      -1.830  -1.586   3.972  1.00  0.00     0.119 A 
HETATM    5  C5  UNL     1      -2.242  -2.157   2.746  1.00  0.00     0.153 A 
HETATM    6  C6  UNL     1      -1.819  -1.587   1.524  1.00  0.00     0.027 A 
HETATM    7  O1  UNL     1      -3.034  -3.238   2.738  1.00  0.00    -0.188 OA
HETATM    8  C8  UNL     1       0.292   1.337   2.768  1.00  0.00     0.061 C 
HETATM    9  C9  UNL     1       0.236   2.128   1.452  1.00  0.00     0.256 C 
HETATM   10  N1  UNL     1       0.477   1.222   0.326  1.00  0.00     0.144 N 
HETATM   11  C10 UNL     1      -0.529   0.142   0.203  1.00  0.00     0.246 C 
HETATM   12  C11 UNL     1       0.045  -0.922  -0.773  1.00  0.00     0.064 C 
HETATM   13  C12 UNL     1       0.578  -0.347  -2.036  1.00  0.00    -0.020 A 
HETATM   14  C13 UNL     1       0.901   1.038  -2.117  1.00  0.00     0.034 A 
HETATM   15  C14 UNL     1       0.693   1.932  -0.945  1.00  0.00     0.279 C 
HETATM   16  C15 UNL     1       1.417   1.566  -3.329  1.00  0.00     0.151 A 
HETATM   17  C16 UNL     1       1.606   0.725  -4.451  1.00  0.00     0.119 A 
HETATM   18  C17 UNL     1       1.282  -0.648  -4.368  1.00  0.00     0.026 A 
HETATM   19  C18 UNL     1       0.771  -1.183  -3.165  1.00  0.00    -0.002 A 
HETATM   20  O4  UNL     1       1.725   2.869  -3.418  1.00  0.00    -0.188 OA
ENDROOT
BRANCH   4  21
HETATM   21  O2  UNL     1      -2.228  -2.123   5.134  1.00  0.00    -0.326 OA
HETATM   22  C7  UNL     1      -1.783  -1.513   6.337  1.00  0.00     0.181 C 
ENDBRANCH   4  21
BRANCH  17  23
HETATM   23  O3  UNL     1       2.092   1.226  -5.595  1.00  0.00    -0.326 OA
HETATM   24  C19 UNL     1       2.308   0.332  -6.676  1.00  0.00     0.181 C 
ENDBRANCH  17  23
TORSDOF 2
