REMARK  0 active torsions:
REMARK  status: ('A' for Active; 'I' for Inactive)
ROOT
HETATM    1  C1  UNL     1       2.146   2.172  -0.521  1.00  0.00     0.030 C 
HETATM    2  C2  UNL     1       2.969   1.203  -1.402  1.00  0.00     0.005 C 
HETATM    3  C3  UNL     1       2.846  -0.312  -1.088  1.00  0.00     0.033 C 
HETATM    4  C4  UNL     1       1.947  -0.564   0.133  1.00  0.00     0.064 C 
HETATM    5  C5  UNL     1       0.736   0.281   0.588  1.00  0.00     0.061 C 
HETATM    6  C6  UNL     1       0.756   1.623  -0.170  1.00  0.00     0.127 C 
HETATM    7  O1  UNL     1       0.039   2.584   0.602  1.00  0.00    -0.304 OA
HETATM    8  C7  UNL     1      -1.162   2.203   1.068  1.00  0.00     0.274 C 
HETATM    9  C8  UNL     1      -1.752   0.836   0.717  1.00  0.00     0.113 C 
HETATM   10  C9  UNL     1      -0.695  -0.318   0.441  1.00  0.00     0.047 C 
HETATM   11  C10 UNL     1      -0.983  -1.043  -0.916  1.00  0.00     0.153 C 
HETATM   12  C11 UNL     1      -2.477  -1.369  -1.156  1.00  0.00     0.037 C 
HETATM   13  C12 UNL     1      -3.414  -0.301  -0.582  1.00  0.00     0.024 C 
HETATM   14  C13 UNL     1      -2.664   1.031  -0.523  1.00  0.00     0.017 C 
HETATM   15  C14 UNL     1      -3.715  -0.533   0.869  1.00  0.00    -0.014 C 
HETATM   16  C15 UNL     1      -2.867   0.381   1.705  1.00  0.00     0.179 C 
HETATM   17  O2  UNL     1      -2.358  -0.236   2.873  1.00  0.00    -0.218 OA
HETATM   18  C16 UNL     1      -4.615  -1.418   1.334  1.00  0.00    -0.007 C 
HETATM   19  O3  UNL     1      -0.285  -2.270  -1.016  1.00  0.00    -0.223 OA
HETATM   20  O4  UNL     1      -1.797   2.945   1.779  1.00  0.00    -0.264 OA
HETATM   21  C17 UNL     1       1.057   0.387   2.121  1.00  0.00     0.147 C 
HETATM   22  O5  UNL     1       2.207  -0.406   2.338  1.00  0.00    -0.331 OA
HETATM   23  C18 UNL     1       2.988  -0.279   1.197  1.00  0.00     0.235 C 
HETATM   24  O6  UNL     1       4.004  -1.148   0.807  1.00  0.00    -0.331 OA
HETATM   25  C19 UNL     1       4.166  -0.986  -0.592  1.00  0.00     0.145 C 
HETATM   26  C20 UNL     1       2.299  -1.092  -2.283  1.00  0.00     0.003 C 
ENDROOT
TORSDOF 0
