REMARK  2 active torsions:
REMARK  status: ('A' for Active; 'I' for Inactive)
REMARK    1  A    between atoms: C1_1  and  O6_21 
REMARK    2  A    between atoms: C7_8  and  C10_12 
ROOT
HETATM    1  C1  UNL     1      -3.451   0.221   0.362  1.00  0.00     0.098 A 
HETATM    2  C2  UNL     1      -3.342   1.512   0.928  1.00  0.00     0.052 A 
HETATM    3  C3  UNL     1      -2.070   2.109   1.092  1.00  0.00     0.138 A 
HETATM    4  C4  UNL     1      -0.902   1.410   0.684  1.00  0.00     0.083 A 
HETATM    5  C5  UNL     1      -1.012   0.096   0.151  1.00  0.00     0.101 A 
HETATM    6  C6  UNL     1      -2.289  -0.484  -0.027  1.00  0.00     0.049 A 
HETATM    7  O1  UNL     1       0.084  -0.613  -0.197  1.00  0.00    -0.328 OA
HETATM    8  C7  UNL     1       1.371  -0.256   0.321  1.00  0.00     0.155 C 
HETATM    9  C8  UNL     1       1.598   1.264   0.209  1.00  0.00     0.104 C 
HETATM   10  C9  UNL     1       0.441   2.045   0.801  1.00  0.00     0.180 C 
HETATM   11  O2  UNL     1       0.699   3.111   1.311  1.00  0.00    -0.291 OA
HETATM   12  O5  UNL     1      -1.986   3.338   1.623  1.00  0.00    -0.190 OA
ENDROOT
BRANCH   8  13
HETATM   13  C10 UNL     1       2.418  -1.037  -0.392  1.00  0.00     0.056 A 
HETATM   14  C11 UNL     1       2.195  -1.467  -1.717  1.00  0.00     0.131 A 
HETATM   15  C12 UNL     1       3.188  -2.205  -2.387  1.00  0.00     0.027 A 
HETATM   16  O4  UNL     1       1.065  -1.184  -2.332  1.00  0.00    -0.190 OA
HETATM   17  C13 UNL     1       4.397  -2.514  -1.740  1.00  0.00     0.004 A 
HETATM   18  C14 UNL     1       4.615  -2.086  -0.422  1.00  0.00     0.027 A 
HETATM   19  C15 UNL     1       3.631  -1.346   0.256  1.00  0.00     0.131 A 
HETATM   20  O3  UNL     1       3.848  -0.949   1.494  1.00  0.00    -0.190 OA
ENDBRANCH   8  13
BRANCH   1  21
HETATM   21  O6  UNL     1      -4.660  -0.336   0.197  1.00  0.00    -0.328 OA
HETATM   22  C16 UNL     1      -5.795   0.393   0.639  1.00  0.00     0.181 C 
ENDBRANCH   1  21
TORSDOF 2
