REMARK  2 active torsions:
REMARK  status: ('A' for Active; 'I' for Inactive)
REMARK    1  A    between atoms: C5_5  and  O2_8 
REMARK    2  A    between atoms: C8_11  and  C11_15 
ROOT
HETATM    1  C1  UNL     1      -3.416  -2.053   1.059  1.00  0.00     0.057 A 
HETATM    2  C2  UNL     1      -2.121  -2.586   1.266  1.00  0.00     0.138 A 
HETATM    3  C3  UNL     1      -0.982  -1.803   0.951  1.00  0.00     0.089 A 
HETATM    4  C4  UNL     1      -1.137  -0.488   0.434  1.00  0.00     0.129 A 
HETATM    5  C5  UNL     1      -2.436   0.037   0.229  1.00  0.00     0.142 A 
HETATM    6  C6  UNL     1      -3.572  -0.744   0.543  1.00  0.00     0.157 A 
HETATM    7  O1  UNL     1      -4.803  -0.248   0.350  1.00  0.00    -0.188 OA
HETATM    8  O3  UNL     1      -0.051   0.260   0.135  1.00  0.00    -0.305 OA
HETATM    9  C8  UNL     1       1.217  -0.166   0.299  1.00  0.00     0.105 A 
HETATM   10  C9  UNL     1       1.488  -1.400   0.783  1.00  0.00     0.067 A 
HETATM   11  C10 UNL     1       0.399  -2.328   1.152  1.00  0.00     0.202 A 
HETATM   12  O4  UNL     1       0.717  -3.414   1.578  1.00  0.00    -0.286 OA
HETATM   13  O6  UNL     1      -1.992  -3.828   1.756  1.00  0.00    -0.190 OA
ENDROOT
BRANCH   9  14
HETATM   14  C11 UNL     1       2.356   0.734  -0.057  1.00  0.00     0.048 A 
HETATM   15  C12 UNL     1       3.498   0.770   0.764  1.00  0.00     0.004 A 
HETATM   16  C13 UNL     1       4.574   1.611   0.438  1.00  0.00     0.000 A 
HETATM   17  C14 UNL     1       4.512   2.420  -0.709  1.00  0.00     0.002 A 
HETATM   18  C15 UNL     1       3.371   2.387  -1.529  1.00  0.00     0.028 A 
HETATM   19  C16 UNL     1       2.291   1.545  -1.209  1.00  0.00     0.133 A 
HETATM   20  O5  UNL     1       1.229   1.523  -1.988  1.00  0.00    -0.190 OA
ENDBRANCH   9  14
BRANCH   5  21
HETATM   21  O2  UNL     1      -2.586   1.275  -0.262  1.00  0.00    -0.324 OA
HETATM   22  C7  UNL     1      -2.799   1.420  -1.658  1.00  0.00     0.182 C 
ENDBRANCH   5  21
TORSDOF 2
