REMARK  5 active torsions:
REMARK  status: ('A' for Active; 'I' for Inactive)
REMARK    1  A    between atoms: C9_9  and  C10_10 
REMARK    2  A    between atoms: C18_18  and  C25_25 
REMARK    3  A    between atoms: C19_19  and  C22_22 
REMARK    4  A    between atoms: C25_25  and  C26_26 
REMARK    5  A    between atoms: C26_26  and  C27_27 
ROOT
HETATM    1  C1  UNL     1      -1.426  -0.861  -0.734  1.00  0.00     0.000 C 
HETATM    2  C2  UNL     1      -0.541   0.410  -0.975  1.00  0.00     0.000 C 
HETATM    3  C3  UNL     1      -0.967   1.525   0.023  1.00  0.00     0.000 C 
HETATM    4  C4  UNL     1      -2.471   1.865  -0.035  1.00  0.00     0.000 C 
HETATM    5  C5  UNL     1      -3.274   0.596   0.248  1.00  0.00     0.004 C 
HETATM    6  C6  UNL     1      -2.940  -0.504  -0.770  1.00  0.00     0.000 C 
HETATM    7  C7  UNL     1      -3.951  -1.551  -0.285  1.00  0.00     0.000 C 
HETATM    8  C8  UNL     1      -5.242  -0.752  -0.078  1.00  0.00     0.004 C 
HETATM    9  C9  UNL     1      -4.809   0.684   0.270  1.00  0.00     0.018 C 
HETATM   10  C13 UNL     1      -3.387  -0.137  -2.191  1.00  0.00     0.000 C 
HETATM   11  C14 UNL     1       0.986   0.045  -0.875  1.00  0.00     0.000 C 
HETATM   12  C15 UNL     1       1.324  -0.666   0.469  1.00  0.00     0.000 C 
HETATM   13  C16 UNL     1       0.453  -1.924   0.646  1.00  0.00     0.000 C 
HETATM   14  C17 UNL     1      -1.039  -1.600   0.568  1.00  0.00     0.000 C 
HETATM   15  C18 UNL     1       2.840  -0.965   0.674  1.00  0.00     0.004 C 
HETATM   16  C19 UNL     1       3.676   0.324   0.469  1.00  0.00     0.018 C 
HETATM   17  C20 UNL     1       3.373   0.990  -0.881  1.00  0.00     0.004 C 
HETATM   18  C21 UNL     1       1.879   1.303  -1.016  1.00  0.00     0.000 C 
HETATM   19  C28 UNL     1       3.322  -2.065  -0.287  1.00  0.00     0.000 C 
HETATM   20  C29 UNL     1       1.326  -0.900  -2.045  1.00  0.00     0.000 C 
HETATM   21  C30 UNL     1      -0.791   0.959  -2.393  1.00  0.00     0.000 C 
ENDROOT
BRANCH  15  22
HETATM   22  C25 UNL     1       3.066  -1.471   2.106  1.00  0.00     0.012 C 
BRANCH  22  23
HETATM   23  C26 UNL     1       2.459  -0.545   3.162  1.00  0.00     0.098 C 
BRANCH  23  24
HETATM   24  C27 UNL     1       3.242  -0.551   4.447  1.00  0.00     0.185 C 
HETATM   25  O1  UNL     1       3.857   0.592   4.740  1.00  0.00    -0.647 OA
HETATM   26  O2  UNL     1       3.291  -1.537   5.143  1.00  0.00    -0.647 OA
ENDBRANCH  23  24
ENDBRANCH  22  23
ENDBRANCH  15  22
BRANCH  16  27
HETATM   27  C22 UNL     1       5.160   0.086   0.623  1.00  0.00    -0.044 C 
HETATM   28  C23 UNL     1       5.865   0.137   1.953  1.00  0.00     0.026 C 
HETATM   29  C24 UNL     1       5.885  -0.180  -0.477  1.00  0.00    -0.009 C 
ENDBRANCH  16  27
BRANCH   9  30
HETATM   30  C10 UNL     1      -5.389   1.709  -0.676  1.00  0.00    -0.044 C 
HETATM   31  C11 UNL     1      -6.287   1.348  -1.828  1.00  0.00     0.026 C 
HETATM   32  C12 UNL     1      -5.090   3.004  -0.479  1.00  0.00    -0.009 C 
ENDBRANCH   9  30
TORSDOF 5
