REMARK  13 active torsions:
REMARK  status: ('A' for Active; 'I' for Inactive)
REMARK    1  A    between atoms: C2_2  and  O1_3 
REMARK    2  A    between atoms: O1_3  and  C3_4 
REMARK    3  A    between atoms: C5_6  and  C39_56 
REMARK    4  A    between atoms: C13_15  and  O16_50 
REMARK    5  A    between atoms: C15_17  and  C30_44 
REMARK    6  A    between atoms: C17_20  and  O4_21 
REMARK    7  A    between atoms: O4_21  and  C18_22 
REMARK    8  A    between atoms: C19_24  and  C23_31 
REMARK    9  A    between atoms: C23_31  and  O9_32 
REMARK   10  A    between atoms: O9_32  and  C24_33 
REMARK   11  A    between atoms: O16_50  and  C35_51 
REMARK   12  A    between atoms: C39_56  and  C40_57 
REMARK   13  A    between atoms: C40_57  and  O18_58 
ROOT
HETATM    1  C3  UNL     1       2.617  -1.532  -2.893  1.00  0.00     0.127 C 
HETATM    2  C4  UNL     1       3.405  -2.760  -2.373  1.00  0.00     0.026 C 
HETATM    3  C5  UNL     1       2.963  -3.116  -0.904  1.00  0.00     0.015 C 
HETATM    4  C6  UNL     1       1.449  -2.988  -0.516  1.00  0.00     0.029 C 
HETATM    5  C7  UNL     1       0.782  -1.811  -1.246  1.00  0.00     0.118 C 
HETATM    6  C8  UNL     1       1.119  -1.739  -2.725  1.00  0.00     0.060 C 
HETATM    7  O2  UNL     1       1.199  -0.628  -0.623  1.00  0.00    -0.355 OA
HETATM    8  C9  UNL     1       0.489  -0.342   0.566  1.00  0.00     0.146 C 
HETATM    9  C10 UNL     1       0.055  -1.684   1.144  1.00  0.00    -0.017 C 
HETATM   10  C11 UNL     1       1.167  -2.716   1.007  1.00  0.00     0.025 C 
HETATM   11  C12 UNL     1       2.261  -2.186   1.962  1.00  0.00     0.035 C 
HETATM   12  C13 UNL     1       2.690  -0.725   1.760  1.00  0.00     0.130 C 
HETATM   13  C14 UNL     1       1.510   0.271   1.566  1.00  0.00     0.084 C 
HETATM   14  C15 UNL     1       1.989   1.591   0.920  1.00  0.00     0.153 C 
HETATM   15  O3  UNL     1       0.953   2.527   0.798  1.00  0.00    -0.298 OA
HETATM   16  C16 UNL     1      -0.335   2.152   0.613  1.00  0.00     0.302 C 
HETATM   17  C17 UNL     1      -0.595   0.702   0.195  1.00  0.00     0.232 C 
HETATM   18  O14 UNL     1      -1.247   2.944   0.730  1.00  0.00    -0.261 OA
HETATM   19  C34 UNL     1       0.852   0.524   2.944  1.00  0.00     0.008 C 
HETATM   20  C37 UNL     1      -1.117  -1.972   1.730  1.00  0.00    -0.007 C 
HETATM   21  C38 UNL     1       0.661  -4.269  -0.900  1.00  0.00     0.003 C 
HETATM   22  C42 UNL     1       4.904  -2.349  -2.400  1.00  0.00     0.003 C 
HETATM   23  C43 UNL     1       3.278  -3.949  -3.351  1.00  0.00     0.003 C 
ENDROOT
BRANCH  17  24
HETATM   24  O4  UNL     1      -0.872   0.583  -1.190  1.00  0.00    -0.318 OA
BRANCH  24  25
HETATM   25  C18 UNL     1      -1.831   1.430  -1.772  1.00  0.00     0.270 C 
HETATM   26  O5  UNL     1      -3.047   1.161  -1.111  1.00  0.00    -0.326 OA
HETATM   27  C19 UNL     1      -4.113   1.904  -1.638  1.00  0.00     0.180 C 
HETATM   28  C20 UNL     1      -4.357   1.450  -3.070  1.00  0.00     0.215 C 
HETATM   29  C21 UNL     1      -3.111   1.730  -3.884  1.00  0.00     0.220 C 
HETATM   30  O8  UNL     1      -5.424   2.153  -3.657  1.00  0.00    -0.218 OA
HETATM   31  C22 UNL     1      -1.919   1.053  -3.240  1.00  0.00     0.241 C 
HETATM   32  O7  UNL     1      -3.282   1.240  -5.189  1.00  0.00    -0.218 OA
HETATM   33  O6  UNL     1      -0.765   1.469  -3.933  1.00  0.00    -0.215 OA
BRANCH  27  34
HETATM   34  C23 UNL     1      -5.326   1.734  -0.733  1.00  0.00     0.177 C 
BRANCH  34  35
HETATM   35  O9  UNL     1      -5.011   2.289   0.521  1.00  0.00    -0.326 OA
BRANCH  35  36
HETATM   36  C24 UNL     1      -6.113   2.390   1.397  1.00  0.00     0.270 C 
HETATM   37  O10 UNL     1      -6.843   3.518   0.973  1.00  0.00    -0.329 OA
HETATM   38  C25 UNL     1      -7.970   3.784   1.764  1.00  0.00     0.151 C 
HETATM   39  C26 UNL     1      -7.621   3.939   3.243  1.00  0.00     0.212 C 
HETATM   40  C29 UNL     1      -9.103   2.793   1.485  1.00  0.00     0.035 C 
HETATM   41  C27 UNL     1      -6.675   2.875   3.772  1.00  0.00     0.220 C 
HETATM   42  O13 UNL     1      -7.008   5.196   3.434  1.00  0.00    -0.218 OA
HETATM   43  C28 UNL     1      -5.559   2.632   2.781  1.00  0.00     0.241 C 
HETATM   44  O12 UNL     1      -7.354   1.660   3.970  1.00  0.00    -0.218 OA
HETATM   45  O11 UNL     1      -4.834   1.495   3.177  1.00  0.00    -0.215 OA
ENDBRANCH  35  36
ENDBRANCH  34  35
ENDBRANCH  27  34
ENDBRANCH  24  25
ENDBRANCH  17  24
BRANCH  12  46
HETATM   46  O16 UNL     1       3.654  -0.257   2.667  1.00  0.00    -0.304 OA
BRANCH  46  47
HETATM   47  C35 UNL     1       3.823  -0.703   3.938  1.00  0.00     0.272 C 
HETATM   48  O17 UNL     1       3.104  -1.459   4.547  1.00  0.00    -0.264 OA
HETATM   49  C36 UNL     1       5.089  -0.109   4.527  1.00  0.00     0.106 C 
ENDBRANCH  46  47
ENDBRANCH  12  46
BRANCH  14  50
HETATM   50  C30 UNL     1       3.148   2.256   1.619  1.00  0.00     0.032 A 
HETATM   51  C31 UNL     1       4.469   2.154   1.297  1.00  0.00     0.121 A 
HETATM   52  O15 UNL     1       5.241   2.869   2.163  1.00  0.00    -0.303 OA
HETATM   53  C32 UNL     1       4.382   3.452   3.046  1.00  0.00     0.122 A 
HETATM   54  C33 UNL     1       3.093   3.120   2.760  1.00  0.00     0.027 A 
ENDBRANCH  14  50
BRANCH   3  55
HETATM   55  C39 UNL     1       3.581  -4.414  -0.328  1.00  0.00     0.096 C 
BRANCH  55  56
HETATM   56  C40 UNL     1       5.075  -4.391  -0.040  1.00  0.00     0.272 C 
HETATM   57  O19 UNL     1       5.864  -5.206  -0.461  1.00  0.00    -0.264 OA
BRANCH  56  58
HETATM   58  O18 UNL     1       5.397  -3.351   0.777  1.00  0.00    -0.299 OA
HETATM   59  C41 UNL     1       6.752  -3.216   1.128  1.00  0.00     0.184 C 
ENDBRANCH  56  58
ENDBRANCH  55  56
ENDBRANCH   3  55
BRANCH   1  60
HETATM   60  O1  UNL     1       2.911  -1.242  -4.231  1.00  0.00    -0.304 OA
BRANCH  60  61
HETATM   61  C2  UNL     1       2.471  -0.049  -4.726  1.00  0.00     0.272 C 
HETATM   62  C1  UNL     1       2.869   0.089  -6.182  1.00  0.00     0.106 C 
HETATM   63  O20 UNL     1       1.849   0.783  -4.104  1.00  0.00    -0.264 OA
ENDBRANCH  60  61
ENDBRANCH   1  60
TORSDOF 13
