REMARK  8 active torsions:
REMARK  status: ('A' for Active; 'I' for Inactive)
REMARK    1  A    between atoms: C3_3  and  O4_10 
REMARK    2  A    between atoms: C4_5  and  C6_8 
REMARK    3  A    between atoms: O4_10  and  C7_11 
REMARK    4  A    between atoms: C9_14  and  C16_22 
REMARK    5  A    between atoms: C10_15  and  C14_19 
REMARK    6  A    between atoms: C11_16  and  C12_17 
REMARK    7  A    between atoms: C14_19  and  C15_20 
REMARK    8  A    between atoms: C16_22  and  O7_23 
ROOT
HETATM    1  C7  UNL     1       0.301   0.006  -0.187  1.00  0.00     0.246 C 
HETATM    2  O5  UNL     1       0.453   0.260   1.213  1.00  0.00    -0.303 OA
HETATM    3  C8  UNL     1       1.074  -0.682   1.951  1.00  0.00     0.120 C 
HETATM    4  C9  UNL     1       1.783  -1.713   1.440  1.00  0.00     0.066 C 
HETATM    5  C10 UNL     1       1.943  -1.855  -0.064  1.00  0.00     0.046 C 
HETATM    6  C11 UNL     1       1.615  -0.531  -0.783  1.00  0.00     0.084 C 
ENDROOT
BRANCH   1   7
HETATM    7  O4  UNL     1      -0.109   1.186  -0.850  1.00  0.00    -0.303 OA
BRANCH   7   8
HETATM    8  C3  UNL     1      -1.357   1.674  -0.398  1.00  0.00     0.272 C 
HETATM    9  C2  UNL     1      -1.609   3.104  -0.941  1.00  0.00     0.241 C 
HETATM   10  C1  UNL     1      -3.033   3.588  -0.584  1.00  0.00     0.220 C 
HETATM   11  O9  UNL     1      -0.656   3.992  -0.381  1.00  0.00    -0.215 OA
HETATM   12  C5  UNL     1      -4.070   2.520  -0.990  1.00  0.00     0.215 C 
HETATM   13  O10 UNL     1      -3.309   4.807  -1.258  1.00  0.00    -0.218 OA
HETATM   14  C4  UNL     1      -3.691   1.127  -0.439  1.00  0.00     0.184 C 
HETATM   15  O2  UNL     1      -5.348   2.875  -0.484  1.00  0.00    -0.218 OA
HETATM   16  O1  UNL     1      -2.375   0.795  -0.861  1.00  0.00    -0.326 OA
BRANCH  14  17
HETATM   17  C6  UNL     1      -4.609   0.012  -0.951  1.00  0.00     0.214 C 
HETATM   18  O3  UNL     1      -4.336  -1.158  -0.215  1.00  0.00    -0.218 OA
ENDBRANCH  14  17
ENDBRANCH   7   8
ENDBRANCH   1   7
BRANCH   6  19
HETATM   19  C12 UNL     1       2.744   0.471  -0.666  1.00  0.00    -0.021 C 
HETATM   20  C13 UNL     1       3.283   0.963  -1.793  1.00  0.00    -0.005 C 
ENDBRANCH   6  19
BRANCH   5  21
HETATM   21  C14 UNL     1       3.318  -2.406  -0.467  1.00  0.00     0.077 C 
BRANCH  21  22
HETATM   22  C15 UNL     1       3.440  -3.887  -0.221  1.00  0.00     0.208 C 
HETATM   23  O6  UNL     1       2.461  -4.561   0.006  1.00  0.00    -0.288 OA
ENDBRANCH  21  22
ENDBRANCH   5  21
BRANCH   4  24
HETATM   24  C16 UNL     1       2.412  -2.705   2.328  1.00  0.00     0.294 C 
HETATM   25  O8  UNL     1       1.762  -3.615   2.785  1.00  0.00    -0.259 OA
BRANCH  24  26
HETATM   26  O7  UNL     1       3.705  -2.523   2.576  1.00  0.00    -0.296 OA
HETATM   27  C17 UNL     1       4.240  -3.527   3.424  1.00  0.00     0.185 C 
ENDBRANCH  24  26
ENDBRANCH   4  24
TORSDOF 8
