REMARK  16 active torsions:
REMARK  status: ('A' for Active; 'I' for Inactive)
REMARK    1  A    between atoms: C1_1  and  O13_36 
REMARK    2  A    between atoms: C2_2  and  O11_32 
REMARK    3  A    between atoms: C3_3  and  O6_16 
REMARK    4  A    between atoms: C4_5  and  C8_11 
REMARK    5  A    between atoms: C5_6  and  O2_7 
REMARK    6  A    between atoms: O2_7  and  C6_8 
REMARK    7  A    between atoms: C8_11  and  O4_12 
REMARK    8  A    between atoms: O4_12  and  C9_13 
REMARK    9  A    between atoms: O6_16  and  C11_17 
REMARK   10  A    between atoms: C13_20  and  C20_28 
REMARK   11  A    between atoms: C14_21  and  C18_25 
REMARK   12  A    between atoms: C15_22  and  C16_23 
REMARK   13  A    between atoms: C18_25  and  C19_26 
REMARK   14  A    between atoms: C20_28  and  O9_29 
REMARK   15  A    between atoms: O11_32  and  C22_33 
REMARK   16  A    between atoms: O13_36  and  C24_37 
ROOT
HETATM    1  C1  UNL     1      -1.916   2.846  -0.316  1.00  0.00     0.187 C 
HETATM    2  C2  UNL     1      -0.508   2.369  -0.689  1.00  0.00     0.210 C 
HETATM    3  C3  UNL     1      -0.246   0.951  -0.135  1.00  0.00     0.269 C 
HETATM    4  O1  UNL     1      -1.260   0.061  -0.588  1.00  0.00    -0.326 OA
HETATM    5  C4  UNL     1      -2.580   0.400  -0.182  1.00  0.00     0.178 C 
HETATM    6  C5  UNL     1      -2.949   1.793  -0.732  1.00  0.00     0.184 C 
ENDROOT
BRANCH   3   7
HETATM    7  O6  UNL     1       1.014   0.494  -0.578  1.00  0.00    -0.304 OA
BRANCH   7   8
HETATM    8  C11 UNL     1       1.416  -0.713   0.039  1.00  0.00     0.246 C 
HETATM    9  O7  UNL     1       1.506  -0.531   1.457  1.00  0.00    -0.303 OA
HETATM   10  C12 UNL     1       2.111  -1.500   2.170  1.00  0.00     0.120 C 
HETATM   11  C13 UNL     1       2.861  -2.492   1.637  1.00  0.00     0.066 C 
HETATM   12  C14 UNL     1       3.086  -2.553   0.135  1.00  0.00     0.046 C 
HETATM   13  C15 UNL     1       2.766  -1.197  -0.527  1.00  0.00     0.084 C 
BRANCH  11  14
HETATM   14  C20 UNL     1       3.469  -3.522   2.496  1.00  0.00     0.294 C 
HETATM   15  O10 UNL     1       2.881  -4.553   2.727  1.00  0.00    -0.259 OA
BRANCH  14  16
HETATM   16  O9  UNL     1       4.672  -3.232   2.982  1.00  0.00    -0.296 OA
HETATM   17  C21 UNL     1       5.188  -4.270   3.803  1.00  0.00     0.185 C 
ENDBRANCH  14  16
ENDBRANCH  11  14
BRANCH  12  18
HETATM   18  C18 UNL     1       4.486  -3.059  -0.236  1.00  0.00     0.077 C 
BRANCH  18  19
HETATM   19  C19 UNL     1       4.627  -4.547  -0.055  1.00  0.00     0.208 C 
HETATM   20  O8  UNL     1       3.652  -5.258   0.025  1.00  0.00    -0.288 OA
ENDBRANCH  18  19
ENDBRANCH  12  18
BRANCH  13  21
HETATM   21  C16 UNL     1       3.869  -0.184  -0.309  1.00  0.00    -0.021 C 
HETATM   22  C17 UNL     1       4.467   0.354  -1.385  1.00  0.00    -0.005 C 
ENDBRANCH  13  21
ENDBRANCH   7   8
ENDBRANCH   3   7
BRANCH   2  23
HETATM   23  O11 UNL     1       0.449   3.279  -0.164  1.00  0.00    -0.296 OA
BRANCH  23  24
HETATM   24  C22 UNL     1       1.570   3.303  -0.879  1.00  0.00     0.273 C 
HETATM   25  C23 UNL     1       2.713   4.057  -0.254  1.00  0.00     0.106 C 
HETATM   26  O12 UNL     1       1.695   2.768  -1.957  1.00  0.00    -0.264 OA
ENDBRANCH  23  24
ENDBRANCH   2  23
BRANCH   1  27
HETATM   27  O13 UNL     1      -2.195   4.080  -0.963  1.00  0.00    -0.299 OA
BRANCH  27  28
HETATM   28  C24 UNL     1      -3.162   4.762  -0.355  1.00  0.00     0.273 C 
HETATM   29  C25 UNL     1      -3.676   5.955  -1.115  1.00  0.00     0.106 C 
HETATM   30  O14 UNL     1      -3.613   4.471   0.727  1.00  0.00    -0.264 OA
ENDBRANCH  27  28
ENDBRANCH   1  27
BRANCH   5  31
HETATM   31  C8  UNL     1      -3.514  -0.695  -0.701  1.00  0.00     0.184 C 
BRANCH  31  32
HETATM   32  O4  UNL     1      -3.064  -1.959  -0.238  1.00  0.00    -0.299 OA
BRANCH  32  33
HETATM   33  C9  UNL     1      -3.838  -2.957  -0.656  1.00  0.00     0.273 C 
HETATM   34  C10 UNL     1      -3.416  -4.328  -0.199  1.00  0.00     0.106 C 
HETATM   35  O5  UNL     1      -4.813  -2.807  -1.355  1.00  0.00    -0.264 OA
ENDBRANCH  32  33
ENDBRANCH  31  32
ENDBRANCH   5  31
BRANCH   6  36
HETATM   36  O2  UNL     1      -4.229   2.172  -0.248  1.00  0.00    -0.299 OA
BRANCH  36  37
HETATM   37  C6  UNL     1      -5.211   1.791  -1.061  1.00  0.00     0.273 C 
HETATM   38  C7  UNL     1      -6.602   2.111  -0.580  1.00  0.00     0.106 C 
HETATM   39  O3  UNL     1      -5.031   1.227  -2.115  1.00  0.00    -0.264 OA
ENDBRANCH  36  37
ENDBRANCH   6  36
TORSDOF 16
