REMARK  0 active torsions:
REMARK  status: ('A' for Active; 'I' for Inactive)
ROOT
HETATM    1  C1  UNL     1      -0.942  -1.498   0.836  1.00  0.00     0.059 C 
HETATM    2  C2  UNL     1      -1.631  -0.691  -0.236  1.00  0.00    -0.010 A 
HETATM    3  C3  UNL     1      -1.242   0.740  -0.475  1.00  0.00     0.137 A 
HETATM    4  C4  UNL     1       0.242   0.967  -0.807  1.00  0.00     0.106 C 
HETATM    5  N1  UNL     1       0.859   0.930   0.518  1.00  0.00    -0.367 N 
HETATM    6  C5  UNL     1      -0.162   0.883   1.559  1.00  0.00     0.111 C 
HETATM    7  C6  UNL     1      -0.453  -0.580   1.992  1.00  0.00     0.176 C 
HETATM    8  O1  UNL     1      -1.436  -0.558   3.010  1.00  0.00    -0.221 OA
HETATM    9  C7  UNL     1      -1.379   1.504   0.846  1.00  0.00     0.058 C 
HETATM   10  C8  UNL     1       2.271   0.615   0.744  1.00  0.00     0.097 C 
HETATM   11  C9  UNL     1       2.785  -0.426  -0.258  1.00  0.00     0.024 C 
HETATM   12  C10 UNL     1       2.375  -0.072  -1.691  1.00  0.00     0.004 C 
HETATM   13  C11 UNL     1       0.846  -0.039  -1.807  1.00  0.00     0.025 C 
HETATM   14  O2  UNL     1      -2.133   1.188  -1.508  1.00  0.00    -0.298 OA
HETATM   15  C12 UNL     1      -2.910   0.152  -1.867  1.00  0.00     0.296 A 
HETATM   16  C13 UNL     1      -2.608  -1.035  -1.072  1.00  0.00     0.062 A 
HETATM   17  O3  UNL     1      -3.758   0.170  -2.729  1.00  0.00    -0.259 OA
ENDROOT
TORSDOF 0
