REMARK  0 active torsions:
REMARK  status: ('A' for Active; 'I' for Inactive)
ROOT
HETATM    1  C1  UNL     1      -1.309   0.721  -0.603  1.00  0.00    -0.011 C 
HETATM    2  C2  UNL     1      -1.324   1.107   0.854  1.00  0.00     0.026 C 
HETATM    3  C3  UNL     1       0.080   1.623   1.221  1.00  0.00     0.050 C 
HETATM    4  C4  UNL     1       1.248   0.881   0.584  1.00  0.00     0.061 A 
HETATM    5  C5  UNL     1       1.051  -0.074  -0.371  1.00  0.00     0.029 A 
HETATM    6  C6  UNL     1      -0.354  -0.440  -0.865  1.00  0.00     0.304 C 
HETATM    7  C7  UNL     1      -0.879  -1.666  -0.078  1.00  0.00     0.045 C 
HETATM    8  C8  UNL     1      -1.055  -1.408   1.436  1.00  0.00     0.003 C 
HETATM    9  C9  UNL     1      -1.809  -0.090   1.703  1.00  0.00     0.004 C 
HETATM   10  C10 UNL     1       0.271  -1.481   2.203  1.00  0.00     0.000 C 
HETATM   11  N1  UNL     1      -0.293  -0.801  -2.283  1.00  0.00     0.622 N 
HETATM   12  C11 UNL     1       2.228  -0.787  -0.936  1.00  0.00     0.004 A 
HETATM   13  C12 UNL     1       3.465  -0.463  -0.514  1.00  0.00     0.062 A 
HETATM   14  C13 UNL     1       3.637   0.588   0.508  1.00  0.00     0.279 A 
HETATM   15  N2  UNL     1       2.519   1.215   1.020  1.00  0.00    -0.213 NA
HETATM   16  O1  UNL     1       4.742   0.894   0.891  1.00  0.00    -0.265 OA
HETATM   17  C14 UNL     1      -2.086   1.389  -1.490  1.00  0.00    -0.032 C 
HETATM   18  C15 UNL     1      -2.164   1.098  -2.967  1.00  0.00     0.030 C 
ENDROOT
TORSDOF 0
