REMARK  7 active torsions:
REMARK  status: ('A' for Active; 'I' for Inactive)
REMARK    1  A    between atoms: C1_2  and  C2_3 
REMARK    2  A    between atoms: C2_3  and  C3_4 
REMARK    3  A    between atoms: C3_4  and  SE1_5 
REMARK    4  A    between atoms: SE1_5  and  C4_6 
REMARK    5  A    between atoms: C4_6  and  C5_7 
REMARK    6  A    between atoms: C5_7  and  C6_8 
REMARK    7  A    between atoms: C6_8  and  C7_9 
ROOT
HETATM    1 SE1  UNL     1      -1.390   0.054   0.294  1.00  0.00     0.000 Se
ENDROOT
BRANCH   1   2
HETATM    2  C3  UNL     1      -0.934   1.958   0.252  1.00  0.00     0.053 C 
BRANCH   2   3
HETATM    3  C2  UNL     1      -2.173   2.869   0.182  1.00  0.00     0.387 C 
HETATM    4  N2  UNL     1      -2.908   2.663  -1.078  1.00  0.00     0.628 N 
BRANCH   3   5
HETATM    5  C1  UNL     1      -1.825   4.340   0.308  1.00  0.00     0.224 C 
HETATM    6  O1  UNL     1      -2.928   5.106   0.195  1.00  0.00    -0.646 OA
HETATM    7  O4  UNL     1      -0.738   4.831   0.493  1.00  0.00    -0.646 OA
ENDBRANCH   3   5
ENDBRANCH   2   3
ENDBRANCH   1   2
BRANCH   1   8
HETATM    8  C4  UNL     1       0.439  -0.648   0.314  1.00  0.00     0.003 C 
BRANCH   8   9
HETATM    9  C5  UNL     1       0.455  -2.187   0.258  1.00  0.00     0.051 C 
BRANCH   9  10
HETATM   10  C6  UNL     1       1.874  -2.779   0.316  1.00  0.00     0.387 C 
HETATM   11  N1  UNL     1       2.680  -2.294  -0.818  1.00  0.00     0.628 N 
BRANCH  10  12
HETATM   12  C7  UNL     1       1.863  -4.296   0.308  1.00  0.00     0.224 C 
HETATM   13  O2  UNL     1       3.109  -4.795   0.207  1.00  0.00    -0.646 OA
HETATM   14  O3  UNL     1       0.900  -5.023   0.372  1.00  0.00    -0.646 OA
ENDBRANCH  10  12
ENDBRANCH   9  10
ENDBRANCH   8   9
ENDBRANCH   1   8
TORSDOF 7
