REMARK  2 active torsions:
REMARK  status: ('A' for Active; 'I' for Inactive)
REMARK    1  A    between atoms: C3_3  and  C15_15 
REMARK    2  A    between atoms: C9_9  and  C11_11 
ROOT
HETATM    1  C1  UNL     1      -2.658  -1.570   0.258  1.00  0.00     0.026 C 
HETATM    2  C2  UNL     1      -3.043  -0.164  -0.154  1.00  0.00    -0.027 C 
HETATM    3  C3  UNL     1      -2.166   0.719  -0.680  1.00  0.00     0.015 C 
HETATM    4  C4  UNL     1      -0.693   0.371  -0.848  1.00  0.00     0.026 C 
HETATM    5  C5  UNL     1      -0.438  -1.160  -0.906  1.00  0.00     0.004 C 
HETATM    6  C6  UNL     1      -1.145  -1.824   0.291  1.00  0.00     0.005 C 
HETATM    7  C7  UNL     1       1.076  -1.471  -0.900  1.00  0.00     0.001 C 
HETATM    8  C8  UNL     1       1.844  -0.773   0.229  1.00  0.00     0.004 C 
HETATM    9  C9  UNL     1       1.621   0.744   0.195  1.00  0.00     0.019 C 
HETATM   10  C10 UNL     1       0.123   1.068   0.266  1.00  0.00     0.009 C 
HETATM   11  C14 UNL     1      -1.024  -1.729  -2.209  1.00  0.00     0.000 C 
ENDROOT
BRANCH   9  12
HETATM   12  C11 UNL     1       2.383   1.432   1.301  1.00  0.00    -0.044 C 
HETATM   13  C12 UNL     1       2.197   1.096   2.758  1.00  0.00     0.026 C 
HETATM   14  C13 UNL     1       3.268   2.389   0.973  1.00  0.00    -0.009 C 
ENDBRANCH   9  12
BRANCH   3  15
HETATM   15  C15 UNL     1      -2.621   2.053  -1.103  1.00  0.00     0.230 C 
HETATM   16  O1  UNL     1      -1.840   2.842  -1.582  1.00  0.00    -0.283 OA
ENDBRANCH   3  15
TORSDOF 2
