REMARK  1 active torsions:
REMARK  status: ('A' for Active; 'I' for Inactive)
REMARK    1  A    between atoms: C9_9  and  C12_12 
ROOT
HETATM    1  C1  UNL     1      -2.422   1.199  -0.217  1.00  0.00     0.022 C 
HETATM    2  C2  UNL     1      -2.354  -0.137  -0.957  1.00  0.00     0.004 C 
HETATM    3  C3  UNL     1      -2.156  -1.297   0.018  1.00  0.00     0.001 C 
HETATM    4  C4  UNL     1      -0.834  -1.228   0.824  1.00  0.00     0.003 C 
HETATM    5  C5  UNL     1      -0.432   0.234   1.232  1.00  0.00     0.019 C 
HETATM    6  C6  UNL     1      -1.486   1.303   0.969  1.00  0.00    -0.044 C 
HETATM    7  C7  UNL     1      -1.602   2.352   1.803  1.00  0.00    -0.009 C 
HETATM    8  C8  UNL     1       0.936   0.680   0.662  1.00  0.00     0.008 C 
HETATM    9  C9  UNL     1       1.080   0.381  -0.838  1.00  0.00     0.019 C 
HETATM   10  C10 UNL     1       0.883  -1.123  -1.141  1.00  0.00     0.004 C 
HETATM   11  C11 UNL     1       0.316  -1.920   0.047  1.00  0.00     0.001 C 
HETATM   12  C15 UNL     1      -1.057  -2.060   2.100  1.00  0.00     0.000 C 
ENDROOT
BRANCH   9  13
HETATM   13  C12 UNL     1       2.400   0.887  -1.367  1.00  0.00    -0.044 C 
HETATM   14  C13 UNL     1       3.729   0.326  -0.934  1.00  0.00     0.026 C 
HETATM   15  C14 UNL     1       2.389   1.885  -2.268  1.00  0.00    -0.009 C 
ENDBRANCH   9  13
TORSDOF 1
