REMARK  3 active torsions:
REMARK  status: ('A' for Active; 'I' for Inactive)
REMARK    1  A    between atoms: C10_11  and  C11_12 
REMARK    2  A    between atoms: C19_20  and  C21_23 
REMARK    3  A    between atoms: C27_33  and  C30_37 
ROOT
HETATM    1  C1  UNL     1       0.869   0.182   1.387  1.00  0.00    -0.013 A 
HETATM    2  C2  UNL     1       0.672   1.547   1.746  1.00  0.00     0.061 A 
HETATM    3  C3  UNL     1       1.807   2.383   1.969  1.00  0.00     0.134 A 
HETATM    4  C4  UNL     1       3.113   1.857   1.863  1.00  0.00     0.028 A 
HETATM    5  C5  UNL     1       3.307   0.500   1.533  1.00  0.00     0.002 A 
HETATM    6  C6  UNL     1       2.192  -0.330   1.295  1.00  0.00    -0.004 A 
HETATM    7  O1  UNL     1       1.662   3.676   2.289  1.00  0.00    -0.190 OA
HETATM    8  C7  UNL     1      -0.709   2.115   1.898  1.00  0.00     0.199 C 
HETATM    9  C8  UNL     1      -1.846   1.141   1.785  1.00  0.00     0.061 A 
HETATM   10  C9  UNL     1      -1.613  -0.221   1.424  1.00  0.00    -0.013 A 
HETATM   11  C10 UNL     1      -0.260  -0.742   1.090  1.00  0.00     0.053 C 
HETATM   12  C26 UNL     1      -2.709  -1.123   1.365  1.00  0.00     0.002 A 
HETATM   13  C27 UNL     1      -4.021  -0.680   1.643  1.00  0.00     0.066 A 
HETATM   14  C28 UNL     1      -4.258   0.670   1.980  1.00  0.00     0.034 A 
HETATM   15  C29 UNL     1      -3.176   1.578   2.051  1.00  0.00     0.134 A 
HETATM   16  O7  UNL     1      -3.436   2.852   2.377  1.00  0.00    -0.190 OA
HETATM   17  O10 UNL     1      -0.896   3.293   2.113  1.00  0.00    -0.286 OA
ENDROOT
BRANCH  11  18
HETATM   18  C11 UNL     1      -0.213  -1.168  -0.387  1.00  0.00     0.053 C 
HETATM   19  C12 UNL     1       0.697  -2.334  -0.549  1.00  0.00    -0.013 A 
HETATM   20  C13 UNL     1       1.908  -2.264  -1.297  1.00  0.00     0.061 A 
HETATM   21  C25 UNL     1       0.336  -3.557   0.078  1.00  0.00    -0.004 A 
HETATM   22  C14 UNL     1       2.309  -1.002  -2.008  1.00  0.00     0.199 C 
HETATM   23  C22 UNL     1       2.752  -3.410  -1.373  1.00  0.00     0.134 A 
HETATM   24  C15 UNL     1       1.301   0.111  -2.000  1.00  0.00     0.061 A 
HETATM   25  O5  UNL     1       3.379  -0.895  -2.568  1.00  0.00    -0.286 OA
HETATM   26  C16 UNL     1       0.096   0.008  -1.244  1.00  0.00    -0.013 A 
HETATM   27  C20 UNL     1       1.549   1.289  -2.766  1.00  0.00     0.140 A 
HETATM   28  C17 UNL     1      -0.853   1.066  -1.297  1.00  0.00    -0.004 A 
HETATM   29  C18 UNL     1      -0.609   2.223  -2.066  1.00  0.00     0.008 A 
HETATM   30  C19 UNL     1       0.594   2.334  -2.797  1.00  0.00     0.090 A 
HETATM   31  O2  UNL     1       2.684   1.422  -3.471  1.00  0.00    -0.190 OA
HETATM   32  C23 UNL     1       2.379  -4.615  -0.736  1.00  0.00     0.028 A 
HETATM   33  O6  UNL     1       3.906  -3.379  -2.055  1.00  0.00    -0.190 OA
HETATM   34  C24 UNL     1       1.170  -4.691  -0.016  1.00  0.00     0.002 A 
BRANCH  30  35
HETATM   35  C21 UNL     1       0.848   3.553  -3.596  1.00  0.00     0.213 C 
HETATM   36  O3  UNL     1      -0.199   4.358  -3.440  1.00  0.00    -0.644 OA
HETATM   37  O4  UNL     1       1.807   3.820  -4.283  1.00  0.00    -0.644 OA
ENDBRANCH  30  35
ENDBRANCH  11  18
BRANCH  13  38
HETATM   38  C30 UNL     1      -5.150  -1.631   1.578  1.00  0.00     0.211 C 
HETATM   39  O8  UNL     1      -6.254  -0.957   1.885  1.00  0.00    -0.644 OA
HETATM   40  O9  UNL     1      -5.133  -2.809   1.303  1.00  0.00    -0.644 OA
ENDBRANCH  13  38
TORSDOF 3
