REMARK  3 active torsions:
REMARK  status: ('A' for Active; 'I' for Inactive)
REMARK    1  A    between atoms: C10_11  and  C11_12 
REMARK    2  A    between atoms: C18_19  and  C21_23 
REMARK    3  A    between atoms: C27_33  and  C30_37 
ROOT
HETATM    1  C11 UNL     1      -0.023  -1.107  -0.451  1.00  0.00     0.053 C 
HETATM    2  C12 UNL     1       0.887  -2.272  -0.613  1.00  0.00    -0.013 A 
HETATM    3  C13 UNL     1       2.102  -2.199  -1.359  1.00  0.00     0.061 A 
HETATM    4  C14 UNL     1       2.500  -0.939  -2.070  1.00  0.00     0.199 C 
HETATM    5  C15 UNL     1       1.490   0.174  -2.064  1.00  0.00     0.061 A 
HETATM    6  C16 UNL     1       0.285   0.070  -1.309  1.00  0.00    -0.013 A 
HETATM    7  C17 UNL     1      -0.664   1.125  -1.361  1.00  0.00     0.002 A 
HETATM    8  C18 UNL     1      -0.412   2.281  -2.133  1.00  0.00     0.066 A 
HETATM    9  C19 UNL     1       0.789   2.398  -2.863  1.00  0.00     0.034 A 
HETATM   10  C20 UNL     1       1.738   1.352  -2.828  1.00  0.00     0.134 A 
HETATM   11  O2  UNL     1       2.869   1.494  -3.537  1.00  0.00    -0.190 OA
HETATM   12  O5  UNL     1       3.570  -0.828  -2.629  1.00  0.00    -0.286 OA
HETATM   13  C22 UNL     1       2.945  -3.348  -1.436  1.00  0.00     0.134 A 
HETATM   14  C23 UNL     1       2.574  -4.553  -0.799  1.00  0.00     0.028 A 
HETATM   15  C24 UNL     1       1.361  -4.629  -0.082  1.00  0.00     0.002 A 
HETATM   16  C25 UNL     1       0.527  -3.496   0.010  1.00  0.00    -0.004 A 
HETATM   17  O6  UNL     1       4.104  -3.315  -2.111  1.00  0.00    -0.190 OA
ENDROOT
BRANCH   1  18
HETATM   18  C10 UNL     1      -0.070  -0.682   1.025  1.00  0.00     0.053 C 
HETATM   19  C1  UNL     1       1.059   0.240   1.322  1.00  0.00    -0.013 A 
HETATM   20  C2  UNL     1       0.863   1.607   1.682  1.00  0.00     0.061 A 
HETATM   21  C6  UNL     1       2.381  -0.271   1.233  1.00  0.00    -0.004 A 
HETATM   22  C3  UNL     1       1.996   2.443   1.904  1.00  0.00     0.134 A 
HETATM   23  C7  UNL     1      -0.520   2.176   1.834  1.00  0.00     0.199 C 
HETATM   24  C4  UNL     1       3.305   1.918   1.799  1.00  0.00     0.028 A 
HETATM   25  O1  UNL     1       1.854   3.736   2.225  1.00  0.00    -0.190 OA
HETATM   26  C5  UNL     1       3.496   0.561   1.469  1.00  0.00     0.002 A 
HETATM   27  C8  UNL     1      -1.654   1.201   1.723  1.00  0.00     0.061 A 
HETATM   28  O9  UNL     1      -0.705   3.356   2.049  1.00  0.00    -0.286 OA
HETATM   29  C9  UNL     1      -1.424  -0.160   1.359  1.00  0.00    -0.013 A 
HETATM   30  C29 UNL     1      -2.984   1.637   1.986  1.00  0.00     0.134 A 
HETATM   31  C26 UNL     1      -2.522  -1.061   1.303  1.00  0.00    -0.005 A 
HETATM   32  C27 UNL     1      -3.834  -0.621   1.578  1.00  0.00     0.012 A 
HETATM   33  C28 UNL     1      -4.065   0.729   1.916  1.00  0.00     0.026 A 
HETATM   34  O7  UNL     1      -3.246   2.912   2.315  1.00  0.00    -0.190 OA
BRANCH  32  35
HETATM   35  C30 UNL     1      -4.957  -1.568   1.514  1.00  0.00     0.209 C 
HETATM   36  O8  UNL     1      -5.334  -1.762   0.168  1.00  0.00    -0.215 OA
ENDBRANCH  32  35
ENDBRANCH   1  18
BRANCH   8  37
HETATM   37  C21 UNL     1      -1.410   3.371  -2.176  1.00  0.00     0.211 C 
HETATM   38  O3  UNL     1      -0.926   4.320  -2.973  1.00  0.00    -0.644 OA
HETATM   39  O4  UNL     1      -2.479   3.441  -1.615  1.00  0.00    -0.644 OA
ENDBRANCH   8  37
TORSDOF 3
