REMARK  0 active torsions:
REMARK  status: ('A' for Active; 'I' for Inactive)
ROOT
HETATM    1  C1  UNL     1      -0.426   1.445   0.127  1.00  0.00     0.157 C 
HETATM    2  C2  UNL     1       0.172   0.029  -0.258  1.00  0.00     0.065 C 
HETATM    3  C3  UNL     1      -0.920  -1.047   0.021  1.00  0.00     0.045 C 
HETATM    4  C4  UNL     1      -2.291  -0.824  -0.650  1.00  0.00     0.180 C 
HETATM    5  C5  UNL     1      -2.768   0.660  -0.678  1.00  0.00     0.157 C 
HETATM    6  C6  UNL     1      -1.967   1.535   0.309  1.00  0.00     0.066 C 
HETATM    7  O1  UNL     1      -2.537   1.168  -1.979  1.00  0.00    -0.223 OA
HETATM    8  C7  UNL     1      -4.277   0.848  -0.463  1.00  0.00     0.036 C 
HETATM    9  O2  UNL     1      -3.236  -1.664  -0.010  1.00  0.00    -0.221 OA
HETATM   10  C8  UNL     1      -0.904  -1.164   1.566  1.00  0.00     0.069 C 
HETATM   11  C9  UNL     1       0.463  -0.688   1.963  1.00  0.00     0.179 C 
HETATM   12  C10 UNL     1       1.275  -0.508   0.713  1.00  0.00     0.244 C 
HETATM   13  N1  UNL     1       2.438   0.389   0.861  1.00  0.00     0.140 N 
HETATM   14  C11 UNL     1       2.691   1.242  -0.318  1.00  0.00     0.251 C 
HETATM   15  C12 UNL     1       2.238   0.600  -1.658  1.00  0.00     0.035 C 
HETATM   16  C13 UNL     1       0.814  -0.024  -1.662  1.00  0.00     0.007 C 
HETATM   17  C14 UNL     1       3.594  -0.463   1.191  1.00  0.00     0.251 C 
HETATM   18  C15 UNL     1       3.100  -1.893   1.353  1.00  0.00     0.038 C 
HETATM   19  C16 UNL     1       1.912  -1.883   0.400  1.00  0.00     0.041 C 
HETATM   20  O3  UNL     1       0.834  -0.481   3.096  1.00  0.00    -0.294 OA
HETATM   21  O4  UNL     1      -0.096   2.449  -0.822  1.00  0.00    -0.223 OA
ENDROOT
TORSDOF 0
