REMARK  0 active torsions:
REMARK  status: ('A' for Active; 'I' for Inactive)
ROOT
HETATM    1  C1  UNL     1      -0.850   1.065   0.881  1.00  0.00     0.154 C 
HETATM    2  C2  UNL     1      -0.004   0.094  -0.016  1.00  0.00     0.065 C 
HETATM    3  C3  UNL     1      -0.816  -1.238   0.127  1.00  0.00     0.043 C 
HETATM    4  C4  UNL     1      -2.357  -1.166  -0.090  1.00  0.00     0.153 C 
HETATM    5  C5  UNL     1      -2.799   0.219  -0.598  1.00  0.00     0.033 C 
HETATM    6  C6  UNL     1      -2.248   1.360   0.279  1.00  0.00     0.035 C 
HETATM    7  C7  UNL     1      -4.316   0.338  -0.793  1.00  0.00     0.003 C 
HETATM    8  O1  UNL     1      -3.086  -1.473   1.088  1.00  0.00    -0.223 OA
HETATM    9  C8  UNL     1      -0.334  -1.795   1.498  1.00  0.00     0.069 C 
HETATM   10  C9  UNL     1       0.990  -1.137   1.738  1.00  0.00     0.179 C 
HETATM   11  C10 UNL     1       1.387  -0.400   0.490  1.00  0.00     0.244 C 
HETATM   12  N1  UNL     1       2.356   0.692   0.703  1.00  0.00     0.140 N 
HETATM   13  C11 UNL     1       2.350   1.723  -0.371  1.00  0.00     0.251 C 
HETATM   14  C12 UNL     1       1.613   1.297  -1.660  1.00  0.00     0.035 C 
HETATM   15  C13 UNL     1       0.219   0.670  -1.438  1.00  0.00     0.007 C 
HETATM   16  C14 UNL     1       3.641  -0.002   0.793  1.00  0.00     0.251 C 
HETATM   17  C15 UNL     1       3.617  -1.090  -0.272  1.00  0.00     0.038 C 
HETATM   18  C16 UNL     1       2.131  -1.433  -0.401  1.00  0.00     0.041 C 
HETATM   19  O2  UNL     1       1.615  -1.191   2.771  1.00  0.00    -0.294 OA
HETATM   20  O3  UNL     1      -0.209   2.295   1.127  1.00  0.00    -0.223 OA
ENDROOT
TORSDOF 0
