REMARK  4 active torsions:
REMARK  status: ('A' for Active; 'I' for Inactive)
REMARK    1  A    between atoms: C3_3  and  O2_6 
REMARK    2  A    between atoms: O2_6  and  C5_7 
REMARK    3  A    between atoms: C7_9  and  O4_14 
REMARK    4  A    between atoms: C13_18  and  C14_19 
ROOT
HETATM    1  C1  UNL     1      -0.537   1.133  -0.979  1.00  0.00     0.069 C 
HETATM    2  C2  UNL     1      -0.721  -0.152  -0.141  1.00  0.00     0.092 C 
HETATM    3  C3  UNL     1      -2.111  -0.650  -0.539  1.00  0.00     0.242 C 
HETATM    4  O1  UNL     1      -2.754   0.523  -0.967  1.00  0.00    -0.331 OA
HETATM    5  C4  UNL     1      -1.861   1.293  -1.732  1.00  0.00     0.148 C 
HETATM    6  C12 UNL     1       0.451  -1.049  -0.543  1.00  0.00     0.148 C 
HETATM    7  O5  UNL     1       1.373  -0.139  -1.090  1.00  0.00    -0.352 OA
HETATM    8  C13 UNL     1       0.689   0.828  -1.848  1.00  0.00     0.140 C 
ENDROOT
BRANCH   3   9
HETATM    9  O2  UNL     1      -2.785  -1.248   0.559  1.00  0.00    -0.305 OA
BRANCH   9  10
HETATM   10  C5  UNL     1      -2.234  -2.305   1.121  1.00  0.00     0.099 A 
HETATM   11  C6  UNL     1      -2.316  -2.488   2.514  1.00  0.00     0.051 A 
HETATM   12  C7  UNL     1      -1.731  -3.613   3.119  1.00  0.00     0.121 A 
HETATM   13  C8  UNL     1      -1.061  -4.565   2.326  1.00  0.00     0.153 A 
HETATM   14  C9  UNL     1      -0.979  -4.383   0.936  1.00  0.00     0.031 A 
HETATM   15  O3  UNL     1      -0.508  -5.625   2.885  1.00  0.00    -0.188 OA
HETATM   16  C10 UNL     1      -1.565  -3.256   0.334  1.00  0.00     0.026 A 
BRANCH  12  17
HETATM   17  O4  UNL     1      -1.813  -3.775   4.424  1.00  0.00    -0.326 OA
HETATM   18  C11 UNL     1      -2.438  -2.754   5.186  1.00  0.00     0.181 C 
ENDBRANCH  12  17
ENDBRANCH   9  10
ENDBRANCH   3   9
BRANCH   8  19
HETATM   19  C14 UNL     1       1.553   1.992  -2.107  1.00  0.00     0.007 A 
HETATM   20  C15 UNL     1       1.807   2.410  -3.430  1.00  0.00     0.000 A 
HETATM   21  C16 UNL     1       2.639   3.529  -3.652  1.00  0.00     0.026 A 
HETATM   22  C17 UNL     1       3.221   4.240  -2.572  1.00  0.00     0.119 A 
HETATM   23  C18 UNL     1       2.971   3.826  -1.262  1.00  0.00     0.119 A 
HETATM   24  O7  UNL     1       4.023   5.307  -2.547  1.00  0.00    -0.300 OA
HETATM   25  C19 UNL     1       2.137   2.701  -1.033  1.00  0.00     0.024 A 
HETATM   26  O6  UNL     1       3.615   4.633  -0.418  1.00  0.00    -0.300 OA
HETATM   27  C20 UNL     1       4.328   5.637  -1.174  1.00  0.00     0.304 A 
ENDBRANCH   8  19
TORSDOF 4
