REMARK  3 active torsions:
REMARK  status: ('A' for Active; 'I' for Inactive)
REMARK    1  A    between atoms: C7_7  and  C9_9 
REMARK    2  A    between atoms: C9_9  and  C10_10 
REMARK    3  A    between atoms: C10_10  and  C11_11 
ROOT
HETATM    1  C1  UNL     1      -3.332  -1.740  -0.656  1.00  0.00     0.022 C 
HETATM    2  C2  UNL     1      -3.861  -0.324  -0.764  1.00  0.00    -0.048 C 
HETATM    3  C3  UNL     1      -3.059   0.707  -1.121  1.00  0.00    -0.035 C 
HETATM    4  C4  UNL     1      -1.602   0.359  -1.412  1.00  0.00     0.021 A 
HETATM    5  C5  UNL     1      -1.000  -0.900  -0.820  1.00  0.00     0.004 A 
HETATM    6  C6  UNL     1      -1.936  -1.807  -0.018  1.00  0.00     0.004 C 
HETATM    7  C7  UNL     1      -0.559   0.463  -0.314  1.00  0.00     0.004 A 
HETATM    8  C8  UNL     1      -1.004   0.924   1.072  1.00  0.00     0.000 C 
HETATM    9  C15 UNL     1      -5.320  -0.105  -0.449  1.00  0.00     0.026 C 
ENDROOT
BRANCH   7  10
HETATM   10  C9  UNL     1       0.832   0.938  -0.717  1.00  0.00     0.005 C 
BRANCH  10  11
HETATM   11  C10 UNL     1       1.881   0.227   0.141  1.00  0.00     0.025 C 
BRANCH  11  12
HETATM   12  C11 UNL     1       3.287   0.590  -0.254  1.00  0.00    -0.034 C 
HETATM   13  C12 UNL     1       4.274   0.391   0.635  1.00  0.00    -0.048 C 
HETATM   14  C13 UNL     1       3.936  -0.256   1.951  1.00  0.00     0.026 C 
HETATM   15  C14 UNL     1       5.668   0.820   0.268  1.00  0.00     0.026 C 
ENDBRANCH  11  12
ENDBRANCH  10  11
ENDBRANCH   7  10
TORSDOF 3
