REMARK  4 active torsions:
REMARK  status: ('A' for Active; 'I' for Inactive)
REMARK    1  A    between atoms: C2_3  and  O6_16 
REMARK    2  A    between atoms: C5_6  and  C6_7 
REMARK    3  A    between atoms: O6_16  and  C11_17 
REMARK    4  A    between atoms: C12_19  and  C16_26 
ROOT
HETATM    1  C1  UNL     1       0.900   2.207   0.996  1.00  0.00     0.121 C 
HETATM    2  O1  UNL     1       0.592   0.900   0.957  1.00  0.00    -0.304 OA
HETATM    3  C2  UNL     1      -0.217   0.469  -0.139  1.00  0.00     0.244 C 
HETATM    4  C3  UNL     1      -1.482   1.330  -0.281  1.00  0.00     0.092 C 
HETATM    5  C4  UNL     1      -1.086   2.814  -0.381  1.00  0.00     0.068 C 
HETATM    6  C5  UNL     1       0.189   3.166   0.365  1.00  0.00     0.069 C 
HETATM    7  C7  UNL     1      -2.311   3.561   0.195  1.00  0.00     0.159 C 
HETATM    8  C8  UNL     1      -3.389   2.504   0.436  1.00  0.00     0.064 C 
HETATM    9  C9  UNL     1      -2.545   1.295   0.834  1.00  0.00     0.134 C 
HETATM   10  C10 UNL     1      -1.996   1.412   2.256  1.00  0.00     0.033 C 
HETATM   11  O4  UNL     1      -3.328   0.121   0.760  1.00  0.00    -0.226 OA
HETATM   12  O5  UNL     1      -2.783   4.547  -0.703  1.00  0.00    -0.223 OA
ENDROOT
BRANCH   3  13
HETATM   13  O6  UNL     1      -0.555  -0.893   0.027  1.00  0.00    -0.304 OA
BRANCH  13  14
HETATM   14  C11 UNL     1       0.572  -1.744   0.074  1.00  0.00     0.272 C 
HETATM   15  O7  UNL     1       1.162  -1.779  -1.219  1.00  0.00    -0.326 OA
HETATM   16  C12 UNL     1       2.346  -2.561  -1.318  1.00  0.00     0.184 C 
HETATM   17  C13 UNL     1       2.020  -4.031  -0.981  1.00  0.00     0.215 C 
HETATM   18  C14 UNL     1       1.346  -4.154   0.406  1.00  0.00     0.220 C 
HETATM   19  O10 UNL     1       3.223  -4.779  -0.996  1.00  0.00    -0.218 OA
HETATM   20  C15 UNL     1       0.154  -3.174   0.500  1.00  0.00     0.241 C 
HETATM   21  O9  UNL     1       0.895  -5.483   0.605  1.00  0.00    -0.218 OA
HETATM   22  O8  UNL     1      -0.324  -3.145   1.836  1.00  0.00    -0.215 OA
BRANCH  16  23
HETATM   23  C16 UNL     1       2.871  -2.379  -2.746  1.00  0.00     0.214 C 
HETATM   24  O11 UNL     1       3.293  -1.041  -2.895  1.00  0.00    -0.218 OA
ENDBRANCH  16  23
ENDBRANCH  13  14
ENDBRANCH   3  13
BRANCH   6  25
HETATM   25  C6  UNL     1       0.627   4.572   0.394  1.00  0.00     0.209 C 
HETATM   26  O2  UNL     1       1.439   4.904   1.395  1.00  0.00    -0.644 OA
HETATM   27  O3  UNL     1       0.250   5.348  -0.453  1.00  0.00    -0.644 OA
ENDBRANCH   6  25
TORSDOF 4
