REMARK  9 active torsions:
REMARK  status: ('A' for Active; 'I' for Inactive)
REMARK    1  A    between atoms: C2_2  and  C8_10 
REMARK    2  A    between atoms: C4_4  and  O2_8 
REMARK    3  A    between atoms: C8_10  and  C9_11 
REMARK    4  A    between atoms: C9_11  and  C10_12 
REMARK    5  A    between atoms: C10_12  and  C11_13 
REMARK    6  A    between atoms: C12_14  and  C13_15 
REMARK    7  A    between atoms: C13_15  and  C14_16 
REMARK    8  A    between atoms: C14_16  and  C15_17 
REMARK    9  A    between atoms: C15_17  and  C16_18 
ROOT
HETATM    1  C8  UNL     1       2.084  -1.670  -0.526  1.00  0.00     0.035 C 
ENDROOT
BRANCH   1   2
HETATM    2  C2  UNL     1       1.389  -2.984  -0.526  1.00  0.00    -0.020 A 
HETATM    3  C1  UNL     1       2.135  -4.176  -0.526  1.00  0.00    -0.002 A 
HETATM    4  C6  UNL     1       1.475  -5.416  -0.526  1.00  0.00     0.029 A 
HETATM    5  C5  UNL     1       0.068  -5.471  -0.526  1.00  0.00     0.153 A 
HETATM    6  C4  UNL     1      -0.678  -4.279  -0.526  1.00  0.00     0.119 A 
HETATM    7  O1  UNL     1      -0.543  -6.639  -0.526  1.00  0.00    -0.188 OA
HETATM    8  C3  UNL     1      -0.016  -3.037  -0.526  1.00  0.00     0.022 A 
BRANCH   6   9
HETATM    9  O2  UNL     1      -1.996  -4.320  -0.526  1.00  0.00    -0.326 OA
HETATM   10  C7  UNL     1      -2.650  -4.688  -1.731  1.00  0.00     0.181 C 
ENDBRANCH   6   9
ENDBRANCH   1   2
BRANCH   1  11
HETATM   11  C9  UNL     1       2.311  -1.154   0.894  1.00  0.00     0.074 C 
BRANCH  11  12
HETATM   12  C10 UNL     1       3.020   0.174   0.916  1.00  0.00     0.173 C 
HETATM   13  O3  UNL     1       4.182   0.266   0.599  1.00  0.00    -0.291 OA
BRANCH  12  14
HETATM   14  C11 UNL     1       2.268   1.363   1.334  1.00  0.00     0.033 C 
HETATM   15  C12 UNL     1       0.971   1.504   1.010  1.00  0.00    -0.023 C 
BRANCH  15  16
HETATM   16  C13 UNL     1       0.248   2.746   1.463  1.00  0.00     0.026 C 
BRANCH  16  17
HETATM   17  C14 UNL     1      -0.441   3.473   0.308  1.00  0.00     0.005 C 
BRANCH  17  18
HETATM   18  C15 UNL     1      -1.186   4.729   0.763  1.00  0.00     0.000 C 
BRANCH  18  19
HETATM   19  C16 UNL     1      -1.875   5.457  -0.391  1.00  0.00     0.000 C 
HETATM   20  C17 UNL     1      -2.617   6.713   0.062  1.00  0.00     0.000 C 
ENDBRANCH  18  19
ENDBRANCH  17  18
ENDBRANCH  16  17
ENDBRANCH  15  16
ENDBRANCH  12  14
ENDBRANCH  11  12
ENDBRANCH   1  11
TORSDOF 9
