REMARK  1 active torsions:
REMARK  status: ('A' for Active; 'I' for Inactive)
REMARK    1  A    between atoms: C16_16  and  C25_26 
ROOT
HETATM    1  C1  UNL     1       5.098   0.729  -1.437  1.00  0.00     0.033 C 
HETATM    2  C2  UNL     1       5.564  -0.600  -0.803  1.00  0.00     0.152 C 
HETATM    3  C3  UNL     1       5.006  -0.799   0.625  1.00  0.00     0.028 C 
HETATM    4  C4  UNL     1       3.441  -0.771   0.641  1.00  0.00     0.002 C 
HETATM    5  C5  UNL     1       2.791   0.176  -0.426  1.00  0.00     0.001 C 
HETATM    6  C6  UNL     1       3.789   1.281  -0.832  1.00  0.00     0.003 C 
HETATM    7  C7  UNL     1       1.471   0.818   0.117  1.00  0.00     0.005 C 
HETATM    8  C8  UNL     1       0.598  -0.193   0.918  1.00  0.00     0.004 C 
HETATM    9  C9  UNL     1       1.377  -0.656   2.180  1.00  0.00     0.000 C 
HETATM   10  C10 UNL     1       2.902  -0.510   2.065  1.00  0.00     0.000 C 
HETATM   11  C11 UNL     1      -0.760   0.471   1.309  1.00  0.00     0.015 C 
HETATM   12  C12 UNL     1      -1.492   0.891   0.045  1.00  0.00    -0.046 C 
HETATM   13  C13 UNL     1      -0.811   1.418  -0.994  1.00  0.00    -0.035 C 
HETATM   14  C14 UNL     1       0.687   1.617  -0.961  1.00  0.00     0.025 C 
HETATM   15  C15 UNL     1      -2.996   0.645   0.020  1.00  0.00     0.058 C 
HETATM   16  C16 UNL     1      -3.221  -0.894   0.082  1.00  0.00     0.084 C 
HETATM   17  C17 UNL     1      -2.526  -1.480   1.354  1.00  0.00     0.011 C 
HETATM   18  C18 UNL     1      -1.672  -0.471   2.154  1.00  0.00     0.004 C 
HETATM   19  C19 UNL     1      -4.738  -1.252   0.041  1.00  0.00     0.011 C 
HETATM   20  C20 UNL     1      -5.656  -0.023   0.088  1.00  0.00     0.003 C 
HETATM   21  C21 UNL     1      -5.358   0.982  -1.045  1.00  0.00     0.029 C 
HETATM   22  C22 UNL     1      -3.824   1.318  -1.107  1.00  0.00     0.156 C 
HETATM   23  O1  UNL     1      -3.604   2.719  -1.060  1.00  0.00    -0.223 OA
HETATM   24  C23 UNL     1      -6.258   2.207  -0.810  1.00  0.00     0.003 C 
HETATM   25  C24 UNL     1      -5.785   0.359  -2.381  1.00  0.00     0.003 C 
HETATM   26  C26 UNL     1      -0.516   1.752   2.125  1.00  0.00     0.004 C 
HETATM   27  C27 UNL     1       0.326  -1.436   0.051  1.00  0.00     0.000 C 
HETATM   28  C28 UNL     1       2.465  -0.641  -1.693  1.00  0.00     0.000 C 
HETATM   29  C29 UNL     1       5.588   0.322   1.502  1.00  0.00     0.003 C 
HETATM   30  C30 UNL     1       5.502  -2.127   1.217  1.00  0.00     0.003 C 
HETATM   31  O4  UNL     1       5.199  -1.687  -1.631  1.00  0.00    -0.224 OA
ENDROOT
BRANCH  16  32
HETATM   32  C25 UNL     1      -2.582  -1.523  -1.142  1.00  0.00     0.184 C 
HETATM   33  O2  UNL     1      -2.461  -2.848  -1.101  1.00  0.00    -0.647 OA
HETATM   34  O3  UNL     1      -2.219  -0.842  -2.072  1.00  0.00    -0.647 OA
ENDBRANCH  16  32
TORSDOF 1
