REMARK  8 active torsions:
REMARK  status: ('A' for Active; 'I' for Inactive)
REMARK    1  A    between atoms: O1_1  and  C1_2 
REMARK    2  A    between atoms: O1_1  and  C13_24 
REMARK    3  A    between atoms: C1_2  and  C2_3 
REMARK    4  A    between atoms: C6_7  and  O3_9 
REMARK    5  A    between atoms: O3_9  and  C7_10 
REMARK    6  A    between atoms: C7_10  and  C12_19 
REMARK    7  A    between atoms: C8_12  and  C11_17 
REMARK    8  A    between atoms: C13_24  and  C14_25 
ROOT
HETATM    1  C2  UNL     1      -1.424   1.799   0.186  1.00  0.00     0.181 C 
HETATM    2  C3  UNL     1      -1.854   3.254  -0.109  1.00  0.00     0.215 C 
HETATM    3  C4  UNL     1      -0.713   4.256   0.176  1.00  0.00     0.220 C 
HETATM    4  C5  UNL     1       0.564   3.789  -0.557  1.00  0.00     0.241 C 
HETATM    5  C6  UNL     1       0.900   2.307  -0.242  1.00  0.00     0.272 C 
HETATM    6  O2  UNL     1      -0.230   1.490  -0.533  1.00  0.00    -0.326 OA
HETATM    7  O9  UNL     1       1.664   4.623  -0.232  1.00  0.00    -0.215 OA
HETATM    8  O10 UNL     1      -1.084   5.549  -0.275  1.00  0.00    -0.218 OA
HETATM    9  O11 UNL     1      -2.979   3.564   0.693  1.00  0.00    -0.218 OA
ENDROOT
BRANCH   5  10
HETATM   10  O3  UNL     1       1.330   2.131   1.098  1.00  0.00    -0.304 OA
BRANCH  10  11
HETATM   11  C7  UNL     1       1.873   0.850   1.346  1.00  0.00     0.252 C 
HETATM   12  O4  UNL     1       0.947  -0.180   1.080  1.00  0.00    -0.328 OA
HETATM   13  C8  UNL     1       1.381  -1.385   1.672  1.00  0.00     0.184 C 
HETATM   14  C9  UNL     1       2.186  -0.938   2.910  1.00  0.00     0.217 C 
HETATM   15  C10 UNL     1       2.238   0.605   2.824  1.00  0.00     0.238 C 
HETATM   16  O6  UNL     1       3.498  -1.465   2.846  1.00  0.00    -0.218 OA
HETATM   17  O5  UNL     1       1.266   1.142   3.713  1.00  0.00    -0.215 OA
BRANCH  13  18
HETATM   18  C11 UNL     1       0.156  -2.227   2.008  1.00  0.00     0.214 C 
HETATM   19  O7  UNL     1      -0.379  -2.729   0.803  1.00  0.00    -0.218 OA
ENDBRANCH  13  18
BRANCH  11  20
HETATM   20  C12 UNL     1       3.086   0.678   0.432  1.00  0.00     0.241 C 
HETATM   21  O8  UNL     1       2.682  -0.051  -0.705  1.00  0.00    -0.215 OA
ENDBRANCH  11  20
ENDBRANCH  10  11
ENDBRANCH   5  10
BRANCH   1  22
HETATM   22  C1  UNL     1      -2.473   0.769  -0.248  1.00  0.00     0.184 C 
BRANCH  22  23
HETATM   23  O1  UNL     1      -1.824  -0.426  -0.656  1.00  0.00    -0.296 OA
BRANCH  23  24
HETATM   24  C13 UNL     1      -2.676  -1.322  -1.146  1.00  0.00     0.296 C 
HETATM   25  O13 UNL     1      -3.873  -1.266  -0.994  1.00  0.00    -0.259 OA
BRANCH  24  26
HETATM   26  C14 UNL     1      -2.051  -2.438  -1.916  1.00  0.00     0.063 A 
HETATM   27  C15 UNL     1      -2.836  -3.524  -2.344  1.00  0.00     0.007 A 
HETATM   28  C16 UNL     1      -2.246  -4.574  -3.068  1.00  0.00     0.028 A 
HETATM   29  C17 UNL     1      -0.873  -4.543  -3.371  1.00  0.00     0.131 A 
HETATM   30  C18 UNL     1      -0.092  -3.455  -2.943  1.00  0.00     0.028 A 
HETATM   31  O12 UNL     1      -0.322  -5.528  -4.051  1.00  0.00    -0.190 OA
HETATM   32  C19 UNL     1      -0.678  -2.404  -2.217  1.00  0.00     0.007 A 
ENDBRANCH  24  26
ENDBRANCH  23  24
ENDBRANCH  22  23
ENDBRANCH   1  22
TORSDOF 8
