REMARK  10 active torsions:
REMARK  status: ('A' for Active; 'I' for Inactive)
REMARK    1  A    between atoms: C2_2  and  O13_34 
REMARK    2  A    between atoms: C5_5  and  C7_7 
REMARK    3  A    between atoms: C8_8  and  C9_9 
REMARK    4  A    between atoms: C9_9  and  O1_10 
REMARK    5  A    between atoms: O1_10  and  C10_11 
REMARK    6  A    between atoms: C10_11  and  C11_12 
REMARK    7  A    between atoms: C15_16  and  O3_18 
REMARK    8  A    between atoms: O3_18  and  C16_19 
REMARK    9  A    between atoms: C16_19  and  C21_28 
REMARK   10  A    between atoms: C17_21  and  C20_26 
ROOT
HETATM    1  C11 UNL     1       2.656  -1.564  -1.057  1.00  0.00     0.181 C 
HETATM    2  C12 UNL     1       3.670  -2.574  -1.645  1.00  0.00     0.215 C 
HETATM    3  C13 UNL     1       3.541  -3.967  -0.986  1.00  0.00     0.220 C 
HETATM    4  C14 UNL     1       2.064  -4.414  -1.031  1.00  0.00     0.241 C 
HETATM    5  C15 UNL     1       1.115  -3.328  -0.459  1.00  0.00     0.272 C 
HETATM    6  O2  UNL     1       1.336  -2.096  -1.143  1.00  0.00    -0.326 OA
HETATM    7  O9  UNL     1       1.887  -5.641  -0.340  1.00  0.00    -0.215 OA
HETATM    8  O10 UNL     1       4.352  -4.900  -1.682  1.00  0.00    -0.218 OA
HETATM    9  O11 UNL     1       4.979  -2.068  -1.449  1.00  0.00    -0.218 OA
ENDROOT
BRANCH   1  10
HETATM   10  C10 UNL     1       2.643  -0.230  -1.812  1.00  0.00     0.184 C 
BRANCH  10  11
HETATM   11  O1  UNL     1       1.711   0.649  -1.201  1.00  0.00    -0.296 OA
BRANCH  11  12
HETATM   12  C9  UNL     1       1.736   1.865  -1.736  1.00  0.00     0.296 C 
HETATM   13  O12 UNL     1       2.613   2.260  -2.469  1.00  0.00    -0.259 OA
BRANCH  12  14
HETATM   14  C8  UNL     1       0.611   2.740  -1.387  1.00  0.00     0.068 C 
HETATM   15  C7  UNL     1       0.656   4.055  -1.658  1.00  0.00     0.005 C 
BRANCH  15  16
HETATM   16  C5  UNL     1      -0.514   4.904  -1.283  1.00  0.00     0.000 A 
HETATM   17  C4  UNL     1      -1.652   4.320  -0.701  1.00  0.00     0.002 A 
HETATM   18  C3  UNL     1      -2.752   5.121  -0.350  1.00  0.00     0.024 A 
HETATM   19  C2  UNL     1      -2.719   6.508  -0.576  1.00  0.00     0.094 A 
HETATM   20  C1  UNL     1      -1.580   7.090  -1.158  1.00  0.00     0.024 A 
HETATM   21  C6  UNL     1      -0.479   6.293  -1.512  1.00  0.00     0.002 A 
BRANCH  19  22
HETATM   22  O13 UNL     1      -3.750   7.258  -0.244  1.00  0.00    -0.328 OA
HETATM   23  C22 UNL     1      -4.889   6.617   0.313  1.00  0.00     0.181 C 
ENDBRANCH  19  22
ENDBRANCH  15  16
ENDBRANCH  12  14
ENDBRANCH  11  12
ENDBRANCH  10  11
ENDBRANCH   1  10
BRANCH   5  24
HETATM   24  O3  UNL     1       1.264  -3.176   0.943  1.00  0.00    -0.304 OA
BRANCH  24  25
HETATM   25  C16 UNL     1       0.043  -2.912   1.607  1.00  0.00     0.252 C 
HETATM   26  O4  UNL     1      -0.828  -2.127   0.828  1.00  0.00    -0.328 OA
HETATM   27  C17 UNL     1      -1.852  -1.588   1.637  1.00  0.00     0.184 C 
HETATM   28  C18 UNL     1      -1.199  -1.439   3.029  1.00  0.00     0.217 C 
HETATM   29  C19 UNL     1       0.205  -2.072   2.891  1.00  0.00     0.238 C 
HETATM   30  O6  UNL     1      -1.953  -2.152   3.990  1.00  0.00    -0.218 OA
HETATM   31  O5  UNL     1       1.158  -1.031   2.732  1.00  0.00    -0.215 OA
BRANCH  27  32
HETATM   32  C20 UNL     1      -2.305  -0.267   1.027  1.00  0.00     0.214 C 
HETATM   33  O7  UNL     1      -3.014  -0.551  -0.158  1.00  0.00    -0.218 OA
ENDBRANCH  27  32
BRANCH  25  34
HETATM   34  C21 UNL     1      -0.623  -4.258   1.897  1.00  0.00     0.241 C 
HETATM   35  O8  UNL     1      -1.371  -4.633   0.762  1.00  0.00    -0.215 OA
ENDBRANCH  25  34
ENDBRANCH  24  25
ENDBRANCH   5  24
TORSDOF 10
