REMARK  2 active torsions:
REMARK  status: ('A' for Active; 'I' for Inactive)
REMARK    1  A    between atoms: C3_3  and  O2_14 
REMARK    2  A    between atoms: O2_14  and  C13_15 
ROOT
HETATM    1  C1  UNL     1      -0.150  -0.475   1.436  1.00  0.00     0.134 C 
HETATM    2  C2  UNL     1      -1.477   0.268   1.182  1.00  0.00     0.070 C 
HETATM    3  C3  UNL     1      -1.646   0.725  -0.277  1.00  0.00     0.149 C 
HETATM    4  C4  UNL     1      -0.922   2.002  -0.603  1.00  0.00    -0.001 C 
HETATM    5  C5  UNL     1       0.414   2.162  -0.543  1.00  0.00    -0.028 C 
HETATM    6  C6  UNL     1       1.389   1.143  -0.094  1.00  0.00    -0.026 C 
HETATM    7  C7  UNL     1       1.223   0.127   1.024  1.00  0.00     0.078 C 
HETATM    8  C8  UNL     1       2.383  -0.883   0.777  1.00  0.00     0.137 C 
HETATM    9  C9  UNL     1       3.434  -0.010   0.074  1.00  0.00     0.057 C 
HETATM   10  C10 UNL     1       2.617   1.037  -0.625  1.00  0.00    -0.028 C 
HETATM   11  C11 UNL     1       2.900  -1.549   2.047  1.00  0.00     0.034 C 
HETATM   12  O1  UNL     1       2.020  -1.904  -0.137  1.00  0.00    -0.225 OA
HETATM   13  C12 UNL     1       0.961   3.500  -0.974  1.00  0.00     0.030 C 
HETATM   14  C15 UNL     1      -2.430  -0.887   1.549  1.00  0.00     0.091 C 
HETATM   15  C16 UNL     1      -1.641  -2.076   1.088  1.00  0.00     0.272 C 
HETATM   16  O4  UNL     1      -0.353  -1.797   0.938  1.00  0.00    -0.304 OA
HETATM   17  O5  UNL     1      -2.143  -3.154   0.873  1.00  0.00    -0.264 OA
HETATM   18  C17 UNL     1      -3.836  -0.809   0.961  1.00  0.00     0.011 C 
ENDROOT
BRANCH   3  19
HETATM   19  O2  UNL     1      -1.234  -0.291  -1.183  1.00  0.00    -0.300 OA
BRANCH  19  20
HETATM   20  C13 UNL     1      -1.650  -0.059  -2.426  1.00  0.00     0.273 C 
HETATM   21  C14 UNL     1      -1.199  -1.064  -3.451  1.00  0.00     0.106 C 
HETATM   22  O3  UNL     1      -2.340   0.885  -2.740  1.00  0.00    -0.264 OA
ENDBRANCH  19  20
ENDBRANCH   3  19
TORSDOF 2
