REMARK  6 active torsions:
REMARK  status: ('A' for Active; 'I' for Inactive)
REMARK    1  A    between atoms: C4_4  and  O2_9 
REMARK    2  A    between atoms: C5_5  and  O1_7 
REMARK    3  A    between atoms: C12_14  and  C13_15 
REMARK    4  A    between atoms: C15_17  and  O5_25 
REMARK    5  A    between atoms: C16_18  and  O4_23 
REMARK    6  A    between atoms: C17_19  and  O3_21 
ROOT
HETATM    1  C1  UNL     1      -0.967  -0.164  -1.260  1.00  0.00    -0.017 A 
HETATM    2  C2  UNL     1      -0.862  -1.572  -1.516  1.00  0.00     0.006 A 
HETATM    3  C3  UNL     1      -2.031  -2.377  -1.430  1.00  0.00     0.024 A 
HETATM    4  C4  UNL     1      -3.278  -1.811  -1.084  1.00  0.00     0.116 A 
HETATM    5  C5  UNL     1      -3.377  -0.428  -0.824  1.00  0.00     0.116 A 
HETATM    6  C6  UNL     1      -2.229   0.391  -0.914  1.00  0.00     0.022 A 
HETATM    7  C9  UNL     1       0.451  -2.195  -1.889  1.00  0.00     0.177 C 
HETATM    8  C10 UNL     1       1.648  -1.285  -1.586  1.00  0.00     0.075 C 
HETATM    9  C11 UNL     1       1.355   0.092  -2.174  1.00  0.00     0.100 C 
HETATM   10  C12 UNL     1       0.222   0.740  -1.357  1.00  0.00     0.054 C 
HETATM   11  C22 UNL     1       2.734   0.688  -2.203  1.00  0.00     0.272 C 
HETATM   12  O6  UNL     1       3.682  -0.248  -2.195  1.00  0.00    -0.302 OA
HETATM   13  C23 UNL     1       3.015  -1.512  -2.236  1.00  0.00     0.155 C 
HETATM   14  O7  UNL     1       2.933   1.879  -2.225  1.00  0.00    -0.264 OA
HETATM   15  O8  UNL     1       0.672  -3.416  -1.201  1.00  0.00    -0.218 OA
ENDROOT
BRANCH  10  16
HETATM   16  C13 UNL     1       0.652   1.158   0.012  1.00  0.00    -0.014 A 
HETATM   17  C14 UNL     1       0.529   0.264   1.090  1.00  0.00     0.022 A 
HETATM   18  C15 UNL     1       0.933   0.654   2.379  1.00  0.00     0.118 A 
HETATM   19  C16 UNL     1       1.461   1.941   2.590  1.00  0.00     0.138 A 
HETATM   20  C17 UNL     1       1.582   2.838   1.512  1.00  0.00     0.118 A 
HETATM   21  C18 UNL     1       1.178   2.443   0.225  1.00  0.00     0.022 A 
BRANCH  18  22
HETATM   22  O5  UNL     1       0.816  -0.189   3.387  1.00  0.00    -0.326 OA
HETATM   23  C21 UNL     1       0.662  -1.568   3.088  1.00  0.00     0.181 C 
ENDBRANCH  18  22
BRANCH  19  24
HETATM   24  O4  UNL     1       1.840   2.309   3.799  1.00  0.00    -0.324 OA
HETATM   25  C20 UNL     1       2.586   1.383   4.574  1.00  0.00     0.182 C 
ENDBRANCH  19  24
BRANCH  20  26
HETATM   26  O3  UNL     1       2.074   4.045   1.703  1.00  0.00    -0.326 OA
HETATM   27  C19 UNL     1       2.178   4.910   0.582  1.00  0.00     0.181 C 
ENDBRANCH  20  26
ENDBRANCH  10  16
BRANCH   5  28
HETATM   28  O1  UNL     1      -4.557   0.113  -0.492  1.00  0.00    -0.326 OA
HETATM   29  C7  UNL     1      -4.604   1.512  -0.242  1.00  0.00     0.181 C 
ENDBRANCH   5  28
BRANCH   4  30
HETATM   30  O2  UNL     1      -4.367  -2.590  -1.006  1.00  0.00    -0.326 OA
HETATM   31  C8  UNL     1      -4.227  -3.965  -1.330  1.00  0.00     0.181 C 
ENDBRANCH   4  30
TORSDOF 6
