REMARK  4 active torsions:
REMARK  status: ('A' for Active; 'I' for Inactive)
REMARK    1  A    between atoms: C1_1  and  C17_22 
REMARK    2  A    between atoms: C7_8  and  C10_13 
REMARK    3  A    between atoms: C8_9  and  C9_11 
REMARK    4  A    between atoms: C12_15  and  O5_20 
ROOT
HETATM    1  C1  UNL     1      -0.537   0.748  -2.047  1.00  0.00     0.008 A 
HETATM    2  C2  UNL     1      -0.555   0.994  -0.652  1.00  0.00     0.024 A 
HETATM    3  C3  UNL     1       0.435   0.422   0.180  1.00  0.00     0.116 A 
HETATM    4  C4  UNL     1       1.465  -0.377  -0.389  1.00  0.00     0.117 A 
HETATM    5  C5  UNL     1       1.471  -0.635  -1.779  1.00  0.00     0.026 A 
HETATM    6  C6  UNL     1       0.473  -0.074  -2.607  1.00  0.00     0.000 A 
HETATM    7  O1  UNL     1       2.432  -0.889   0.400  1.00  0.00    -0.324 OA
HETATM    8  C7  UNL     1       2.600  -0.389   1.734  1.00  0.00     0.174 C 
HETATM    9  C8  UNL     1       1.213  -0.166   2.381  1.00  0.00     0.186 C 
HETATM   10  O2  UNL     1       0.406   0.637   1.510  1.00  0.00    -0.326 OA
ENDROOT
BRANCH   1  11
HETATM   11  C17 UNL     1      -1.568   1.342  -2.912  1.00  0.00     0.151 C 
HETATM   12  O6  UNL     1      -2.861   1.057  -2.365  1.00  0.00    -0.328 OA
HETATM   13  C18 UNL     1      -3.961   1.656  -2.865  1.00  0.00     0.101 A 
HETATM   14  C19 UNL     1      -3.867   2.844  -3.643  1.00  0.00     0.083 A 
HETATM   15  C25 UNL     1      -5.231   1.088  -2.605  1.00  0.00     0.052 A 
HETATM   16  C20 UNL     1      -2.535   3.479  -3.852  1.00  0.00     0.180 C 
HETATM   17  C22 UNL     1      -5.039   3.418  -4.205  1.00  0.00     0.138 A 
HETATM   18  C21 UNL     1      -1.381   2.861  -3.090  1.00  0.00     0.104 C 
HETATM   19  O7  UNL     1      -2.285   4.432  -4.555  1.00  0.00    -0.291 OA
HETATM   20  C23 UNL     1      -6.301   2.830  -3.955  1.00  0.00     0.055 A 
HETATM   21  O9  UNL     1      -4.969   4.520  -4.967  1.00  0.00    -0.190 OA
HETATM   22  C24 UNL     1      -6.399   1.672  -3.148  1.00  0.00     0.135 A 
HETATM   23  O8  UNL     1      -7.598   1.129  -2.902  1.00  0.00    -0.190 OA
ENDBRANCH   1  11
BRANCH   9  24
HETATM   24  C9  UNL     1       1.287   0.523   3.748  1.00  0.00     0.215 C 
HETATM   25  O3  UNL     1      -0.020   0.615   4.268  1.00  0.00    -0.218 OA
ENDBRANCH   9  24
BRANCH   8  26
HETATM   26  C10 UNL     1       3.453  -1.332   2.500  1.00  0.00     0.010 A 
HETATM   27  C11 UNL     1       3.133  -2.701   2.537  1.00  0.00     0.025 A 
HETATM   28  C12 UNL     1       3.937  -3.598   3.262  1.00  0.00     0.119 A 
HETATM   29  C13 UNL     1       5.068  -3.123   3.953  1.00  0.00     0.153 A 
HETATM   30  C14 UNL     1       5.387  -1.756   3.916  1.00  0.00     0.029 A 
HETATM   31  O4  UNL     1       5.828  -3.957   4.635  1.00  0.00    -0.188 OA
HETATM   32  C15 UNL     1       4.582  -0.859   3.191  1.00  0.00     0.000 A 
BRANCH  28  33
HETATM   33  O5  UNL     1       3.629  -4.879   3.291  1.00  0.00    -0.326 OA
HETATM   34  C16 UNL     1       2.412  -5.287   2.682  1.00  0.00     0.181 C 
ENDBRANCH  28  33
ENDBRANCH   8  26
TORSDOF 4
