REMARK  4 active torsions:
REMARK  status: ('A' for Active; 'I' for Inactive)
REMARK    1  A    between atoms: C12_14  and  O6_24 
REMARK    2  A    between atoms: O6_24  and  C19_25 
REMARK    3  A    between atoms: C19_25  and  C20_26 
REMARK    4  A    between atoms: C20_26  and  C21_27 
ROOT
HETATM    1  C1  UNL     1      -4.594   1.752   1.559  1.00  0.00     0.203 C 
HETATM    2  C2  UNL     1      -5.018   0.453   2.100  1.00  0.00     0.032 C 
HETATM    3  C3  UNL     1      -4.215  -0.627   2.082  1.00  0.00    -0.041 C 
HETATM    4  C4  UNL     1      -2.822  -0.535   1.473  1.00  0.00     0.024 C 
HETATM    5  C5  UNL     1      -2.172   0.861   1.705  1.00  0.00     0.042 C 
HETATM    6  C6  UNL     1      -3.150   1.932   1.115  1.00  0.00     0.213 C 
HETATM    7  O1  UNL     1      -2.742   3.242   1.457  1.00  0.00    -0.215 OA
HETATM    8  C7  UNL     1      -0.762   0.900   0.994  1.00  0.00     0.041 C 
HETATM    9  C8  UNL     1       0.129  -0.342   1.326  1.00  0.00     0.061 C 
HETATM   10  C9  UNL     1      -0.594  -1.687   1.123  1.00  0.00     0.127 C 
HETATM   11  C10 UNL     1      -1.895  -1.684   1.924  1.00  0.00     0.034 C 
HETATM   12  O2  UNL     1      -0.928  -1.951  -0.250  1.00  0.00    -0.302 OA
HETATM   13  C11 UNL     1      -0.061  -1.646  -1.231  1.00  0.00     0.300 C 
HETATM   14  C12 UNL     1       1.019  -0.607  -1.033  1.00  0.00     0.212 C 
HETATM   15  C13 UNL     1       1.379  -0.465   0.443  1.00  0.00     0.070 C 
HETATM   16  C14 UNL     1       2.176   0.723   0.992  1.00  0.00     0.126 C 
HETATM   17  C15 UNL     1       1.557   2.106   0.678  1.00  0.00     0.207 C 
HETATM   18  C16 UNL     1       0.066   2.231   1.107  1.00  0.00     0.185 C 
HETATM   19  O3  UNL     1       0.057   2.734   2.432  1.00  0.00    -0.221 OA
HETATM   20  O4  UNL     1       1.680   2.395  -0.701  1.00  0.00    -0.218 OA
HETATM   21  O5  UNL     1       2.057   0.498   2.385  1.00  0.00    -0.356 OA
HETATM   22  C17 UNL     1       0.873  -0.225   2.674  1.00  0.00     0.145 C 
HETATM   23  C18 UNL     1       3.658   0.631   0.633  1.00  0.00     0.033 C 
HETATM   24  O8  UNL     1      -0.135  -2.187  -2.309  1.00  0.00    -0.262 OA
HETATM   25  C24 UNL     1      -2.055   1.057   3.230  1.00  0.00     0.003 C 
HETATM   26  C25 UNL     1      -4.703  -1.928   2.668  1.00  0.00     0.026 C 
HETATM   27  O9  UNL     1      -5.401   2.650   1.477  1.00  0.00    -0.289 OA
ENDROOT
BRANCH  14  28
HETATM   28  O6  UNL     1       2.184  -0.965  -1.762  1.00  0.00    -0.294 OA
BRANCH  28  29
HETATM   29  C19 UNL     1       2.082  -0.668  -3.055  1.00  0.00     0.272 C 
HETATM   30  O7  UNL     1       1.119  -0.129  -3.549  1.00  0.00    -0.264 OA
BRANCH  29  31
HETATM   31  C20 UNL     1       3.268  -1.059  -3.897  1.00  0.00     0.086 C 
HETATM   32  C23 UNL     1       4.430  -0.074  -3.756  1.00  0.00     0.010 C 
BRANCH  31  33
HETATM   33  C21 UNL     1       2.889  -1.318  -5.356  1.00  0.00     0.010 C 
HETATM   34  C22 UNL     1       1.910  -2.482  -5.512  1.00  0.00     0.001 C 
ENDBRANCH  31  33
ENDBRANCH  29  31
ENDBRANCH  28  29
ENDBRANCH  14  28
TORSDOF 4
