REMARK  2 active torsions:
REMARK  status: ('A' for Active; 'I' for Inactive)
REMARK    1  A    between atoms: C1_1  and  O4_24 
REMARK    2  A    between atoms: C2_2  and  O3_22 
ROOT
HETATM    1  C1  UNL     1      -3.912  -0.185   1.416  1.00  0.00     0.116 A 
HETATM    2  C2  UNL     1      -2.945   0.584   2.102  1.00  0.00     0.116 A 
HETATM    3  C3  UNL     1      -1.594   0.551   1.690  1.00  0.00     0.024 A 
HETATM    4  C4  UNL     1      -1.191  -0.242   0.582  1.00  0.00     0.007 A 
HETATM    5  C5  UNL     1      -2.172  -1.025  -0.100  1.00  0.00    -0.020 A 
HETATM    6  C6  UNL     1      -3.525  -0.988   0.318  1.00  0.00     0.022 A 
HETATM    7  C7  UNL     1      -1.781  -1.881  -1.246  1.00  0.00     0.061 C 
HETATM    8  C8  UNL     1      -0.281  -2.215  -1.254  1.00  0.00     0.256 C 
HETATM    9  N1  UNL     1       0.496  -0.980  -1.119  1.00  0.00     0.144 N 
HETATM   10  C9  UNL     1       0.246  -0.262   0.154  1.00  0.00     0.246 C 
HETATM   11  C10 UNL     1       0.852   1.162   0.016  1.00  0.00     0.064 C 
HETATM   12  C11 UNL     1       2.242   1.170  -0.508  1.00  0.00    -0.020 A 
HETATM   13  C12 UNL     1       2.764   0.039  -1.191  1.00  0.00     0.031 A 
HETATM   14  C13 UNL     1       1.930  -1.178  -1.381  1.00  0.00     0.279 C 
HETATM   15  C14 UNL     1       4.090   0.047  -1.701  1.00  0.00     0.117 A 
HETATM   16  C15 UNL     1       4.897   1.174  -1.523  1.00  0.00     0.119 A 
HETATM   17  C16 UNL     1       4.377   2.301  -0.838  1.00  0.00     0.026 A 
HETATM   18  C17 UNL     1       3.061   2.307  -0.334  1.00  0.00    -0.002 A 
HETATM   19  O1  UNL     1       6.090   0.949  -2.076  1.00  0.00    -0.300 OA
HETATM   20  C18 UNL     1       6.104  -0.375  -2.652  1.00  0.00     0.304 A 
HETATM   21  O2  UNL     1       4.781  -0.881  -2.365  1.00  0.00    -0.300 OA
ENDROOT
BRANCH   1  22
HETATM   22  O4  UNL     1      -5.195  -0.156   1.803  1.00  0.00    -0.326 OA
HETATM   23  C20 UNL     1      -6.137  -0.904   1.049  1.00  0.00     0.181 C 
ENDBRANCH   1  22
BRANCH   2  24
HETATM   24  O3  UNL     1      -3.307   1.344   3.145  1.00  0.00    -0.326 OA
HETATM   25  C19 UNL     1      -2.299   2.106   3.795  1.00  0.00     0.181 C 
ENDBRANCH   2  24
TORSDOF 2
