REMARK  4 active torsions:
REMARK  status: ('A' for Active; 'I' for Inactive)
REMARK    1  A    between atoms: C2_2  and  O4_14 
REMARK    2  A    between atoms: C4_4  and  O2_11 
REMARK    3  A    between atoms: C6_6  and  C7_7 
REMARK    4  A    between atoms: C8_8  and  C9_9 
ROOT
HETATM    1  C1  UNL     1      -1.016  -0.193   0.039  1.00  0.00     0.026 A 
HETATM    2  C2  UNL     1      -1.764   0.996   0.039  1.00  0.00     0.121 A 
HETATM    3  C3  UNL     1      -1.106   2.240   0.039  1.00  0.00     0.175 A 
HETATM    4  C4  UNL     1       0.303   2.291   0.039  1.00  0.00     0.121 A 
HETATM    5  C5  UNL     1       1.047   1.100   0.039  1.00  0.00     0.026 A 
HETATM    6  C6  UNL     1       0.390  -0.144   0.039  1.00  0.00     0.004 A 
HETATM    7  O3  UNL     1      -1.805   3.358   0.039  1.00  0.00    -0.186 OA
ENDROOT
BRANCH   6   8
HETATM    8  C7  UNL     1       1.183  -1.410   0.039  1.00  0.00    -0.002 C 
HETATM    9  C8  UNL     1       0.527  -2.582   0.037  1.00  0.00     0.009 C 
BRANCH   9  10
HETATM   10  C9  UNL     1       1.332  -3.853   0.037  1.00  0.00     0.209 C 
HETATM   11  O1  UNL     1       1.722  -4.162  -1.281  1.00  0.00    -0.215 OA
ENDBRANCH   9  10
ENDBRANCH   6   8
BRANCH   2  12
HETATM   12  O4  UNL     1      -3.080   0.944   0.039  1.00  0.00    -0.326 OA
HETATM   13  C11 UNL     1      -3.698  -0.336   0.039  1.00  0.00     0.181 C 
ENDBRANCH   2  12
BRANCH   4  14
HETATM   14  O2  UNL     1       0.924   3.453   0.039  1.00  0.00    -0.326 OA
HETATM   15  C10 UNL     1       2.338   3.453   0.166  1.00  0.00     0.181 C 
ENDBRANCH   4  14
TORSDOF 4
