REMARK  1 active torsions:
REMARK  status: ('A' for Active; 'I' for Inactive)
REMARK    1  A    between atoms: C10_10  and  C11_11 
ROOT
HETATM    1  C1  UNL     1      -2.156   1.924  -0.311  1.00  0.00     0.010 C 
HETATM    2  C2  UNL     1      -2.418   0.418  -0.445  1.00  0.00     0.003 C 
HETATM    3  C3  UNL     1      -1.471  -0.221   0.576  1.00  0.00     0.025 C 
HETATM    4  C4  UNL     1      -1.256  -1.750   0.533  1.00  0.00     0.002 C 
HETATM    5  C5  UNL     1      -0.008  -2.266  -0.203  1.00  0.00     0.000 C 
HETATM    6  C6  UNL     1       1.320  -1.994   0.539  1.00  0.00     0.002 C 
HETATM    7  C7  UNL     1       1.783  -0.531   0.688  1.00  0.00     0.027 C 
HETATM    8  C8  UNL     1       0.820   0.322   1.520  1.00  0.00     0.030 C 
HETATM    9  C9  UNL     1      -0.238   0.703   0.481  1.00  0.00     0.100 C 
HETATM   10  C10 UNL     1      -0.934   2.068   0.609  1.00  0.00     0.090 C 
HETATM   11  O2  UNL     1       0.416   0.596  -0.779  1.00  0.00    -0.363 OA
HETATM   12  C12 UNL     1       1.777   0.260  -0.627  1.00  0.00     0.093 C 
HETATM   13  C13 UNL     1       2.236  -0.521  -1.853  1.00  0.00     0.030 C 
HETATM   14  C14 UNL     1       2.572   1.555  -0.482  1.00  0.00     0.030 C 
HETATM   15  C15 UNL     1      -2.529  -2.420   0.000  1.00  0.00     0.000 C 
ENDROOT
BRANCH  10  16
HETATM   16  C11 UNL     1      -0.082   3.275   0.299  1.00  0.00     0.209 C 
HETATM   17  O1  UNL     1       0.146   4.111   1.143  1.00  0.00    -0.288 OA
ENDBRANCH  10  16
TORSDOF 1
