REMARK  1 active torsions:
REMARK  status: ('A' for Active; 'I' for Inactive)
REMARK    1  A    between atoms: C10_10  and  C11_11 
ROOT
HETATM    1  C1  UNL     1      -2.141   1.721  -0.313  1.00  0.00     0.005 C 
HETATM    2  C2  UNL     1      -2.402   0.217  -0.449  1.00  0.00     0.003 C 
HETATM    3  C3  UNL     1      -1.459  -0.426   0.572  1.00  0.00     0.025 C 
HETATM    4  C4  UNL     1      -1.242  -1.957   0.525  1.00  0.00     0.002 C 
HETATM    5  C5  UNL     1       0.008  -2.469  -0.209  1.00  0.00     0.000 C 
HETATM    6  C6  UNL     1       1.336  -2.197   0.533  1.00  0.00     0.002 C 
HETATM    7  C7  UNL     1       1.797  -0.734   0.682  1.00  0.00     0.027 C 
HETATM    8  C8  UNL     1       0.834   0.119   1.518  1.00  0.00     0.030 C 
HETATM    9  C9  UNL     1      -0.227   0.496   0.478  1.00  0.00     0.095 C 
HETATM   10  C10 UNL     1      -0.920   1.859   0.607  1.00  0.00     0.058 C 
HETATM   11  O2  UNL     1       0.430   0.395  -0.783  1.00  0.00    -0.364 OA
HETATM   12  C12 UNL     1       1.789   0.061  -0.629  1.00  0.00     0.093 C 
HETATM   13  C13 UNL     1       2.252  -0.717  -1.858  1.00  0.00     0.030 C 
HETATM   14  C14 UNL     1       2.582   1.357  -0.484  1.00  0.00     0.030 C 
HETATM   15  C15 UNL     1      -2.516  -2.625  -0.010  1.00  0.00     0.000 C 
ENDROOT
BRANCH  10  16
HETATM   16  C11 UNL     1      -0.059   3.070   0.252  1.00  0.00     0.185 C 
HETATM   17  O1  UNL     1      -0.856   4.227   0.369  1.00  0.00    -0.221 OA
ENDBRANCH  10  16
TORSDOF 1
