REMARK  7 active torsions:
REMARK  status: ('A' for Active; 'I' for Inactive)
REMARK    1  A    between atoms: C3_3  and  S1_10 
REMARK    2  A    between atoms: C4_5  and  C6_8 
REMARK    3  A    between atoms: S1_10  and  C7_11 
REMARK    4  A    between atoms: C7_11  and  C8_12 
REMARK    5  A    between atoms: C8_12  and  C9_13 
REMARK    6  A    between atoms: N1_15  and  O4_16 
REMARK    7  A    between atoms: O4_16  and  S2_17 
ROOT
HETATM    1  C1  UNL     1      -0.129   3.418  -0.449  1.00  0.00     0.218 C 
HETATM    2  C2  UNL     1       0.902   2.344  -0.856  1.00  0.00     0.223 C 
HETATM    3  C3  UNL     1       0.514   0.955  -0.305  1.00  0.00     0.201 C 
HETATM    4  O1  UNL     1      -0.807   0.631  -0.723  1.00  0.00    -0.340 OA
HETATM    5  C4  UNL     1      -1.818   1.516  -0.264  1.00  0.00     0.182 C 
HETATM    6  C5  UNL     1      -1.551   2.936  -0.813  1.00  0.00     0.215 C 
HETATM    7  O2  UNL     1      -2.514   3.822  -0.272  1.00  0.00    -0.218 OA
HETATM    8  O8  UNL     1       2.182   2.684  -0.356  1.00  0.00    -0.217 OA
HETATM    9  O9  UNL     1       0.154   4.637  -1.119  1.00  0.00    -0.218 OA
ENDROOT
BRANCH   3  10
HETATM   10  S1  UNL     1       1.609  -0.283  -0.883  1.00  0.00    -0.065 SA
BRANCH  10  11
HETATM   11  C7  UNL     1       1.274  -1.582   0.142  1.00  0.00     0.118 C 
HETATM   12  N1  UNL     1       0.375  -1.557   1.055  1.00  0.00    -0.110 NA
BRANCH  11  13
HETATM   13  C8  UNL     1       2.084  -2.836  -0.037  1.00  0.00     0.081 C 
BRANCH  13  14
HETATM   14  C9  UNL     1       2.826  -2.803  -1.348  1.00  0.00    -0.019 C 
HETATM   15  C10 UNL     1       4.037  -3.379  -1.412  1.00  0.00    -0.004 C 
ENDBRANCH  13  14
ENDBRANCH  11  13
BRANCH  12  16
HETATM   16  O4  UNL     1       0.158  -2.709   1.881  1.00  0.00    -0.106 OA
BRANCH  16  17
HETATM   17  S2  UNL     1      -0.887  -2.814   3.008  1.00  0.00     0.275 S 
HETATM   18  O5  UNL     1      -0.629  -1.908   4.113  1.00  0.00    -0.571 OA
HETATM   19  O6  UNL     1      -2.256  -2.756   2.525  1.00  0.00    -0.571 OA
HETATM   20  O7  UNL     1      -0.621  -4.275   3.516  1.00  0.00    -0.571 OA
ENDBRANCH  16  17
ENDBRANCH  12  16
ENDBRANCH  10  11
ENDBRANCH   3  10
BRANCH   5  21
HETATM   21  C6  UNL     1      -3.158   0.940  -0.731  1.00  0.00     0.214 C 
HETATM   22  O3  UNL     1      -3.381  -0.271  -0.043  1.00  0.00    -0.218 OA
ENDBRANCH   5  21
TORSDOF 7
