REMARK  4 active torsions:
REMARK  status: ('A' for Active; 'I' for Inactive)
REMARK    1  A    between atoms: C2_2  and  O6_29 
REMARK    2  A    between atoms: C15_17  and  C18_20 
REMARK    3  A    between atoms: O6_29  and  C24_30 
REMARK    4  A    between atoms: C27_34  and  O8_36 
ROOT
HETATM    1  C1  UNL     1      -2.119   0.309  -0.295  1.00  0.00     0.030 C 
HETATM    2  C2  UNL     1      -2.412  -1.197  -0.342  1.00  0.00     0.118 C 
HETATM    3  C3  UNL     1      -1.894  -1.904   0.920  1.00  0.00     0.030 C 
HETATM    4  C4  UNL     1      -0.389  -1.647   1.147  1.00  0.00     0.003 C 
HETATM    5  C5  UNL     1      -0.049  -0.129   1.190  1.00  0.00     0.003 C 
HETATM    6  C6  UNL     1      -0.621   0.580  -0.066  1.00  0.00     0.003 C 
HETATM    7  C7  UNL     1       1.512   0.125   1.260  1.00  0.00     0.040 C 
HETATM    8  C8  UNL     1       2.369  -1.160   1.377  1.00  0.00     0.031 C 
HETATM    9  C9  UNL     1       1.953  -2.313   0.418  1.00  0.00     0.003 C 
HETATM   10  C10 UNL     1       0.457  -2.379   0.104  1.00  0.00     0.000 C 
HETATM   11  C11 UNL     1       3.889  -0.848   1.207  1.00  0.00     0.133 C 
HETATM   12  C12 UNL     1       4.401   0.459   1.910  1.00  0.00     0.083 C 
HETATM   13  C13 UNL     1       3.373   1.150   2.781  1.00  0.00     0.182 C 
HETATM   14  C14 UNL     1       1.918   1.129   2.381  1.00  0.00     0.209 C 
HETATM   15  O1  UNL     1       1.537   2.434   1.990  1.00  0.00    -0.215 OA
HETATM   16  O2  UNL     1       3.703   1.721   3.805  1.00  0.00    -0.293 OA
HETATM   17  C15 UNL     1       4.791   1.389   0.740  1.00  0.00     0.030 C 
HETATM   18  C16 UNL     1       5.395   0.414  -0.256  1.00  0.00     0.007 C 
HETATM   19  C17 UNL     1       4.305  -0.643  -0.269  1.00  0.00     0.031 C 
HETATM   20  C22 UNL     1       5.686   0.228   2.736  1.00  0.00     0.010 C 
HETATM   21  O5  UNL     1       4.588  -1.988   1.688  1.00  0.00    -0.226 OA
HETATM   22  C23 UNL     1      -0.795   0.445   2.410  1.00  0.00     0.000 C 
ENDROOT
BRANCH   2  23
HETATM   23  O6  UNL     1      -3.807  -1.398  -0.449  1.00  0.00    -0.333 OA
BRANCH  23  24
HETATM   24  C24 UNL     1      -4.344  -0.941  -1.672  1.00  0.00     0.238 C 
HETATM   25  O7  UNL     1      -4.824   0.389  -1.516  1.00  0.00    -0.331 OA
HETATM   26  C25 UNL     1      -5.375   0.973  -2.693  1.00  0.00     0.151 C 
HETATM   27  C26 UNL     1      -6.582   0.139  -3.195  1.00  0.00     0.206 C 
HETATM   28  C30 UNL     1      -5.725   2.430  -2.375  1.00  0.00     0.035 C 
HETATM   29  C27 UNL     1      -6.168  -1.338  -3.381  1.00  0.00     0.153 C 
HETATM   30  O9  UNL     1      -7.656   0.250  -2.270  1.00  0.00    -0.218 OA
HETATM   31  C28 UNL     1      -5.488  -1.877  -2.111  1.00  0.00     0.094 C 
BRANCH  29  32
HETATM   32  O8  UNL     1      -7.271  -2.156  -3.729  1.00  0.00    -0.351 OA
HETATM   33  C29 UNL     1      -6.918  -3.502  -3.947  1.00  0.00     0.174 C 
ENDBRANCH  29  32
ENDBRANCH  23  24
ENDBRANCH   2  23
BRANCH  17  34
HETATM   34  C18 UNL     1       5.705   2.535   1.080  1.00  0.00    -0.009 A 
HETATM   35  C19 UNL     1       6.946   2.715   0.623  1.00  0.00     0.062 A 
HETATM   36  C20 UNL     1       7.442   3.949   1.213  1.00  0.00     0.296 A 
HETATM   37  O3  UNL     1       6.518   4.500   2.012  1.00  0.00    -0.294 OA
HETATM   38  O4  UNL     1       8.545   4.393   0.996  1.00  0.00    -0.259 OA
HETATM   39  C21 UNL     1       5.344   3.668   2.004  1.00  0.00     0.175 A 
ENDBRANCH  17  34
TORSDOF 4
