REMARK  4 active torsions:
REMARK  status: ('A' for Active; 'I' for Inactive)
REMARK    1  A    between atoms: C2_2  and  O4_15 
REMARK    2  A    between atoms: C4_4  and  O3_13 
REMARK    3  A    between atoms: C5_5  and  C7_8 
REMARK    4  A    between atoms: C7_8  and  C8_9 
ROOT
HETATM    1  C1  UNL     1       1.894   0.529  -0.041  1.00  0.00     0.026 A 
HETATM    2  C2  UNL     1       2.258  -0.819   0.126  1.00  0.00     0.094 A 
HETATM    3  C3  UNL     1       1.259  -1.694   0.568  1.00  0.00     0.048 A 
HETATM    4  C4  UNL     1      -0.069  -1.327   0.840  1.00  0.00     0.101 A 
HETATM    5  C5  UNL     1      -0.381   0.023   0.621  1.00  0.00     0.082 A 
HETATM    6  C6  UNL     1       0.578   0.952   0.192  1.00  0.00     0.134 A 
HETATM    7  O1  UNL     1       0.246   2.264   0.088  1.00  0.00    -0.190 OA
HETATM    8  C13 UNL     1       2.965   1.506  -0.480  1.00  0.00     0.035 C 
ENDROOT
BRANCH   5   9
HETATM    9  C7  UNL     1      -1.755   0.569   0.943  1.00  0.00     0.176 C 
HETATM   10  O2  UNL     1      -2.138   0.592   2.104  1.00  0.00    -0.291 OA
BRANCH   9  11
HETATM   11  C8  UNL     1      -2.662   1.066  -0.183  1.00  0.00     0.062 C 
HETATM   12  C9  UNL     1      -2.934   2.576  -0.083  1.00  0.00     0.008 C 
HETATM   13  C10 UNL     1      -2.217   0.676  -1.603  1.00  0.00     0.008 C 
ENDBRANCH   9  11
ENDBRANCH   5   9
BRANCH   4  14
HETATM   14  O3  UNL     1      -0.933  -2.305   1.275  1.00  0.00    -0.328 OA
HETATM   15  C11 UNL     1      -2.198  -2.402   0.661  1.00  0.00     0.181 C 
ENDBRANCH   4  14
BRANCH   2  16
HETATM   16  O4  UNL     1       3.563  -1.176  -0.116  1.00  0.00    -0.328 OA
HETATM   17  C12 UNL     1       3.969  -2.500   0.136  1.00  0.00     0.181 C 
ENDBRANCH   2  16
TORSDOF 4
