REMARK  5 active torsions:
REMARK  status: ('A' for Active; 'I' for Inactive)
REMARK    1  A    between atoms: C15_16  and  C18_20 
REMARK    2  A    between atoms: C18_20  and  C20_22 
REMARK    3  A    between atoms: C20_22  and  C21_23 
REMARK    4  A    between atoms: C21_23  and  C22_24 
REMARK    5  A    between atoms: C23_25  and  C24_26 
ROOT
HETATM    1  C1  UNL     1      -3.901  -1.962  -2.129  1.00  0.00     0.069 C 
HETATM    2  C2  UNL     1      -3.794  -3.473  -2.123  1.00  0.00     0.169 C 
HETATM    3  C3  UNL     1      -2.444  -4.101  -2.108  1.00  0.00     0.005 C 
HETATM    4  C4  UNL     1      -1.340  -3.325  -2.210  1.00  0.00    -0.045 C 
HETATM    5  C5  UNL     1      -1.403  -1.807  -2.296  1.00  0.00     0.025 C 
HETATM    6  C6  UNL     1      -2.647  -1.315  -1.541  1.00  0.00     0.013 C 
HETATM    7  C7  UNL     1      -0.082  -1.165  -1.792  1.00  0.00     0.061 C 
HETATM    8  C8  UNL     1       0.493  -1.975  -0.612  1.00  0.00     0.008 C 
HETATM    9  C9  UNL     1       0.881  -3.400  -1.062  1.00  0.00     0.005 C 
HETATM   10  C10 UNL     1       0.072  -3.857  -2.288  1.00  0.00     0.022 C 
HETATM   11  C11 UNL     1       1.577  -1.179   0.150  1.00  0.00     0.003 C 
HETATM   12  C12 UNL     1       0.972   0.159   0.684  1.00  0.00     0.009 C 
HETATM   13  C13 UNL     1       0.672   1.050  -0.532  1.00  0.00     0.065 C 
HETATM   14  C14 UNL     1      -0.145   0.350  -1.611  1.00  0.00     0.150 C 
HETATM   15  O1  UNL     1      -0.790   1.024  -2.383  1.00  0.00    -0.296 OA
HETATM   16  C15 UNL     1       2.066   0.653   1.675  1.00  0.00     0.031 C 
HETATM   17  C16 UNL     1       2.504  -0.663   2.348  1.00  0.00     0.152 C 
HETATM   18  C17 UNL     1       2.061  -1.833   1.458  1.00  0.00     0.033 C 
HETATM   19  O2  UNL     1       3.903  -0.694   2.505  1.00  0.00    -0.224 OA
HETATM   20  C26 UNL     1      -0.362  -0.019   1.453  1.00  0.00     0.001 C 
HETATM   21  C27 UNL     1       2.826  -0.984  -0.755  1.00  0.00     0.000 C 
HETATM   22  C28 UNL     1      -2.422  -5.608  -1.988  1.00  0.00     0.033 C 
HETATM   23  O5  UNL     1      -4.814  -4.151  -2.129  1.00  0.00    -0.292 OA
ENDROOT
BRANCH  16  24
HETATM   24  C18 UNL     1       1.759   1.813   2.662  1.00  0.00     0.003 C 
HETATM   25  C19 UNL     1       2.903   2.017   3.678  1.00  0.00     0.000 C 
BRANCH  24  26
HETATM   26  C20 UNL     1       1.502   3.159   1.938  1.00  0.00     0.005 C 
BRANCH  26  27
HETATM   27  C21 UNL     1       0.119   3.779   2.206  1.00  0.00     0.026 C 
BRANCH  27  28
HETATM   28  C22 UNL     1      -0.230   4.795   1.143  1.00  0.00    -0.024 C 
HETATM   29  C23 UNL     1      -1.220   4.715   0.225  1.00  0.00     0.038 C 
HETATM   30  C25 UNL     1      -2.211   3.579   0.097  1.00  0.00     0.037 C 
BRANCH  29  31
HETATM   31  C24 UNL     1      -1.373   5.816  -0.764  1.00  0.00     0.206 C 
HETATM   32  O3  UNL     1      -2.334   5.794  -1.712  1.00  0.00    -0.644 OA
HETATM   33  O4  UNL     1      -0.630   6.791  -0.767  1.00  0.00    -0.644 OA
ENDBRANCH  29  31
ENDBRANCH  27  28
ENDBRANCH  26  27
ENDBRANCH  24  26
ENDBRANCH  16  24
TORSDOF 5
