REMARK  5 active torsions:
REMARK  status: ('A' for Active; 'I' for Inactive)
REMARK    1  A    between atoms: C13_15  and  C20_25 
REMARK    2  A    between atoms: C14_16  and  C16_18 
REMARK    3  A    between atoms: C16_18  and  C17_19 
REMARK    4  A    between atoms: C16_18  and  C18_21 
REMARK    5  A    between atoms: C18_21  and  O2_22 
ROOT
HETATM    1  C1  UNL     1       6.690  -0.858  -0.641  1.00  0.00     0.000 A 
HETATM    2  C2  UNL     1       6.694   0.564  -0.666  1.00  0.00     0.002 A 
HETATM    3  C3  UNL     1       5.471   1.281  -0.721  1.00  0.00     0.019 A 
HETATM    4  C4  UNL     1       4.262   0.547  -0.748  1.00  0.00     0.081 A 
HETATM    5  C5  UNL     1       4.256  -0.828  -0.725  1.00  0.00     0.015 A 
HETATM    6  C6  UNL     1       5.461  -1.570  -0.670  1.00  0.00     0.001 A 
HETATM    7  C7  UNL     1       3.000  -1.326  -0.756  1.00  0.00    -0.003 A 
HETATM    8  C8  UNL     1       2.147  -0.221  -0.803  1.00  0.00     0.086 A 
HETATM    9  N1  UNL     1       2.934   0.957  -0.799  1.00  0.00    -0.248 NA
HETATM   10  C9  UNL     1       0.627  -0.330  -0.855  1.00  0.00     0.259 C 
HETATM   11  N2  UNL     1       0.188  -1.711  -0.517  1.00  0.00     0.141 N 
HETATM   12  C10 UNL     1       0.983  -2.779  -1.172  1.00  0.00     0.255 C 
HETATM   13  C11 UNL     1       2.475  -2.750  -0.744  1.00  0.00     0.063 C 
HETATM   14  C12 UNL     1      -1.264  -1.885  -0.674  1.00  0.00     0.255 C 
HETATM   15  C13 UNL     1      -2.035  -0.912   0.238  1.00  0.00     0.056 C 
HETATM   16  C14 UNL     1      -1.599   0.551   0.008  1.00  0.00     0.020 C 
HETATM   17  C15 UNL     1      -0.070   0.678   0.082  1.00  0.00     0.041 C 
ENDROOT
BRANCH  16  18
HETATM   18  C16 UNL     1      -2.273   1.512   0.994  1.00  0.00     0.120 C 
BRANCH  18  19
HETATM   19  C17 UNL     1      -1.537   2.846   1.115  1.00  0.00     0.192 C 
HETATM   20  O1  UNL     1      -2.256   3.668   2.004  1.00  0.00    -0.220 OA
ENDBRANCH  18  19
BRANCH  18  21
HETATM   21  C18 UNL     1      -3.740   1.689   0.713  1.00  0.00     0.274 C 
HETATM   22  O3  UNL     1      -4.137   1.904  -0.410  1.00  0.00    -0.264 OA
BRANCH  21  23
HETATM   23  O2  UNL     1      -4.537   1.592   1.774  1.00  0.00    -0.299 OA
HETATM   24  C19 UNL     1      -5.904   1.777   1.442  1.00  0.00     0.184 C 
ENDBRANCH  21  23
ENDBRANCH  18  21
ENDBRANCH  16  18
BRANCH  15  25
HETATM   25  C20 UNL     1      -3.523  -1.082   0.053  1.00  0.00    -0.024 C 
HETATM   26  C21 UNL     1      -4.256  -1.508   1.096  1.00  0.00    -0.005 C 
ENDBRANCH  15  25
TORSDOF 5
