REMARK  3 active torsions:
REMARK  status: ('A' for Active; 'I' for Inactive)
REMARK    1  A    between atoms: C2_2  and  O4_18 
REMARK    2  A    between atoms: C3_3  and  O3_16 
REMARK    3  A    between atoms: C7_7  and  O2_14 
ROOT
HETATM    1  C1  UNL     1      -2.189   0.598  -0.490  1.00  0.00     0.026 A 
HETATM    2  C2  UNL     1      -2.111   0.602   0.918  1.00  0.00     0.118 A 
HETATM    3  C3  UNL     1      -0.871   0.395   1.566  1.00  0.00     0.134 A 
HETATM    4  C4  UNL     1       0.311   0.180   0.809  1.00  0.00     0.110 A 
HETATM    5  C5  UNL     1       0.227   0.178  -0.645  1.00  0.00     0.042 A 
HETATM    6  C6  UNL     1      -1.031   0.387  -1.270  1.00  0.00     0.006 A 
HETATM    7  C7  UNL     1       1.408  -0.037  -1.453  1.00  0.00     0.099 A 
HETATM    8  C8  UNL     1       2.621  -0.236  -0.738  1.00  0.00     0.066 A 
HETATM    9  C9  UNL     1       2.574  -0.211   0.619  1.00  0.00     0.184 A 
HETATM   10  N1  UNL     1       1.525  -0.021   1.463  1.00  0.00    -0.220 NA
HETATM   11  O1  UNL     1       3.871  -0.426   1.078  1.00  0.00    -0.287 OA
HETATM   12  C10 UNL     1       4.668  -0.576  -0.094  1.00  0.00     0.125 A 
HETATM   13  C11 UNL     1       3.858  -0.453  -1.236  1.00  0.00     0.032 A 
ENDROOT
BRANCH   2  14
HETATM   14  O4  UNL     1      -3.221   0.803   1.643  1.00  0.00    -0.326 OA
HETATM   15  C14 UNL     1      -4.406   1.178   0.955  1.00  0.00     0.181 C 
ENDBRANCH   2  14
BRANCH   3  16
HETATM   16  O3  UNL     1      -0.832   0.402   2.908  1.00  0.00    -0.325 OA
HETATM   17  C13 UNL     1      -1.820  -0.342   3.609  1.00  0.00     0.182 C 
ENDBRANCH   3  16
BRANCH   7  18
HETATM   18  O2  UNL     1       1.250  -0.029  -2.787  1.00  0.00    -0.328 OA
HETATM   19  C12 UNL     1       2.053  -0.908  -3.559  1.00  0.00     0.181 C 
ENDBRANCH   7  18
TORSDOF 3
