REMARK  3 active torsions:
REMARK  status: ('A' for Active; 'I' for Inactive)
REMARK    1  A    between atoms: C2_2  and  O3_12 
REMARK    2  A    between atoms: O3_12  and  C10_13 
REMARK    3  A    between atoms: C11_15  and  C15_22 
ROOT
HETATM    1  O3  UNL     1       0.287   1.537  -0.543  1.00  0.00    -0.304 OA
ENDROOT
BRANCH   1   2
HETATM    2  C2  UNL     1      -0.904   0.996  -0.830  1.00  0.00     0.099 A 
HETATM    3  C1  UNL     1      -0.979  -0.328  -1.326  1.00  0.00     0.024 A 
HETATM    4  C6  UNL     1      -2.236  -0.902  -1.631  1.00  0.00     0.004 A 
HETATM    5  C5  UNL     1      -3.416  -0.146  -1.434  1.00  0.00     0.023 A 
HETATM    6  C4  UNL     1      -3.348   1.184  -0.940  1.00  0.00     0.105 A 
HETATM    7  C7  UNL     1      -4.750  -0.721  -1.742  1.00  0.00     0.007 A 
HETATM    8  C3  UNL     1      -2.086   1.752  -0.637  1.00  0.00     0.049 A 
HETATM    9  O1  UNL     1      -4.477   1.904  -0.754  1.00  0.00    -0.273 OA
HETATM   10  C9  UNL     1      -5.707   1.420  -1.022  1.00  0.00     0.300 A 
HETATM   11  C8  UNL     1      -5.846   0.039  -1.539  1.00  0.00     0.069 A 
HETATM   12  O2  UNL     1      -6.707   2.076  -0.852  1.00  0.00    -0.259 OA
ENDBRANCH   1   2
BRANCH   1  13
HETATM   13  C10 UNL     1       1.377   0.658  -0.299  1.00  0.00     0.274 C 
HETATM   14  O4  UNL     1       1.018  -0.234   0.746  1.00  0.00    -0.326 OA
HETATM   15  C11 UNL     1       2.004  -1.209   1.066  1.00  0.00     0.184 C 
HETATM   16  C12 UNL     1       3.289  -0.500   1.553  1.00  0.00     0.215 C 
HETATM   17  C13 UNL     1       3.787   0.531   0.518  1.00  0.00     0.220 C 
HETATM   18  O7  UNL     1       4.289  -1.478   1.777  1.00  0.00    -0.218 OA
HETATM   19  C14 UNL     1       2.627   1.467   0.113  1.00  0.00     0.241 C 
HETATM   20  O6  UNL     1       4.848   1.295   1.070  1.00  0.00    -0.218 OA
HETATM   21  O5  UNL     1       3.018   2.281  -0.979  1.00  0.00    -0.215 OA
BRANCH  15  22
HETATM   22  C15 UNL     1       1.389  -2.125   2.129  1.00  0.00     0.214 C 
HETATM   23  O8  UNL     1       0.344  -2.857   1.529  1.00  0.00    -0.218 OA
ENDBRANCH  15  22
ENDBRANCH   1  13
TORSDOF 3
