REMARK  2 active torsions:
REMARK  status: ('A' for Active; 'I' for Inactive)
REMARK    1  A    between atoms: C6_7  and  O1_10 
REMARK    2  A    between atoms: O1_10  and  C9_11 
ROOT
HETATM    1  C1  UNL     1      -2.664   0.724  -0.479  1.00  0.00     0.043 C 
HETATM    2  C2  UNL     1      -2.814  -0.717   0.053  1.00  0.00     0.335 C 
HETATM    3  C3  UNL     1      -1.705  -1.641  -0.494  1.00  0.00     0.289 C 
HETATM    4  N1  UNL     1      -0.394  -1.024  -0.273  1.00  0.00     0.140 N 
HETATM    5  C4  UNL     1      -0.258   0.281  -0.904  1.00  0.00     0.247 C 
HETATM    6  C5  UNL     1      -1.238   1.279  -0.279  1.00  0.00     0.038 C 
HETATM    7  C6  UNL     1       1.227   0.596  -0.771  1.00  0.00     0.158 C 
HETATM    8  C7  UNL     1       1.828  -0.768  -1.127  1.00  0.00     0.068 C 
HETATM    9  C8  UNL     1       0.791  -1.787  -0.639  1.00  0.00     0.253 C 
HETATM   10  N2  UNL     1      -2.797  -0.715   1.514  1.00  0.00     0.618 N 
ENDROOT
BRANCH   7  11
HETATM   11  O1  UNL     1       1.549   0.935   0.572  1.00  0.00    -0.302 OA
BRANCH  11  12
HETATM   12  C9  UNL     1       2.809   1.340   0.703  1.00  0.00     0.272 C 
HETATM   13  C10 UNL     1       3.229   1.682   2.109  1.00  0.00     0.106 C 
HETATM   14  O2  UNL     1       3.586   1.433  -0.217  1.00  0.00    -0.264 OA
ENDBRANCH  11  12
ENDBRANCH   7  11
TORSDOF 2
