REMARK  0 active torsions:
REMARK  status: ('A' for Active; 'I' for Inactive)
ROOT
HETATM    1  C1  UNL     1      -5.549  -0.824  -1.623  1.00  0.00     0.033 C 
HETATM    2  C2  UNL     1      -5.018  -2.270  -1.744  1.00  0.00     0.152 C 
HETATM    3  C3  UNL     1      -3.986  -2.625  -0.647  1.00  0.00     0.033 C 
HETATM    4  C4  UNL     1      -4.147  -1.715   0.586  1.00  0.00     0.003 C 
HETATM    5  C5  UNL     1      -3.850  -0.225   0.232  1.00  0.00     0.000 C 
HETATM    6  C6  UNL     1      -4.440   0.131  -1.166  1.00  0.00     0.003 C 
HETATM    7  C7  UNL     1      -2.316   0.058   0.215  1.00  0.00     0.000 C 
HETATM    8  C8  UNL     1      -1.605  -0.440   1.486  1.00  0.00     0.000 C 
HETATM    9  C9  UNL     1      -1.859  -1.938   1.705  1.00  0.00     0.000 C 
HETATM   10  C10 UNL     1      -3.359  -2.219   1.809  1.00  0.00     0.000 C 
HETATM   11  C11 UNL     1      -0.094  -0.143   1.471  1.00  0.00     0.003 C 
HETATM   12  C12 UNL     1       0.279   1.324   1.148  1.00  0.00     0.003 C 
HETATM   13  C13 UNL     1      -0.477   1.793  -0.111  1.00  0.00     0.000 C 
HETATM   14  C14 UNL     1      -1.986   1.543  -0.020  1.00  0.00     0.000 C 
HETATM   15  C15 UNL     1       1.824   1.213   1.041  1.00  0.00     0.032 C 
HETATM   16  C16 UNL     1       2.084  -0.244   0.660  1.00  0.00     0.118 C 
HETATM   17  C17 UNL     1       0.736  -0.922   0.445  1.00  0.00     0.030 C 
HETATM   18  O1  UNL     1       2.867  -0.180  -0.504  1.00  0.00    -0.337 OA
HETATM   19  C18 UNL     1       3.705   0.959  -0.451  1.00  0.00     0.187 C 
HETATM   20  C19 UNL     1       2.736   2.041   0.090  1.00  0.00     0.054 C 
HETATM   21  C20 UNL     1       2.023   2.805  -1.025  1.00  0.00     0.005 C 
HETATM   22  O2  UNL     1       4.236   1.307  -1.734  1.00  0.00    -0.335 OA
HETATM   23  C21 UNL     1       5.113   0.350  -2.320  1.00  0.00     0.145 C 
HETATM   24  C22 UNL     1       6.334   0.117  -1.412  1.00  0.00     0.030 C 
HETATM   25  C23 UNL     1       5.881  -0.277   0.000  1.00  0.00     0.007 C 
HETATM   26  C24 UNL     1       4.877   0.750   0.539  1.00  0.00     0.056 C 
HETATM   27  C25 UNL     1       7.281  -0.930  -2.006  1.00  0.00     0.003 C 
HETATM   28  C26 UNL     1      -0.070   2.211   2.346  1.00  0.00     0.000 C 
HETATM   29  C27 UNL     1      -4.527   0.650   1.299  1.00  0.00     0.000 C 
HETATM   30  O3  UNL     1      -6.117  -3.158  -1.672  1.00  0.00    -0.224 OA
ENDROOT
TORSDOF 0
