REMARK  3 active torsions:
REMARK  status: ('A' for Active; 'I' for Inactive)
REMARK    1  A    between atoms: C7_8  and  C16_23 
REMARK    2  A    between atoms: C8_9  and  O3_12 
REMARK    3  A    between atoms: O3_12  and  C10_13 
ROOT
HETATM    1  C1  UNL     1       5.361  -1.076   0.543  1.00  0.00     0.135 A 
HETATM    2  C2  UNL     1       5.354   0.336   0.475  1.00  0.00     0.055 A 
HETATM    3  C3  UNL     1       4.137   1.047   0.602  1.00  0.00     0.138 A 
HETATM    4  C4  UNL     1       2.922   0.338   0.793  1.00  0.00     0.085 A 
HETATM    5  C5  UNL     1       2.936  -1.080   0.897  1.00  0.00     0.101 A 
HETATM    6  C6  UNL     1       4.154  -1.781   0.752  1.00  0.00     0.052 A 
HETATM    7  O1  UNL     1       1.805  -1.777   1.133  1.00  0.00    -0.326 OA
HETATM    8  C7  UNL     1       0.658  -1.123   1.686  1.00  0.00     0.178 C 
HETATM    9  C8  UNL     1       0.375   0.205   0.940  1.00  0.00     0.211 C 
HETATM   10  C9  UNL     1       1.619   1.066   0.877  1.00  0.00     0.207 C 
HETATM   11  O2  UNL     1       1.461   2.268   0.895  1.00  0.00    -0.288 OA
HETATM   12  O10 UNL     1       4.150   2.387   0.525  1.00  0.00    -0.190 OA
HETATM   13  O11 UNL     1       6.516  -1.746   0.412  1.00  0.00    -0.190 OA
ENDROOT
BRANCH   9  14
HETATM   14  O3  UNL     1      -0.061  -0.047  -0.385  1.00  0.00    -0.321 OA
BRANCH  14  15
HETATM   15  C10 UNL     1      -0.711   1.063  -0.978  1.00  0.00     0.270 C 
HETATM   16  C11 UNL     1      -0.920   0.805  -2.502  1.00  0.00     0.241 C 
HETATM   17  C12 UNL     1      -2.219   1.469  -3.043  1.00  0.00     0.220 C 
HETATM   18  O7  UNL     1       0.240   1.279  -3.170  1.00  0.00    -0.215 OA
HETATM   19  C13 UNL     1      -2.522   2.756  -2.242  1.00  0.00     0.212 C 
HETATM   20  O6  UNL     1      -2.162   1.717  -4.441  1.00  0.00    -0.218 OA
HETATM   21  C14 UNL     1      -2.639   2.473  -0.717  1.00  0.00     0.151 C 
HETATM   22  O5  UNL     1      -3.725   3.359  -2.689  1.00  0.00    -0.218 OA
HETATM   23  O4  UNL     1      -1.965   1.272  -0.346  1.00  0.00    -0.329 OA
HETATM   24  C15 UNL     1      -2.082   3.619   0.137  1.00  0.00     0.035 C 
ENDBRANCH  14  15
ENDBRANCH   9  14
BRANCH   8  25
HETATM   25  C16 UNL     1      -0.494  -2.068   1.711  1.00  0.00     0.012 A 
HETATM   26  C17 UNL     1      -0.666  -2.996   0.666  1.00  0.00     0.026 A 
HETATM   27  C18 UNL     1      -1.752  -3.889   0.688  1.00  0.00     0.133 A 
HETATM   28  C19 UNL     1      -2.664  -3.852   1.756  1.00  0.00     0.055 A 
HETATM   29  O9  UNL     1      -1.912  -4.758  -0.291  1.00  0.00    -0.190 OA
HETATM   30  C20 UNL     1      -2.498  -2.926   2.801  1.00  0.00     0.133 A 
HETATM   31  C21 UNL     1      -1.410  -2.035   2.776  1.00  0.00     0.026 A 
HETATM   32  O8  UNL     1      -3.358  -2.895   3.801  1.00  0.00    -0.190 OA
ENDBRANCH   8  25
TORSDOF 3
