REMARK  0 active torsions:
REMARK  status: ('A' for Active; 'I' for Inactive)
ROOT
HETATM    1  C1  UNL     1       6.193   1.291  -1.227  1.00  0.00     0.033 C 
HETATM    2  C2  UNL     1       6.674   1.668   0.182  1.00  0.00     0.152 C 
HETATM    3  C3  UNL     1       6.008   0.797   1.258  1.00  0.00     0.033 C 
HETATM    4  C4  UNL     1       4.473   0.865   1.150  1.00  0.00     0.003 C 
HETATM    5  C5  UNL     1       3.965   0.449  -0.260  1.00  0.00     0.000 C 
HETATM    6  C6  UNL     1       4.658   1.332  -1.324  1.00  0.00     0.003 C 
HETATM    7  C7  UNL     1       2.420   0.623  -0.301  1.00  0.00     0.000 C 
HETATM    8  C8  UNL     1       1.746  -0.227   0.816  1.00  0.00     0.000 C 
HETATM    9  C9  UNL     1       2.262   0.176   2.205  1.00  0.00     0.000 C 
HETATM   10  C10 UNL     1       3.789   0.068   2.277  1.00  0.00     0.000 C 
HETATM   11  C11 UNL     1       0.238   0.016   0.689  1.00  0.00     0.003 C 
HETATM   12  C12 UNL     1      -0.283  -0.537  -0.664  1.00  0.00     0.003 C 
HETATM   13  C13 UNL     1       0.240   0.441  -1.721  1.00  0.00     0.000 C 
HETATM   14  C14 UNL     1       1.791   0.391  -1.703  1.00  0.00     0.000 C 
HETATM   15  C15 UNL     1      -1.789  -0.725  -0.369  1.00  0.00     0.032 C 
HETATM   16  C16 UNL     1      -1.977   0.019   0.934  1.00  0.00     0.117 C 
HETATM   17  C17 UNL     1      -0.775  -0.469   1.742  1.00  0.00     0.030 C 
HETATM   18  O1  UNL     1      -3.270  -0.375   1.293  1.00  0.00    -0.333 OA
HETATM   19  C18 UNL     1      -4.082  -0.342   0.121  1.00  0.00     0.320 C 
HETATM   20  C19 UNL     1      -3.063  -0.231  -1.068  1.00  0.00     0.061 C 
HETATM   21  C20 UNL     1      -2.854   1.172  -1.648  1.00  0.00     0.005 C 
HETATM   22  N1  UNL     1      -4.994   0.828   0.158  1.00  0.00     0.362 N 
HETATM   23  C21 UNL     1      -6.324   0.549   0.701  1.00  0.00     0.293 C 
HETATM   24  C22 UNL     1      -7.072  -0.481  -0.174  1.00  0.00     0.036 C 
HETATM   25  C23 UNL     1      -6.119  -1.533  -0.779  1.00  0.00     0.007 C 
HETATM   26  C24 UNL     1      -4.850  -1.688   0.066  1.00  0.00     0.063 C 
HETATM   27  C25 UNL     1      -8.205  -1.137   0.623  1.00  0.00     0.002 C 
HETATM   28  C26 UNL     1       0.225  -1.957  -0.967  1.00  0.00     0.000 C 
HETATM   29  C27 UNL     1       4.320  -1.022  -0.537  1.00  0.00     0.000 C 
HETATM   30  O2  UNL     1       8.076   1.514   0.256  1.00  0.00    -0.224 OA
ENDROOT
TORSDOF 0
