REMARK  0 active torsions:
REMARK  status: ('A' for Active; 'I' for Inactive)
ROOT
HETATM    1  C1  UNL     1      -6.043  -0.451  -1.689  1.00  0.00     0.039 C 
HETATM    2  C2  UNL     1      -6.611  -1.006  -0.373  1.00  0.00     0.302 C 
HETATM    3  C3  UNL     1      -6.002  -0.279   0.836  1.00  0.00     0.039 C 
HETATM    4  C4  UNL     1      -4.463  -0.330   0.807  1.00  0.00     0.002 C 
HETATM    5  C5  UNL     1      -3.877   0.273  -0.500  1.00  0.00     0.000 C 
HETATM    6  C6  UNL     1      -4.506  -0.469  -1.705  1.00  0.00     0.002 C 
HETATM    7  C7  UNL     1      -2.326   0.115  -0.484  1.00  0.00     0.000 C 
HETATM    8  C8  UNL     1      -1.707   0.748   0.779  1.00  0.00     0.000 C 
HETATM    9  C9  UNL     1      -2.326   0.180   2.066  1.00  0.00     0.000 C 
HETATM   10  C10 UNL     1      -3.852   0.313   2.063  1.00  0.00     0.000 C 
HETATM   11  C11 UNL     1      -0.168   0.668   0.840  1.00  0.00     0.003 C 
HETATM   12  C12 UNL     1       0.588   0.975  -0.480  1.00  0.00     0.002 C 
HETATM   13  C13 UNL     1      -0.135   0.389  -1.711  1.00  0.00     0.000 C 
HETATM   14  C14 UNL     1      -1.633   0.697  -1.730  1.00  0.00     0.000 C 
HETATM   15  C15 UNL     1       1.943   0.234  -0.324  1.00  0.00     0.029 C 
HETATM   16  C16 UNL     1       1.934  -0.180   1.145  1.00  0.00     0.118 C 
HETATM   17  C17 UNL     1       0.486  -0.633   1.324  1.00  0.00     0.030 C 
HETATM   18  O1  UNL     1       2.912  -1.188   1.377  1.00  0.00    -0.334 OA
HETATM   19  C18 UNL     1       4.252  -0.748   1.137  1.00  0.00     0.252 C 
HETATM   20  C19 UNL     1       4.352  -0.189  -0.314  1.00  0.00     0.310 C 
HETATM   21  C20 UNL     1       3.297   0.904  -0.629  1.00  0.00     0.042 C 
HETATM   22  C21 UNL     1       3.316   1.338  -2.102  1.00  0.00     0.002 C 
HETATM   23  N1  UNL     1       5.725   0.244  -0.617  1.00  0.00     0.342 N 
HETATM   24  C22 UNL     1       6.693  -0.855  -0.492  1.00  0.00     0.290 C 
HETATM   25  C23 UNL     1       6.664  -1.514   0.904  1.00  0.00     0.041 C 
HETATM   26  C24 UNL     1       5.233  -1.922   1.313  1.00  0.00     0.064 C 
HETATM   27  C25 UNL     1       7.621  -2.709   0.971  1.00  0.00     0.002 C 
HETATM   28  O2  UNL     1       4.604   0.252   2.086  1.00  0.00    -0.193 OA
HETATM   29  C26 UNL     1       0.760   2.490  -0.594  1.00  0.00     0.000 C 
HETATM   30  C27 UNL     1      -4.244   1.766  -0.598  1.00  0.00     0.000 C 
HETATM   31  N2  UNL     1      -8.063  -0.889  -0.357  1.00  0.00     0.616 N 
ENDROOT
TORSDOF 0
