REMARK  4 active torsions:
REMARK  status: ('A' for Active; 'I' for Inactive)
REMARK    1  A    between atoms: C2_2  and  O4_27 
REMARK    2  A    between atoms: C15_15  and  C18_18 
REMARK    3  A    between atoms: O4_27  and  C24_28 
REMARK    4  A    between atoms: C27_32  and  O6_34 
ROOT
HETATM    1  C1  UNL     1       2.080  -0.523  -0.965  1.00  0.00     0.030 C 
HETATM    2  C2  UNL     1       2.621   0.783  -0.369  1.00  0.00     0.120 C 
HETATM    3  C3  UNL     1       2.037   1.029   1.027  1.00  0.00     0.030 C 
HETATM    4  C4  UNL     1       0.494   1.031   1.031  1.00  0.00     0.002 C 
HETATM    5  C5  UNL     1      -0.123  -0.228   0.354  1.00  0.00     0.000 C 
HETATM    6  C6  UNL     1       0.547  -0.496  -1.020  1.00  0.00     0.003 C 
HETATM    7  C7  UNL     1      -1.668  -0.057   0.125  1.00  0.00     0.002 C 
HETATM    8  C8  UNL     1      -2.289   1.059   0.998  1.00  0.00     0.028 C 
HETATM    9  C9  UNL     1      -1.607   2.424   0.725  1.00  0.00     0.002 C 
HETATM   10  C10 UNL     1      -0.098   2.318   0.447  1.00  0.00     0.000 C 
HETATM   11  C11 UNL     1      -3.832   1.170   0.852  1.00  0.00     0.127 C 
HETATM   12  C12 UNL     1      -4.574  -0.187   0.936  1.00  0.00     0.029 C 
HETATM   13  C13 UNL     1      -3.941  -1.213  -0.027  1.00  0.00     0.003 C 
HETATM   14  C14 UNL     1      -2.447  -1.381   0.262  1.00  0.00     0.000 C 
HETATM   15  C15 UNL     1      -5.998   0.188   0.482  1.00  0.00     0.023 C 
HETATM   16  C16 UNL     1      -5.762   1.154  -0.682  1.00  0.00     0.007 C 
HETATM   17  C17 UNL     1      -4.348   1.715  -0.492  1.00  0.00     0.031 C 
HETATM   18  C22 UNL     1      -4.619  -0.746   2.363  1.00  0.00     0.003 C 
HETATM   19  O3  UNL     1      -4.295   2.043   1.877  1.00  0.00    -0.226 OA
HETATM   20  C23 UNL     1       0.178  -1.424   1.277  1.00  0.00     0.000 C 
ENDROOT
BRANCH   2  21
HETATM   21  O4  UNL     1       4.029   0.709  -0.281  1.00  0.00    -0.314 OA
BRANCH  21  22
HETATM   22  C24 UNL     1       4.652   0.469  -1.525  1.00  0.00     0.326 C 
HETATM   23  O5  UNL     1       4.746  -0.924  -1.840  1.00  0.00    -0.311 OA
HETATM   24  C25 UNL     1       5.629  -1.721  -1.041  1.00  0.00     0.153 C 
HETATM   25  C26 UNL     1       7.061  -1.135  -1.035  1.00  0.00     0.206 C 
HETATM   26  C30 UNL     1       5.053  -1.895   0.371  1.00  0.00     0.035 C 
HETATM   27  C27 UNL     1       7.045   0.361  -0.654  1.00  0.00     0.156 C 
HETATM   28  O7  UNL     1       7.637  -1.326  -2.320  1.00  0.00    -0.218 OA
HETATM   29  C28 UNL     1       6.055   1.129  -1.543  1.00  0.00     0.123 C 
HETATM   30  O8  UNL     1       3.859   1.086  -2.516  1.00  0.00    -0.165 OA
BRANCH  27  31
HETATM   31  O6  UNL     1       8.336   0.939  -0.750  1.00  0.00    -0.351 OA
HETATM   32  C29 UNL     1       8.395   2.252  -0.242  1.00  0.00     0.174 C 
ENDBRANCH  27  31
ENDBRANCH  21  22
ENDBRANCH   2  21
BRANCH  15  33
HETATM   33  C18 UNL     1      -6.897  -0.975   0.133  1.00  0.00    -0.009 A 
HETATM   34  C19 UNL     1      -7.522  -1.166  -1.029  1.00  0.00     0.062 A 
HETATM   35  C20 UNL     1      -8.270  -2.408  -0.912  1.00  0.00     0.296 A 
HETATM   36  O1  UNL     1      -8.096  -2.955   0.299  1.00  0.00    -0.294 OA
HETATM   37  O2  UNL     1      -8.947  -2.861  -1.805  1.00  0.00    -0.259 OA
HETATM   38  C21 UNL     1      -7.221  -2.109   1.066  1.00  0.00     0.175 A 
ENDBRANCH  15  33
TORSDOF 4
