REMARK  1 active torsions:
REMARK  status: ('A' for Active; 'I' for Inactive)
REMARK    1  A    between atoms: C3_3  and  C29_30 
ROOT
HETATM    1  C1  UNL     1       4.998  -0.365  -1.670  1.00  0.00     0.033 C 
HETATM    2  C2  UNL     1       5.777  -0.352  -0.348  1.00  0.00     0.154 C 
HETATM    3  C3  UNL     1       5.092   0.553   0.725  1.00  0.00     0.059 C 
HETATM    4  C4  UNL     1       3.559   0.721   0.455  1.00  0.00     0.005 C 
HETATM    5  C5  UNL     1       2.881  -0.537  -0.152  1.00  0.00     0.001 C 
HETATM    6  C6  UNL     1       3.557  -0.889  -1.512  1.00  0.00     0.003 C 
HETATM    7  C7  UNL     1       1.355  -0.283  -0.395  1.00  0.00     0.005 C 
HETATM    8  C8  UNL     1       0.580   0.275   0.830  1.00  0.00     0.004 C 
HETATM    9  C9  UNL     1       1.324   1.516   1.383  1.00  0.00     0.000 C 
HETATM   10  C10 UNL     1       2.797   1.242   1.689  1.00  0.00     0.000 C 
HETATM   11  C11 UNL     1      -0.885   0.648   0.404  1.00  0.00     0.015 C 
HETATM   12  C12 UNL     1      -1.568  -0.477  -0.373  1.00  0.00    -0.049 C 
HETATM   13  C13 UNL     1      -0.857  -1.447  -0.990  1.00  0.00    -0.035 C 
HETATM   14  C14 UNL     1       0.646  -1.539  -0.947  1.00  0.00     0.025 C 
HETATM   15  C15 UNL     1      -3.088  -0.516  -0.484  1.00  0.00     0.018 C 
HETATM   16  C16 UNL     1      -3.867  -0.018   0.766  1.00  0.00     0.006 C 
HETATM   17  C17 UNL     1      -3.209   1.250   1.342  1.00  0.00     0.001 C 
HETATM   18  C18 UNL     1      -1.725   1.043   1.646  1.00  0.00     0.004 C 
HETATM   19  C19 UNL     1      -5.346   0.307   0.414  1.00  0.00     0.033 C 
HETATM   20  C20 UNL     1      -5.836  -0.484  -0.811  1.00  0.00     0.152 C 
HETATM   21  C21 UNL     1      -5.053  -0.106  -2.102  1.00  0.00     0.029 C 
HETATM   22  C22 UNL     1      -3.570   0.203  -1.760  1.00  0.00     0.006 C 
HETATM   23  C23 UNL     1      -5.121  -1.279  -3.084  1.00  0.00     0.003 C 
HETATM   24  C24 UNL     1      -5.647   1.131  -2.799  1.00  0.00     0.003 C 
HETATM   25  O1  UNL     1      -7.231  -0.295  -0.975  1.00  0.00    -0.224 OA
HETATM   26  C25 UNL     1      -3.844  -1.125   1.832  1.00  0.00     0.000 C 
HETATM   27  C26 UNL     1      -0.871   1.840  -0.570  1.00  0.00     0.004 C 
HETATM   28  C27 UNL     1       0.537  -0.801   1.934  1.00  0.00     0.000 C 
HETATM   29  C28 UNL     1       3.068  -1.713   0.824  1.00  0.00     0.000 C 
HETATM   30  C30 UNL     1       5.733   1.947   0.650  1.00  0.00     0.005 C 
HETATM   31  O3  UNL     1       5.924  -1.693   0.086  1.00  0.00    -0.223 OA
ENDROOT
BRANCH   3  32
HETATM   32  C29 UNL     1       5.365   0.037   2.150  1.00  0.00     0.185 C 
HETATM   33  O2  UNL     1       6.750   0.131   2.396  1.00  0.00    -0.221 OA
ENDBRANCH   3  32
TORSDOF 1
