REMARK  1 active torsions:
REMARK  status: ('A' for Active; 'I' for Inactive)
REMARK    1  A    between atoms: C3_3  and  C29_29 
ROOT
HETATM    1  C1  UNL     1      -5.037  -0.842   1.039  1.00  0.00     0.033 C 
HETATM    2  C2  UNL     1      -5.568   0.125  -0.029  1.00  0.00     0.154 C 
HETATM    3  C3  UNL     1      -4.715   0.107  -1.322  1.00  0.00     0.059 C 
HETATM    4  C4  UNL     1      -3.227   0.381  -0.953  1.00  0.00     0.005 C 
HETATM    5  C5  UNL     1      -2.650  -0.576   0.129  1.00  0.00     0.001 C 
HETATM    6  C6  UNL     1      -3.570  -0.543   1.373  1.00  0.00     0.003 C 
HETATM    7  C7  UNL     1      -1.207  -0.111   0.512  1.00  0.00     0.005 C 
HETATM    8  C8  UNL     1      -0.228   0.025  -0.697  1.00  0.00     0.004 C 
HETATM    9  C9  UNL     1      -0.893   0.898  -1.793  1.00  0.00     0.000 C 
HETATM   10  C10 UNL     1      -2.299   0.428  -2.180  1.00  0.00     0.000 C 
HETATM   11  C11 UNL     1       1.121   0.656  -0.197  1.00  0.00     0.015 C 
HETATM   12  C12 UNL     1       1.688  -0.121   0.986  1.00  0.00    -0.049 C 
HETATM   13  C13 UNL     1       0.899  -0.828   1.824  1.00  0.00    -0.035 C 
HETATM   14  C14 UNL     1      -0.592  -0.969   1.639  1.00  0.00     0.025 C 
HETATM   15  C15 UNL     1       3.195  -0.104   1.207  1.00  0.00     0.022 C 
HETATM   16  C16 UNL     1       3.967  -0.651  -0.037  1.00  0.00     0.022 C 
HETATM   17  C17 UNL     1       3.151  -0.477  -1.346  1.00  0.00     0.005 C 
HETATM   18  C18 UNL     1       2.209   0.736  -1.313  1.00  0.00     0.004 C 
HETATM   19  C19 UNL     1       5.342  -0.022  -0.219  1.00  0.00    -0.031 C 
HETATM   20  C20 UNL     1       5.893   0.865   0.633  1.00  0.00    -0.031 C 
HETATM   21  C21 UNL     1       5.190   1.336   1.883  1.00  0.00     0.019 C 
HETATM   22  C22 UNL     1       3.670   1.291   1.660  1.00  0.00     0.008 C 
HETATM   23  C23 UNL     1       5.627   2.771   2.193  1.00  0.00     0.004 C 
HETATM   24  C24 UNL     1       5.602   0.432   3.051  1.00  0.00     0.004 C 
HETATM   25  C25 UNL     1       4.233  -2.151   0.160  1.00  0.00     0.005 C 
HETATM   26  C26 UNL     1       0.858   2.082   0.314  1.00  0.00     0.004 C 
HETATM   27  C27 UNL     1       0.047  -1.363  -1.297  1.00  0.00     0.000 C 
HETATM   28  C28 UNL     1      -2.613  -2.022  -0.395  1.00  0.00     0.000 C 
HETATM   29  C30 UNL     1      -5.217   1.213  -2.264  1.00  0.00     0.005 C 
HETATM   30  O2  UNL     1      -6.918  -0.197  -0.311  1.00  0.00    -0.223 OA
ENDROOT
BRANCH   3  31
HETATM   31  C29 UNL     1      -4.855  -1.235  -2.061  1.00  0.00     0.185 C 
HETATM   32  O1  UNL     1      -6.105  -1.250  -2.711  1.00  0.00    -0.221 OA
ENDBRANCH   3  31
TORSDOF 1
