REMARK  1 active torsions:
REMARK  status: ('A' for Active; 'I' for Inactive)
REMARK    1  A    between atoms: C3_3  and  C30_31 
ROOT
HETATM    1  C1  UNL     1       4.024   1.475   0.803  1.00  0.00     0.033 C 
HETATM    2  C2  UNL     1       3.606   1.816  -0.637  1.00  0.00     0.154 C 
HETATM    3  C3  UNL     1       3.258   0.547  -1.457  1.00  0.00     0.059 C 
HETATM    4  C4  UNL     1       2.199  -0.336  -0.715  1.00  0.00     0.007 C 
HETATM    5  C5  UNL     1       2.568  -0.646   0.772  1.00  0.00     0.000 C 
HETATM    6  C6  UNL     1       2.947   0.654   1.527  1.00  0.00     0.003 C 
HETATM    7  C7  UNL     1       1.385  -1.391   1.475  1.00  0.00     0.003 C 
HETATM    8  C8  UNL     1       1.020  -2.705   0.697  1.00  0.00     0.027 C 
HETATM    9  C9  UNL     1       0.902  -2.635  -0.871  1.00  0.00     0.115 C 
HETATM   10  C10 UNL     1       1.891  -1.633  -1.514  1.00  0.00     0.030 C 
HETATM   11  O1  UNL     1      -0.422  -2.506  -1.436  1.00  0.00    -0.359 OA
HETATM   12  C11 UNL     1      -1.215  -1.482  -0.879  1.00  0.00     0.119 C 
HETATM   13  C12 UNL     1      -2.178  -1.979   0.217  1.00  0.00     0.045 C 
HETATM   14  C13 UNL     1      -2.029  -0.787   1.106  1.00  0.00    -0.050 C 
HETATM   15  C14 UNL     1      -1.186  -0.910   2.350  1.00  0.00     0.021 C 
HETATM   16  C15 UNL     1       0.246  -0.414   1.973  1.00  0.00     0.004 C 
HETATM   17  C16 UNL     1      -2.547   0.375   0.629  1.00  0.00    -0.052 C 
HETATM   18  C17 UNL     1      -2.699   0.566  -0.896  1.00  0.00     0.017 C 
HETATM   19  C18 UNL     1      -2.100  -0.607  -1.783  1.00  0.00     0.034 C 
HETATM   20  C19 UNL     1      -4.188   0.857  -1.197  1.00  0.00     0.004 C 
HETATM   21  C20 UNL     1      -4.957   1.553  -0.043  1.00  0.00     0.001 C 
HETATM   22  C21 UNL     1      -4.082   2.398   0.914  1.00  0.00     0.004 C 
HETATM   23  C22 UNL     1      -2.957   1.522   1.527  1.00  0.00     0.021 C 
HETATM   24  C23 UNL     1      -3.508   3.608   0.166  1.00  0.00     0.000 C 
HETATM   25  C24 UNL     1      -4.963   2.953   2.041  1.00  0.00     0.000 C 
HETATM   26  C25 UNL     1      -1.846   1.799  -1.236  1.00  0.00     0.004 C 
HETATM   27  C26 UNL     1      -2.064  -3.393   0.803  1.00  0.00     0.007 C 
HETATM   28  C27 UNL     1       2.045  -3.797   1.041  1.00  0.00     0.003 C 
HETATM   29  C28 UNL     1       3.815  -1.547   0.814  1.00  0.00     0.000 C 
HETATM   30  C29 UNL     1       4.557  -0.236  -1.701  1.00  0.00     0.005 C 
HETATM   31  O3  UNL     1       2.496   2.699  -0.594  1.00  0.00    -0.223 OA
ENDROOT
BRANCH   3  32
HETATM   32  C30 UNL     1       2.723   0.953  -2.840  1.00  0.00     0.185 C 
HETATM   33  O2  UNL     1       3.631   1.867  -3.410  1.00  0.00    -0.221 OA
ENDBRANCH   3  32
TORSDOF 1
