REMARK  1 active torsions:
REMARK  status: ('A' for Active; 'I' for Inactive)
REMARK    1  A    between atoms: C3_3  and  C29_30 
ROOT
HETATM    1  C1  UNL     1       5.238  -0.258  -0.586  1.00  0.00     0.033 C 
HETATM    2  C2  UNL     1       5.481  -1.086   0.687  1.00  0.00     0.154 C 
HETATM    3  C3  UNL     1       4.565  -0.631   1.869  1.00  0.00     0.059 C 
HETATM    4  C4  UNL     1       3.289   0.117   1.359  1.00  0.00     0.005 C 
HETATM    5  C5  UNL     1       2.723  -0.473   0.037  1.00  0.00     0.001 C 
HETATM    6  C6  UNL     1       3.787  -0.336  -1.094  1.00  0.00     0.003 C 
HETATM    7  C7  UNL     1       1.406   0.260  -0.383  1.00  0.00     0.005 C 
HETATM    8  C8  UNL     1       0.336   0.324   0.746  1.00  0.00     0.004 C 
HETATM    9  C9  UNL     1       0.967   1.000   1.984  1.00  0.00     0.000 C 
HETATM   10  C10 UNL     1       2.219   0.256   2.463  1.00  0.00     0.000 C 
HETATM   11  C11 UNL     1      -0.930   1.090   0.244  1.00  0.00     0.015 C 
HETATM   12  C12 UNL     1      -1.500   0.324  -0.951  1.00  0.00    -0.049 C 
HETATM   13  C13 UNL     1      -0.672  -0.266  -1.844  1.00  0.00    -0.035 C 
HETATM   14  C14 UNL     1       0.834  -0.285  -1.715  1.00  0.00     0.025 C 
HETATM   15  C15 UNL     1      -3.000   0.180  -1.174  1.00  0.00     0.019 C 
HETATM   16  C16 UNL     1      -3.910   0.367   0.074  1.00  0.00     0.010 C 
HETATM   17  C17 UNL     1      -3.371   1.523   0.935  1.00  0.00     0.001 C 
HETATM   18  C18 UNL     1      -1.945   1.248   1.402  1.00  0.00     0.004 C 
HETATM   19  C19 UNL     1      -5.371   0.691  -0.328  1.00  0.00     0.065 C 
HETATM   20  C20 UNL     1      -5.760   0.166  -1.690  1.00  0.00     0.150 C 
HETATM   21  C21 UNL     1      -4.873   0.555  -2.856  1.00  0.00     0.052 C 
HETATM   22  C22 UNL     1      -3.492   1.041  -2.354  1.00  0.00     0.011 C 
HETATM   23  C23 UNL     1      -5.568   1.660  -3.662  1.00  0.00     0.007 C 
HETATM   24  C24 UNL     1      -4.688  -0.672  -3.754  1.00  0.00     0.007 C 
HETATM   25  O1  UNL     1      -6.734  -0.539  -1.830  1.00  0.00    -0.296 OA
HETATM   26  C25 UNL     1      -3.904  -0.934   0.894  1.00  0.00     0.001 C 
HETATM   27  C26 UNL     1      -0.576   2.494  -0.272  1.00  0.00     0.004 C 
HETATM   28  C27 UNL     1      -0.102  -1.102   1.144  1.00  0.00     0.000 C 
HETATM   29  C28 UNL     1       2.428  -1.971   0.244  1.00  0.00     0.000 C 
HETATM   30  C30 UNL     1       5.361   0.348   2.746  1.00  0.00     0.005 C 
HETATM   31  O3  UNL     1       5.303  -2.455   0.359  1.00  0.00    -0.223 OA
ENDROOT
BRANCH   3  32
HETATM   32  C29 UNL     1       4.195  -1.814   2.779  1.00  0.00     0.185 C 
HETATM   33  O2  UNL     1       5.356  -2.227   3.463  1.00  0.00    -0.221 OA
ENDBRANCH   3  32
TORSDOF 1
