REMARK  10 active torsions:
REMARK  status: ('A' for Active; 'I' for Inactive)
REMARK    1  A    between atoms: C2_2  and  O12_52 
REMARK    2  A    between atoms: C3_3  and  C39_49 
REMARK    3  A    between atoms: C19_19  and  O2_26 
REMARK    4  A    between atoms: O2_26  and  C25_27 
REMARK    5  A    between atoms: C28_31  and  O5_34 
REMARK    6  A    between atoms: O5_34  and  C30_35 
REMARK    7  A    between atoms: O12_52  and  C41_53 
REMARK    8  A    between atoms: C42_55  and  C51_71 
REMARK    9  A    between atoms: C45_58  and  O14_59 
REMARK   10  A    between atoms: O14_59  and  C46_60 
ROOT
HETATM    1  C1  UNL     1       5.295   0.801  -1.973  1.00  0.00     0.030 C 
HETATM    2  C2  UNL     1       6.035   0.117  -0.809  1.00  0.00     0.120 C 
HETATM    3  C3  UNL     1       5.371   0.406   0.562  1.00  0.00     0.056 C 
HETATM    4  C4  UNL     1       3.848   0.088   0.508  1.00  0.00     0.005 C 
HETATM    5  C5  UNL     1       3.092   0.791  -0.656  1.00  0.00     0.001 C 
HETATM    6  C6  UNL     1       3.797   0.459  -1.992  1.00  0.00     0.003 C 
HETATM    7  C7  UNL     1       1.609   0.295  -0.688  1.00  0.00     0.005 C 
HETATM    8  C8  UNL     1       0.848   0.451   0.658  1.00  0.00     0.004 C 
HETATM    9  C9  UNL     1       1.684  -0.160   1.811  1.00  0.00     0.000 C 
HETATM   10  C10 UNL     1       3.133   0.344   1.848  1.00  0.00     0.000 C 
HETATM   11  C11 UNL     1      -0.555  -0.250   0.555  1.00  0.00     0.015 C 
HETATM   12  C12 UNL     1      -1.336   0.178  -0.691  1.00  0.00    -0.049 C 
HETATM   13  C13 UNL     1      -0.695   0.707  -1.762  1.00  0.00    -0.035 C 
HETATM   14  C14 UNL     1       0.795   0.943  -1.824  1.00  0.00     0.025 C 
HETATM   15  C15 UNL     1      -2.857  -0.041  -0.723  1.00  0.00     0.020 C 
HETATM   16  C16 UNL     1      -3.574   0.234   0.623  1.00  0.00     0.031 C 
HETATM   17  C17 UNL     1      -2.818  -0.465   1.766  1.00  0.00     0.003 C 
HETATM   18  C18 UNL     1      -1.363  -0.002   1.854  1.00  0.00     0.004 C 
HETATM   19  C19 UNL     1      -5.033  -0.332   0.570  1.00  0.00     0.148 C 
HETATM   20  C20 UNL     1      -5.621  -0.424  -0.871  1.00  0.00     0.179 C 
HETATM   21  C21 UNL     1      -5.145   0.719  -1.793  1.00  0.00     0.031 C 
HETATM   22  C22 UNL     1      -3.594   0.684  -1.889  1.00  0.00     0.007 C 
HETATM   23  C23 UNL     1      -5.732   0.561  -3.205  1.00  0.00     0.003 C 
HETATM   24  C24 UNL     1      -5.617   2.076  -1.250  1.00  0.00     0.003 C 
HETATM   25  O1  UNL     1      -7.037  -0.529  -0.867  1.00  0.00    -0.221 OA
HETATM   26  C35 UNL     1      -3.543   1.758   0.873  1.00  0.00     0.003 C 
HETATM   27  C36 UNL     1      -0.383  -1.770   0.387  1.00  0.00     0.004 C 
HETATM   28  C37 UNL     1       0.647   1.951   0.955  1.00  0.00     0.000 C 
HETATM   29  C38 UNL     1       3.127   2.318  -0.475  1.00  0.00     0.000 C 
HETATM   30  C40 UNL     1       6.051  -0.428   1.660  1.00  0.00     0.005 C 
ENDROOT
BRANCH   2  31
HETATM   31  O12 UNL     1       6.068  -1.277  -1.061  1.00  0.00    -0.332 OA
BRANCH  31  32
HETATM   32  C41 UNL     1       6.824  -1.619  -2.207  1.00  0.00     0.267 C 
HETATM   33  O13 UNL     1       5.914  -1.861  -3.281  1.00  0.00    -0.318 OA
HETATM   34  C42 UNL     1       6.443  -2.545  -4.414  1.00  0.00     0.237 C 
HETATM   35  C43 UNL     1       6.858  -3.994  -4.006  1.00  0.00     0.223 C 
HETATM   36  C44 UNL     1       7.164  -4.174  -2.488  1.00  0.00     0.217 C 
HETATM   37  O20 UNL     1       5.899  -4.932  -4.467  1.00  0.00    -0.217 OA
HETATM   38  C45 UNL     1       7.715  -2.863  -1.889  1.00  0.00     0.207 C 
HETATM   39  O19 UNL     1       6.012  -4.527  -1.740  1.00  0.00    -0.218 OA
BRANCH  34  40
HETATM   40  C51 UNL     1       7.572  -1.748  -5.027  1.00  0.00     0.217 C 
HETATM   41  O21 UNL     1       8.633  -2.266  -5.283  1.00  0.00    -0.646 OA
HETATM   42  O22 UNL     1       7.301  -0.467  -5.256  1.00  0.00    -0.646 OA
ENDBRANCH  34  40
BRANCH  38  43
HETATM   43  O14 UNL     1       9.006  -2.647  -2.424  1.00  0.00    -0.324 OA
BRANCH  43  44
HETATM   44  C46 UNL     1       9.844  -1.891  -1.570  1.00  0.00     0.270 C 
HETATM   45  O15 UNL     1       9.576  -0.492  -1.672  1.00  0.00    -0.326 OA
HETATM   46  C47 UNL     1       9.899   0.111  -2.922  1.00  0.00     0.181 C 
HETATM   47  C48 UNL     1      11.404  -0.061  -3.217  1.00  0.00     0.215 C 
HETATM   48  C49 UNL     1      11.848  -1.541  -3.166  1.00  0.00     0.220 C 
HETATM   49  O18 UNL     1      11.713   0.527  -4.469  1.00  0.00    -0.218 OA
HETATM   50  C50 UNL     1      11.338  -2.203  -1.867  1.00  0.00     0.241 C 
HETATM   51  O17 UNL     1      11.332  -2.266  -4.274  1.00  0.00    -0.218 OA
HETATM   52  O16 UNL     1      12.125  -1.732  -0.785  1.00  0.00    -0.215 OA
ENDBRANCH  43  44
ENDBRANCH  38  43
ENDBRANCH  31  32
ENDBRANCH   2  31
BRANCH   3  53
HETATM   53  C39 UNL     1       5.608   1.879   0.930  1.00  0.00     0.184 C 
HETATM   54  O11 UNL     1       6.965   2.033   1.277  1.00  0.00    -0.221 OA
ENDBRANCH   3  53
BRANCH  19  55
HETATM   55  O2  UNL     1      -5.871   0.402   1.453  1.00  0.00    -0.329 OA
BRANCH  55  56
HETATM   56  C25 UNL     1      -5.895  -0.125   2.766  1.00  0.00     0.270 C 
HETATM   57  O3  UNL     1      -5.471   0.846   3.717  1.00  0.00    -0.326 OA
HETATM   58  C26 UNL     1      -6.313   1.988   3.844  1.00  0.00     0.180 C 
HETATM   59  C27 UNL     1      -7.727   1.561   4.291  1.00  0.00     0.211 C 
HETATM   60  C28 UNL     1      -8.324   0.488   3.354  1.00  0.00     0.186 C 
HETATM   61  O10 UNL     1      -8.557   2.707   4.307  1.00  0.00    -0.218 OA
HETATM   62  C29 UNL     1      -7.303  -0.654   3.150  1.00  0.00     0.238 C 
HETATM   63  O4  UNL     1      -7.774  -1.566   2.170  1.00  0.00    -0.215 OA
BRANCH  60  64
HETATM   64  O5  UNL     1      -9.516  -0.031   3.926  1.00  0.00    -0.326 OA
BRANCH  64  65
HETATM   65  C30 UNL     1     -10.635   0.812   3.746  1.00  0.00     0.270 C 
HETATM   66  O6  UNL     1     -10.996   1.424   4.982  1.00  0.00    -0.326 OA
HETATM   67  C31 UNL     1     -12.049   2.375   4.883  1.00  0.00     0.181 C 
HETATM   68  C32 UNL     1     -13.332   1.693   4.359  1.00  0.00     0.215 C 
HETATM   69  C33 UNL     1     -13.070   0.951   3.029  1.00  0.00     0.220 C 
HETATM   70  O9  UNL     1     -14.319   2.693   4.170  1.00  0.00    -0.218 OA
HETATM   71  C34 UNL     1     -11.836   0.025   3.154  1.00  0.00     0.241 C 
HETATM   72  O8  UNL     1     -14.219   0.221   2.623  1.00  0.00    -0.218 OA
HETATM   73  O7  UNL     1     -12.137  -1.098   3.975  1.00  0.00    -0.215 OA
ENDBRANCH  64  65
ENDBRANCH  60  64
ENDBRANCH  55  56
ENDBRANCH  19  55
TORSDOF 10
