REMARK  3 active torsions:
REMARK  status: ('A' for Active; 'I' for Inactive)
REMARK    1  A    between atoms: C2_2  and  O4_13 
REMARK    2  A    between atoms: C5_5  and  C8_8 
REMARK    3  A    between atoms: C8_8  and  O1_9 
ROOT
HETATM    1  C1  UNL     1      -0.240   1.844   0.125  1.00  0.00     0.020 A 
HETATM    2  C2  UNL     1       1.162   1.899   0.125  1.00  0.00     0.096 A 
HETATM    3  C3  UNL     1       1.906   0.705   0.125  1.00  0.00     0.052 A 
HETATM    4  C4  UNL     1       1.254  -0.539   0.125  1.00  0.00     0.138 A 
HETATM    5  C5  UNL     1      -0.154  -0.592   0.125  1.00  0.00     0.085 A 
HETATM    6  C6  UNL     1      -0.903   0.604   0.125  1.00  0.00    -0.013 A 
HETATM    7  C7  UNL     1      -2.391   0.572   0.125  1.00  0.00     0.031 C 
HETATM    8  O3  UNL     1       1.969  -1.648   0.125  1.00  0.00    -0.190 OA
ENDROOT
BRANCH   5   9
HETATM    9  C8  UNL     1      -0.850  -1.918   0.125  1.00  0.00     0.298 C 
HETATM   10  O2  UNL     1      -0.488  -2.811   0.856  1.00  0.00    -0.259 OA
BRANCH   9  11
HETATM   11  O1  UNL     1      -1.871  -2.021  -0.722  1.00  0.00    -0.296 OA
HETATM   12  C9  UNL     1      -2.504  -3.289  -0.650  1.00  0.00     0.185 C 
ENDBRANCH   9  11
ENDBRANCH   5   9
BRANCH   2  13
HETATM   13  O4  UNL     1       1.781   3.063   0.125  1.00  0.00    -0.328 OA
HETATM   14  C10 UNL     1       3.201   3.065   0.125  1.00  0.00     0.181 C 
ENDBRANCH   2  13
TORSDOF 3
