REMARK  1 active torsions:
REMARK  status: ('A' for Active; 'I' for Inactive)
REMARK    1  A    between atoms: C3_3  and  C15_18 
ROOT
HETATM    1  C1  UNL     1       3.190   0.889  -0.240  1.00  0.00     0.030 C 
HETATM    2  C2  UNL     1       3.143  -0.652  -0.080  1.00  0.00     0.029 C 
HETATM    3  C3  UNL     1       1.756  -1.152   0.273  1.00  0.00    -0.015 C 
HETATM    4  C4  UNL     1       0.842  -1.299  -0.709  1.00  0.00    -0.032 C 
HETATM    5  C5  UNL     1      -0.621  -1.576  -0.467  1.00  0.00     0.029 C 
HETATM    6  C6  UNL     1      -1.410  -0.293  -0.125  1.00  0.00     0.044 A 
HETATM    7  C7  UNL     1      -1.250   0.852  -1.170  1.00  0.00     0.159 A 
HETATM    8  C8  UNL     1      -0.514   2.104  -0.637  1.00  0.00     0.198 C 
HETATM    9  C9  UNL     1       0.854   1.797  -0.057  1.00  0.00    -0.016 C 
HETATM   10  C10 UNL     1       1.902   1.436  -0.832  1.00  0.00    -0.032 C 
HETATM   11  C11 UNL     1       0.984   1.879   1.443  1.00  0.00     0.029 C 
HETATM   12  O1  UNL     1      -0.410   3.071  -1.664  1.00  0.00    -0.216 OA
HETATM   13  O2  UNL     1      -2.551   1.248  -1.604  1.00  0.00    -0.301 OA
HETATM   14  C12 UNL     1      -3.473   0.529  -0.982  1.00  0.00     0.272 A 
HETATM   15  C13 UNL     1      -2.932  -0.494  -0.033  1.00  0.00     0.089 A 
HETATM   16  C14 UNL     1      -3.447  -1.891  -0.379  1.00  0.00     0.011 C 
HETATM   17  O3  UNL     1      -4.662   0.672  -1.148  1.00  0.00    -0.264 OA
ENDROOT
BRANCH   3  18
HETATM   18  C15 UNL     1       1.432  -1.433   1.721  1.00  0.00     0.204 C 
HETATM   19  O4  UNL     1       1.365  -2.826   1.924  1.00  0.00    -0.216 OA
ENDBRANCH   3  18
TORSDOF 1
