REMARK  1 active torsions:
REMARK  status: ('A' for Active; 'I' for Inactive)
REMARK    1  A    between atoms: C6_6  and  C7_7 
ROOT
HETATM    1  C14 UNL     1       4.269  -0.525   0.228  1.00  0.00     0.152 C 
HETATM    2  O3  UNL     1       5.529  -1.000   0.639  1.00  0.00    -0.224 OA
HETATM    3  C15 UNL     1       4.359   0.981  -0.000  1.00  0.00     0.036 C 
HETATM    4  C16 UNL     1       3.845  -1.273  -1.032  1.00  0.00     0.036 C 
ENDROOT
TORSDOF 1
