REMARK  3 active torsions:
REMARK  status: ('A' for Active; 'I' for Inactive)
REMARK    1  A    between atoms: C8_9  and  C10_11 
REMARK    2  A    between atoms: C14_15  and  O3_19 
REMARK    3  A    between atoms: C15_16  and  O2_17 
ROOT
HETATM    1  C1  UNL     1       5.348   0.453   0.770  1.00  0.00     0.133 A 
HETATM    2  C2  UNL     1       5.041  -0.924   0.660  1.00  0.00     0.027 A 
HETATM    3  C3  UNL     1       3.691  -1.346   0.617  1.00  0.00    -0.000 A 
HETATM    4  C4  UNL     1       2.643  -0.394   0.680  1.00  0.00     0.001 A 
HETATM    5  C5  UNL     1       2.953   0.992   0.793  1.00  0.00     0.092 A 
HETATM    6  C6  UNL     1       4.307   1.406   0.832  1.00  0.00     0.051 A 
HETATM    7  O1  UNL     1       1.984   1.932   0.854  1.00  0.00    -0.331 OA
HETATM    8  C7  UNL     1       0.617   1.563   1.067  1.00  0.00     0.153 C 
HETATM    9  C8  UNL     1       0.267   0.307   0.248  1.00  0.00     0.059 C 
HETATM   10  C9  UNL     1       1.228  -0.840   0.629  1.00  0.00     0.035 C 
HETATM   11  O5  UNL     1       6.627   0.852   0.811  1.00  0.00    -0.190 OA
ENDROOT
BRANCH   9  12
HETATM   12  C10 UNL     1      -1.156  -0.088   0.426  1.00  0.00     0.005 A 
HETATM   13  C11 UNL     1      -1.631  -0.416   1.707  1.00  0.00     0.000 A 
HETATM   14  C12 UNL     1      -2.973  -0.791   1.885  1.00  0.00     0.029 A 
HETATM   15  C13 UNL     1      -3.846  -0.836   0.785  1.00  0.00     0.155 A 
HETATM   16  C14 UNL     1      -3.373  -0.508  -0.500  1.00  0.00     0.141 A 
HETATM   17  O4  UNL     1      -5.104  -1.187   0.959  1.00  0.00    -0.188 OA
HETATM   18  C15 UNL     1      -2.027  -0.133  -0.680  1.00  0.00     0.114 A 
BRANCH  16  19
HETATM   19  O3  UNL     1      -4.190  -0.551  -1.533  1.00  0.00    -0.324 OA
HETATM   20  C17 UNL     1      -3.774  -1.269  -2.684  1.00  0.00     0.182 C 
ENDBRANCH  16  19
BRANCH  18  21
HETATM   21  O2  UNL     1      -1.586   0.176  -1.885  1.00  0.00    -0.326 OA
HETATM   22  C16 UNL     1      -1.861   1.477  -2.383  1.00  0.00     0.181 C 
ENDBRANCH  18  21
ENDBRANCH   9  12
TORSDOF 3
