REMARK  1 active torsions:
REMARK  status: ('A' for Active; 'I' for Inactive)
REMARK    1  A    between atoms: C3_3  and  O3_12 
ROOT
HETATM    1  C1  UNL     1      -0.461   1.049  -0.311  1.00  0.00     0.050 A 
HETATM    2  C2  UNL     1      -1.297   0.014   0.002  1.00  0.00     0.124 A 
HETATM    3  C3  UNL     1      -0.856  -1.271   0.385  1.00  0.00     0.117 A 
HETATM    4  C4  UNL     1       0.555  -1.441   0.430  1.00  0.00     0.028 A 
HETATM    5  C5  UNL     1       1.441  -0.373   0.107  1.00  0.00     0.025 A 
HETATM    6  C6  UNL     1       0.951   0.922  -0.275  1.00  0.00     0.105 A 
HETATM    7  O1  UNL     1       1.859   1.885  -0.566  1.00  0.00    -0.273 OA
HETATM    8  C7  UNL     1       3.197   1.723  -0.523  1.00  0.00     0.300 A 
HETATM    9  C8  UNL     1       3.746   0.410  -0.137  1.00  0.00     0.069 A 
HETATM   10  C9  UNL     1       2.910  -0.599   0.168  1.00  0.00     0.007 A 
HETATM   11  O2  UNL     1       3.967   2.616  -0.789  1.00  0.00    -0.259 OA
HETATM   12  O4  UNL     1      -2.615   0.412  -0.113  1.00  0.00    -0.303 OA
HETATM   13  C11 UNL     1      -2.524   1.774  -0.520  1.00  0.00     0.123 A 
HETATM   14  C12 UNL     1      -1.170   2.155  -0.639  1.00  0.00     0.031 A 
ENDROOT
BRANCH   3  15
HETATM   15  O3  UNL     1      -1.588  -2.345   0.707  1.00  0.00    -0.326 OA
HETATM   16  C10 UNL     1      -3.002  -2.219   0.689  1.00  0.00     0.181 C 
ENDBRANCH   3  15
TORSDOF 1
