REMARK  6 active torsions:
REMARK  status: ('A' for Active; 'I' for Inactive)
REMARK    1  A    between atoms: C7_8  and  C31_43 
REMARK    2  A    between atoms: C8_9  and  C10_12 
REMARK    3  A    between atoms: C11_13  and  O7_31 
REMARK    4  A    between atoms: C16_19  and  C19_23 
REMARK    5  A    between atoms: O7_31  and  C25_32 
REMARK    6  A    between atoms: C26_34  and  C30_41 
ROOT
HETATM    1  C10 UNL     1      -0.397   0.840  -0.188  1.00  0.00     0.033 A 
HETATM    2  C11 UNL     1      -1.061  -0.270  -0.766  1.00  0.00     0.097 A 
HETATM    3  C12 UNL     1      -2.299  -0.090  -1.426  1.00  0.00     0.052 A 
HETATM    4  C13 UNL     1      -2.883   1.195  -1.512  1.00  0.00     0.138 A 
HETATM    5  C14 UNL     1      -2.217   2.307  -0.932  1.00  0.00     0.087 A 
HETATM    6  C15 UNL     1      -0.973   2.131  -0.270  1.00  0.00     0.103 A 
HETATM    7  O3  UNL     1      -0.340   3.193   0.281  1.00  0.00    -0.307 OA
HETATM    8  C16 UNL     1      -0.820   4.453   0.246  1.00  0.00     0.103 A 
HETATM    9  C17 UNL     1      -1.996   4.738  -0.357  1.00  0.00     0.067 A 
HETATM   10  C18 UNL     1      -2.799   3.678  -1.002  1.00  0.00     0.202 A 
HETATM   11  O4  UNL     1      -3.842   4.010  -1.520  1.00  0.00    -0.286 OA
HETATM   12  O6  UNL     1      -4.057   1.346  -2.143  1.00  0.00    -0.190 OA
ENDROOT
BRANCH   1  13
HETATM   13  C8  UNL     1       0.893   0.650   0.500  1.00  0.00     0.120 C 
HETATM   14  C7  UNL     1       1.230  -0.855   0.660  1.00  0.00     0.155 C 
HETATM   15  O1  UNL     1       2.525  -1.029   1.242  1.00  0.00    -0.328 OA
HETATM   16  C5  UNL     1       3.582  -0.322   0.793  1.00  0.00     0.101 A 
HETATM   17  C4  UNL     1       3.406   0.877   0.053  1.00  0.00     0.083 A 
HETATM   18  C6  UNL     1       4.887  -0.793   1.070  1.00  0.00     0.052 A 
HETATM   19  C3  UNL     1       4.541   1.568  -0.451  1.00  0.00     0.138 A 
HETATM   20  C9  UNL     1       2.029   1.408  -0.178  1.00  0.00     0.183 C 
HETATM   21  C2  UNL     1       5.842   1.082  -0.180  1.00  0.00     0.055 A 
HETATM   22  O14 UNL     1       4.400   2.689  -1.176  1.00  0.00    -0.190 OA
HETATM   23  C1  UNL     1       6.014  -0.094   0.586  1.00  0.00     0.135 A 
HETATM   24  O15 UNL     1       7.248  -0.545   0.852  1.00  0.00    -0.190 OA
HETATM   25  O2  UNL     1       1.752   2.383  -0.842  1.00  0.00    -0.291 OA
BRANCH  14  26
HETATM   26  C31 UNL     1       0.252  -1.594   1.498  1.00  0.00     0.006 A 
HETATM   27  C32 UNL     1       0.404  -2.977   1.707  1.00  0.00     0.000 A 
HETATM   28  C33 UNL     1      -0.523  -3.674   2.500  1.00  0.00     0.027 A 
HETATM   29  C34 UNL     1      -1.606  -2.994   3.088  1.00  0.00     0.131 A 
HETATM   30  C35 UNL     1      -1.754  -1.611   2.879  1.00  0.00     0.027 A 
HETATM   31  O13 UNL     1      -2.473  -3.648   3.834  1.00  0.00    -0.190 OA
HETATM   32  C36 UNL     1      -0.828  -0.912   2.086  1.00  0.00     0.000 A 
ENDBRANCH  14  26
ENDBRANCH   1  13
BRANCH   2  33
HETATM   33  O7  UNL     1      -0.523  -1.496  -0.693  1.00  0.00    -0.304 OA
BRANCH  33  34
HETATM   34  C25 UNL     1      -1.027  -2.498  -1.565  1.00  0.00     0.274 C 
HETATM   35  O8  UNL     1      -2.184  -3.078  -0.977  1.00  0.00    -0.326 OA
HETATM   36  C26 UNL     1      -2.824  -4.070  -1.766  1.00  0.00     0.184 C 
HETATM   37  C27 UNL     1      -1.850  -5.246  -2.006  1.00  0.00     0.215 C 
HETATM   38  C28 UNL     1      -0.522  -4.760  -2.625  1.00  0.00     0.220 C 
HETATM   39  O11 UNL     1      -2.471  -6.182  -2.871  1.00  0.00    -0.218 OA
HETATM   40  C29 UNL     1       0.043  -3.588  -1.793  1.00  0.00     0.241 C 
HETATM   41  O10 UNL     1       0.416  -5.824  -2.654  1.00  0.00    -0.218 OA
HETATM   42  O9  UNL     1       1.146  -3.006  -2.461  1.00  0.00    -0.215 OA
BRANCH  36  43
HETATM   43  C30 UNL     1      -4.090  -4.486  -1.010  1.00  0.00     0.214 C 
HETATM   44  O12 UNL     1      -4.973  -3.387  -0.986  1.00  0.00    -0.218 OA
ENDBRANCH  36  43
ENDBRANCH  33  34
ENDBRANCH   2  33
BRANCH   8  45
HETATM   45  C19 UNL     1      -0.049   5.561   0.881  1.00  0.00     0.023 A 
HETATM   46  C20 UNL     1       0.891   5.279   1.891  1.00  0.00     0.004 A 
HETATM   47  C21 UNL     1       1.615   6.324   2.486  1.00  0.00     0.028 A 
HETATM   48  C22 UNL     1       1.408   7.654   2.080  1.00  0.00     0.131 A 
HETATM   49  C23 UNL     1       0.469   7.934   1.070  1.00  0.00     0.028 A 
HETATM   50  O5  UNL     1       2.090   8.633   2.641  1.00  0.00    -0.190 OA
HETATM   51  C24 UNL     1      -0.260   6.891   0.473  1.00  0.00     0.004 A 
ENDBRANCH   8  45
TORSDOF 6
