REMARK  10 active torsions:
REMARK  status: ('A' for Active; 'I' for Inactive)
REMARK    1  A    between atoms: C5_5  and  O2_10 
REMARK    2  A    between atoms: O2_10  and  C9_11 
REMARK    3  A    between atoms: C9_11  and  C10_12 
REMARK    4  A    between atoms: C10_12  and  C11_13 
REMARK    5  A    between atoms: C11_13  and  O3_14 
REMARK    6  A    between atoms: O3_14  and  C12_15 
REMARK    7  A    between atoms: C12_15  and  C13_16 
REMARK    8  A    between atoms: C13_16  and  C14_17 
REMARK    9  A    between atoms: C24_32  and  O9_33 
REMARK   10  A    between atoms: O9_33  and  C25_34 
ROOT
HETATM    1  C1  UNL     1       3.375   1.850  -2.404  1.00  0.00     0.066 C 
HETATM    2  C2  UNL     1       2.430   3.082  -2.391  1.00  0.00     0.051 C 
HETATM    3  C3  UNL     1       1.113   2.898  -1.621  1.00  0.00     0.135 C 
HETATM    4  C4  UNL     1       0.201   1.850  -2.291  1.00  0.00     0.084 C 
HETATM    5  C5  UNL     1       0.273   0.461  -1.635  1.00  0.00     0.134 C 
HETATM    6  C6  UNL     1       1.713   0.033  -1.293  1.00  0.00     0.060 C 
HETATM    7  C7  UNL     1       2.793   0.422  -2.316  1.00  0.00     0.126 A 
HETATM    8  O1  UNL     1       2.463  -0.066  -3.582  1.00  0.00    -0.354 OA
HETATM    9  C8  UNL     1       3.561  -0.734  -3.053  1.00  0.00     0.169 A 
HETATM   10  C19 UNL     1      -1.125   2.541  -2.217  1.00  0.00     0.045 C 
HETATM   11  C20 UNL     1      -0.904   3.918  -1.809  1.00  0.00     0.292 C 
HETATM   12  O7  UNL     1       0.389   4.141  -1.580  1.00  0.00    -0.300 OA
HETATM   13  O8  UNL     1      -1.787   4.736  -1.705  1.00  0.00    -0.260 OA
HETATM   14  C21 UNL     1      -2.313   1.971  -2.490  1.00  0.00     0.001 C 
HETATM   15  C22 UNL     1       3.293   4.156  -1.781  1.00  0.00    -0.044 C 
HETATM   16  C23 UNL     1       4.379   3.662  -1.180  1.00  0.00    -0.005 C 
HETATM   17  C24 UNL     1       4.404   2.168  -1.297  1.00  0.00     0.148 C 
HETATM   18  C27 UNL     1       2.959   5.621  -1.861  1.00  0.00     0.026 C 
ENDROOT
BRANCH   5  19
HETATM   19  O2  UNL     1      -0.492   0.447  -0.437  1.00  0.00    -0.301 OA
BRANCH  19  20
HETATM   20  C9  UNL     1      -0.787  -0.789  -0.041  1.00  0.00     0.294 C 
HETATM   21  O6  UNL     1      -0.469  -1.785  -0.646  1.00  0.00    -0.259 OA
BRANCH  20  22
HETATM   22  C10 UNL     1      -1.547  -0.893   1.211  1.00  0.00     0.067 C 
HETATM   23  C17 UNL     1      -2.283   0.141   1.652  1.00  0.00    -0.022 C 
HETATM   24  C18 UNL     1      -3.041  -0.018   2.943  1.00  0.00     0.031 C 
BRANCH  22  25
HETATM   25  C11 UNL     1      -1.518  -2.154   2.029  1.00  0.00     0.184 C 
BRANCH  25  26
HETATM   26  O3  UNL     1      -2.776  -2.811   1.932  1.00  0.00    -0.294 OA
BRANCH  26  27
HETATM   27  C12 UNL     1      -2.805  -3.951   2.615  1.00  0.00     0.294 C 
HETATM   28  O5  UNL     1      -1.877  -4.373   3.262  1.00  0.00    -0.259 OA
BRANCH  27  29
HETATM   29  C13 UNL     1      -4.065  -4.701   2.545  1.00  0.00     0.070 C 
HETATM   30  C15 UNL     1      -5.215  -4.162   2.113  1.00  0.00    -0.022 C 
HETATM   31  C16 UNL     1      -6.447  -5.026   2.084  1.00  0.00     0.031 C 
BRANCH  29  32
HETATM   32  C14 UNL     1      -4.067  -6.143   2.979  1.00  0.00     0.214 C 
HETATM   33  O4  UNL     1      -3.986  -6.975   1.844  1.00  0.00    -0.215 OA
ENDBRANCH  29  32
ENDBRANCH  27  29
ENDBRANCH  26  27
ENDBRANCH  25  26
ENDBRANCH  22  25
ENDBRANCH  20  22
ENDBRANCH  19  20
ENDBRANCH   5  19
BRANCH  17  34
HETATM   34  O9  UNL     1       4.023   1.607  -0.049  1.00  0.00    -0.300 OA
BRANCH  34  35
HETATM   35  C25 UNL     1       4.980   1.717   0.867  1.00  0.00     0.273 C 
HETATM   36  C26 UNL     1       4.623   1.191   2.232  1.00  0.00     0.106 C 
HETATM   37  O10 UNL     1       6.068   2.197   0.652  1.00  0.00    -0.264 OA
ENDBRANCH  34  35
ENDBRANCH  17  34
TORSDOF 10
