REMARK  10 active torsions:
REMARK  status: ('A' for Active; 'I' for Inactive)
REMARK    1  A    between atoms: C2_2  and  O9_42 
REMARK    2  A    between atoms: C6_6  and  O3_19 
REMARK    3  A    between atoms: C12_12  and  O1_15 
REMARK    4  A    between atoms: O1_15  and  C15_16 
REMARK    5  A    between atoms: O3_19  and  C17_20 
REMARK    6  A    between atoms: C20_24  and  O5_27 
REMARK    7  A    between atoms: O5_27  and  C23_28 
REMARK    8  A    between atoms: C23_28  and  C24_29 
REMARK    9  A    between atoms: C25_30  and  C26_31 
REMARK   10  A    between atoms: O9_42  and  C34_43 
ROOT
HETATM    1  C1  UNL     1       2.869  -0.443  -0.164  1.00  0.00    -0.021 C 
HETATM    2  C2  UNL     1       1.883  -1.596  -0.121  1.00  0.00     0.172 C 
HETATM    3  C3  UNL     1       0.773  -1.197   0.936  1.00  0.00     0.184 C 
HETATM    4  C4  UNL     1      -0.516  -0.281   0.600  1.00  0.00     0.036 C 
HETATM    5  C5  UNL     1      -0.484   1.139  -0.166  1.00  0.00     0.060 C 
HETATM    6  C6  UNL     1       0.652   2.217   0.068  1.00  0.00     0.127 C 
HETATM    7  C7  UNL     1       2.043   1.605   0.143  1.00  0.00     0.034 C 
HETATM    8  C8  UNL     1       2.502   0.707  -1.055  1.00  0.00     0.019 C 
HETATM    9  C9  UNL     1       3.688   1.270  -1.855  1.00  0.00     0.004 C 
HETATM   10  C10 UNL     1       1.498   0.359  -2.158  1.00  0.00     0.004 C 
HETATM   11  C11 UNL     1       3.305   2.272   0.740  1.00  0.00     0.037 C 
HETATM   12  C12 UNL     1       4.416   1.168   0.940  1.00  0.00     0.142 C 
HETATM   13  C13 UNL     1       3.932  -0.268   0.670  1.00  0.00    -0.022 C 
HETATM   14  C14 UNL     1       4.594  -1.397   1.418  1.00  0.00     0.028 C 
HETATM   15  C19 UNL     1      -1.918   1.750  -0.002  1.00  0.00     0.148 A 
HETATM   16  C20 UNL     1      -3.139   0.807  -0.115  1.00  0.00     0.152 C 
HETATM   17  C21 UNL     1      -2.695  -0.443  -0.879  1.00  0.00     0.033 C 
HETATM   18  C22 UNL     1      -1.529  -1.178  -0.187  1.00  0.00     0.005 C 
HETATM   19  C32 UNL     1      -2.172   3.207   0.541  1.00  0.00     0.172 A 
HETATM   20  O7  UNL     1      -2.086   2.879  -0.811  1.00  0.00    -0.351 OA
HETATM   21  C33 UNL     1      -1.111   0.020   1.992  1.00  0.00     0.003 C 
HETATM   22  O8  UNL     1       0.312  -2.412   1.516  1.00  0.00    -0.221 OA
ENDROOT
BRANCH  16  23
HETATM   23  O5  UNL     1      -4.242   1.402  -0.791  1.00  0.00    -0.298 OA
BRANCH  23  24
HETATM   24  C23 UNL     1      -5.400   1.164  -0.182  1.00  0.00     0.296 C 
HETATM   25  O6  UNL     1      -6.129   2.029   0.244  1.00  0.00    -0.259 OA
BRANCH  24  26
HETATM   26  C24 UNL     1      -5.768  -0.252  -0.043  1.00  0.00     0.068 C 
HETATM   27  C25 UNL     1      -6.877  -0.730  -0.625  1.00  0.00     0.005 C 
BRANCH  27  28
HETATM   28  C26 UNL     1      -7.209  -2.178  -0.455  1.00  0.00     0.000 A 
HETATM   29  C27 UNL     1      -7.912  -2.863  -1.463  1.00  0.00     0.000 A 
HETATM   30  C28 UNL     1      -8.225  -4.225  -1.303  1.00  0.00     0.000 A 
HETATM   31  C29 UNL     1      -7.832  -4.902  -0.135  1.00  0.00     0.000 A 
HETATM   32  C30 UNL     1      -7.129  -4.219   0.871  1.00  0.00     0.000 A 
HETATM   33  C31 UNL     1      -6.817  -2.857   0.713  1.00  0.00     0.000 A 
ENDBRANCH  27  28
ENDBRANCH  24  26
ENDBRANCH  23  24
ENDBRANCH  16  23
BRANCH   6  34
HETATM   34  O3  UNL     1       0.648   3.176  -0.980  1.00  0.00    -0.304 OA
BRANCH  34  35
HETATM   35  C17 UNL     1       1.535   4.149  -0.783  1.00  0.00     0.272 C 
HETATM   36  C18 UNL     1       1.299   4.988   0.443  1.00  0.00     0.106 C 
HETATM   37  O4  UNL     1       2.471   4.365  -1.516  1.00  0.00    -0.264 OA
ENDBRANCH  34  35
ENDBRANCH   6  34
BRANCH   2  38
HETATM   38  O9  UNL     1       2.568  -2.789   0.246  1.00  0.00    -0.297 OA
BRANCH  38  39
HETATM   39  C34 UNL     1       2.889  -3.533  -0.809  1.00  0.00     0.273 C 
HETATM   40  C35 UNL     1       3.693  -2.830  -1.869  1.00  0.00     0.106 C 
HETATM   41  O10 UNL     1       2.572  -4.693  -0.934  1.00  0.00    -0.264 OA
ENDBRANCH  38  39
ENDBRANCH   2  38
BRANCH  12  42
HETATM   42  O1  UNL     1       5.549   1.455   0.129  1.00  0.00    -0.300 OA
BRANCH  42  43
HETATM   43  C15 UNL     1       6.629   0.777   0.508  1.00  0.00     0.273 C 
HETATM   44  C16 UNL     1       7.385   1.373   1.666  1.00  0.00     0.106 C 
HETATM   45  O2  UNL     1       7.002  -0.246  -0.018  1.00  0.00    -0.264 OA
ENDBRANCH  42  43
ENDBRANCH  12  42
TORSDOF 10
