REMARK  10 active torsions:
REMARK  status: ('A' for Active; 'I' for Inactive)
REMARK    1  A    between atoms: C15_15  and  C27_34 
REMARK    2  A    between atoms: C16_16  and  O1_18 
REMARK    3  A    between atoms: O1_18  and  C18_19 
REMARK    4  A    between atoms: C19_20  and  O6_30 
REMARK    5  A    between atoms: C21_22  and  O3_25 
REMARK    6  A    between atoms: O3_25  and  C23_26 
REMARK    7  A    between atoms: O6_30  and  C25_31 
REMARK    8  A    between atoms: C27_34  and  C28_35 
REMARK    9  A    between atoms: C28_35  and  C29_36 
REMARK   10  A    between atoms: C30_37  and  C31_38 
ROOT
HETATM    1  C1  UNL     1      -5.926   2.599  -0.197  1.00  0.00     0.162 C 
HETATM    2  C2  UNL     1      -6.426   1.204  -0.290  1.00  0.00     0.200 C 
HETATM    3  C3  UNL     1      -5.431   0.060  -0.099  1.00  0.00     0.073 C 
HETATM    4  C4  UNL     1      -4.396   0.477   0.943  1.00  0.00    -0.038 C 
HETATM    5  C5  UNL     1      -3.681   1.789   0.686  1.00  0.00     0.043 C 
HETATM    6  C6  UNL     1      -4.678   2.836   0.244  1.00  0.00     0.008 C 
HETATM    7  C7  UNL     1      -2.720   2.255   1.820  1.00  0.00     0.008 C 
HETATM    8  C8  UNL     1      -2.014   1.072   2.553  1.00  0.00     0.005 C 
HETATM    9  C9  UNL     1      -3.036   0.025   3.021  1.00  0.00     0.025 C 
HETATM   10  C10 UNL     1      -4.085  -0.294   1.997  1.00  0.00    -0.034 C 
HETATM   11  C11 UNL     1      -0.756   0.499   1.837  1.00  0.00     0.003 C 
HETATM   12  C12 UNL     1       0.288   1.624   1.524  1.00  0.00     0.005 C 
HETATM   13  C13 UNL     1      -0.433   2.591   0.567  1.00  0.00     0.000 C 
HETATM   14  C14 UNL     1      -1.659   3.235   1.245  1.00  0.00     0.001 C 
HETATM   15  C15 UNL     1       1.516   0.819   0.983  1.00  0.00     0.062 C 
HETATM   16  C16 UNL     1       1.509  -0.440   1.910  1.00  0.00     0.121 C 
HETATM   17  C17 UNL     1       0.162  -0.415   2.675  1.00  0.00     0.030 C 
HETATM   18  C35 UNL     1       0.755   2.415   2.779  1.00  0.00     0.000 C 
HETATM   19  C36 UNL     1      -1.221  -0.369   0.636  1.00  0.00     0.000 C 
HETATM   20  C37 UNL     1      -3.560   3.033   2.870  1.00  0.00     0.001 C 
HETATM   21  C38 UNL     1      -6.227  -1.212   0.273  1.00  0.00     0.012 C 
HETATM   22  C39 UNL     1      -4.743  -0.212  -1.454  1.00  0.00     0.012 C 
HETATM   23  O11 UNL     1      -7.602   0.993  -0.563  1.00  0.00    -0.289 OA
HETATM   24  O12 UNL     1      -6.744   3.606  -0.603  1.00  0.00    -0.188 OA
ENDROOT
BRANCH  16  25
HETATM   25  O1  UNL     1       1.561  -1.691   1.268  1.00  0.00    -0.332 OA
BRANCH  25  26
HETATM   26  C18 UNL     1       2.643  -1.947   0.404  1.00  0.00     0.267 C 
HETATM   27  C19 UNL     1       3.254  -3.320   0.641  1.00  0.00     0.213 C 
HETATM   28  C20 UNL     1       2.364  -4.450   0.139  1.00  0.00     0.215 C 
HETATM   29  C21 UNL     1       1.885  -4.170  -1.277  1.00  0.00     0.186 C 
HETATM   30  O5  UNL     1       1.240  -4.601   0.973  1.00  0.00    -0.218 OA
HETATM   31  C22 UNL     1       1.264  -2.781  -1.327  1.00  0.00     0.178 C 
HETATM   32  O2  UNL     1       2.176  -1.791  -0.919  1.00  0.00    -0.326 OA
BRANCH  27  33
HETATM   33  O6  UNL     1       4.473  -3.415  -0.046  1.00  0.00    -0.296 OA
BRANCH  33  34
HETATM   34  C25 UNL     1       5.684  -3.105   0.499  1.00  0.00     0.273 C 
HETATM   35  O7  UNL     1       6.714  -3.207  -0.134  1.00  0.00    -0.264 OA
HETATM   36  C26 UNL     1       5.696  -2.632   1.942  1.00  0.00     0.106 C 
ENDBRANCH  33  34
ENDBRANCH  27  33
BRANCH  29  37
HETATM   37  O3  UNL     1       0.901  -5.099  -1.633  1.00  0.00    -0.306 OA
BRANCH  37  38
HETATM   38  C23 UNL     1       1.252  -6.398  -1.894  1.00  0.00     0.229 C 
HETATM   39  O4  UNL     1       0.180  -7.233  -2.005  1.00  0.00    -0.163 OA
HETATM   40  C24 UNL     1       2.493  -6.897  -2.019  1.00  0.00     0.057 C 
ENDBRANCH  37  38
ENDBRANCH  29  37
ENDBRANCH  25  26
ENDBRANCH  16  25
BRANCH  15  41
HETATM   41  C27 UNL     1       2.894   1.499   0.704  1.00  0.00     0.183 C 
HETATM   42  O10 UNL     1       3.922   0.886   1.466  1.00  0.00    -0.218 OA
HETATM   43  C34 UNL     1       3.092   3.002   0.940  1.00  0.00     0.041 C 
BRANCH  41  44
HETATM   44  C28 UNL     1       3.303   1.293  -0.763  1.00  0.00     0.200 C 
HETATM   45  O9  UNL     1       4.342   0.676  -0.970  1.00  0.00    -0.289 OA
BRANCH  44  46
HETATM   46  C29 UNL     1       2.499   1.945  -1.821  1.00  0.00     0.038 C 
HETATM   47  C30 UNL     1       2.868   1.952  -3.117  1.00  0.00     0.006 C 
BRANCH  47  48
HETATM   48  C31 UNL     1       2.074   2.672  -4.187  1.00  0.00     0.145 C 
HETATM   49  C32 UNL     1       2.867   2.752  -5.493  1.00  0.00     0.038 C 
HETATM   50  C33 UNL     1       0.726   1.984  -4.411  1.00  0.00     0.038 C 
HETATM   51  O8  UNL     1       1.824   3.997  -3.763  1.00  0.00    -0.222 OA
ENDBRANCH  47  48
ENDBRANCH  44  46
ENDBRANCH  41  44
ENDBRANCH  15  41
TORSDOF 10
