REMARK  0 active torsions:
REMARK  status: ('A' for Active; 'I' for Inactive)
ROOT
HETATM    1  C1  UNL     1      -2.634   1.009   1.851  1.00  0.00     0.000 C 
HETATM    2  C2  UNL     1      -3.138  -0.416   1.629  1.00  0.00     0.002 C 
HETATM    3  C3  UNL     1      -1.976  -1.429   1.718  1.00  0.00     0.036 C 
HETATM    4  C4  UNL     1      -0.586  -0.779   1.510  1.00  0.00     0.062 C 
HETATM    5  C5  UNL     1      -0.616   0.304   0.411  1.00  0.00     0.036 C 
HETATM    6  C6  UNL     1      -1.695   1.378   0.698  1.00  0.00     0.002 C 
HETATM    7  C7  UNL     1       0.769   1.174   0.499  1.00  0.00     0.033 C 
HETATM    8  C8  UNL     1       0.741   0.556  -0.817  1.00  0.00     0.012 C 
HETATM    9  C9  UNL     1       1.310  -1.002  -0.235  1.00  0.00     0.063 C 
HETATM   10  C10 UNL     1       0.201  -1.687   0.584  1.00  0.00     0.314 C 
HETATM   11  N1  UNL     1      -0.888  -1.972  -0.295  1.00  0.00     0.159 N 
HETATM   12  C11 UNL     1      -1.168  -0.651  -0.898  1.00  0.00     0.222 C 
HETATM   13  C12 UNL     1      -0.218   0.135  -1.841  1.00  0.00     0.032 C 
HETATM   14  C13 UNL     1       1.219  -0.211  -2.520  1.00  0.00     0.009 C 
HETATM   15  C14 UNL     1       2.576   0.445  -1.687  1.00  0.00     0.049 C 
HETATM   16  C15 UNL     1       2.443   1.801  -2.255  1.00  0.00    -0.042 C 
HETATM   17  C16 UNL     1       1.134   2.009  -1.605  1.00  0.00     0.022 C 
HETATM   18  C17 UNL     1       3.205   2.550  -3.054  1.00  0.00    -0.009 C 
HETATM   19  C18 UNL     1       2.394   0.995  -0.060  1.00  0.00     0.156 C 
HETATM   20  O1  UNL     1       3.065   2.230   0.159  1.00  0.00    -0.223 OA
HETATM   21  C19 UNL     1      -1.996  -2.407   0.532  1.00  0.00     0.253 C 
HETATM   22  O2  UNL     1       0.626  -2.888   1.183  1.00  0.00    -0.192 OA
HETATM   23  C20 UNL     1      -2.042  -2.167   3.067  1.00  0.00     0.002 C 
ENDROOT
TORSDOF 0
