REMARK  0 active torsions:
REMARK  status: ('A' for Active; 'I' for Inactive)
ROOT
HETATM    1  C1  UNL     1      -1.788   0.127   2.578  1.00  0.00     0.000 C 
HETATM    2  C2  UNL     1      -1.273   1.551   2.458  1.00  0.00     0.004 C 
HETATM    3  C3  UNL     1      -0.566   1.765   1.073  1.00  0.00     0.059 C 
HETATM    4  C4  UNL     1      -0.573   0.328   0.104  1.00  0.00     0.041 C 
HETATM    5  C5  UNL     1       0.171  -0.685   1.000  1.00  0.00     0.059 C 
HETATM    6  C6  UNL     1      -0.719  -0.997   2.276  1.00  0.00     0.004 C 
HETATM    7  C7  UNL     1       0.820  -2.049   0.486  1.00  0.00     0.007 C 
HETATM    8  C8  UNL     1       1.832  -1.716  -0.654  1.00  0.00     0.030 C 
HETATM    9  C9  UNL     1       1.888  -0.145  -0.898  1.00  0.00     0.148 C 
HETATM   10  C10 UNL     1       0.341   0.395  -1.240  1.00  0.00     0.179 C 
HETATM   11  O1  UNL     1       0.187   1.686  -1.827  1.00  0.00    -0.221 OA
HETATM   12  O2  UNL     1       2.368   0.480   0.224  1.00  0.00    -0.329 OA
HETATM   13  C11 UNL     1       1.585   0.063   1.412  1.00  0.00     0.339 C 
HETATM   14  N1  UNL     1       1.488   1.235   2.148  1.00  0.00     0.190 N 
HETATM   15  C12 UNL     1       0.865   2.213   1.417  1.00  0.00     0.339 C 
HETATM   16  O3  UNL     1       1.009   3.338   2.268  1.00  0.00    -0.327 OA
HETATM   17  C13 UNL     1       2.442   3.296   2.586  1.00  0.00     0.180 C 
HETATM   18  C14 UNL     1       2.804   1.803   2.392  1.00  0.00     0.288 C 
HETATM   19  C15 UNL     1       1.384  -2.389  -2.027  1.00  0.00     0.033 C 
HETATM   20  C16 UNL     1       1.464  -3.959  -1.974  1.00  0.00     0.127 C 
HETATM   21  C17 UNL     1       1.410  -4.331  -0.487  1.00  0.00     0.028 C 
HETATM   22  C18 UNL     1       0.195  -3.484   0.180  1.00  0.00     0.003 C 
HETATM   23  C19 UNL     1       2.816  -3.908   0.113  1.00  0.00     0.003 C 
HETATM   24  C20 UNL     1       3.152  -2.404  -0.248  1.00  0.00     0.003 C 
HETATM   25  O4  UNL     1       0.373  -4.480  -2.689  1.00  0.00    -0.226 OA
HETATM   26  C21 UNL     1       2.749  -4.585  -2.648  1.00  0.00     0.033 C 
HETATM   27  C22 UNL     1      -1.240   2.966   0.376  1.00  0.00     0.005 C 
ENDROOT
TORSDOF 0
