REMARK  1 active torsions:
REMARK  status: ('A' for Active; 'I' for Inactive)
REMARK    1  A    between atoms: N1_12  and  C13_14 
ROOT
HETATM    1  C1  UNL     1      -3.325  -0.286   0.713  1.00  0.00     0.000 C 
HETATM    2  C2  UNL     1      -3.386  -1.762   0.398  1.00  0.00     0.002 C 
HETATM    3  C3  UNL     1      -2.100  -2.132  -0.306  1.00  0.00     0.033 C 
HETATM    4  C4  UNL     1      -0.782  -1.780   0.544  1.00  0.00     0.033 C 
HETATM    5  C5  UNL     1      -0.441  -0.197   0.806  1.00  0.00     0.034 A 
HETATM    6  C6  UNL     1      -1.977   0.061   1.520  1.00  0.00     0.002 C 
HETATM    7  C7  UNL     1       0.820   0.502  -0.865  1.00  0.00     0.037 A 
HETATM    8  C8  UNL     1       1.840   0.169  -0.083  1.00  0.00     0.035 C 
HETATM    9  C9  UNL     1       1.789  -1.405  -0.117  1.00  0.00     0.034 C 
HETATM   10  C10 UNL     1       0.375  -2.066  -0.312  1.00  0.00     0.192 C 
HETATM   11  C11 UNL     1       0.833  -2.596   1.115  1.00  0.00     0.033 C 
HETATM   12  N1  UNL     1      -0.592  -0.877  -1.029  1.00  0.00     0.132 N 
HETATM   13  C12 UNL     1      -1.902  -1.387  -1.457  1.00  0.00     0.250 C 
HETATM   14  C13 UNL     1      -0.593   0.520  -0.020  1.00  0.00     0.217 A 
HETATM   15  C14 UNL     1       0.925   1.020   0.868  1.00  0.00     0.145 C 
HETATM   16  O1  UNL     1       1.222   2.467   0.730  1.00  0.00    -0.353 OA
HETATM   17  C15 UNL     1       1.724   2.779  -0.483  1.00  0.00     0.134 C 
HETATM   18  C16 UNL     1       3.078   2.114  -0.739  1.00  0.00    -0.018 C 
HETATM   19  C17 UNL     1       3.252   0.646  -0.371  1.00  0.00     0.027 C 
HETATM   20  C18 UNL     1       3.938   2.685  -1.583  1.00  0.00    -0.007 C 
HETATM   21  C19 UNL     1       0.868   2.104  -1.313  1.00  0.00     0.036 C 
HETATM   22  C20 UNL     1      -2.146  -3.628  -0.691  1.00  0.00     0.002 C 
ENDROOT
TORSDOF 1
