REMARK  6 active torsions:
REMARK  status: ('A' for Active; 'I' for Inactive)
REMARK    1  A    between atoms: C2_2  and  O9_27 
REMARK    2  A    between atoms: C3_3  and  C18_24 
REMARK    3  A    between atoms: C5_5  and  C8_8 
REMARK    4  A    between atoms: C8_8  and  O1_9 
REMARK    5  A    between atoms: O1_9  and  C9_10 
REMARK    6  A    between atoms: C12_13  and  C16_18 
ROOT
HETATM    1  C8  UNL     1       0.639  -0.227   0.262  1.00  0.00     0.302 C 
HETATM    2  O5  UNL     1       0.957  -1.102   1.033  1.00  0.00    -0.259 OA
ENDROOT
BRANCH   1   3
HETATM    3  C5  UNL     1       1.342   1.094   0.262  1.00  0.00     0.085 A 
HETATM    4  C4  UNL     1       0.594   2.287   0.262  1.00  0.00     0.143 A 
HETATM    5  C3  UNL     1       1.256   3.531   0.262  1.00  0.00     0.112 A 
HETATM    6  O6  UNL     1      -0.725   2.242   0.262  1.00  0.00    -0.190 OA
HETATM    7  C2  UNL     1       2.664   3.584   0.262  1.00  0.00     0.102 A 
HETATM    8  C1  UNL     1       3.404   2.391   0.262  1.00  0.00     0.021 A 
HETATM    9  C6  UNL     1       2.750   1.146   0.262  1.00  0.00    -0.013 A 
HETATM   10  C7  UNL     1       3.561  -0.102   0.262  1.00  0.00     0.031 C 
BRANCH   5  11
HETATM   11  C18 UNL     1       0.463   4.801   0.262  1.00  0.00     0.215 C 
HETATM   12  O7  UNL     1      -0.742   4.779   0.170  1.00  0.00    -0.644 OA
HETATM   13  O8  UNL     1       1.180   5.916   0.369  1.00  0.00    -0.644 OA
ENDBRANCH   5  11
BRANCH   7  14
HETATM   14  O9  UNL     1       3.295   4.742   0.262  1.00  0.00    -0.328 OA
HETATM   15  C19 UNL     1       4.713   4.729   0.229  1.00  0.00     0.181 C 
ENDBRANCH   7  14
ENDBRANCH   1   3
BRANCH   1  16
HETATM   16  O1  UNL     1      -0.340  -0.348  -0.633  1.00  0.00    -0.273 OA
BRANCH  16  17
HETATM   17  C9  UNL     1      -1.217  -1.322  -0.492  1.00  0.00     0.101 A 
HETATM   18  C10 UNL     1      -1.682  -1.662   0.789  1.00  0.00     0.021 A 
HETATM   19  C11 UNL     1      -2.617  -2.699   0.951  1.00  0.00    -0.012 A 
HETATM   20  C12 UNL     1      -3.090  -3.402  -0.174  1.00  0.00     0.086 A 
HETATM   21  C17 UNL     1      -3.096  -3.039   2.320  1.00  0.00     0.031 C 
HETATM   22  C13 UNL     1      -2.625  -3.065  -1.461  1.00  0.00     0.134 A 
HETATM   23  C14 UNL     1      -1.689  -2.024  -1.617  1.00  0.00     0.027 A 
HETATM   24  O2  UNL     1      -3.064  -3.719  -2.520  1.00  0.00    -0.190 OA
HETATM   25  C15 UNL     1      -1.197  -1.666  -2.977  1.00  0.00     0.035 C 
BRANCH  20  26
HETATM   26  C16 UNL     1      -4.086  -4.508  -0.010  1.00  0.00     0.213 C 
HETATM   27  O3  UNL     1      -3.813  -5.377   0.961  1.00  0.00    -0.644 OA
HETATM   28  O4  UNL     1      -5.061  -4.578  -0.721  1.00  0.00    -0.644 OA
ENDBRANCH  20  26
ENDBRANCH  16  17
ENDBRANCH   1  16
TORSDOF 6
