REMARK  26 active torsions:
REMARK  status: ('A' for Active; 'I' for Inactive)
REMARK    1  A    between atoms: C2_2  and  C23_29 
REMARK    2  A    between atoms: C3_4  and  C5_6 
REMARK    3  A    between atoms: C5_6  and  C6_7 
REMARK    4  A    between atoms: C6_7  and  C7_8 
REMARK    5  A    between atoms: C7_8  and  C8_9 
REMARK    6  A    between atoms: C8_9  and  C9_10 
REMARK    7  A    between atoms: C9_10  and  C10_11 
REMARK    8  A    between atoms: C10_11  and  C11_12 
REMARK    9  A    between atoms: C11_12  and  C12_13 
REMARK   10  A    between atoms: C12_13  and  C13_14 
REMARK   11  A    between atoms: C13_14  and  C14_15 
REMARK   12  A    between atoms: C14_15  and  C15_16 
REMARK   13  A    between atoms: C15_16  and  C16_17 
REMARK   14  A    between atoms: C18_19  and  C19_20 
REMARK   15  A    between atoms: C19_20  and  C20_21 
REMARK   16  A    between atoms: C23_29  and  C24_30 
REMARK   17  A    between atoms: C24_30  and  C25_31 
REMARK   18  A    between atoms: C25_31  and  C26_32 
REMARK   19  A    between atoms: C26_32  and  C27_33 
REMARK   20  A    between atoms: C27_33  and  C28_34 
REMARK   21  A    between atoms: C28_34  and  C29_35 
REMARK   22  A    between atoms: C29_35  and  C30_36 
REMARK   23  A    between atoms: C30_36  and  C31_37 
REMARK   24  A    between atoms: C31_37  and  C32_38 
REMARK   25  A    between atoms: C32_38  and  C33_39 
REMARK   26  A    between atoms: C33_39  and  C34_40 
ROOT
HETATM    1  C5  UNL     1       1.500  -6.207   2.084  1.00  0.00     0.179 C 
HETATM    2  O6  UNL     1       2.635  -6.828   2.646  1.00  0.00    -0.221 OA
ENDROOT
BRANCH   1   3
HETATM    3  C3  UNL     1       0.271  -6.678   2.850  1.00  0.00     0.146 C 
HETATM    4  O1  UNL     1      -0.883  -6.148   2.244  1.00  0.00    -0.354 OA
HETATM    5  C2  UNL     1      -2.000  -6.920   2.607  1.00  0.00     0.146 C 
HETATM    6  C1  UNL     1      -1.461  -8.344   2.492  1.00  0.00     0.035 C 
HETATM    7  C4  UNL     1       0.033  -8.191   2.807  1.00  0.00     0.035 C 
BRANCH   5   8
HETATM    8  C23 UNL     1      -3.160  -6.611   1.672  1.00  0.00     0.179 C 
HETATM    9  O7  UNL     1      -4.203  -7.520   1.947  1.00  0.00    -0.221 OA
BRANCH   8  10
HETATM   10  C24 UNL     1      -3.674  -5.197   1.945  1.00  0.00     0.035 C 
BRANCH  10  11
HETATM   11  C25 UNL     1      -4.727  -4.744   0.934  1.00  0.00     0.003 C 
BRANCH  11  12
HETATM   12  C26 UNL     1      -5.174  -3.299   1.154  1.00  0.00     0.000 C 
BRANCH  12  13
HETATM   13  C27 UNL     1      -6.231  -2.848   0.144  1.00  0.00     0.000 C 
BRANCH  13  14
HETATM   14  C28 UNL     1      -6.678  -1.402   0.365  1.00  0.00     0.000 C 
BRANCH  14  15
HETATM   15  C29 UNL     1      -7.733  -0.951  -0.645  1.00  0.00     0.000 C 
BRANCH  15  16
HETATM   16  C30 UNL     1      -8.180   0.494  -0.424  1.00  0.00     0.000 C 
BRANCH  16  17
HETATM   17  C31 UNL     1      -9.237   0.945  -1.434  1.00  0.00     0.000 C 
BRANCH  17  18
HETATM   18  C32 UNL     1      -9.684   2.391  -1.213  1.00  0.00     0.000 C 
BRANCH  18  19
HETATM   19  C33 UNL     1     -10.739   2.844  -2.223  1.00  0.00     0.000 C 
BRANCH  19  20
HETATM   20  C34 UNL     1     -11.188   4.287  -2.002  1.00  0.00     0.000 C 
HETATM   21  C35 UNL     1     -12.242   4.740  -3.012  1.00  0.00     0.000 C 
ENDBRANCH  19  20
ENDBRANCH  18  19
ENDBRANCH  17  18
ENDBRANCH  16  17
ENDBRANCH  15  16
ENDBRANCH  14  15
ENDBRANCH  13  14
ENDBRANCH  12  13
ENDBRANCH  11  12
ENDBRANCH  10  11
ENDBRANCH   8  10
ENDBRANCH   5   8
ENDBRANCH   1   3
BRANCH   1  22
HETATM   22  C6  UNL     1       1.652  -4.695   2.246  1.00  0.00     0.035 C 
BRANCH  22  23
HETATM   23  C7  UNL     1       2.809  -4.127   1.422  1.00  0.00     0.003 C 
BRANCH  23  24
HETATM   24  C8  UNL     1       2.928  -2.607   1.541  1.00  0.00     0.001 C 
BRANCH  24  25
HETATM   25  C9  UNL     1       4.084  -2.039   0.717  1.00  0.00     0.008 C 
BRANCH  25  26
HETATM   26  C10 UNL     1       4.201  -0.519   0.836  1.00  0.00     0.065 C 
BRANCH  26  27
HETATM   27  C11 UNL     1       5.348   0.033   0.031  1.00  0.00     0.151 C 
HETATM   28  O5  UNL     1       6.047  -0.693  -0.637  1.00  0.00    -0.296 OA
BRANCH  27  29
HETATM   29  C12 UNL     1       5.600   1.516   0.084  1.00  0.00     0.065 C 
BRANCH  29  30
HETATM   30  C13 UNL     1       6.770   1.940  -0.805  1.00  0.00     0.008 C 
BRANCH  30  31
HETATM   31  C14 UNL     1       7.023   3.447  -0.766  1.00  0.00     0.003 C 
BRANCH  31  32
HETATM   32  C15 UNL     1       8.195   3.871  -1.652  1.00  0.00     0.030 C 
BRANCH  32  33
HETATM   33  C16 UNL     1       8.371   5.383  -1.574  1.00  0.00     0.125 C 
HETATM   34  C17 UNL     1       9.492   5.901  -2.482  1.00  0.00     0.041 C 
HETATM   35  C18 UNL     1       9.873   7.184  -1.744  1.00  0.00     0.096 C 
HETATM   36  C22 UNL     1       9.498   6.836  -0.334  1.00  0.00     0.272 C 
HETATM   37  O3  UNL     1       8.713   5.768  -0.244  1.00  0.00    -0.304 OA
HETATM   38  O4  UNL     1       9.895   7.477   0.611  1.00  0.00    -0.264 OA
BRANCH  35  39
HETATM   39  C19 UNL     1       9.074   8.373  -2.264  1.00  0.00     0.074 C 
BRANCH  39  40
HETATM   40  C20 UNL     1       9.490   9.668  -1.621  1.00  0.00     0.151 C 
HETATM   41  C21 UNL     1       8.662  10.895  -1.899  1.00  0.00     0.072 C 
HETATM   42  O2  UNL     1      10.461   9.723  -0.902  1.00  0.00    -0.296 OA
ENDBRANCH  39  40
ENDBRANCH  35  39
ENDBRANCH  32  33
ENDBRANCH  31  32
ENDBRANCH  30  31
ENDBRANCH  29  30
ENDBRANCH  27  29
ENDBRANCH  26  27
ENDBRANCH  25  26
ENDBRANCH  24  25
ENDBRANCH  23  24
ENDBRANCH  22  23
ENDBRANCH   1  22
TORSDOF 26
