REMARK  1 active torsions:
REMARK  status: ('A' for Active; 'I' for Inactive)
REMARK    1  A    between atoms: C17_20  and  O3_21 
ROOT
HETATM    1  C1  UNL     1       0.299  -2.555  -0.797  1.00  0.00     0.119 A 
HETATM    2  C2  UNL     1       0.213  -1.209  -0.310  1.00  0.00     0.022 A 
HETATM    3  C3  UNL     1      -1.065  -0.617  -0.080  1.00  0.00     0.007 A 
HETATM    4  C4  UNL     1      -2.236  -1.322  -0.428  1.00  0.00    -0.020 A 
HETATM    5  C5  UNL     1      -2.131  -2.644  -0.908  1.00  0.00     0.022 A 
HETATM    6  C6  UNL     1      -0.871  -3.266  -1.084  1.00  0.00     0.119 A 
HETATM    7  O1  UNL     1      -0.559  -4.486  -1.516  1.00  0.00    -0.300 OA
HETATM    8  C7  UNL     1       0.877  -4.629  -1.533  1.00  0.00     0.304 A 
HETATM    9  O2  UNL     1       1.342  -3.346  -1.066  1.00  0.00    -0.300 OA
HETATM   10  C8  UNL     1      -3.555  -0.664  -0.285  1.00  0.00     0.061 C 
HETATM   11  C9  UNL     1      -3.430   0.858  -0.494  1.00  0.00     0.255 C 
HETATM   12  N1  UNL     1      -2.463   1.430   0.451  1.00  0.00     0.142 N 
HETATM   13  C10 UNL     1      -1.147   0.744   0.533  1.00  0.00     0.246 C 
HETATM   14  C11 UNL     1      -0.043   1.662  -0.027  1.00  0.00     0.066 C 
HETATM   15  C12 UNL     1       1.301   1.029   0.070  1.00  0.00     0.003 A 
HETATM   16  C13 UNL     1       1.430  -0.391  -0.049  1.00  0.00    -0.000 A 
HETATM   17  C14 UNL     1       2.723  -0.975   0.080  1.00  0.00    -0.000 A 
HETATM   18  C15 UNL     1       3.861  -0.162   0.287  1.00  0.00     0.002 A 
HETATM   19  C16 UNL     1       3.727   1.238   0.383  1.00  0.00     0.024 A 
HETATM   20  C17 UNL     1       2.451   1.836   0.279  1.00  0.00     0.090 A 
HETATM   21  C19 UNL     1      -3.065   1.660   1.764  1.00  0.00     0.286 C 
ENDROOT
BRANCH  20  22
HETATM   22  O3  UNL     1       2.342   3.168   0.377  1.00  0.00    -0.328 OA
HETATM   23  C18 UNL     1       3.516   3.914   0.668  1.00  0.00     0.181 C 
ENDBRANCH  20  22
TORSDOF 1
