REMARK  6 active torsions:
REMARK  status: ('A' for Active; 'I' for Inactive)
REMARK    1  A    between atoms: C15_15  and  C18_18 
REMARK    2  A    between atoms: C18_18  and  C20_20 
REMARK    3  A    between atoms: C20_20  and  C21_21 
REMARK    4  A    between atoms: C21_21  and  C22_22 
REMARK    5  A    between atoms: C22_22  and  C23_23 
REMARK    6  A    between atoms: C22_22  and  C26_26 
ROOT
HETATM    1  C1  UNL     1       5.475   0.172  -0.635  1.00  0.00     0.034 C 
HETATM    2  C2  UNL     1       6.234   1.203  -1.488  1.00  0.00     0.156 C 
HETATM    3  C3  UNL     1       5.418   2.500  -1.692  1.00  0.00     0.055 C 
HETATM    4  C4  UNL     1       3.920   2.279  -1.555  1.00  0.00    -0.046 C 
HETATM    5  C5  UNL     1       3.373   0.935  -2.024  1.00  0.00     0.015 C 
HETATM    6  C6  UNL     1       4.051  -0.160  -1.149  1.00  0.00     0.006 C 
HETATM    7  C7  UNL     1       1.816   0.853  -1.971  1.00  0.00     0.004 C 
HETATM    8  C8  UNL     1       1.254   1.576  -0.735  1.00  0.00     0.005 C 
HETATM    9  C9  UNL     1       1.664   3.057  -0.776  1.00  0.00     0.025 C 
HETATM   10  C10 UNL     1       3.147   3.236  -1.000  1.00  0.00    -0.035 C 
HETATM   11  C11 UNL     1      -0.279   1.449  -0.604  1.00  0.00     0.000 C 
HETATM   12  C12 UNL     1      -0.783   0.006  -0.758  1.00  0.00     0.000 C 
HETATM   13  C13 UNL     1      -0.258  -0.631  -2.059  1.00  0.00     0.000 C 
HETATM   14  C14 UNL     1       1.275  -0.586  -2.094  1.00  0.00     0.000 C 
HETATM   15  C15 UNL     1      -2.303   0.223  -0.838  1.00  0.00     0.000 C 
HETATM   16  C16 UNL     1      -2.455   1.471  -1.713  1.00  0.00     0.000 C 
HETATM   17  C17 UNL     1      -1.119   2.211  -1.637  1.00  0.00     0.000 C 
HETATM   18  C28 UNL     1      -0.400  -0.834   0.465  1.00  0.00     0.000 C 
HETATM   19  C29 UNL     1       3.779   0.748  -3.494  1.00  0.00     0.004 C 
HETATM   20  O1  UNL     1       6.574   0.625  -2.735  1.00  0.00    -0.223 OA
ENDROOT
BRANCH  15  21
HETATM   21  C18 UNL     1      -2.936   0.502   0.529  1.00  0.00     0.000 C 
HETATM   22  C19 UNL     1      -4.205   1.332   0.344  1.00  0.00     0.000 C 
BRANCH  21  23
HETATM   23  C20 UNL     1      -3.195  -0.822   1.250  1.00  0.00     0.000 C 
BRANCH  23  24
HETATM   24  C21 UNL     1      -3.035  -0.709   2.766  1.00  0.00     0.004 C 
BRANCH  24  25
HETATM   25  C22 UNL     1      -3.137  -2.061   3.473  1.00  0.00     0.018 C 
BRANCH  25  26
HETATM   26  C23 UNL     1      -4.436  -2.766   3.182  1.00  0.00    -0.044 C 
HETATM   27  C24 UNL     1      -4.629  -3.674   1.998  1.00  0.00     0.026 C 
HETATM   28  C25 UNL     1      -5.469  -2.572   4.018  1.00  0.00    -0.009 C 
ENDBRANCH  25  26
BRANCH  25  29
HETATM   29  C26 UNL     1      -1.922  -2.953   3.217  1.00  0.00     0.004 C 
HETATM   30  C27 UNL     1      -0.654  -2.432   3.894  1.00  0.00     0.000 C 
ENDBRANCH  25  29
ENDBRANCH  24  25
ENDBRANCH  23  24
ENDBRANCH  21  23
ENDBRANCH  15  21
TORSDOF 6
