REMARK  5 active torsions:
REMARK  status: ('A' for Active; 'I' for Inactive)
REMARK    1  A    between atoms: C15_15  and  C18_18 
REMARK    2  A    between atoms: C18_18  and  C20_20 
REMARK    3  A    between atoms: C21_21  and  C22_22 
REMARK    4  A    between atoms: C22_22  and  C23_23 
REMARK    5  A    between atoms: C22_22  and  C26_26 
ROOT
HETATM    1  C1  UNL     1       5.979  -0.850  -2.360  1.00  0.00     0.034 C 
HETATM    2  C2  UNL     1       6.455   0.609  -2.377  1.00  0.00     0.156 C 
HETATM    3  C3  UNL     1       5.756   1.441  -1.291  1.00  0.00     0.055 C 
HETATM    4  C4  UNL     1       4.246   1.268  -1.277  1.00  0.00    -0.046 C 
HETATM    5  C5  UNL     1       3.695  -0.156  -1.356  1.00  0.00     0.015 C 
HETATM    6  C6  UNL     1       4.447  -0.955  -2.451  1.00  0.00     0.006 C 
HETATM    7  C7  UNL     1       2.166  -0.187  -1.656  1.00  0.00     0.004 C 
HETATM    8  C8  UNL     1       1.412   0.879  -0.842  1.00  0.00     0.005 C 
HETATM    9  C9  UNL     1       1.947   2.281  -1.172  1.00  0.00     0.025 C 
HETATM   10  C10 UNL     1       3.455   2.357  -1.188  1.00  0.00    -0.035 C 
HETATM   11  C11 UNL     1      -0.117   0.836  -1.051  1.00  0.00     0.000 C 
HETATM   12  C12 UNL     1      -0.713  -0.570  -0.891  1.00  0.00     0.000 C 
HETATM   13  C13 UNL     1       0.035  -1.596  -1.764  1.00  0.00     0.000 C 
HETATM   14  C14 UNL     1       1.535  -1.584  -1.449  1.00  0.00     0.000 C 
HETATM   15  C15 UNL     1      -2.143  -0.361  -1.416  1.00  0.00     0.004 C 
HETATM   16  C16 UNL     1      -1.955   0.537  -2.641  1.00  0.00     0.000 C 
HETATM   17  C17 UNL     1      -0.627   1.268  -2.430  1.00  0.00     0.000 C 
HETATM   18  C28 UNL     1      -0.711  -0.994   0.580  1.00  0.00     0.000 C 
HETATM   19  C29 UNL     1       3.977  -0.783   0.017  1.00  0.00     0.004 C 
HETATM   20  O1  UNL     1       6.195   1.176  -3.647  1.00  0.00    -0.223 OA
ENDROOT
BRANCH  15  21
HETATM   21  C18 UNL     1      -3.045   0.359  -0.410  1.00  0.00     0.022 C 
HETATM   22  C19 UNL     1      -4.283   0.602  -1.274  1.00  0.00     0.005 C 
BRANCH  21  23
HETATM   23  C20 UNL     1      -3.346  -0.482   0.801  1.00  0.00    -0.031 C 
HETATM   24  C21 UNL     1      -3.443   0.123   1.994  1.00  0.00    -0.031 C 
BRANCH  24  25
HETATM   25  C22 UNL     1      -3.742  -0.719   3.205  1.00  0.00     0.022 C 
BRANCH  25  26
HETATM   26  C23 UNL     1      -2.776  -0.447   4.357  1.00  0.00     0.004 C 
HETATM   27  C24 UNL     1      -1.340  -0.855   4.031  1.00  0.00     0.000 C 
HETATM   28  C25 UNL     1      -2.879   0.982   4.889  1.00  0.00     0.000 C 
ENDBRANCH  25  26
BRANCH  25  29
HETATM   29  C26 UNL     1      -5.209  -0.629   3.631  1.00  0.00     0.004 C 
HETATM   30  C27 UNL     1      -6.166  -1.168   2.566  1.00  0.00     0.000 C 
ENDBRANCH  25  29
ENDBRANCH  24  25
ENDBRANCH  21  23
ENDBRANCH  15  21
TORSDOF 5
