REMARK  6 active torsions:
REMARK  status: ('A' for Active; 'I' for Inactive)
REMARK    1  A    between atoms: C2_2  and  O9_30 
REMARK    2  A    between atoms: C4_4  and  O8_28 
REMARK    3  A    between atoms: C7_8  and  C10_12 
REMARK    4  A    between atoms: C13_15  and  O3_18 
REMARK    5  A    between atoms: O3_18  and  C16_19 
REMARK    6  A    between atoms: C18_22  and  C20_26 
ROOT
HETATM    1  C10 UNL     1      -0.146  -0.504  -0.537  1.00  0.00     0.023 A 
HETATM    2  C11 UNL     1       1.096  -0.654   0.109  1.00  0.00     0.004 A 
HETATM    3  C12 UNL     1       2.168   0.189  -0.227  1.00  0.00     0.024 A 
HETATM    4  C13 UNL     1       2.006   1.185  -1.205  1.00  0.00     0.097 A 
HETATM    5  C14 UNL     1       0.766   1.332  -1.850  1.00  0.00     0.024 A 
HETATM    6  C15 UNL     1      -0.310   0.490  -1.518  1.00  0.00     0.004 A 
ENDROOT
BRANCH   1   7
HETATM    7  C7  UNL     1      -1.287  -1.400  -0.182  1.00  0.00     0.103 A 
HETATM    8  O1  UNL     1      -2.555  -0.971  -0.348  1.00  0.00    -0.307 OA
HETATM    9  C6  UNL     1      -3.642  -1.719  -0.051  1.00  0.00     0.107 A 
HETATM   10  C1  UNL     1      -4.937  -1.191  -0.256  1.00  0.00     0.049 A 
HETATM   11  C5  UNL     1      -3.490  -3.031   0.469  1.00  0.00     0.084 A 
HETATM   12  C2  UNL     1      -6.078  -1.969   0.057  1.00  0.00     0.098 A 
HETATM   13  C3  UNL     1      -5.924  -3.277   0.574  1.00  0.00     0.049 A 
HETATM   14  C4  UNL     1      -4.631  -3.815   0.781  1.00  0.00     0.101 A 
HETATM   15  C9  UNL     1      -2.113  -3.561   0.670  1.00  0.00     0.201 A 
HETATM   16  C8  UNL     1      -1.019  -2.635   0.303  1.00  0.00     0.067 A 
HETATM   17  O2  UNL     1      -1.797  -4.649   1.096  1.00  0.00    -0.286 OA
BRANCH  12  18
HETATM   18  O9  UNL     1      -7.305  -1.465  -0.139  1.00  0.00    -0.328 OA
HETATM   19  C22 UNL     1      -7.410  -0.139  -0.635  1.00  0.00     0.181 C 
ENDBRANCH  12  18
BRANCH  14  20
HETATM   20  O8  UNL     1      -4.504  -5.055   1.273  1.00  0.00    -0.328 OA
HETATM   21  C21 UNL     1      -5.689  -5.781   1.564  1.00  0.00     0.181 C 
ENDBRANCH  14  20
ENDBRANCH   1   7
BRANCH   4  22
HETATM   22  O3  UNL     1       3.014   1.977  -1.520  1.00  0.00    -0.304 OA
BRANCH  22  23
HETATM   23  C16 UNL     1       4.153   1.973  -0.670  1.00  0.00     0.274 C 
HETATM   24  O4  UNL     1       3.836   2.437   0.617  1.00  0.00    -0.326 OA
HETATM   25  C17 UNL     1       5.020   2.785   1.299  1.00  0.00     0.181 C 
HETATM   26  C18 UNL     1       5.977   3.270   0.191  1.00  0.00     0.217 C 
HETATM   27  C19 UNL     1       5.190   2.994  -1.121  1.00  0.00     0.241 C 
HETATM   28  O6  UNL     1       7.194   2.545   0.281  1.00  0.00    -0.218 OA
HETATM   29  O5  UNL     1       5.969   2.490  -2.193  1.00  0.00    -0.215 OA
BRANCH  26  30
HETATM   30  C20 UNL     1       6.315   4.752   0.332  1.00  0.00     0.218 C 
HETATM   31  O7  UNL     1       6.879   4.957   1.607  1.00  0.00    -0.218 OA
ENDBRANCH  26  30
ENDBRANCH  22  23
ENDBRANCH   4  22
TORSDOF 6
