REMARK  2 active torsions:
REMARK  status: ('A' for Active; 'I' for Inactive)
REMARK    1  A    between atoms: C5_5  and  C23_26 
REMARK    2  A    between atoms: C15_15  and  C18_18 
ROOT
HETATM    1  C1  UNL     1       3.570  -0.711  -0.672  1.00  0.00     0.034 C 
HETATM    2  C2  UNL     1       4.363   0.602  -0.844  1.00  0.00     0.155 C 
HETATM    3  C3  UNL     1       4.057   1.633   0.264  1.00  0.00     0.064 C 
HETATM    4  C4  UNL     1       2.567   1.619   0.680  1.00  0.00     0.136 C 
HETATM    5  C5  UNL     1       2.137   0.209   1.273  1.00  0.00     0.084 C 
HETATM    6  C6  UNL     1       3.110  -0.906   0.777  1.00  0.00     0.012 C 
HETATM    7  C7  UNL     1       0.670  -0.141   0.853  1.00  0.00     0.012 C 
HETATM    8  C8  UNL     1      -0.252   1.102   0.916  1.00  0.00     0.029 C 
HETATM    9  C9  UNL     1       0.166   2.102  -0.188  1.00  0.00     0.005 C 
HETATM   10  C10 UNL     1       1.674   2.051  -0.512  1.00  0.00     0.031 C 
HETATM   11  C11 UNL     1      -1.783   0.754   1.014  1.00  0.00     0.127 C 
HETATM   12  C12 UNL     1      -2.191  -0.643   0.471  1.00  0.00     0.029 C 
HETATM   13  C13 UNL     1      -1.250  -1.791   0.902  1.00  0.00     0.003 C 
HETATM   14  C14 UNL     1       0.033  -1.322   1.601  1.00  0.00     0.001 C 
HETATM   15  C15 UNL     1      -2.143  -0.348  -1.041  1.00  0.00     0.023 C 
HETATM   16  C16 UNL     1      -2.853   1.004  -1.170  1.00  0.00     0.007 C 
HETATM   17  C17 UNL     1      -2.707   1.678   0.197  1.00  0.00     0.031 C 
HETATM   18  C22 UNL     1      -3.648  -1.004   0.816  1.00  0.00     0.003 C 
HETATM   19  O3  UNL     1      -2.164   0.840   2.381  1.00  0.00    -0.226 OA
HETATM   20  O5  UNL     1       2.426   2.650   1.650  1.00  0.00    -0.226 OA
HETATM   21  O6  UNL     1       5.752   0.328  -0.830  1.00  0.00    -0.223 OA
ENDROOT
BRANCH  15  22
HETATM   22  C18 UNL     1      -2.740  -1.418  -1.926  1.00  0.00    -0.009 A 
HETATM   23  C19 UNL     1      -2.367  -2.877  -1.865  1.00  0.00     0.175 A 
HETATM   24  O1  UNL     1      -3.184  -3.486  -2.879  1.00  0.00    -0.294 OA
HETATM   25  C20 UNL     1      -3.934  -2.539  -3.457  1.00  0.00     0.296 A 
HETATM   26  C21 UNL     1      -3.664  -1.238  -2.867  1.00  0.00     0.062 A 
HETATM   27  O2  UNL     1      -4.734  -2.713  -4.348  1.00  0.00    -0.259 OA
ENDBRANCH  15  22
BRANCH   5  28
HETATM   28  C23 UNL     1       2.225   0.174   2.791  1.00  0.00     0.209 C 
HETATM   29  O4  UNL     1       2.932  -0.627   3.355  1.00  0.00    -0.288 OA
ENDBRANCH   5  28
TORSDOF 2
