REMARK  11 active torsions:
REMARK  status: ('A' for Active; 'I' for Inactive)
REMARK    1  A    between atoms: C2_2  and  O6_29 
REMARK    2  A    between atoms: C5_5  and  C23_26 
REMARK    3  A    between atoms: C15_15  and  C18_18 
REMARK    4  A    between atoms: O6_29  and  C24_30 
REMARK    5  A    between atoms: C26_33  and  O9_38 
REMARK    6  A    between atoms: C27_34  and  O8_36 
REMARK    7  A    between atoms: O9_38  and  C30_39 
REMARK    8  A    between atoms: C31_41  and  C35_48 
REMARK    9  A    between atoms: C35_48  and  O14_49 
REMARK   10  A    between atoms: O14_49  and  C36_50 
REMARK   11  A    between atoms: C37_52  and  C41_59 
ROOT
HETATM    1  C24 UNL     1       1.047   1.873  -0.773  1.00  0.00     0.238 C 
HETATM    2  O7  UNL     1       1.051   0.467  -0.982  1.00  0.00    -0.331 OA
HETATM    3  C25 UNL     1       1.180   0.063  -2.340  1.00  0.00     0.147 C 
HETATM    4  C26 UNL     1       2.520   0.586  -2.910  1.00  0.00     0.172 C 
HETATM    5  C27 UNL     1       2.652   2.113  -2.719  1.00  0.00     0.150 C 
HETATM    6  C28 UNL     1       2.383   2.479  -1.252  1.00  0.00     0.094 C 
HETATM    7  C42 UNL     1       1.078  -1.467  -2.359  1.00  0.00     0.035 C 
ENDROOT
BRANCH   1   8
HETATM    8  O6  UNL     1       0.875   2.149   0.600  1.00  0.00    -0.333 OA
BRANCH   8   9
HETATM    9  C2  UNL     1      -0.477   2.346   0.963  1.00  0.00     0.120 C 
HETATM   10  C1  UNL     1      -1.256   1.039   0.748  1.00  0.00     0.030 C 
HETATM   11  C6  UNL     1      -2.701   1.158   1.258  1.00  0.00     0.012 C 
HETATM   12  C5  UNL     1      -2.805   1.598   2.746  1.00  0.00     0.084 C 
HETATM   13  C4  UNL     1      -2.006   2.930   2.938  1.00  0.00     0.136 C 
HETATM   14  C7  UNL     1      -4.317   1.738   3.139  1.00  0.00     0.012 C 
HETATM   15  C3  UNL     1      -0.547   2.809   2.428  1.00  0.00     0.061 C 
HETATM   16  C10 UNL     1      -2.731   4.108   2.248  1.00  0.00     0.031 C 
HETATM   17  O5  UNL     1      -1.914   3.246   4.318  1.00  0.00    -0.226 OA
HETATM   18  C9  UNL     1      -4.192   4.250   2.690  1.00  0.00     0.005 C 
HETATM   19  C8  UNL     1      -5.024   2.957   2.490  1.00  0.00     0.029 C 
HETATM   20  C11 UNL     1      -6.527   3.086   2.943  1.00  0.00     0.127 C 
HETATM   21  C12 UNL     1      -7.106   1.965   3.856  1.00  0.00     0.029 C 
HETATM   22  C17 UNL     1      -7.465   2.943   1.734  1.00  0.00     0.031 C 
HETATM   23  O3  UNL     1      -6.770   4.358   3.533  1.00  0.00    -0.226 OA
HETATM   24  C13 UNL     1      -6.121   1.537   4.963  1.00  0.00     0.003 C 
HETATM   25  C15 UNL     1      -7.438   0.801   2.879  1.00  0.00     0.023 C 
HETATM   26  C22 UNL     1      -8.434   2.410   4.502  1.00  0.00     0.003 C 
HETATM   27  C14 UNL     1      -4.625   1.725   4.650  1.00  0.00     0.001 C 
HETATM   28  C16 UNL     1      -7.481   1.442   1.486  1.00  0.00     0.007 C 
BRANCH  12  29
HETATM   29  C23 UNL     1      -2.180   0.475   3.553  1.00  0.00     0.209 C 
HETATM   30  O4  UNL     1      -1.287   0.693   4.338  1.00  0.00    -0.288 OA
ENDBRANCH  12  29
BRANCH  25  31
HETATM   31  C18 UNL     1      -8.684   0.012   3.190  1.00  0.00    -0.009 A 
HETATM   32  C19 UNL     1      -8.764  -1.074   4.229  1.00  0.00     0.175 A 
HETATM   33  O1  UNL     1     -10.129  -1.523   4.156  1.00  0.00    -0.294 OA
HETATM   34  C20 UNL     1     -10.768  -0.812   3.219  1.00  0.00     0.296 A 
HETATM   35  C21 UNL     1      -9.871   0.154   2.604  1.00  0.00     0.062 A 
HETATM   36  O2  UNL     1     -11.930  -0.934   2.906  1.00  0.00    -0.259 OA
ENDBRANCH  25  31
ENDBRANCH   8   9
ENDBRANCH   1   8
BRANCH   5  37
HETATM   37  O8  UNL     1       3.953   2.547  -3.070  1.00  0.00    -0.351 OA
HETATM   38  C29 UNL     1       4.092   3.951  -3.053  1.00  0.00     0.174 C 
ENDBRANCH   5  37
BRANCH   4  39
HETATM   39  O9  UNL     1       2.584   0.268  -4.289  1.00  0.00    -0.327 OA
BRANCH  39  40
HETATM   40  C30 UNL     1       3.883  -0.092  -4.719  1.00  0.00     0.270 C 
HETATM   41  O10 UNL     1       4.205  -1.357  -4.156  1.00  0.00    -0.326 OA
HETATM   42  C31 UNL     1       5.510  -1.834  -4.457  1.00  0.00     0.180 C 
HETATM   43  C32 UNL     1       5.645  -2.019  -5.986  1.00  0.00     0.215 C 
HETATM   44  C33 UNL     1       5.305  -0.717  -6.742  1.00  0.00     0.220 C 
HETATM   45  O13 UNL     1       6.975  -2.412  -6.279  1.00  0.00    -0.218 OA
HETATM   46  C34 UNL     1       3.939  -0.172  -6.266  1.00  0.00     0.241 C 
HETATM   47  O12 UNL     1       5.262  -0.969  -8.139  1.00  0.00    -0.218 OA
HETATM   48  O11 UNL     1       3.734   1.123  -6.809  1.00  0.00    -0.215 OA
BRANCH  42  49
HETATM   49  C35 UNL     1       5.693  -3.141  -3.678  1.00  0.00     0.177 C 
BRANCH  49  50
HETATM   50  O14 UNL     1       5.760  -2.828  -2.305  1.00  0.00    -0.326 OA
BRANCH  50  51
HETATM   51  C36 UNL     1       5.826  -3.973  -1.477  1.00  0.00     0.270 C 
HETATM   52  O15 UNL     1       7.104  -4.574  -1.643  1.00  0.00    -0.326 OA
HETATM   53  C37 UNL     1       7.303  -5.773  -0.906  1.00  0.00     0.184 C 
HETATM   54  C38 UNL     1       7.186  -5.471   0.605  1.00  0.00     0.215 C 
HETATM   55  C39 UNL     1       5.840  -4.793   0.939  1.00  0.00     0.220 C 
HETATM   56  O18 UNL     1       7.303  -6.688   1.320  1.00  0.00    -0.218 OA
HETATM   57  C40 UNL     1       5.613  -3.580   0.008  1.00  0.00     0.241 C 
HETATM   58  O17 UNL     1       5.838  -4.367   2.293  1.00  0.00    -0.218 OA
HETATM   59  O16 UNL     1       4.293  -3.094   0.182  1.00  0.00    -0.215 OA
BRANCH  53  60
HETATM   60  C41 UNL     1       8.682  -6.309  -1.303  1.00  0.00     0.214 C 
HETATM   61  O19 UNL     1       8.627  -6.711  -2.652  1.00  0.00    -0.218 OA
ENDBRANCH  53  60
ENDBRANCH  50  51
ENDBRANCH  49  50
ENDBRANCH  42  49
ENDBRANCH  39  40
ENDBRANCH   4  39
TORSDOF 11
