REMARK  0 active torsions:
REMARK  status: ('A' for Active; 'I' for Inactive)
ROOT
HETATM    1  C1  UNL     1      -3.604   0.729   0.548  1.00  0.00    -0.002 A 
HETATM    2  C2  UNL     1      -4.648  -0.099   0.471  1.00  0.00    -0.000 A 
HETATM    3  C3  UNL     1      -4.443  -1.531   0.220  1.00  0.00     0.002 A 
HETATM    4  C4  UNL     1      -3.210  -2.003   0.066  1.00  0.00     0.017 A 
HETATM    5  C5  UNL     1      -2.083  -1.081   0.138  1.00  0.00     0.062 A 
HETATM    6  C6  UNL     1      -2.239   0.223   0.372  1.00  0.00     0.000 A 
HETATM    7  C7  UNL     1      -1.003   1.276   0.406  1.00  0.00     0.082 A 
HETATM    8  C8  UNL     1      -0.138  -0.342   0.119  1.00  0.00     0.029 A 
HETATM    9  N1  UNL     1      -0.867  -1.392  -0.030  1.00  0.00    -0.286 N 
HETATM   10  C9  UNL     1      -0.285  -2.705  -0.203  1.00  0.00     0.243 C 
HETATM   11  C10 UNL     1       1.208  -2.872  -0.638  1.00  0.00     0.118 C 
HETATM   12  C11 UNL     1       2.187  -1.639  -0.431  1.00  0.00     0.130 C 
HETATM   13  C12 UNL     1       1.321  -0.433  -0.855  1.00  0.00     0.063 C 
HETATM   14  C13 UNL     1       2.204   0.901  -0.830  1.00  0.00     0.012 A 
HETATM   15  C14 UNL     1       1.604   1.052   0.529  1.00  0.00     0.035 A 
HETATM   16  C15 UNL     1       0.437   1.733   0.040  1.00  0.00     0.228 C 
HETATM   17  N2  UNL     1       0.720   3.025   0.408  1.00  0.00     0.136 N 
HETATM   18  C16 UNL     1      -0.371   3.650  -0.407  1.00  0.00     0.251 C 
HETATM   19  C17 UNL     1      -1.529   2.446  -0.521  1.00  0.00     0.046 C 
HETATM   20  C18 UNL     1       2.333   3.284   0.093  1.00  0.00     0.250 C 
HETATM   21  C19 UNL     1       2.966   1.719   0.071  1.00  0.00     0.036 A 
HETATM   22  C20 UNL     1       3.910   1.131   0.896  1.00  0.00     0.034 C 
HETATM   23  C21 UNL     1       4.183  -0.535   0.967  1.00  0.00     0.142 C 
HETATM   24  O1  UNL     1       2.859  -1.490   0.936  1.00  0.00    -0.356 OA
HETATM   25  O2  UNL     1      -1.011  -3.703  -0.238  1.00  0.00    -0.272 OA
ENDROOT
TORSDOF 0
