REMARK  0 active torsions:
REMARK  status: ('A' for Active; 'I' for Inactive)
ROOT
HETATM    1  C1  UNL     1      -2.141  -0.020  -2.430  1.00  0.00    -0.002 A 
HETATM    2  C2  UNL     1      -3.150   0.928  -2.164  1.00  0.00     0.026 A 
HETATM    3  C3  UNL     1      -3.574   1.201  -0.840  1.00  0.00     0.119 A 
HETATM    4  C4  UNL     1      -2.982   0.515   0.224  1.00  0.00     0.117 A 
HETATM    5  C5  UNL     1      -1.959  -0.440  -0.027  1.00  0.00     0.031 A 
HETATM    6  C6  UNL     1      -1.535  -0.709  -1.356  1.00  0.00    -0.020 A 
HETATM    7  C7  UNL     1      -0.471  -1.709  -1.602  1.00  0.00     0.064 C 
HETATM    8  C8  UNL     1       0.500  -1.871  -0.402  1.00  0.00     0.246 C 
HETATM    9  N1  UNL     1      -0.308  -2.160   0.801  1.00  0.00     0.144 N 
HETATM   10  C9  UNL     1      -1.336  -1.141   1.129  1.00  0.00     0.279 C 
HETATM   11  C10 UNL     1       0.567  -2.492   1.935  1.00  0.00     0.256 C 
HETATM   12  C11 UNL     1       1.502  -1.315   2.299  1.00  0.00     0.061 C 
HETATM   13  C12 UNL     1       1.973  -0.514   1.137  1.00  0.00    -0.020 A 
HETATM   14  C13 UNL     1       1.488  -0.766  -0.176  1.00  0.00     0.007 A 
HETATM   15  C14 UNL     1       1.969   0.043  -1.238  1.00  0.00     0.024 A 
HETATM   16  C15 UNL     1       2.904   1.086  -1.020  1.00  0.00     0.119 A 
HETATM   17  C16 UNL     1       3.377   1.326   0.271  1.00  0.00     0.119 A 
HETATM   18  C17 UNL     1       2.912   0.523   1.342  1.00  0.00     0.022 A 
HETATM   19  O1  UNL     1       4.238   2.344   0.236  1.00  0.00    -0.300 OA
HETATM   20  C18 UNL     1       4.358   2.822  -1.121  1.00  0.00     0.304 A 
HETATM   21  O2  UNL     1       3.471   1.951  -1.861  1.00  0.00    -0.300 OA
HETATM   22  O3  UNL     1      -3.535   0.931   1.367  1.00  0.00    -0.300 OA
HETATM   23  C19 UNL     1      -4.527   1.939   1.076  1.00  0.00     0.304 A 
HETATM   24  O4  UNL     1      -4.492   2.043  -0.363  1.00  0.00    -0.300 OA
ENDROOT
TORSDOF 0
