REMARK  2 active torsions:
REMARK  status: ('A' for Active; 'I' for Inactive)
REMARK    1  A    between atoms: C1_1  and  C19_20 
REMARK    2  A    between atoms: C9_9  and  C12_12 
ROOT
HETATM    1  C1  UNL     1      -3.174  -0.648  -1.010  1.00  0.00     0.079 C 
HETATM    2  C2  UNL     1      -1.631  -0.648  -0.873  1.00  0.00     0.013 C 
HETATM    3  C3  UNL     1      -1.127   0.069   0.416  1.00  0.00     0.015 C 
HETATM    4  C4  UNL     1       0.344   0.367   0.133  1.00  0.00    -0.050 C 
HETATM    5  C5  UNL     1       1.123  -0.634  -0.356  1.00  0.00    -0.022 C 
HETATM    6  C6  UNL     1       0.533  -2.017  -0.580  1.00  0.00     0.024 C 
HETATM    7  C7  UNL     1      -0.945  -2.023  -1.035  1.00  0.00     0.005 C 
HETATM    8  C8  UNL     1       2.586  -0.437  -0.699  1.00  0.00     0.170 C 
HETATM    9  C9  UNL     1       3.215   0.813  -0.051  1.00  0.00     0.035 C 
HETATM   10  C10 UNL     1       2.283   2.016  -0.236  1.00  0.00     0.007 C 
HETATM   11  C11 UNL     1       0.902   1.758   0.387  1.00  0.00     0.021 C 
HETATM   12  O1  UNL     1       2.703  -0.336  -2.106  1.00  0.00    -0.219 OA
HETATM   13  C15 UNL     1      -2.027   1.291   0.754  1.00  0.00     0.004 C 
HETATM   14  C16 UNL     1      -2.748   1.860  -0.473  1.00  0.00     0.001 C 
HETATM   15  C17 UNL     1      -3.686   0.817  -1.117  1.00  0.00     0.010 C 
HETATM   16  C18 UNL     1      -1.164  -0.867   1.639  1.00  0.00     0.004 C 
HETATM   17  C20 UNL     1      -3.818  -1.355   0.189  1.00  0.00     0.011 C 
ENDROOT
BRANCH   1  18
HETATM   18  C19 UNL     1      -3.603  -1.406  -2.244  1.00  0.00     0.184 C 
HETATM   19  O2  UNL     1      -3.170  -0.906  -3.397  1.00  0.00    -0.647 OA
HETATM   20  O3  UNL     1      -4.295  -2.396  -2.158  1.00  0.00    -0.647 OA
ENDBRANCH   1  18
BRANCH   9  21
HETATM   21  C12 UNL     1       3.512   0.573   1.436  1.00  0.00     0.003 C 
HETATM   22  C13 UNL     1       4.498  -0.572   1.662  1.00  0.00     0.000 C 
HETATM   23  C14 UNL     1       3.916   1.852   2.170  1.00  0.00     0.000 C 
ENDBRANCH   9  21
TORSDOF 2
