REMARK  7 active torsions:
REMARK  status: ('A' for Active; 'I' for Inactive)
REMARK    1  A    between atoms: O1_2  and  C2_3 
REMARK    2  A    between atoms: C4_5  and  C5_6 
REMARK    3  A    between atoms: C6_7  and  C7_8 
REMARK       I    between atoms: C7_8  and  N1_9 
REMARK    4  A    between atoms: N1_9  and  C8_10 
REMARK    5  A    between atoms: C8_10  and  C9_11 
REMARK    6  A    between atoms: C9_11  and  C10_12 
REMARK    7  A    between atoms: C10_12  and  C11_13 
ROOT
HETATM    1  C5  UNL     1       2.631  -0.012   0.033  1.00  0.00     0.005 C 
HETATM    2  C6  UNL     1       1.287  -0.029   0.033  1.00  0.00     0.062 C 
ENDROOT
BRANCH   1   3
HETATM    3  C4  UNL     1       3.332   1.307   0.033  1.00  0.00     0.002 A 
HETATM    4  C3  UNL     1       2.586   2.500   0.033  1.00  0.00     0.026 A 
HETATM    5  C2  UNL     1       3.242   3.744   0.033  1.00  0.00     0.119 A 
HETATM    6  C14 UNL     1       4.649   3.795   0.033  1.00  0.00     0.153 A 
HETATM    7  C13 UNL     1       5.393   2.602   0.033  1.00  0.00     0.029 A 
HETATM    8  O3  UNL     1       5.272   4.957   0.033  1.00  0.00    -0.188 OA
HETATM    9  C12 UNL     1       4.736   1.359   0.033  1.00  0.00     0.002 A 
BRANCH   5  10
HETATM   10  O1  UNL     1       2.537   4.857   0.033  1.00  0.00    -0.326 OA
HETATM   11  C1  UNL     1       1.125   4.754  -0.078  1.00  0.00     0.181 C 
ENDBRANCH   5  10
ENDBRANCH   1   3
BRANCH   2  12
HETATM   12  C7  UNL     1       0.557  -1.301   0.033  1.00  0.00     0.275 C 
HETATM   13  N1  UNL     1      -0.811  -1.285   0.033  1.00  0.00    -0.234 NA
HETATM   14  O2  UNL     1       1.154  -2.352   0.033  1.00  0.00    -0.266 OA
BRANCH  13  15
HETATM   15  C8  UNL     1      -1.547  -2.559   0.033  1.00  0.00     0.129 C 
BRANCH  15  16
HETATM   16  C9  UNL     1      -3.057  -2.316   0.033  1.00  0.00     0.029 C 
BRANCH  16  17
HETATM   17  C10 UNL     1      -3.861  -3.617   0.033  1.00  0.00     0.043 C 
BRANCH  17  18
HETATM   18  C11 UNL     1      -5.371  -3.375   0.031  1.00  0.00     0.339 C 
HETATM   19  N2  UNL     1      -6.088  -4.641   0.035  1.00  0.00     0.618 N 
ENDBRANCH  17  18
ENDBRANCH  16  17
ENDBRANCH  15  16
ENDBRANCH  13  15
ENDBRANCH   2  12
TORSDOF 7
