REMARK  11 active torsions:
REMARK  status: ('A' for Active; 'I' for Inactive)
REMARK    1  A    between atoms: C5_5  and  C7_7 
REMARK    2  A    between atoms: C7_7  and  O1_8 
REMARK    3  A    between atoms: O1_8  and  C8_9 
REMARK    4  A    between atoms: C8_9  and  C9_10 
REMARK    5  A    between atoms: C11_12  and  O3_15 
REMARK    6  A    between atoms: O3_15  and  C13_16 
REMARK    7  A    between atoms: C13_16  and  C14_17 
REMARK    8  A    between atoms: C18_21  and  O5_23 
REMARK    9  A    between atoms: O5_23  and  C19_24 
REMARK   10  A    between atoms: C20_25  and  C26_32 
REMARK   11  A    between atoms: C23_28  and  O6_30 
ROOT
HETATM    1  C13 UNL     1      -2.004   2.889   0.754  1.00  0.00     0.177 C 
ENDROOT
BRANCH   1   2
HETATM    2  O3  UNL     1      -1.564   1.631   1.211  1.00  0.00    -0.326 OA
BRANCH   2   3
HETATM    3  C11 UNL     1      -2.482   0.590   0.945  1.00  0.00     0.270 C 
HETATM    4  C10 UNL     1      -2.010  -0.736   1.566  1.00  0.00     0.241 C 
HETATM    5  C9  UNL     1      -2.436  -1.793   0.527  1.00  0.00     0.214 C 
HETATM    6  O11 UNL     1      -2.578  -0.945   2.846  1.00  0.00    -0.215 OA
HETATM    7  C12 UNL     1      -2.143  -0.982  -0.740  1.00  0.00     0.181 C 
HETATM    8  O12 UNL     1      -3.820  -2.104   0.586  1.00  0.00    -0.218 OA
HETATM    9  O2  UNL     1      -2.574   0.330  -0.439  1.00  0.00    -0.326 OA
BRANCH   5  10
HETATM   10  C8  UNL     1      -1.646  -3.096   0.602  1.00  0.00     0.188 C 
BRANCH  10  11
HETATM   11  O1  UNL     1      -1.967  -3.908  -0.516  1.00  0.00    -0.296 OA
BRANCH  11  12
HETATM   12  C7  UNL     1      -1.307  -5.065  -0.508  1.00  0.00     0.296 C 
HETATM   13  O13 UNL     1      -0.523  -5.385   0.356  1.00  0.00    -0.259 OA
BRANCH  12  14
HETATM   14  C5  UNL     1      -1.598  -5.971  -1.658  1.00  0.00     0.067 A 
HETATM   15  C4  UNL     1      -2.514  -5.578  -2.650  1.00  0.00     0.035 A 
HETATM   16  C3  UNL     1      -2.787  -6.430  -3.734  1.00  0.00     0.158 A 
HETATM   17  C2  UNL     1      -2.145  -7.680  -3.826  1.00  0.00     0.181 A 
HETATM   18  O14 UNL     1      -3.647  -6.057  -4.662  1.00  0.00    -0.188 OA
HETATM   19  C1  UNL     1      -1.229  -8.074  -2.834  1.00  0.00     0.158 A 
HETATM   20  O15 UNL     1      -2.400  -8.481  -4.842  1.00  0.00    -0.186 OA
HETATM   21  C6  UNL     1      -0.957  -7.219  -1.752  1.00  0.00     0.035 A 
HETATM   22  O16 UNL     1      -0.625  -9.242  -2.914  1.00  0.00    -0.188 OA
ENDBRANCH  12  14
ENDBRANCH  11  12
ENDBRANCH  10  11
ENDBRANCH   5  10
ENDBRANCH   2   3
ENDBRANCH   1   2
BRANCH   1  23
HETATM   23  C14 UNL     1      -0.955   3.936   1.147  1.00  0.00     0.180 C 
HETATM   24  C15 UNL     1      -1.398   5.383   0.830  1.00  0.00     0.215 C 
HETATM   25  C16 UNL     1      -0.258   6.391   1.084  1.00  0.00     0.220 C 
HETATM   26  O10 UNL     1      -2.514   5.703   1.647  1.00  0.00    -0.218 OA
HETATM   27  C17 UNL     1       1.025   5.918   0.367  1.00  0.00     0.241 C 
HETATM   28  O9  UNL     1      -0.631   7.674   0.606  1.00  0.00    -0.218 OA
HETATM   29  C18 UNL     1       1.346   4.447   0.713  1.00  0.00     0.274 C 
HETATM   30  O8  UNL     1       2.123   6.723   0.758  1.00  0.00    -0.215 OA
HETATM   31  O4  UNL     1       0.223   3.629   0.412  1.00  0.00    -0.326 OA
BRANCH  29  32
HETATM   32  O5  UNL     1       2.459   4.000  -0.049  1.00  0.00    -0.303 OA
BRANCH  32  33
HETATM   33  C19 UNL     1       2.932   2.793   0.197  1.00  0.00     0.102 A 
HETATM   34  C20 UNL     1       4.008   2.613   1.090  1.00  0.00     0.057 A 
HETATM   35  C21 UNL     1       4.502   1.320   1.342  1.00  0.00     0.007 A 
HETATM   36  C22 UNL     1       3.924   0.209   0.705  1.00  0.00     0.024 A 
HETATM   37  C23 UNL     1       2.850   0.385  -0.186  1.00  0.00     0.096 A 
HETATM   38  C24 UNL     1       2.357   1.678  -0.436  1.00  0.00     0.049 A 
BRANCH  34  39
HETATM   39  C26 UNL     1       4.631   3.787   1.773  1.00  0.00     0.175 C 
HETATM   40  C27 UNL     1       5.676   3.523   2.824  1.00  0.00     0.077 C 
HETATM   41  O7  UNL     1       4.307   4.916   1.488  1.00  0.00    -0.291 OA
ENDBRANCH  34  39
BRANCH  37  42
HETATM   42  O6  UNL     1       2.309  -0.658  -0.783  1.00  0.00    -0.328 OA
HETATM   43  C25 UNL     1       2.889  -1.934  -0.555  1.00  0.00     0.181 C 
ENDBRANCH  37  42
ENDBRANCH  32  33
ENDBRANCH  29  32
ENDBRANCH   1  23
TORSDOF 11
