REMARK  10 active torsions:
REMARK  status: ('A' for Active; 'I' for Inactive)
REMARK    1  A    between atoms: C3_3  and  C42_54 
REMARK    2  A    between atoms: C16_16  and  C25_25 
REMARK    3  A    between atoms: C25_25  and  O2_27 
REMARK    4  A    between atoms: O2_27  and  C26_28 
REMARK    5  A    between atoms: C27_30  and  C31_37 
REMARK    6  A    between atoms: C31_37  and  O7_38 
REMARK    7  A    between atoms: O7_38  and  C32_39 
REMARK    8  A    between atoms: C33_41  and  C37_48 
REMARK    9  A    between atoms: C42_54  and  O13_55 
REMARK   10  A    between atoms: O13_55  and  S1_56 
ROOT
HETATM    1  C1  UNL     1       7.949  -1.791  -1.594  1.00  0.00     0.033 C 
HETATM    2  C2  UNL     1       8.873  -1.164  -0.539  1.00  0.00     0.154 C 
HETATM    3  C3  UNL     1       8.361   0.232  -0.063  1.00  0.00     0.057 C 
HETATM    4  C4  UNL     1       6.824   0.398  -0.315  1.00  0.00     0.005 C 
HETATM    5  C5  UNL     1       6.002  -0.900  -0.108  1.00  0.00     0.001 C 
HETATM    6  C6  UNL     1       6.514  -2.004  -1.078  1.00  0.00     0.003 C 
HETATM    7  C7  UNL     1       4.484  -0.641  -0.385  1.00  0.00     0.005 C 
HETATM    8  C8  UNL     1       3.865   0.582   0.348  1.00  0.00     0.004 C 
HETATM    9  C9  UNL     1       4.760   1.826   0.115  1.00  0.00     0.000 C 
HETATM   10  C10 UNL     1       6.229   1.578   0.476  1.00  0.00     0.000 C 
HETATM   11  C11 UNL     1       2.414   0.820  -0.201  1.00  0.00     0.015 C 
HETATM   12  C12 UNL     1       1.565  -0.441  -0.164  1.00  0.00    -0.049 C 
HETATM   13  C13 UNL     1       2.141  -1.666  -0.109  1.00  0.00    -0.035 C 
HETATM   14  C14 UNL     1       3.633  -1.898  -0.115  1.00  0.00     0.025 C 
HETATM   15  C15 UNL     1       0.033  -0.336  -0.178  1.00  0.00     0.027 C 
HETATM   16  C16 UNL     1      -0.613   1.104  -0.274  1.00  0.00     0.082 C 
HETATM   17  C17 UNL     1       0.352   2.289   0.012  1.00  0.00     0.010 C 
HETATM   18  C18 UNL     1       1.682   1.887   0.637  1.00  0.00     0.004 C 
HETATM   19  C19 UNL     1      -1.230   1.312  -1.678  1.00  0.00     0.010 C 
HETATM   20  C20 UNL     1      -2.324   0.293  -2.047  1.00  0.00     0.001 C 
HETATM   21  C21 UNL     1      -2.051  -1.135  -1.522  1.00  0.00     0.000 C 
HETATM   22  C22 UNL     1      -0.547  -1.309  -1.248  1.00  0.00     0.004 C 
HETATM   23  C23 UNL     1      -2.846  -1.406  -0.236  1.00  0.00     0.000 C 
HETATM   24  C24 UNL     1      -2.500  -2.164  -2.567  1.00  0.00     0.000 C 
HETATM   25  C38 UNL     1       2.471   1.254  -1.680  1.00  0.00     0.004 C 
HETATM   26  C39 UNL     1       3.809   0.301   1.861  1.00  0.00     0.000 C 
HETATM   27  C40 UNL     1       6.195  -1.375   1.346  1.00  0.00     0.000 C 
HETATM   28  C41 UNL     1       8.725   0.496   1.412  1.00  0.00     0.005 C 
HETATM   29  O17 UNL     1       9.000  -2.088   0.527  1.00  0.00    -0.223 OA
ENDROOT
BRANCH  16  30
HETATM   30  C25 UNL     1      -1.738   1.203   0.740  1.00  0.00     0.273 C 
HETATM   31  O1  UNL     1      -1.607   0.771   1.861  1.00  0.00    -0.264 OA
BRANCH  30  32
HETATM   32  O2  UNL     1      -2.848   1.791   0.297  1.00  0.00    -0.273 OA
BRANCH  32  33
HETATM   33  C26 UNL     1      -3.762   2.080   1.346  1.00  0.00     0.276 C 
HETATM   34  O3  UNL     1      -4.369   0.859   1.771  1.00  0.00    -0.326 OA
HETATM   35  C27 UNL     1      -5.668   0.941   2.367  1.00  0.00     0.180 C 
HETATM   36  C28 UNL     1      -5.945   2.311   3.039  1.00  0.00     0.215 C 
HETATM   37  C29 UNL     1      -5.754   3.496   2.055  1.00  0.00     0.220 C 
HETATM   38  O6  UNL     1      -5.070   2.467   4.145  1.00  0.00    -0.218 OA
HETATM   39  C30 UNL     1      -4.813   3.111   0.885  1.00  0.00     0.241 C 
HETATM   40  O5  UNL     1      -7.012   3.869   1.521  1.00  0.00    -0.218 OA
HETATM   41  O4  UNL     1      -4.158   4.272   0.404  1.00  0.00    -0.215 OA
BRANCH  35  42
HETATM   42  C31 UNL     1      -6.690   0.627   1.269  1.00  0.00     0.177 C 
BRANCH  42  43
HETATM   43  O7  UNL     1      -6.791  -0.773   1.150  1.00  0.00    -0.326 OA
BRANCH  43  44
HETATM   44  C32 UNL     1      -7.666  -1.184   0.119  1.00  0.00     0.270 C 
HETATM   45  O8  UNL     1      -8.992  -0.797   0.484  1.00  0.00    -0.326 OA
HETATM   46  C33 UNL     1     -10.074  -1.561  -0.057  1.00  0.00     0.184 C 
HETATM   47  C34 UNL     1      -9.733  -2.227  -1.412  1.00  0.00     0.215 C 
HETATM   48  C35 UNL     1      -8.475  -3.127  -1.320  1.00  0.00     0.220 C 
HETATM   49  O11 UNL     1      -9.522  -1.215  -2.383  1.00  0.00    -0.218 OA
HETATM   50  C36 UNL     1      -7.559  -2.707  -0.141  1.00  0.00     0.241 C 
HETATM   51  O10 UNL     1      -8.873  -4.473  -1.129  1.00  0.00    -0.218 OA
HETATM   52  O9  UNL     1      -6.221  -3.066  -0.451  1.00  0.00    -0.215 OA
BRANCH  46  53
HETATM   53  C37 UNL     1     -10.479  -2.590   1.004  1.00  0.00     0.214 C 
HETATM   54  O12 UNL     1     -11.328  -1.957   1.934  1.00  0.00    -0.218 OA
ENDBRANCH  46  53
ENDBRANCH  43  44
ENDBRANCH  42  43
ENDBRANCH  35  42
ENDBRANCH  32  33
ENDBRANCH  30  32
ENDBRANCH  16  30
BRANCH   3  55
HETATM   55  C42 UNL     1       9.088   1.314  -0.877  1.00  0.00     0.168 C 
BRANCH  55  56
HETATM   56  O13 UNL     1      10.469   1.215  -0.608  1.00  0.00    -0.238 OA
BRANCH  56  57
HETATM   57  S1  UNL     1      11.426   2.270  -1.270  1.00  0.00     0.252 S 
HETATM   58  O14 UNL     1      12.932   2.049  -0.887  1.00  0.00    -0.572 OA
HETATM   59  O15 UNL     1      11.035   3.584  -0.789  1.00  0.00    -0.572 OA
HETATM   60  O16 UNL     1      11.309   2.129  -2.711  1.00  0.00    -0.572 OA
ENDBRANCH  56  57
ENDBRANCH  55  56
ENDBRANCH   3  55
TORSDOF 10
