REMARK  4 active torsions:
REMARK  status: ('A' for Active; 'I' for Inactive)
REMARK    1  A    between atoms: C5_5  and  O1_7 
REMARK    2  A    between atoms: C13_15  and  O3_16 
REMARK    3  A    between atoms: C19_22  and  O5_32 
REMARK    4  A    between atoms: C20_23  and  O4_30 
ROOT
HETATM    1  C1  UNL     1       4.566  -3.236   0.699  1.00  0.00    -0.020 A 
HETATM    2  C2  UNL     1       3.672  -2.137   0.863  1.00  0.00     0.007 A 
HETATM    3  C3  UNL     1       2.307  -2.309   0.512  1.00  0.00     0.024 A 
HETATM    4  C4  UNL     1       1.820  -3.537  -0.012  1.00  0.00     0.122 A 
HETATM    5  C5  UNL     1       2.721  -4.619  -0.145  1.00  0.00     0.116 A 
HETATM    6  C6  UNL     1       4.082  -4.471   0.205  1.00  0.00     0.022 A 
HETATM    7  O2  UNL     1       0.545  -3.742  -0.422  1.00  0.00    -0.303 OA
HETATM    8  C8  UNL     1      -0.521  -2.945  -0.406  1.00  0.00     0.122 A 
HETATM    9  C9  UNL     1      -1.291  -2.897  -1.582  1.00  0.00     0.026 A 
HETATM   10  C10 UNL     1      -2.422  -2.072  -1.668  1.00  0.00    -0.002 A 
HETATM   11  C11 UNL     1      -2.803  -1.273  -0.576  1.00  0.00    -0.018 A 
HETATM   12  C12 UNL     1      -2.043  -1.322   0.609  1.00  0.00     0.022 A 
HETATM   13  C13 UNL     1      -0.926  -2.172   0.709  1.00  0.00     0.116 A 
HETATM   14  C15 UNL     1      -4.012  -0.393  -0.686  1.00  0.00     0.053 C 
HETATM   15  C16 UNL     1      -3.797   0.854  -1.600  1.00  0.00     0.106 C 
HETATM   16  C17 UNL     1      -3.412   2.072  -0.824  1.00  0.00     0.019 A 
HETATM   17  C18 UNL     1      -2.061   2.502  -0.709  1.00  0.00     0.121 A 
HETATM   18  C19 UNL     1      -1.779   3.723  -0.022  1.00  0.00     0.139 A 
HETATM   19  C20 UNL     1      -2.820   4.449   0.603  1.00  0.00     0.118 A 
HETATM   20  C21 UNL     1      -4.152   3.992   0.521  1.00  0.00     0.022 A 
HETATM   21  C22 UNL     1      -4.449   2.811  -0.195  1.00  0.00    -0.018 A 
HETATM   22  C23 UNL     1      -5.840   2.309  -0.311  1.00  0.00     0.050 C 
HETATM   23  C24 UNL     1      -6.166   1.732  -1.709  1.00  0.00     0.102 C 
HETATM   24  N1  UNL     1      -5.006   1.137  -2.402  1.00  0.00    -0.364 N 
HETATM   25  C25 UNL     1      -5.356   0.109  -3.379  1.00  0.00     0.121 C 
HETATM   26  O6  UNL     1      -1.102   1.732  -1.279  1.00  0.00    -0.305 OA
HETATM   27  C28 UNL     1       0.135   1.447  -0.871  1.00  0.00     0.100 A 
HETATM   28  C29 UNL     1       0.580   1.623   0.459  1.00  0.00     0.024 A 
HETATM   29  C30 UNL     1       1.893   1.291   0.824  1.00  0.00    -0.002 A 
HETATM   30  C31 UNL     1       2.775   0.736  -0.121  1.00  0.00    -0.020 A 
HETATM   31  C32 UNL     1       4.150   0.307   0.303  1.00  0.00     0.064 C 
HETATM   32  C33 UNL     1       4.154  -0.816   1.395  1.00  0.00     0.246 C 
HETATM   33  N2  UNL     1       5.481  -0.922   2.043  1.00  0.00     0.142 N 
HETATM   34  C34 UNL     1       6.463  -1.648   1.240  1.00  0.00     0.255 C 
HETATM   35  C35 UNL     1       6.002  -3.105   1.053  1.00  0.00     0.061 C 
HETATM   36  C36 UNL     1       5.994   0.324   2.605  1.00  0.00     0.286 C 
HETATM   37  C37 UNL     1       2.344   0.570  -1.451  1.00  0.00    -0.002 A 
HETATM   38  C38 UNL     1       1.035   0.926  -1.818  1.00  0.00     0.024 A 
ENDROOT
BRANCH   5  39
HETATM   39  O1  UNL     1       2.287  -5.797  -0.615  1.00  0.00    -0.326 OA
HETATM   40  C7  UNL     1       3.223  -6.861  -0.715  1.00  0.00     0.181 C 
ENDBRANCH   5  39
BRANCH  13  41
HETATM   41  O3  UNL     1      -0.279  -2.242   1.855  1.00  0.00    -0.326 OA
HETATM   42  C14 UNL     1      -0.646  -1.338   2.885  1.00  0.00     0.181 C 
ENDBRANCH  13  41
BRANCH  18  43
HETATM   43  O5  UNL     1      -0.533   4.217   0.029  1.00  0.00    -0.324 OA
HETATM   44  C27 UNL     1       0.064   4.645  -1.186  1.00  0.00     0.182 C 
ENDBRANCH  18  43
BRANCH  19  45
HETATM   45  O4  UNL     1      -2.547   5.578   1.273  1.00  0.00    -0.326 OA
HETATM   46  C26 UNL     1      -3.627   6.270   1.883  1.00  0.00     0.181 C 
ENDBRANCH  19  45
TORSDOF 4
