REMARK  4 active torsions:
REMARK  status: ('A' for Active; 'I' for Inactive)
REMARK    1  A    between atoms: C3_3  and  O4_10 
REMARK    2  A    between atoms: C4_5  and  C6_8 
REMARK    3  A    between atoms: O4_10  and  C7_11 
REMARK    4  A    between atoms: C11_16  and  C12_17 
ROOT
HETATM    1  C7  UNL     1      -0.080  -0.926   0.801  1.00  0.00     0.248 C 
HETATM    2  O5  UNL     1      -0.201   0.397   1.340  1.00  0.00    -0.303 OA
HETATM    3  C8  UNL     1      -1.383   1.045   1.277  1.00  0.00     0.122 C 
HETATM    4  C9  UNL     1      -2.547   0.518   0.830  1.00  0.00     0.093 C 
HETATM    5  C10 UNL     1      -2.584  -0.887   0.262  1.00  0.00     0.163 C 
HETATM    6  C11 UNL     1      -1.416  -1.713   0.865  1.00  0.00     0.111 C 
HETATM    7  C14 UNL     1      -3.987  -1.545   0.443  1.00  0.00     0.068 C 
HETATM    8  C15 UNL     1      -4.858  -0.791   1.459  1.00  0.00     0.155 C 
HETATM    9  O6  UNL     1      -4.975   0.586   1.082  1.00  0.00    -0.298 OA
HETATM   10  C16 UNL     1      -3.826   1.260   0.902  1.00  0.00     0.296 C 
HETATM   11  O7  UNL     1      -3.811   2.465   0.797  1.00  0.00    -0.259 OA
HETATM   12  O8  UNL     1      -2.377  -0.781  -1.139  1.00  0.00    -0.221 OA
ENDROOT
BRANCH   1  13
HETATM   13  O4  UNL     1       0.414  -0.859  -0.523  1.00  0.00    -0.303 OA
BRANCH  13  14
HETATM   14  C3  UNL     1       1.707  -0.293  -0.607  1.00  0.00     0.272 C 
HETATM   15  C2  UNL     1       2.361  -0.633  -1.971  1.00  0.00     0.241 C 
HETATM   16  C1  UNL     1       3.707   0.109  -2.139  1.00  0.00     0.220 C 
HETATM   17  O9  UNL     1       2.582  -2.031  -2.049  1.00  0.00    -0.215 OA
HETATM   18  C5  UNL     1       3.521   1.613  -1.836  1.00  0.00     0.215 C 
HETATM   19  O10 UNL     1       4.184  -0.057  -3.465  1.00  0.00    -0.218 OA
HETATM   20  C4  UNL     1       2.816   1.828  -0.478  1.00  0.00     0.184 C 
HETATM   21  O2  UNL     1       4.785   2.254  -1.797  1.00  0.00    -0.218 OA
HETATM   22  O1  UNL     1       1.586   1.117  -0.467  1.00  0.00    -0.326 OA
BRANCH  20  23
HETATM   23  C6  UNL     1       2.475   3.299  -0.209  1.00  0.00     0.214 C 
HETATM   24  O3  UNL     1       1.992   3.404   1.111  1.00  0.00    -0.218 OA
ENDBRANCH  20  23
ENDBRANCH  13  14
ENDBRANCH   1  13
BRANCH   6  25
HETATM   25  C12 UNL     1      -1.695  -2.090   2.303  1.00  0.00    -0.019 C 
HETATM   26  C13 UNL     1      -1.727  -3.393   2.629  1.00  0.00    -0.005 C 
ENDBRANCH   6  25
TORSDOF 4
