REMARK  1 active torsions:
REMARK  status: ('A' for Active; 'I' for Inactive)
REMARK    1  A    between atoms: C14_15  and  C17_18 
ROOT
HETATM    1  C1  UNL     1       0.214  -0.324  -2.195  1.00  0.00     0.151 C 
HETATM    2  C2  UNL     1      -0.543  -1.058  -1.105  1.00  0.00     0.065 C 
HETATM    3  C3  UNL     1       0.365  -1.861  -0.141  1.00  0.00     0.007 C 
HETATM    4  C4  UNL     1       1.800  -1.255  -0.076  1.00  0.00     0.003 C 
HETATM    5  C5  UNL     1       1.942   0.274  -0.352  1.00  0.00     0.007 C 
HETATM    6  C6  UNL     1       1.462   0.460  -1.821  1.00  0.00     0.065 C 
HETATM    7  C7  UNL     1       3.430   0.732  -0.162  1.00  0.00     0.007 C 
HETATM    8  C8  UNL     1       4.029   0.316   1.220  1.00  0.00     0.031 C 
HETATM    9  C9  UNL     1       3.321  -0.823   1.962  1.00  0.00     0.152 C 
HETATM   10  C10 UNL     1       2.724  -1.847   1.011  1.00  0.00     0.033 C 
HETATM   11  O1  UNL     1       2.314  -0.356   2.827  1.00  0.00    -0.224 OA
HETATM   12  C11 UNL     1       5.501  -0.076   0.941  1.00  0.00     0.007 C 
HETATM   13  C12 UNL     1       5.785   0.401  -0.487  1.00  0.00     0.021 C 
HETATM   14  C13 UNL     1       4.437   0.125  -1.167  1.00  0.00     0.004 C 
HETATM   15  C14 UNL     1       6.060   1.885  -0.483  1.00  0.00    -0.016 C 
HETATM   16  C15 UNL     1       5.027   2.737  -0.407  1.00  0.00    -0.032 C 
HETATM   17  C16 UNL     1       3.594   2.269  -0.342  1.00  0.00     0.025 C 
HETATM   18  C18 UNL     1       1.051   1.193   0.524  1.00  0.00     0.000 C 
HETATM   19  C19 UNL     1      -0.333  -1.957   1.235  1.00  0.00     0.000 C 
HETATM   20  C20 UNL     1       0.454  -3.309  -0.696  1.00  0.00     0.000 C 
HETATM   21  O3  UNL     1      -0.183  -0.336  -3.339  1.00  0.00    -0.296 OA
ENDROOT
BRANCH  15  22
HETATM   22  C17 UNL     1       7.507   2.312  -0.499  1.00  0.00     0.204 C 
HETATM   23  O2  UNL     1       7.681   3.717  -0.626  1.00  0.00    -0.216 OA
ENDBRANCH  15  22
TORSDOF 1
