REMARK  6 active torsions:
REMARK  status: ('A' for Active; 'I' for Inactive)
REMARK    1  A    between atoms: C3_3  and  O4_11 
REMARK    2  A    between atoms: C5_6  and  C6_7 
REMARK    3  A    between atoms: C6_7  and  O3_9 
REMARK    4  A    between atoms: O4_11  and  C8_12 
REMARK    5  A    between atoms: C9_14  and  C13_21 
REMARK    6  A    between atoms: C14_23  and  C17_27 
ROOT
HETATM    1  C1  UNL     1      -2.656  -0.777  -0.074  1.00  0.00     0.039 C 
HETATM    2  C2  UNL     1      -1.683  -1.523   0.870  1.00  0.00     0.091 C 
HETATM    3  C3  UNL     1      -0.258  -1.095   0.592  1.00  0.00     0.244 C 
HETATM    4  O1  UNL     1       0.078  -1.404  -0.737  1.00  0.00    -0.304 OA
HETATM    5  C4  UNL     1      -0.781  -0.953  -1.696  1.00  0.00     0.120 C 
HETATM    6  C5  UNL     1      -2.049  -0.561  -1.458  1.00  0.00     0.065 C 
HETATM    7  C14 UNL     1      -2.022  -2.999   0.691  1.00  0.00     0.153 A 
HETATM    8  C15 UNL     1      -3.342  -3.130   0.144  1.00  0.00     0.143 A 
HETATM    9  C16 UNL     1      -3.877  -1.730  -0.111  1.00  0.00     0.037 C 
HETATM   10  O10 UNL     1      -3.316  -3.426   1.520  1.00  0.00    -0.354 OA
ENDROOT
BRANCH   3  11
HETATM   11  O4  UNL     1      -0.164   0.310   0.705  1.00  0.00    -0.304 OA
BRANCH  11  12
HETATM   12  C8  UNL     1       1.143   0.831   0.589  1.00  0.00     0.272 C 
HETATM   13  O5  UNL     1       1.585   1.107   1.900  1.00  0.00    -0.326 OA
HETATM   14  C9  UNL     1       2.881   1.651   1.916  1.00  0.00     0.184 C 
HETATM   15  C10 UNL     1       2.922   2.949   1.113  1.00  0.00     0.215 C 
HETATM   16  C11 UNL     1       2.415   2.729  -0.298  1.00  0.00     0.220 C 
HETATM   17  O8  UNL     1       4.236   3.442   1.022  1.00  0.00    -0.218 OA
HETATM   18  C12 UNL     1       1.040   2.113  -0.204  1.00  0.00     0.241 C 
HETATM   19  O7  UNL     1       2.342   3.959  -0.973  1.00  0.00    -0.218 OA
HETATM   20  O6  UNL     1       0.558   1.819  -1.492  1.00  0.00    -0.215 OA
BRANCH  14  21
HETATM   21  C13 UNL     1       3.309   1.859   3.367  1.00  0.00     0.214 C 
HETATM   22  O9  UNL     1       4.496   1.136   3.630  1.00  0.00    -0.218 OA
ENDBRANCH  14  21
ENDBRANCH  11  12
ENDBRANCH   3  11
BRANCH   7  23
HETATM   23  C17 UNL     1      -1.014  -4.122   0.566  1.00  0.00     0.212 C 
HETATM   24  O11 UNL     1      -0.111  -4.128   1.663  1.00  0.00    -0.218 OA
ENDBRANCH   7  23
BRANCH   6  25
HETATM   25  C6  UNL     1      -2.923   0.098  -2.491  1.00  0.00     0.294 C 
HETATM   26  O2  UNL     1      -4.005   0.474  -2.041  1.00  0.00    -0.259 OA
BRANCH  25  27
HETATM   27  O3  UNL     1      -2.708   0.382  -3.814  1.00  0.00    -0.296 OA
HETATM   28  C7  UNL     1      -1.524   0.090  -4.505  1.00  0.00     0.185 C 
ENDBRANCH  25  27
ENDBRANCH   6  25
TORSDOF 6
