REMARK  3 active torsions:
REMARK  status: ('A' for Active; 'I' for Inactive)
REMARK    1  A    between atoms: C9_9  and  O1_11 
REMARK    2  A    between atoms: O1_11  and  C11_12 
REMARK    3  A    between atoms: C14_16  and  C17_21 
ROOT
HETATM    1  C1  UNL     1      -2.393   0.882  -0.825  1.00  0.00     0.000 C 
HETATM    2  C2  UNL     1      -2.244  -0.382  -1.678  1.00  0.00     0.000 C 
HETATM    3  C3  UNL     1      -0.968  -1.188  -1.334  1.00  0.00     0.000 C 
HETATM    4  C4  UNL     1      -0.946  -1.477   0.203  1.00  0.00     0.007 C 
HETATM    5  C5  UNL     1      -1.122  -0.233   1.116  1.00  0.00     0.022 C 
HETATM    6  C6  UNL     1      -2.407   0.496   0.656  1.00  0.00     0.004 C 
HETATM    7  C7  UNL     1       0.171   0.570   1.085  1.00  0.00     0.020 C 
HETATM    8  C8  UNL     1       1.367  -0.064   1.033  1.00  0.00     0.043 C 
HETATM    9  C9  UNL     1       1.514  -1.579   0.974  1.00  0.00     0.149 C 
HETATM   10  C10 UNL     1       0.213  -2.344   0.722  1.00  0.00     0.035 C 
HETATM   11  C13 UNL     1       2.639   0.717   1.057  1.00  0.00     0.192 C 
HETATM   12  C14 UNL     1       2.584   2.169   0.742  1.00  0.00     0.045 C 
HETATM   13  C15 UNL     1       1.395   2.799   0.827  1.00  0.00     0.168 C 
HETATM   14  C16 UNL     1       0.171   2.053   1.208  1.00  0.00     0.216 C 
HETATM   15  O3  UNL     1      -0.801   2.744   1.483  1.00  0.00    -0.285 OA
HETATM   16  O4  UNL     1       1.199   4.124   0.588  1.00  0.00    -0.187 OA
HETATM   17  O5  UNL     1       3.709   0.148   1.237  1.00  0.00    -0.287 OA
HETATM   18  C20 UNL     1      -1.353  -0.610   2.601  1.00  0.00     0.004 C 
HETATM   19  C21 UNL     1      -1.048  -2.516  -2.130  1.00  0.00     0.000 C 
HETATM   20  C22 UNL     1       0.247  -0.418  -1.897  1.00  0.00     0.000 C 
ENDROOT
BRANCH   9  21
HETATM   21  O1  UNL     1       2.463  -1.944  -0.007  1.00  0.00    -0.300 OA
BRANCH  21  22
HETATM   22  C11 UNL     1       3.237  -3.038   0.221  1.00  0.00     0.273 C 
HETATM   23  C12 UNL     1       4.295  -3.156  -0.857  1.00  0.00     0.106 C 
HETATM   24  O2  UNL     1       3.115  -3.796   1.157  1.00  0.00    -0.264 OA
ENDBRANCH  21  22
ENDBRANCH   9  21
BRANCH  12  25
HETATM   25  C17 UNL     1       3.844   2.909   0.323  1.00  0.00     0.028 C 
HETATM   26  C18 UNL     1       4.873   3.006   1.459  1.00  0.00     0.005 C 
HETATM   27  C19 UNL     1       4.447   2.281  -0.945  1.00  0.00     0.005 C 
ENDBRANCH  12  25
TORSDOF 3
