REMARK  1 active torsions:
REMARK  status: ('A' for Active; 'I' for Inactive)
REMARK    1  A    between atoms: C12_13  and  C16_17 
ROOT
HETATM    1  C1  UNL     1      -0.473  -1.153  -0.827  1.00  0.00     0.000 C 
HETATM    2  C2  UNL     1       0.284  -1.086   1.057  1.00  0.00     0.000 A 
HETATM    3  C3  UNL     1      -0.578  -1.730   2.164  1.00  0.00     0.000 A 
HETATM    4  C4  UNL     1      -1.132  -1.879   0.798  1.00  0.00     0.006 A 
HETATM    5  C5  UNL     1      -1.176  -0.072   0.282  1.00  0.00     0.015 C 
HETATM    6  C6  UNL     1      -1.735  -0.339  -1.061  1.00  0.00     0.004 C 
HETATM    7  C7  UNL     1       0.400   0.615  -0.227  1.00  0.00    -0.044 C 
HETATM    8  C8  UNL     1       1.509  -0.190  -0.566  1.00  0.00     0.035 C 
HETATM    9  C9  UNL     1       1.567  -1.905  -0.599  1.00  0.00     0.177 C 
HETATM   10  C10 UNL     1       0.288  -2.853   0.076  1.00  0.00     0.038 C 
HETATM   11  O1  UNL     1       2.803  -2.333  -0.038  1.00  0.00    -0.218 OA
HETATM   12  C11 UNL     1       2.756   0.460  -1.046  1.00  0.00     0.174 C 
HETATM   13  C12 UNL     1       2.770   1.970  -1.287  1.00  0.00     0.074 C 
HETATM   14  C13 UNL     1       1.893   2.623  -0.207  1.00  0.00     0.016 C 
HETATM   15  C14 UNL     1       0.448   2.119  -0.269  1.00  0.00     0.023 C 
HETATM   16  C15 UNL     1       4.214   2.498  -1.185  1.00  0.00     0.012 C 
HETATM   17  O2  UNL     1       3.734  -0.235  -1.290  1.00  0.00    -0.291 OA
HETATM   18  C18 UNL     1      -2.167   0.896   0.946  1.00  0.00     0.004 C 
HETATM   19  C19 UNL     1      -0.225  -3.070   2.843  1.00  0.00     0.000 C 
HETATM   20  C20 UNL     1      -1.257  -0.817   3.196  1.00  0.00     0.000 C 
ENDROOT
BRANCH  13  21
HETATM   21  C16 UNL     1       2.224   2.244  -2.675  1.00  0.00    -0.019 C 
HETATM   22  C17 UNL     1       2.009   3.470  -3.174  1.00  0.00    -0.004 C 
ENDBRANCH  13  21
TORSDOF 1
