REMARK  6 active torsions:
REMARK  status: ('A' for Active; 'I' for Inactive)
REMARK    1  A    between atoms: C4_4  and  C19_23 
REMARK    2  A    between atoms: C7_8  and  C12_15 
REMARK    3  A    between atoms: C12_15  and  C13_16 
REMARK    4  A    between atoms: C13_16  and  C14_17 
REMARK    5  A    between atoms: C19_23  and  O5_24 
REMARK    6  A    between atoms: O5_24  and  C20_25 
ROOT
HETATM    1  C1  UNL     1      -2.208  -0.354   0.360  1.00  0.00     0.035 C 
HETATM    2  C2  UNL     1      -2.259  -1.712  -0.353  1.00  0.00     0.033 C 
HETATM    3  C3  UNL     1      -0.901  -2.404  -0.356  1.00  0.00     0.129 A 
HETATM    4  C4  UNL     1       0.298  -1.577  -0.883  1.00  0.00     0.109 C 
HETATM    5  C5  UNL     1       0.307  -0.281   0.000  1.00  0.00     0.042 C 
HETATM    6  C6  UNL     1      -1.020   0.502  -0.091  1.00  0.00     0.153 C 
HETATM    7  O1  UNL     1      -1.249   0.987  -1.390  1.00  0.00    -0.223 OA
HETATM    8  C7  UNL     1       1.616   0.574   0.180  1.00  0.00     0.006 C 
HETATM    9  C8  UNL     1       2.898  -0.324   0.138  1.00  0.00     0.038 C 
HETATM   10  C9  UNL     1       2.610  -1.814   0.333  1.00  0.00     0.209 C 
HETATM   11  C10 UNL     1       1.635  -2.309  -0.718  1.00  0.00     0.185 C 
HETATM   12  O2  UNL     1       1.951  -3.260  -1.399  1.00  0.00    -0.293 OA
HETATM   13  O3  UNL     1       2.131  -2.087   1.638  1.00  0.00    -0.215 OA
HETATM   14  C11 UNL     1       3.821  -0.131  -1.083  1.00  0.00     0.003 C 
HETATM   15  C18 UNL     1       1.649   1.738  -0.835  1.00  0.00     0.000 C 
HETATM   16  O7  UNL     1      -0.991  -3.898  -0.920  1.00  0.00    -0.354 OA
HETATM   17  C22 UNL     1      -0.722  -3.594   0.427  1.00  0.00     0.170 A 
ENDROOT
BRANCH   8  18
HETATM   18  C12 UNL     1       1.594   1.242   1.603  1.00  0.00     0.005 C 
BRANCH  18  19
HETATM   19  C13 UNL     1       2.656   2.323   1.890  1.00  0.00     0.029 C 
BRANCH  19  20
HETATM   20  C14 UNL     1       2.680   2.719   3.338  1.00  0.00     0.005 A 
HETATM   21  C15 UNL     1       2.473   3.962   3.855  1.00  0.00     0.118 A 
HETATM   22  O4  UNL     1       2.582   3.949   5.214  1.00  0.00    -0.303 OA
HETATM   23  C16 UNL     1       2.866   2.662   5.561  1.00  0.00     0.122 A 
HETATM   24  C17 UNL     1       2.941   1.866   4.460  1.00  0.00     0.025 A 
ENDBRANCH  19  20
ENDBRANCH  18  19
ENDBRANCH   8  18
BRANCH   4  25
HETATM   25  C19 UNL     1       0.086  -1.433  -2.411  1.00  0.00     0.161 C 
BRANCH  25  26
HETATM   26  O5  UNL     1       1.123  -0.715  -3.012  1.00  0.00    -0.301 OA
BRANCH  26  27
HETATM   27  C20 UNL     1       1.024  -0.468  -4.346  1.00  0.00     0.272 C 
HETATM   28  C21 UNL     1       2.209   0.352  -4.816  1.00  0.00     0.106 C 
HETATM   29  O6  UNL     1       0.119  -0.838  -5.059  1.00  0.00    -0.264 OA
ENDBRANCH  26  27
ENDBRANCH  25  26
ENDBRANCH   4  25
TORSDOF 6
