REMARK  1 active torsions:
REMARK  status: ('A' for Active; 'I' for Inactive)
REMARK    1  A    between atoms: C12_13  and  C16_17 
ROOT
HETATM    1  C1  UNL     1      -0.818  -1.070  -0.777  1.00  0.00     0.000 C 
HETATM    2  C2  UNL     1       0.124  -0.879   1.011  1.00  0.00     0.000 A 
HETATM    3  C3  UNL     1      -0.614  -1.442   2.244  1.00  0.00     0.000 A 
HETATM    4  C4  UNL     1      -1.306  -1.703   0.956  1.00  0.00     0.006 A 
HETATM    5  C5  UNL     1      -1.419   0.071   0.324  1.00  0.00     0.015 C 
HETATM    6  C6  UNL     1      -2.077  -0.239  -0.963  1.00  0.00     0.004 C 
HETATM    7  C7  UNL     1       0.103   0.726  -0.384  1.00  0.00    -0.044 C 
HETATM    8  C8  UNL     1       1.177  -0.102  -0.778  1.00  0.00     0.035 C 
HETATM    9  C9  UNL     1       1.236  -1.817  -0.707  1.00  0.00     0.177 C 
HETATM   10  C10 UNL     1       0.038  -2.716   0.156  1.00  0.00     0.038 C 
HETATM   11  O1  UNL     1       2.526  -2.207  -0.251  1.00  0.00    -0.218 OA
HETATM   12  C11 UNL     1       2.371   0.504  -1.420  1.00  0.00     0.174 C 
HETATM   13  C12 UNL     1       2.436   2.011  -1.666  1.00  0.00     0.074 C 
HETATM   14  C13 UNL     1       1.574   2.737  -0.620  1.00  0.00     0.016 C 
HETATM   15  C14 UNL     1       0.134   2.221  -0.552  1.00  0.00     0.023 C 
HETATM   16  C15 UNL     1       1.923   2.245  -3.100  1.00  0.00     0.012 C 
HETATM   17  O2  UNL     1       3.266  -0.239  -1.806  1.00  0.00    -0.291 OA
HETATM   18  C18 UNL     1      -2.344   1.086   1.014  1.00  0.00     0.004 C 
HETATM   19  C19 UNL     1      -2.629  -2.461   1.119  1.00  0.00     0.000 C 
HETATM   20  C20 UNL     1      -0.094  -2.675   3.014  1.00  0.00     0.000 C 
HETATM   21  C21 UNL     1      -1.171  -0.438   3.270  1.00  0.00     0.000 C 
ENDROOT
BRANCH  13  22
HETATM   22  C16 UNL     1       3.865   2.513  -1.535  1.00  0.00    -0.019 C 
HETATM   23  C17 UNL     1       4.258   3.764  -1.814  1.00  0.00    -0.004 C 
ENDBRANCH  13  22
TORSDOF 1
