REMARK  4 active torsions:
REMARK  status: ('A' for Active; 'I' for Inactive)
REMARK    1  A    between atoms: C16_16  and  C19_19 
REMARK    2  A    between atoms: C19_19  and  O1_20 
REMARK    3  A    between atoms: C50_56  and  C53_59 
REMARK    4  A    between atoms: C53_59  and  O7_60 
ROOT
HETATM    1  C1  UNL     1       0.938   3.048   4.076  1.00  0.00    -0.026 C 
HETATM    2  C2  UNL     1       0.888   1.549   3.986  1.00  0.00    -0.016 C 
HETATM    3  C3  UNL     1       1.994   0.889   4.769  1.00  0.00     0.057 C 
HETATM    4  C4  UNL     1       3.380   1.471   4.814  1.00  0.00     0.157 C 
HETATM    5  C5  UNL     1       3.471   2.785   4.005  1.00  0.00     0.035 C 
HETATM    6  C6  UNL     1       2.278   3.752   4.335  1.00  0.00     0.021 C 
HETATM    7  C7  UNL     1       2.354   5.000   3.425  1.00  0.00     0.004 C 
HETATM    8  C8  UNL     1       3.741   5.650   3.347  1.00  0.00     0.000 C 
HETATM    9  C9  UNL     1       4.868   4.681   2.902  1.00  0.00     0.000 C 
HETATM   10  C10 UNL     1       4.889   3.477   3.914  1.00  0.00     0.003 C 
HETATM   11  C11 UNL     1       5.986   2.510   3.388  1.00  0.00     0.000 C 
HETATM   12  C12 UNL     1       7.245   3.137   2.754  1.00  0.00     0.000 C 
HETATM   13  C13 UNL     1       7.529   4.620   3.071  1.00  0.00     0.000 C 
HETATM   14  C14 UNL     1       6.237   5.471   2.852  1.00  0.00     0.001 C 
HETATM   15  C15 UNL     1       6.366   6.341   1.573  1.00  0.00     0.009 C 
HETATM   16  C16 UNL     1       7.581   7.298   1.498  1.00  0.00     0.078 C 
HETATM   17  C17 UNL     1       8.805   6.622   2.146  1.00  0.00     0.009 C 
HETATM   18  C18 UNL     1       8.665   5.094   2.118  1.00  0.00     0.001 C 
HETATM   19  C21 UNL     1       7.248   8.627   2.209  1.00  0.00     0.010 C 
HETATM   20  C22 UNL     1       8.130   4.751   4.503  1.00  0.00     0.000 C 
HETATM   21  C23 UNL     1       5.296   3.883   5.357  1.00  0.00     0.000 C 
HETATM   22  C24 UNL     1       4.485   4.214   1.462  1.00  0.00     0.000 C 
HETATM   23  C25 UNL     1       2.198   4.209   5.811  1.00  0.00     0.004 C 
HETATM   24  O3  UNL     1       4.249   0.465   4.323  1.00  0.00    -0.223 OA
HETATM   25  C26 UNL     1      -0.386   0.785   3.649  1.00  0.00     0.169 C 
HETATM   26  C27 UNL     1      -1.365   1.720   2.963  1.00  0.00     0.293 C 
HETATM   27  C28 UNL     1      -1.534   3.031   3.716  1.00  0.00     0.165 C 
HETATM   28  C29 UNL     1      -0.237   3.731   4.017  1.00  0.00     0.023 C 
HETATM   29  O4  UNL     1      -2.715   3.588   3.878  1.00  0.00    -0.190 OA
HETATM   30  O5  UNL     1      -0.959   2.017   1.653  1.00  0.00    -0.299 OA
HETATM   31  C30 UNL     1      -0.807   0.899   0.893  1.00  0.00     0.115 A 
HETATM   32  C31 UNL     1      -0.396  -0.285   1.514  1.00  0.00     0.116 A 
HETATM   33  O6  UNL     1      -0.091  -0.340   2.850  1.00  0.00    -0.325 OA
HETATM   34  C32 UNL     1      -0.393  -1.455   0.744  1.00  0.00     0.022 A 
HETATM   35  C33 UNL     1      -0.840  -1.528  -0.582  1.00  0.00    -0.015 A 
HETATM   36  C34 UNL     1      -1.278  -0.323  -1.157  1.00  0.00     0.033 A 
HETATM   37  C35 UNL     1      -1.214   0.895  -0.450  1.00  0.00     0.005 A 
HETATM   38  C36 UNL     1      -1.630   2.217  -1.067  1.00  0.00     0.033 C 
HETATM   39  C37 UNL     1      -1.863  -0.358  -2.518  1.00  0.00     0.195 C 
HETATM   40  C38 UNL     1      -1.833  -1.640  -3.248  1.00  0.00     0.034 C 
HETATM   41  C39 UNL     1      -1.404  -2.810  -2.739  1.00  0.00    -0.038 C 
HETATM   42  C40 UNL     1      -1.020  -2.899  -1.258  1.00  0.00     0.034 C 
HETATM   43  C41 UNL     1       0.279  -3.725  -1.156  1.00  0.00     0.008 C 
HETATM   44  C42 UNL     1       0.257  -5.021  -1.984  1.00  0.00     0.001 C 
HETATM   45  C43 UNL     1      -0.045  -4.817  -3.495  1.00  0.00     0.003 C 
HETATM   46  C44 UNL     1      -1.418  -4.084  -3.623  1.00  0.00     0.015 C 
HETATM   47  C45 UNL     1      -1.614  -3.804  -5.141  1.00  0.00     0.004 C 
HETATM   48  C46 UNL     1      -1.181  -4.919  -6.114  1.00  0.00     0.000 C 
HETATM   49  C47 UNL     1      -0.887  -6.319  -5.529  1.00  0.00     0.000 C 
HETATM   50  C48 UNL     1      -0.018  -6.207  -4.236  1.00  0.00     0.001 C 
HETATM   51  C49 UNL     1       1.426  -6.710  -4.496  1.00  0.00     0.009 C 
HETATM   52  C50 UNL     1       1.561  -8.156  -5.038  1.00  0.00     0.078 C 
HETATM   53  C51 UNL     1       0.457  -8.427  -6.080  1.00  0.00     0.009 C 
HETATM   54  C52 UNL     1      -0.133  -7.122  -6.630  1.00  0.00     0.001 C 
HETATM   55  C55 UNL     1       1.468  -9.164  -3.873  1.00  0.00     0.010 C 
HETATM   56  C56 UNL     1      -2.220  -7.098  -5.312  1.00  0.00     0.000 C 
HETATM   57  C57 UNL     1      -2.674  -4.870  -3.174  1.00  0.00     0.004 C 
HETATM   58  C58 UNL     1       1.081  -3.886  -4.035  1.00  0.00     0.000 C 
HETATM   59  C59 UNL     1      -2.148  -3.559  -0.426  1.00  0.00     0.008 C 
HETATM   60  O9  UNL     1      -2.366   0.605  -3.089  1.00  0.00    -0.287 OA
HETATM   61  O10 UNL     1      -2.636   1.115   2.771  1.00  0.00    -0.185 OA
HETATM   62  C60 UNL     1      -1.016   0.265   4.954  1.00  0.00     0.040 C 
ENDROOT
BRANCH  16  63
HETATM   63  C19 UNL     1       7.884   7.614   0.022  1.00  0.00     0.271 C 
HETATM   64  O2  UNL     1       7.304   7.133  -0.926  1.00  0.00    -0.264 OA
BRANCH  63  65
HETATM   65  O1  UNL     1       8.911   8.500  -0.103  1.00  0.00    -0.299 OA
HETATM   66  C20 UNL     1       9.320   8.797  -1.418  1.00  0.00     0.184 C 
ENDBRANCH  63  65
ENDBRANCH  16  63
BRANCH  52  67
HETATM   67  C53 UNL     1       2.945  -8.325  -5.689  1.00  0.00     0.271 C 
HETATM   68  O8  UNL     1       3.782  -7.455  -5.776  1.00  0.00    -0.264 OA
BRANCH  67  69
HETATM   69  O7  UNL     1       3.122  -9.587  -6.173  1.00  0.00    -0.299 OA
HETATM   70  C54 UNL     1       4.336  -9.838  -6.841  1.00  0.00     0.184 C 
ENDBRANCH  67  69
ENDBRANCH  52  67
TORSDOF 4
