REMARK  3 active torsions:
REMARK  status: ('A' for Active; 'I' for Inactive)
REMARK    1  A    between atoms: C6_7  and  C19_22 
REMARK    2  A    between atoms: C12_13  and  C13_15 
REMARK    3  A    between atoms: C19_22  and  C20_23 
ROOT
HETATM    1  C1  UNL     1      -4.503  -1.565  -0.281  1.00  0.00     0.117 C 
HETATM    2  C2  UNL     1      -4.223  -3.042  -0.203  1.00  0.00     0.001 C 
HETATM    3  C3  UNL     1      -2.969  -3.505  -0.220  1.00  0.00    -0.000 C 
HETATM    4  C4  UNL     1      -1.932  -2.650  -0.193  1.00  0.00     0.022 A 
HETATM    5  C5  UNL     1      -2.143  -1.331  -0.016  1.00  0.00     0.092 A 
HETATM    6  O1  UNL     1      -3.402  -0.805   0.136  1.00  0.00    -0.332 OA
HETATM    7  C6  UNL     1      -1.069  -0.504   0.009  1.00  0.00     0.027 A 
HETATM    8  C7  UNL     1       0.197  -0.971  -0.103  1.00  0.00     0.095 A 
HETATM    9  C8  UNL     1       0.379  -2.300  -0.250  1.00  0.00     0.057 A 
HETATM   10  C9  UNL     1      -0.681  -3.124  -0.299  1.00  0.00     0.007 A 
HETATM   11  C10 UNL     1       1.629  -2.826  -0.374  1.00  0.00     0.178 C 
HETATM   12  C11 UNL     1       2.804  -1.866  -0.349  1.00  0.00     0.104 C 
HETATM   13  C12 UNL     1       2.458  -0.632   0.470  1.00  0.00     0.151 C 
HETATM   14  O2  UNL     1       1.249  -0.099   0.002  1.00  0.00    -0.329 OA
HETATM   15  O3  UNL     1       1.854  -4.008  -0.518  1.00  0.00    -0.291 OA
HETATM   16  C24 UNL     1      -5.686  -1.203   0.622  1.00  0.00     0.035 C 
HETATM   17  C25 UNL     1      -4.819  -1.202  -1.737  1.00  0.00     0.035 C 
ENDROOT
BRANCH  13  18
HETATM   18  C13 UNL     1       3.564   0.406   0.394  1.00  0.00     0.005 A 
HETATM   19  C14 UNL     1       4.403   0.604   1.427  1.00  0.00    -0.002 A 
HETATM   20  C15 UNL     1       5.381   1.520   1.358  1.00  0.00    -0.000 A 
HETATM   21  C16 UNL     1       5.537   2.255   0.246  1.00  0.00    -0.000 A 
HETATM   22  C17 UNL     1       4.711   2.066  -0.793  1.00  0.00    -0.000 A 
HETATM   23  C18 UNL     1       3.736   1.147  -0.716  1.00  0.00    -0.002 A 
ENDBRANCH  13  18
BRANCH   7  24
HETATM   24  C19 UNL     1      -1.323   0.988   0.225  1.00  0.00     0.056 C 
BRANCH  24  25
HETATM   25  C20 UNL     1      -0.339   1.934  -0.419  1.00  0.00    -0.030 C 
HETATM   26  C21 UNL     1       0.308   2.958   0.168  1.00  0.00    -0.048 C 
HETATM   27  C22 UNL     1       1.307   3.793  -0.601  1.00  0.00     0.026 C 
HETATM   28  C23 UNL     1       0.141   3.382   1.609  1.00  0.00     0.026 C 
ENDBRANCH  24  25
ENDBRANCH   7  24
TORSDOF 3
