REMARK  4 active torsions:
REMARK  status: ('A' for Active; 'I' for Inactive)
REMARK    1  A    between atoms: C1_1  and  C23_33 
REMARK    2  A    between atoms: C2_2  and  O7_24 
REMARK    3  A    between atoms: O7_24  and  C18_25 
REMARK    4  A    between atoms: C18_25  and  C19_27 
ROOT
HETATM    1  C1  UNL     1       0.567   0.411  -0.623  1.00  0.00     0.161 C 
HETATM    2  C2  UNL     1       1.522   1.299   0.345  1.00  0.00     0.183 C 
HETATM    3  C3  UNL     1       2.961   0.494   1.006  1.00  0.00     0.185 C 
HETATM    4  C4  UNL     1       2.700  -0.171  -0.325  1.00  0.00     0.189 C 
HETATM    5  C5  UNL     1       1.242  -0.769   0.032  1.00  0.00     0.109 C 
HETATM    6  C6  UNL     1       0.358  -0.977   1.306  1.00  0.00     0.010 C 
HETATM    7  C7  UNL     1       1.834  -2.152  -0.174  1.00  0.00     0.224 C 
HETATM    8  C8  UNL     1       2.716  -2.320   1.086  1.00  0.00     0.064 C 
HETATM    9  C9  UNL     1       3.644  -1.045   1.197  1.00  0.00     0.064 C 
HETATM   10  C10 UNL     1       4.639  -1.253   0.044  1.00  0.00     0.161 C 
HETATM   11  C11 UNL     1       3.601  -1.190  -1.044  1.00  0.00     0.181 C 
HETATM   12  C12 UNL     1       4.287  -1.048  -2.418  1.00  0.00     0.200 C 
HETATM   13  C13 UNL     1       5.321  -2.138  -2.587  1.00  0.00    -0.016 C 
HETATM   14  C14 UNL     1       5.894  -2.746  -1.535  1.00  0.00    -0.029 C 
HETATM   15  C15 UNL     1       5.556  -2.465  -0.093  1.00  0.00     0.059 C 
HETATM   16  C16 UNL     1       5.713  -2.473  -4.006  1.00  0.00     0.029 C 
HETATM   17  O1  UNL     1       4.958   0.182  -2.637  1.00  0.00    -0.216 OA
HETATM   18  O2  UNL     1       2.741  -2.262  -1.207  1.00  0.00    -0.329 OA
HETATM   19  O3  UNL     1       5.455  -0.109   0.004  1.00  0.00    -0.223 OA
HETATM   20  C17 UNL     1       4.473  -1.128   2.506  1.00  0.00     0.005 C 
HETATM   21  O4  UNL     1       0.909  -3.186  -0.379  1.00  0.00    -0.195 OA
HETATM   22  O5  UNL     1       3.041   0.848  -1.272  1.00  0.00    -0.221 OA
HETATM   23  O6  UNL     1       2.356   0.329   2.270  1.00  0.00    -0.221 OA
HETATM   24  O9  UNL     1       0.886   0.343  -1.995  1.00  0.00    -0.223 OA
ENDROOT
BRANCH   2  25
HETATM   25  O7  UNL     1       0.811   2.058   1.299  1.00  0.00    -0.295 OA
BRANCH  25  26
HETATM   26  C18 UNL     1       1.515   2.854   2.164  1.00  0.00     0.314 C 
HETATM   27  O8  UNL     1       0.928   3.433   3.070  1.00  0.00    -0.257 OA
BRANCH  26  28
HETATM   28  C19 UNL     1       2.994   3.057   2.117  1.00  0.00     0.144 A 
HETATM   29  C20 UNL     1       3.800   3.210   3.231  1.00  0.00     0.026 A 
HETATM   30  C21 UNL     1       5.134   3.299   2.778  1.00  0.00     0.022 A 
HETATM   31  C22 UNL     1       5.121   3.204   1.400  1.00  0.00     0.099 A 
HETATM   32  N1  UNL     1       3.821   3.059   1.009  1.00  0.00    -0.239 NA
ENDBRANCH  26  28
ENDBRANCH  25  26
ENDBRANCH   2  25
BRANCH   1  33
HETATM   33  C23 UNL     1      -0.950   0.768  -0.652  1.00  0.00     0.031 C 
HETATM   34  C24 UNL     1      -1.137   2.102  -1.423  1.00  0.00     0.003 C 
HETATM   35  C25 UNL     1      -1.871   0.884   0.584  1.00  0.00     0.003 C 
ENDBRANCH   1  33
TORSDOF 4
