REMARK  6 active torsions:
REMARK  status: ('A' for Active; 'I' for Inactive)
REMARK    1  A    between atoms: C1_1  and  C23_35 
REMARK    2  A    between atoms: C2_2  and  O9_26 
REMARK    3  A    between atoms: C9_9  and  C17_21 
REMARK    4  A    between atoms: C13_13  and  C16_16 
REMARK    5  A    between atoms: O9_26  and  C18_27 
REMARK    6  A    between atoms: C18_27  and  C19_28 
ROOT
HETATM    1  C1  UNL     1       0.557   0.429  -0.600  1.00  0.00     0.161 C 
HETATM    2  C2  UNL     1       1.490   1.323   0.388  1.00  0.00     0.183 C 
HETATM    3  C3  UNL     1       2.932   0.541   1.056  1.00  0.00     0.187 C 
HETATM    4  C4  UNL     1       2.690  -0.115  -0.286  1.00  0.00     0.189 C 
HETATM    5  C5  UNL     1       1.235  -0.751   0.053  1.00  0.00     0.109 C 
HETATM    6  C6  UNL     1       0.322  -1.006   1.295  1.00  0.00     0.010 C 
HETATM    7  C7  UNL     1       1.880  -2.114  -0.138  1.00  0.00     0.224 C 
HETATM    8  C8  UNL     1       2.768  -2.249   1.128  1.00  0.00     0.067 C 
HETATM    9  C9  UNL     1       3.674  -0.961   1.232  1.00  0.00     0.095 C 
HETATM   10  C10 UNL     1       4.653  -1.146   0.055  1.00  0.00     0.163 C 
HETATM   11  C11 UNL     1       3.607  -1.109  -1.022  1.00  0.00     0.181 C 
HETATM   12  C12 UNL     1       4.271  -0.955  -2.407  1.00  0.00     0.202 C 
HETATM   13  C13 UNL     1       5.348  -2.002  -2.583  1.00  0.00     0.017 C 
HETATM   14  C14 UNL     1       5.947  -2.593  -1.537  1.00  0.00    -0.027 C 
HETATM   15  C15 UNL     1       5.595  -2.339  -0.092  1.00  0.00     0.059 C 
HETATM   16  O2  UNL     1       4.897   0.294  -2.658  1.00  0.00    -0.216 OA
HETATM   17  O3  UNL     1       2.783  -2.208  -1.173  1.00  0.00    -0.329 OA
HETATM   18  O4  UNL     1       5.440   0.017  -0.010  1.00  0.00    -0.223 OA
HETATM   19  O6  UNL     1       0.994  -3.181  -0.338  1.00  0.00    -0.195 OA
HETATM   20  O7  UNL     1       3.018   0.920  -1.222  1.00  0.00    -0.221 OA
HETATM   21  O8  UNL     1       2.290   0.319   2.290  1.00  0.00    -0.221 OA
HETATM   22  O11 UNL     1       0.883   0.369  -1.970  1.00  0.00    -0.223 OA
ENDROOT
BRANCH   2  23
HETATM   23  O9  UNL     1       0.759   2.058   1.346  1.00  0.00    -0.295 OA
BRANCH  23  24
HETATM   24  C18 UNL     1       1.443   2.835   2.245  1.00  0.00     0.314 C 
HETATM   25  O10 UNL     1       0.828   3.402   3.145  1.00  0.00    -0.257 OA
BRANCH  24  26
HETATM   26  C19 UNL     1       2.920   3.045   2.241  1.00  0.00     0.144 A 
HETATM   27  C20 UNL     1       3.702   3.171   3.376  1.00  0.00     0.026 A 
HETATM   28  C21 UNL     1       5.043   3.280   2.956  1.00  0.00     0.022 A 
HETATM   29  C22 UNL     1       5.062   3.228   1.575  1.00  0.00     0.099 A 
HETATM   30  N1  UNL     1       3.770   3.086   1.151  1.00  0.00    -0.239 NA
ENDBRANCH  24  26
ENDBRANCH  23  24
ENDBRANCH   2  23
BRANCH   1  31
HETATM   31  C23 UNL     1      -0.964   0.773  -0.631  1.00  0.00     0.031 C 
HETATM   32  C24 UNL     1      -1.159   2.104  -1.405  1.00  0.00     0.003 C 
HETATM   33  C25 UNL     1      -1.891   0.886   0.603  1.00  0.00     0.003 C 
ENDBRANCH   1  31
BRANCH   9  34
HETATM   34  C17 UNL     1       4.577  -1.028   2.489  1.00  0.00     0.187 C 
HETATM   35  O5  UNL     1       3.859  -0.964   3.704  1.00  0.00    -0.221 OA
ENDBRANCH   9  34
BRANCH  13  36
HETATM   36  C16 UNL     1       5.780  -2.278  -4.002  1.00  0.00     0.207 C 
HETATM   37  O1  UNL     1       6.213  -1.075  -4.622  1.00  0.00    -0.216 OA
ENDBRANCH  13  36
TORSDOF 6
