REMARK  2 active torsions:
REMARK  status: ('A' for Active; 'I' for Inactive)
REMARK    1  A    between atoms: C2_2  and  O3_21 
REMARK    2  A    between atoms: C3_3  and  O2_19 
ROOT
HETATM    1  C1  UNL     1      -0.099   3.010   0.016  1.00  0.00     0.022 A 
HETATM    2  C2  UNL     1      -1.257   2.342   0.016  1.00  0.00     0.116 A 
HETATM    3  C3  UNL     1      -1.257   1.005   0.028  1.00  0.00     0.112 A 
HETATM    4  C4  UNL     1      -0.099   0.337   0.041  1.00  0.00     0.003 A 
HETATM    5  C5  UNL     1       1.058   1.005   0.041  1.00  0.00     0.006 A 
HETATM    6  C6  UNL     1       1.059   2.342   0.028  1.00  0.00    -0.020 A 
HETATM    7  C7  UNL     1       2.336   3.122   0.041  1.00  0.00     0.064 C 
HETATM    8  C8  UNL     1       3.518   2.162  -0.014  1.00  0.00     0.295 C 
HETATM    9  N1  UNL     1       3.388   0.367   0.079  1.00  0.00     0.342 N 
HETATM   10  C9  UNL     1       2.124   0.232   0.752  1.00  0.00     0.279 C 
HETATM   11  C10 UNL     1       1.561  -1.289   0.553  1.00  0.00     0.049 C 
HETATM   12  C11 UNL     1       0.135  -1.142   0.041  1.00  0.00     0.042 C 
HETATM   13  C12 UNL     1       0.051  -1.669  -1.386  1.00  0.00     0.016 C 
HETATM   14  C13 UNL     1       0.002  -3.191  -1.362  1.00  0.00     0.070 C 
HETATM   15  C14 UNL     1      -0.408  -3.832   0.007  1.00  0.00     0.173 C 
HETATM   16  C15 UNL     1      -1.050  -3.111   0.953  1.00  0.00     0.033 C 
HETATM   17  C16 UNL     1      -0.810  -1.797   1.000  1.00  0.00    -0.020 C 
HETATM   18  O1  UNL     1      -0.145  -4.991   0.222  1.00  0.00    -0.291 OA
ENDROOT
BRANCH   3  19
HETATM   19  O2  UNL     1      -2.431   0.328   0.028  1.00  0.00    -0.326 OA
HETATM   20  C17 UNL     1      -2.431  -1.074   0.015  1.00  0.00     0.181 C 
ENDBRANCH   3  19
BRANCH   2  21
HETATM   21  O3  UNL     1      -2.430   3.019   0.003  1.00  0.00    -0.326 OA
HETATM   22  C18 UNL     1      -3.645   2.318  -0.010  1.00  0.00     0.181 C 
ENDBRANCH   2  21
TORSDOF 2
