REMARK  2 active torsions:
REMARK  status: ('A' for Active; 'I' for Inactive)
REMARK    1  A    between atoms: C4_4  and  O4_15 
REMARK    2  A    between atoms: O4_15  and  C12_16 
ROOT
HETATM    1  C1  UNL     1      -0.029   0.227   0.584  1.00  0.00     0.089 C 
HETATM    2  C2  UNL     1       1.245   0.846   1.190  1.00  0.00     0.132 C 
HETATM    3  C3  UNL     1       2.626   0.220   0.964  1.00  0.00     0.065 C 
HETATM    4  C4  UNL     1       2.912  -0.568  -0.321  1.00  0.00     0.130 C 
HETATM    5  C5  UNL     1       2.271  -1.958  -0.400  1.00  0.00     0.064 C 
HETATM    6  C6  UNL     1       0.744  -2.117  -0.495  1.00  0.00     0.158 C 
HETATM    7  C7  UNL     1      -0.031  -1.328   0.561  1.00  0.00     0.175 C 
HETATM    8  C8  UNL     1      -1.518  -1.609   0.584  1.00  0.00     0.004 C 
HETATM    9  C9  UNL     1      -2.184  -0.600   1.153  1.00  0.00     0.004 C 
HETATM   10  C10 UNL     1      -1.241   0.508   1.527  1.00  0.00     0.179 C 
HETATM   11  O1  UNL     1      -1.800   1.795   1.355  1.00  0.00    -0.218 OA
HETATM   12  O2  UNL     1       0.438  -1.780   1.819  1.00  0.00    -0.219 OA
HETATM   13  C11 UNL     1       0.247  -1.994  -1.941  1.00  0.00     0.036 C 
HETATM   14  O3  UNL     1       0.495  -3.468  -0.161  1.00  0.00    -0.223 OA
HETATM   15  C14 UNL     1       3.538   1.459   1.075  1.00  0.00     0.091 C 
HETATM   16  C15 UNL     1       2.617   2.622   0.772  1.00  0.00     0.271 C 
HETATM   17  O6  UNL     1       1.334   2.202   0.868  1.00  0.00    -0.304 OA
HETATM   18  O7  UNL     1       2.957   3.754   0.509  1.00  0.00    -0.264 OA
HETATM   19  C16 UNL     1       4.181   1.617   2.459  1.00  0.00     0.011 C 
HETATM   20  C17 UNL     1      -0.396   0.848  -0.788  1.00  0.00     0.008 C 
ENDROOT
BRANCH   4  21
HETATM   21  O4  UNL     1       2.633   0.209  -1.442  1.00  0.00    -0.304 OA
BRANCH  21  22
HETATM   22  C12 UNL     1       3.483   0.189  -2.503  1.00  0.00     0.272 C 
HETATM   23  C13 UNL     1       3.006   1.161  -3.562  1.00  0.00     0.106 C 
HETATM   24  O5  UNL     1       4.479  -0.493  -2.590  1.00  0.00    -0.264 OA
ENDBRANCH  21  22
ENDBRANCH   4  21
TORSDOF 2
