REMARK  5 active torsions:
REMARK  status: ('A' for Active; 'I' for Inactive)
REMARK    1  A    between atoms: C1_2  and  C2_3 
REMARK    2  A    between atoms: C2_3  and  C3_4 
REMARK    3  A    between atoms: C4_5  and  C5_6 
REMARK    4  A    between atoms: C5_6  and  C6_7 
REMARK    5  A    between atoms: C6_7  and  C7_8 
ROOT
HETATM    1  C5  UNL     1       1.146  -0.528   0.600  1.00  0.00     0.119 C 
HETATM    2 CL3  UNL     1       2.479   0.129   1.607  1.00  0.00    -0.109 Cl
ENDROOT
BRANCH   1   3
HETATM    3  C4  UNL     1       0.095   0.549   0.458  1.00  0.00    -0.012 C 
HETATM    4  C3  UNL     1      -1.213   0.355   0.696  1.00  0.00    -0.014 C 
BRANCH   4   5
HETATM    5  C2  UNL     1      -2.295   1.413   0.545  1.00  0.00     0.096 C 
HETATM    6  C10 UNL     1      -2.113   2.441   1.668  1.00  0.00     0.022 C 
HETATM    7 CL4  UNL     1      -2.086   2.218  -1.051  1.00  0.00    -0.111 Cl
BRANCH   5   8
HETATM    8  C1  UNL     1      -3.668   0.732   0.603  1.00  0.00     0.087 C 
HETATM    9 BR1  UNL     1      -5.208   1.915   0.427  1.00  0.00    -0.079 Br
ENDBRANCH   5   8
ENDBRANCH   4   5
ENDBRANCH   1   3
BRANCH   1  10
HETATM   10  C6  UNL     1       1.619  -1.104  -0.751  1.00  0.00     0.104 C 
HETATM   11  C9  UNL     1       2.251  -0.038  -1.656  1.00  0.00     0.022 C 
HETATM   12 CL2  UNL     1       0.178  -1.773  -1.603  1.00  0.00    -0.110 Cl
BRANCH  10  13
HETATM   13  C7  UNL     1       2.586  -2.260  -0.553  1.00  0.00     0.002 C 
HETATM   14  C8  UNL     1       3.096  -3.003  -1.546  1.00  0.00     0.065 C 
HETATM   15 CL1  UNL     1       4.192  -4.301  -1.281  1.00  0.00    -0.082 Cl
ENDBRANCH  10  13
ENDBRANCH   1  10
TORSDOF 5
