REMARK  3 active torsions:
REMARK  status: ('A' for Active; 'I' for Inactive)
REMARK    1  A    between atoms: C6_6  and  C7_7 
REMARK    2  A    between atoms: C7_7  and  C8_8 
REMARK    3  A    between atoms: C14_16  and  C17_21 
ROOT
HETATM    1  C1  UNL     1      -1.930  -2.542   0.936  1.00  0.00     0.113 C 
HETATM    2  C2  UNL     1      -1.540  -3.879   0.372  1.00  0.00     0.108 C 
HETATM    3  C3  UNL     1      -0.097  -4.149   0.097  1.00  0.00     0.119 C 
HETATM    4  C4  UNL     1       0.725  -3.068   0.024  1.00  0.00     0.068 C 
HETATM    5  C5  UNL     1       0.266  -1.671   0.211  1.00  0.00     0.096 C 
HETATM    6  C6  UNL     1      -1.018  -1.407   0.588  1.00  0.00     0.026 C 
HETATM    7  O2  UNL     1       1.078  -0.627  -0.119  1.00  0.00    -0.326 OA
HETATM    8  C14 UNL     1       2.055  -0.867  -1.090  1.00  0.00     0.180 C 
HETATM    9  C15 UNL     1       2.969  -1.994  -0.656  1.00  0.00     0.231 C 
HETATM   10  C16 UNL     1       2.201  -3.252  -0.277  1.00  0.00     0.145 C 
HETATM   11  O3  UNL     1       2.829  -4.396  -0.109  1.00  0.00    -0.192 OA
HETATM   12  O4  UNL     1       3.873  -2.223  -1.721  1.00  0.00    -0.213 OA
HETATM   13  O6  UNL     1       0.300  -5.429  -0.137  1.00  0.00    -0.194 OA
HETATM   14  O7  UNL     1      -2.797  -2.439   1.975  1.00  0.00    -0.195 OA
ENDROOT
BRANCH   6  15
HETATM   15  C7  UNL     1      -1.582   0.003   0.624  1.00  0.00     0.056 C 
BRANCH  15  16
HETATM   16  C8  UNL     1      -0.646   1.062   1.161  1.00  0.00    -0.016 A 
HETATM   17  C9  UNL     1      -0.439   1.198   2.537  1.00  0.00    -0.004 A 
HETATM   18  C10 UNL     1       0.457   2.153   3.022  1.00  0.00     0.002 A 
HETATM   19  C11 UNL     1       1.170   2.961   2.135  1.00  0.00     0.027 A 
HETATM   20  C12 UNL     1       0.978   2.856   0.754  1.00  0.00     0.131 A 
HETATM   21  C13 UNL     1       0.063   1.905   0.295  1.00  0.00     0.024 A 
HETATM   22  O1  UNL     1       1.724   3.577  -0.125  1.00  0.00    -0.190 OA
ENDBRANCH  15  16
ENDBRANCH   6  15
BRANCH   8  23
HETATM   23  C17 UNL     1       2.822   0.422  -1.317  1.00  0.00     0.008 A 
HETATM   24  C18 UNL     1       2.773   1.095  -2.542  1.00  0.00     0.000 A 
HETATM   25  C19 UNL     1       3.433   2.312  -2.717  1.00  0.00     0.027 A 
HETATM   26  C20 UNL     1       4.178   2.892  -1.687  1.00  0.00     0.131 A 
HETATM   27  C21 UNL     1       4.219   2.221  -0.462  1.00  0.00     0.027 A 
HETATM   28  O5  UNL     1       4.787   4.096  -1.838  1.00  0.00    -0.190 OA
HETATM   29  C22 UNL     1       3.550   1.011  -0.278  1.00  0.00     0.000 A 
ENDBRANCH   8  23
TORSDOF 3
