REMARK  7 active torsions:
REMARK  status: ('A' for Active; 'I' for Inactive)
REMARK    1  A    between atoms: O1_1  and  C1_2 
REMARK    2  A    between atoms: O1_1  and  C10_12 
REMARK    3  A    between atoms: C1_2  and  C2_3 
REMARK    4  A    between atoms: C3_4  and  C4_5 
REMARK    5  A    between atoms: C17_21  and  O5_22 
REMARK    6  A    between atoms: O5_22  and  C18_23 
REMARK    7  A    between atoms: C19_25  and  C23_32 
ROOT
HETATM    1  C10 UNL     1       2.117   0.163   1.697  1.00  0.00     0.109 C 
HETATM    2  C11 UNL     1       2.175   1.034   0.412  1.00  0.00     0.089 C 
HETATM    3  C12 UNL     1       3.432   1.905   0.582  1.00  0.00     0.062 C 
HETATM    4  C13 UNL     1       3.574   2.118   2.080  1.00  0.00     0.159 C 
HETATM    5  C14 UNL     1       3.226   0.735   2.618  1.00  0.00     0.061 C 
HETATM    6  O3  UNL     1       2.637   3.063   2.533  1.00  0.00    -0.223 OA
HETATM    7  C15 UNL     1       3.401   3.159  -0.235  1.00  0.00     0.003 C 
HETATM    8  C16 UNL     1       2.337   3.496  -0.974  1.00  0.00     0.115 C 
HETATM    9  O4  UNL     1       1.177   2.787  -0.975  1.00  0.00    -0.304 OA
HETATM   10  C17 UNL     1       0.957   1.903   0.105  1.00  0.00     0.244 C 
HETATM   11  C24 UNL     1       0.804   0.179   2.494  1.00  0.00     0.031 C 
ENDROOT
BRANCH   1  12
HETATM   12  O1  UNL     1       2.508  -1.148   1.407  1.00  0.00    -0.303 OA
BRANCH  12  13
HETATM   13  C1  UNL     1       1.699  -2.012   0.730  1.00  0.00     0.296 C 
HETATM   14  O2  UNL     1       0.603  -1.670   0.296  1.00  0.00    -0.259 OA
BRANCH  13  15
HETATM   15  C2  UNL     1       2.153  -3.398   0.457  1.00  0.00     0.068 C 
HETATM   16  C3  UNL     1       1.321  -4.369   0.008  1.00  0.00     0.005 C 
BRANCH  16  17
HETATM   17  C4  UNL     1       1.737  -5.754  -0.270  1.00  0.00     0.000 A 
HETATM   18  C5  UNL     1       0.776  -6.778  -0.231  1.00  0.00     0.000 A 
HETATM   19  C6  UNL     1       1.123  -8.098  -0.521  1.00  0.00     0.000 A 
HETATM   20  C7  UNL     1       2.433  -8.412  -0.889  1.00  0.00     0.000 A 
HETATM   21  C8  UNL     1       3.389  -7.399  -0.967  1.00  0.00     0.000 A 
HETATM   22  C9  UNL     1       3.043  -6.080  -0.662  1.00  0.00     0.000 A 
ENDBRANCH  16  17
ENDBRANCH  13  15
ENDBRANCH  12  13
ENDBRANCH   1  12
BRANCH  10  23
HETATM   23  O5  UNL     1      -0.075   1.078  -0.391  1.00  0.00    -0.304 OA
BRANCH  23  24
HETATM   24  C18 UNL     1      -1.319   1.720  -0.589  1.00  0.00     0.272 C 
HETATM   25  O6  UNL     1      -2.203   1.059   0.293  1.00  0.00    -0.326 OA
HETATM   26  C19 UNL     1      -3.537   1.476   0.144  1.00  0.00     0.184 C 
HETATM   27  C20 UNL     1      -4.011   1.190  -1.277  1.00  0.00     0.215 C 
HETATM   28  C21 UNL     1      -3.135   1.937  -2.258  1.00  0.00     0.220 C 
HETATM   29  O9  UNL     1      -5.334   1.625  -1.475  1.00  0.00    -0.218 OA
HETATM   30  C22 UNL     1      -1.708   1.500  -2.033  1.00  0.00     0.241 C 
HETATM   31  O8  UNL     1      -3.526   1.629  -3.571  1.00  0.00    -0.218 OA
HETATM   32  O7  UNL     1      -0.861   2.260  -2.858  1.00  0.00    -0.215 OA
BRANCH  26  33
HETATM   33  C23 UNL     1      -4.387   0.747   1.176  1.00  0.00     0.214 C 
HETATM   34  O10 UNL     1      -4.080   1.223   2.472  1.00  0.00    -0.218 OA
ENDBRANCH  26  33
ENDBRANCH  23  24
ENDBRANCH  10  23
TORSDOF 7
