REMARK  10 active torsions:
REMARK  status: ('A' for Active; 'I' for Inactive)
REMARK    1  A    between atoms: C7_7  and  O1_8 
REMARK    2  A    between atoms: C9_10  and  C14_17 
REMARK    3  A    between atoms: C12_13  and  O2_14 
REMARK    4  A    between atoms: C14_17  and  O4_18 
REMARK    5  A    between atoms: N1_21  and  C18_23 
REMARK    6  A    between atoms: C22_27  and  O5_28 
REMARK    7  A    between atoms: O5_28  and  C23_29 
REMARK    8  A    between atoms: C23_29  and  C24_30 
REMARK    9  A    between atoms: C27_33  and  O6_36 
REMARK   10  A    between atoms: C31_39  and  O8_41 
ROOT
HETATM    1  C1  UNL     1       2.107  -1.654  -1.419  1.00  0.00     0.087 C 
HETATM    2  C2  UNL     1       3.020  -0.425  -1.565  1.00  0.00     0.135 C 
HETATM    3  C3  UNL     1       2.765   0.516  -0.391  1.00  0.00     0.056 C 
HETATM    4  C4  UNL     1       1.254   0.742  -0.301  1.00  0.00     0.009 C 
HETATM    5  C5  UNL     1       0.274  -0.493  -0.395  1.00  0.00     0.058 C 
HETATM    6  C6  UNL     1       0.602  -1.710   0.537  1.00  0.00     0.038 C 
HETATM    7  C7  UNL     1       2.032  -2.170   0.067  1.00  0.00     0.120 C 
HETATM    8  C9  UNL     1      -0.638  -2.700   0.358  1.00  0.00     0.089 C 
HETATM    9  C10 UNL     1      -1.790  -2.012   1.125  1.00  0.00     0.159 C 
HETATM   10  C11 UNL     1      -2.282  -0.792   0.374  1.00  0.00     0.063 C 
HETATM   11  C12 UNL     1      -1.118   0.119  -0.016  1.00  0.00     0.120 C 
HETATM   12  O3  UNL     1      -2.878  -2.881   1.342  1.00  0.00    -0.223 OA
HETATM   13  C16 UNL     1      -1.119  -2.969  -1.135  1.00  0.00     0.255 C 
HETATM   14  N1  UNL     1      -0.560  -2.100  -2.208  1.00  0.00     0.135 N 
HETATM   15  C17 UNL     1       0.580  -1.328  -1.686  1.00  0.00     0.226 C 
HETATM   16  C20 UNL     1       1.123   1.890  -1.347  1.00  0.00     0.005 C 
HETATM   17  C21 UNL     1       2.545   2.356  -1.769  1.00  0.00     0.055 C 
HETATM   18  C22 UNL     1       3.351   1.917  -0.550  1.00  0.00     0.129 C 
HETATM   19  C31 UNL     1       3.002   1.673  -3.068  1.00  0.00     0.120 C 
HETATM   20  C32 UNL     1       2.799   0.162  -2.967  1.00  0.00     0.060 C 
HETATM   21  O9  UNL     1       4.364  -0.826  -1.478  1.00  0.00    -0.226 OA
ENDROOT
BRANCH  18  22
HETATM   22  O5  UNL     1       4.723   1.890  -0.757  1.00  0.00    -0.301 OA
BRANCH  22  23
HETATM   23  C23 UNL     1       5.643   2.307   0.165  1.00  0.00     0.296 C 
HETATM   24  O7  UNL     1       6.818   2.321  -0.200  1.00  0.00    -0.259 OA
BRANCH  23  25
HETATM   25  C24 UNL     1       5.427   2.760   1.578  1.00  0.00     0.063 A 
HETATM   26  C25 UNL     1       6.295   3.719   2.118  1.00  0.00     0.007 A 
HETATM   27  C26 UNL     1       6.127   4.178   3.426  1.00  0.00     0.024 A 
HETATM   28  C27 UNL     1       5.117   3.701   4.272  1.00  0.00     0.094 A 
HETATM   29  C28 UNL     1       4.251   2.749   3.711  1.00  0.00     0.024 A 
HETATM   30  C29 UNL     1       4.412   2.271   2.409  1.00  0.00     0.007 A 
BRANCH  28  31
HETATM   31  O6  UNL     1       4.997   4.236   5.530  1.00  0.00    -0.328 OA
HETATM   32  C30 UNL     1       3.800   4.010   6.237  1.00  0.00     0.181 C 
ENDBRANCH  28  31
ENDBRANCH  23  25
ENDBRANCH  22  23
ENDBRANCH  18  22
BRANCH  19  33
HETATM   33  O8  UNL     1       4.346   1.889  -3.407  1.00  0.00    -0.354 OA
HETATM   34  C33 UNL     1       4.673   3.240  -3.658  1.00  0.00     0.174 C 
ENDBRANCH  19  33
BRANCH   7  35
HETATM   35  O1  UNL     1       2.210  -3.553   0.148  1.00  0.00    -0.354 OA
HETATM   36  C8  UNL     1       3.555  -3.963   0.023  1.00  0.00     0.174 C 
ENDBRANCH   7  35
BRANCH  11  37
HETATM   37  O2  UNL     1      -1.504   1.101  -0.939  1.00  0.00    -0.354 OA
HETATM   38  C13 UNL     1      -2.650   1.847  -0.591  1.00  0.00     0.174 C 
ENDBRANCH  11  37
BRANCH  14  39
HETATM   39  C18 UNL     1      -1.558  -1.379  -2.975  1.00  0.00     0.250 C 
HETATM   40  C19 UNL     1      -0.954  -0.570  -4.130  1.00  0.00     0.037 C 
ENDBRANCH  14  39
BRANCH   8  41
HETATM   41  C14 UNL     1      -0.438  -4.074   1.044  1.00  0.00     0.147 C 
BRANCH  41  42
HETATM   42  O4  UNL     1      -0.124  -3.892   2.401  1.00  0.00    -0.351 OA
HETATM   43  C15 UNL     1       0.274  -5.092   3.028  1.00  0.00     0.174 C 
ENDBRANCH  41  42
ENDBRANCH   8  41
TORSDOF 10
