REMARK  4 active torsions:
REMARK  status: ('A' for Active; 'I' for Inactive)
REMARK    1  A    between atoms: C3_3  and  O2_7 
REMARK    2  A    between atoms: O2_7  and  C6_8 
REMARK    3  A    between atoms: C7_10  and  C11_17 
REMARK    4  A    between atoms: C12_19  and  C15_22 
ROOT
HETATM    1  C1  UNL     1      -0.186   3.377   1.132  1.00  0.00     0.029 C 
HETATM    2  C2  UNL     1      -0.542   1.889   0.971  1.00  0.00     0.071 C 
HETATM    3  C3  UNL     1       0.487   1.193   0.086  1.00  0.00     0.242 C 
HETATM    4  O1  UNL     1       1.800   1.360   0.583  1.00  0.00    -0.304 OA
HETATM    5  C4  UNL     1       2.161   2.591   1.041  1.00  0.00     0.114 C 
HETATM    6  C5  UNL     1       1.289   3.577   1.283  1.00  0.00    -0.000 C 
HETATM    7  C12 UNL     1      -1.985   1.970   0.423  1.00  0.00     0.093 C 
HETATM    8  C13 UNL     1      -2.107   3.323  -0.315  1.00  0.00     0.011 C 
HETATM    9  C14 UNL     1      -0.772   4.051  -0.111  1.00  0.00     0.005 C 
ENDROOT
BRANCH   3  10
HETATM   10  O2  UNL     1       0.291  -0.212   0.113  1.00  0.00    -0.304 OA
BRANCH  10  11
HETATM   11  C6  UNL     1       1.207  -0.945  -0.681  1.00  0.00     0.272 C 
HETATM   12  O3  UNL     1       0.502  -1.700  -1.645  1.00  0.00    -0.326 OA
HETATM   13  C7  UNL     1      -0.080  -2.902  -1.222  1.00  0.00     0.184 C 
HETATM   14  C8  UNL     1       0.854  -3.774  -0.396  1.00  0.00     0.215 C 
HETATM   15  C9  UNL     1       1.534  -3.019   0.727  1.00  0.00     0.220 C 
HETATM   16  O6  UNL     1       1.848  -4.320  -1.236  1.00  0.00    -0.218 OA
HETATM   17  C10 UNL     1       2.162  -1.760   0.166  1.00  0.00     0.241 C 
HETATM   18  O5  UNL     1       0.599  -2.691   1.725  1.00  0.00    -0.218 OA
HETATM   19  O4  UNL     1       3.265  -2.123  -0.633  1.00  0.00    -0.215 OA
BRANCH  13  20
HETATM   20  C11 UNL     1      -1.446  -2.672  -0.599  1.00  0.00     0.214 C 
HETATM   21  O7  UNL     1      -2.260  -1.998  -1.538  1.00  0.00    -0.218 OA
ENDBRANCH  13  20
ENDBRANCH  10  11
ENDBRANCH   3  10
BRANCH   7  22
HETATM   22  C15 UNL     1      -2.426   0.801  -0.435  1.00  0.00     0.185 C 
HETATM   23  O8  UNL     1      -3.266  -0.018   0.226  1.00  0.00    -0.647 OA
HETATM   24  O9  UNL     1      -2.093   0.599  -1.579  1.00  0.00    -0.647 OA
ENDBRANCH   7  22
TORSDOF 4
