REMARK  1 active torsions:
REMARK  status: ('A' for Active; 'I' for Inactive)
REMARK    1  A    between atoms: C15_15  and  C18_18 
ROOT
HETATM    1  C1  UNL     1      -1.595   0.068  -2.158  1.00  0.00     0.033 C 
HETATM    2  C2  UNL     1      -2.556  -0.879  -1.456  1.00  0.00     0.155 C 
HETATM    3  C3  UNL     1      -1.869  -1.770  -0.420  1.00  0.00     0.063 C 
HETATM    4  C4  UNL     1      -0.393  -1.433  -0.129  1.00  0.00     0.129 C 
HETATM    5  C5  UNL     1      -0.137   0.085   0.055  1.00  0.00     0.028 C 
HETATM    6  C6  UNL     1      -0.717   0.860  -1.179  1.00  0.00     0.005 C 
HETATM    7  C7  UNL     1       1.393   0.412   0.236  1.00  0.00     0.033 C 
HETATM    8  C8  UNL     1       2.370  -0.674  -0.248  1.00  0.00     0.152 C 
HETATM    9  C9  UNL     1       1.792  -1.303  -1.515  1.00  0.00     0.035 C 
HETATM   10  C10 UNL     1       0.509  -2.087  -1.196  1.00  0.00     0.033 C 
HETATM   11  C11 UNL     1       3.803  -0.156  -0.400  1.00  0.00     0.152 C 
HETATM   12  C12 UNL     1       4.385   0.584   0.826  1.00  0.00     0.032 C 
HETATM   13  C13 UNL     1       3.325   1.569   1.390  1.00  0.00     0.003 C 
HETATM   14  C14 UNL     1       1.912   0.976   1.574  1.00  0.00     0.003 C 
HETATM   15  C15 UNL     1       5.585   1.383   0.229  1.00  0.00     0.023 C 
HETATM   16  C16 UNL     1       5.417   1.395  -1.303  1.00  0.00     0.007 C 
HETATM   17  C17 UNL     1       4.025   0.811  -1.567  1.00  0.00     0.033 C 
HETATM   18  C22 UNL     1       4.825  -0.320   1.998  1.00  0.00     0.003 C 
HETATM   19  O3  UNL     1       4.607  -1.282  -0.645  1.00  0.00    -0.224 OA
HETATM   20  O4  UNL     1       2.465  -1.705   0.700  1.00  0.00    -0.224 OA
HETATM   21  C23 UNL     1      -0.926   0.591   1.294  1.00  0.00     0.003 C 
HETATM   22  O5  UNL     1      -0.120  -2.072   1.099  1.00  0.00    -0.226 OA
HETATM   23  O6  UNL     1      -3.571  -0.117  -0.842  1.00  0.00    -0.223 OA
ENDROOT
BRANCH  15  24
HETATM   24  C18 UNL     1       6.973   0.969   0.659  1.00  0.00    -0.009 A 
HETATM   25  C19 UNL     1       7.702   1.593   1.599  1.00  0.00     0.062 A 
HETATM   26  C20 UNL     1       8.960   0.829   1.686  1.00  0.00     0.296 A 
HETATM   27  O1  UNL     1       9.000  -0.233   0.834  1.00  0.00    -0.294 OA
HETATM   28  O2  UNL     1       9.874   1.118   2.450  1.00  0.00    -0.259 OA
HETATM   29  C21 UNL     1       7.763  -0.209   0.126  1.00  0.00     0.175 A 
ENDBRANCH  15  24
TORSDOF 1
