REMARK  3 active torsions:
REMARK  status: ('A' for Active; 'I' for Inactive)
REMARK    1  A    between atoms: C1_1  and  O6_17 
REMARK    2  A    between atoms: C2_2  and  O5_15 
REMARK    3  A    between atoms: C3_3  and  O4_13 
ROOT
HETATM    1  C1  UNL     1       1.161   0.587   0.522  1.00  0.00     0.120 C 
HETATM    2  C2  UNL     1       1.206  -0.685  -0.079  1.00  0.00     0.141 C 
HETATM    3  C3  UNL     1       0.038  -1.232  -0.669  1.00  0.00     0.145 C 
HETATM    4  C4  UNL     1      -1.124  -0.437  -0.728  1.00  0.00     0.178 C 
HETATM    5  C5  UNL     1      -1.150   0.872  -0.225  1.00  0.00     0.133 A 
HETATM    6  C6  UNL     1       0.010   1.381   0.373  1.00  0.00     0.050 A 
HETATM    7  C7  UNL     1      -0.012   2.763   0.860  1.00  0.00     0.010 A 
HETATM    8  C8  UNL     1      -1.135   3.500   0.729  1.00  0.00     0.069 A 
HETATM    9  C9  UNL     1      -2.316   2.879   0.095  1.00  0.00     0.300 A 
HETATM   10  O1  UNL     1      -2.305   1.596  -0.356  1.00  0.00    -0.271 OA
HETATM   11  O2  UNL     1      -3.335   3.558  -0.019  1.00  0.00    -0.259 OA
HETATM   12  O3  UNL     1      -2.284  -0.881  -1.285  1.00  0.00    -0.186 OA
ENDROOT
BRANCH   1  13
HETATM   13  O6  UNL     1       2.311   1.134   1.039  1.00  0.00    -0.326 OA
HETATM   14  C12 UNL     1       2.512   0.846   2.405  1.00  0.00     0.181 C 
ENDBRANCH   1  13
BRANCH   2  15
HETATM   15  O5  UNL     1       2.433  -1.311   0.026  1.00  0.00    -0.324 OA
HETATM   16  C11 UNL     1       2.676  -2.604  -0.468  1.00  0.00     0.182 C 
ENDBRANCH   2  15
BRANCH   3  17
HETATM   17  O4  UNL     1       0.121  -2.498  -1.200  1.00  0.00    -0.324 OA
HETATM   18  C10 UNL     1      -0.888  -3.053  -2.006  1.00  0.00     0.182 C 
ENDBRANCH   3  17
TORSDOF 3
