REMARK  9 active torsions:
REMARK  status: ('A' for Active; 'I' for Inactive)
REMARK    1  A    between atoms: C2_2  and  C31_35 
REMARK    2  A    between atoms: C4_4  and  C27_29 
REMARK    3  A    between atoms: C6_6  and  C7_7 
REMARK    4  A    between atoms: C7_7  and  C8_8 
REMARK    5  A    between atoms: C12_13  and  C13_14 
REMARK    6  A    between atoms: C19_21  and  C21_23 
REMARK    7  A    between atoms: C21_23  and  C22_24 
REMARK    8  A    between atoms: C27_29  and  C28_31 
REMARK    9  A    between atoms: C31_35  and  C32_36 
ROOT
HETATM    1  C1  UNL     1      -0.687   1.452  -0.124  1.00  0.00     0.177 C 
HETATM    2  C2  UNL     1      -0.645  -0.041   0.197  1.00  0.00     0.111 C 
HETATM    3  C3  UNL     1       0.678  -0.166   0.918  1.00  0.00     0.169 C 
HETATM    4  C4  UNL     1       1.946   0.021   0.090  1.00  0.00     0.145 C 
HETATM    5  C5  UNL     1       1.814   1.547  -0.179  1.00  0.00     0.084 C 
HETATM    6  C6  UNL     1       0.609   2.182  -0.240  1.00  0.00     0.036 C 
HETATM    7  O1  UNL     1       2.925   2.289  -0.488  1.00  0.00    -0.335 OA
HETATM    8  C12 UNL     1       3.809   1.818  -1.461  1.00  0.00     0.149 C 
HETATM    9  C16 UNL     1       3.083   1.276  -2.697  1.00  0.00     0.033 C 
HETATM   10  C17 UNL     1       1.865   0.353  -2.486  1.00  0.00     0.004 C 
HETATM   11  C18 UNL     1       1.903  -0.686  -1.315  1.00  0.00     0.018 C 
HETATM   12  C19 UNL     1       0.626  -1.580  -1.474  1.00  0.00     0.006 C 
HETATM   13  C20 UNL     1      -0.671  -0.817  -1.130  1.00  0.00     0.015 C 
HETATM   14  C26 UNL     1       3.146  -1.549  -1.623  1.00  0.00     0.001 C 
HETATM   15  O4  UNL     1       0.712  -0.131   2.126  1.00  0.00    -0.295 OA
HETATM   16  O5  UNL     1      -1.765   2.006  -0.310  1.00  0.00    -0.291 OA
ENDROOT
BRANCH   2  17
HETATM   17  C31 UNL     1      -1.829  -0.393   1.131  1.00  0.00     0.040 C 
BRANCH  17  18
HETATM   18  C32 UNL     1      -1.685  -1.758   1.761  1.00  0.00    -0.034 C 
HETATM   19  C33 UNL     1      -1.516  -2.058   3.063  1.00  0.00    -0.048 C 
HETATM   20  C34 UNL     1      -1.346  -3.492   3.511  1.00  0.00     0.026 C 
HETATM   21  C35 UNL     1      -1.459  -1.060   4.196  1.00  0.00     0.026 C 
ENDBRANCH  17  18
ENDBRANCH   2  17
BRANCH   6  22
HETATM   22  C7  UNL     1       0.495   3.665  -0.560  1.00  0.00     0.056 C 
BRANCH  22  23
HETATM   23  C8  UNL     1      -0.385   4.414   0.410  1.00  0.00    -0.030 C 
HETATM   24  C9  UNL     1      -0.897   5.640   0.204  1.00  0.00    -0.048 C 
HETATM   25  C10 UNL     1      -1.785   6.305   1.229  1.00  0.00     0.026 C 
HETATM   26  C11 UNL     1      -0.643   6.463  -1.037  1.00  0.00     0.026 C 
ENDBRANCH  22  23
ENDBRANCH   6  22
BRANCH   4  27
HETATM   27  C27 UNL     1       3.154  -0.329   1.031  1.00  0.00     0.177 C 
HETATM   28  O3  UNL     1       4.051   0.483   1.105  1.00  0.00    -0.291 OA
BRANCH  27  29
HETATM   29  C28 UNL     1       3.407  -1.552   1.949  1.00  0.00    -0.008 C 
HETATM   30  C29 UNL     1       2.304  -2.188   2.811  1.00  0.00     0.029 C 
HETATM   31  C30 UNL     1       4.278  -2.654   1.320  1.00  0.00     0.029 C 
ENDBRANCH  27  29
ENDBRANCH   4  27
BRANCH  12  32
HETATM   32  C21 UNL     1       0.657  -2.954  -0.764  1.00  0.00     0.025 C 
BRANCH  32  33
HETATM   33  C22 UNL     1       1.360  -4.060  -1.516  1.00  0.00    -0.035 C 
HETATM   34  C23 UNL     1       1.797  -5.220  -0.994  1.00  0.00    -0.048 C 
HETATM   35  C24 UNL     1       2.459  -6.265  -1.863  1.00  0.00     0.026 C 
HETATM   36  C25 UNL     1       1.658  -5.608   0.458  1.00  0.00     0.026 C 
ENDBRANCH  32  33
ENDBRANCH  12  32
BRANCH   8  37
HETATM   37  C13 UNL     1       4.804   2.951  -1.772  1.00  0.00     0.152 C 
HETATM   38  C14 UNL     1       5.885   2.520  -2.769  1.00  0.00     0.035 C 
HETATM   39  C15 UNL     1       5.476   3.468  -0.494  1.00  0.00     0.035 C 
HETATM   40  O2  UNL     1       4.103   4.027  -2.345  1.00  0.00    -0.224 OA
ENDBRANCH   8  37
TORSDOF 9
