REMARK  1 active torsions:
REMARK  status: ('A' for Active; 'I' for Inactive)
REMARK    1  A    between atoms: C8_9  and  C11_13 
ROOT
HETATM    1  C1  UNL     1      -3.649  -0.328   0.306  1.00  0.00     0.131 A 
HETATM    2  C2  UNL     1      -3.615  -1.665   0.333  1.00  0.00     0.055 A 
HETATM    3  C3  UNL     1      -2.478  -2.378   0.332  1.00  0.00     0.138 A 
HETATM    4  C4  UNL     1      -1.310  -1.695   0.299  1.00  0.00     0.082 A 
HETATM    5  C5  UNL     1      -1.301  -0.338   0.277  1.00  0.00     0.097 A 
HETATM    6  C6  UNL     1      -2.477   0.331   0.273  1.00  0.00     0.026 A 
HETATM    7  C7  UNL     1      -2.514   1.849   0.239  1.00  0.00     0.035 C 
HETATM    8  O1  UNL     1      -0.147   0.401   0.197  1.00  0.00    -0.329 OA
HETATM    9  C8  UNL     1       0.931  -0.231  -0.434  1.00  0.00     0.151 C 
HETATM   10  C9  UNL     1       1.171  -1.550   0.278  1.00  0.00     0.104 C 
HETATM   11  C10 UNL     1      -0.116  -2.357   0.306  1.00  0.00     0.180 C 
HETATM   12  O2  UNL     1       0.015  -3.559   0.342  1.00  0.00    -0.291 OA
HETATM   13  O3  UNL     1      -2.607  -3.737   0.363  1.00  0.00    -0.190 OA
HETATM   14  O4  UNL     1      -4.842   0.328   0.298  1.00  0.00    -0.190 OA
ENDROOT
BRANCH   9  15
HETATM   15  C11 UNL     1       2.160   0.660  -0.434  1.00  0.00     0.005 A 
HETATM   16  C12 UNL     1       2.816   0.935  -1.577  1.00  0.00    -0.002 A 
HETATM   17  C13 UNL     1       3.902   1.722  -1.580  1.00  0.00    -0.000 A 
HETATM   18  C14 UNL     1       4.354   2.249  -0.432  1.00  0.00    -0.000 A 
HETATM   19  C15 UNL     1       3.711   1.983   0.715  1.00  0.00    -0.000 A 
HETATM   20  C16 UNL     1       2.623   1.196   0.710  1.00  0.00    -0.002 A 
ENDBRANCH   9  15
TORSDOF 1
