REMARK  3 active torsions:
REMARK  status: ('A' for Active; 'I' for Inactive)
REMARK    1  A    between atoms: C3_3  and  O4_20 
REMARK    2  A    between atoms: C8_8  and  C10_11 
REMARK    3  A    between atoms: C13_14  and  O2_17 
ROOT
HETATM    1  C1  UNL     1      -4.125   1.764  -0.026  1.00  0.00     0.030 A 
HETATM    2  C2  UNL     1      -4.688   0.549  -0.052  1.00  0.00     0.155 A 
HETATM    3  C3  UNL     1      -3.912  -0.557  -0.057  1.00  0.00     0.142 A 
HETATM    4  C4  UNL     1      -2.561  -0.413  -0.037  1.00  0.00     0.127 A 
HETATM    5  C5  UNL     1      -2.001   0.813  -0.011  1.00  0.00     0.064 A 
HETATM    6  C6  UNL     1      -2.796   1.899  -0.006  1.00  0.00     0.007 A 
HETATM    7  C7  UNL     1      -0.643   0.973   0.009  1.00  0.00     0.200 A 
HETATM    8  C8  UNL     1       0.199  -0.109   0.004  1.00  0.00     0.064 A 
HETATM    9  C9  UNL     1      -0.415  -1.310  -0.022  1.00  0.00     0.126 A 
HETATM   10  O1  UNL     1      -1.756  -1.504  -0.043  1.00  0.00    -0.303 OA
HETATM   11  O3  UNL     1      -0.248   2.116   0.031  1.00  0.00    -0.286 OA
HETATM   12  O5  UNL     1      -6.047   0.436  -0.072  1.00  0.00    -0.188 OA
ENDROOT
BRANCH   8  13
HETATM   13  C10 UNL     1       1.564  -0.010   0.024  1.00  0.00     0.005 A 
HETATM   14  C11 UNL     1       2.373  -1.095   0.015  1.00  0.00     0.002 A 
HETATM   15  C12 UNL     1       3.714  -1.042   0.034  1.00  0.00     0.024 A 
HETATM   16  C13 UNL     1       4.397   0.113   0.065  1.00  0.00     0.094 A 
HETATM   17  C14 UNL     1       3.619   1.209   0.074  1.00  0.00     0.024 A 
HETATM   18  C15 UNL     1       2.276   1.140   0.055  1.00  0.00     0.002 A 
BRANCH  16  19
HETATM   19  O2  UNL     1       5.770   0.086   0.083  1.00  0.00    -0.328 OA
HETATM   20  C16 UNL     1       6.470   1.308   0.108  1.00  0.00     0.181 C 
ENDBRANCH  16  19
ENDBRANCH   8  13
BRANCH   3  21
HETATM   21  O4  UNL     1      -4.610  -1.748  -0.085  1.00  0.00    -0.324 OA
HETATM   22  C17 UNL     1      -3.966  -2.997  -0.113  1.00  0.00     0.182 C 
ENDBRANCH   3  21
TORSDOF 3
