REMARK  6 active torsions:
REMARK  status: ('A' for Active; 'I' for Inactive)
REMARK    1  A    between atoms: C2_2  and  O8_30 
REMARK    2  A    between atoms: C7_7  and  O5_23 
REMARK    3  A    between atoms: C8_8  and  O3_16 
REMARK    4  A    between atoms: O3_16  and  C14_17 
REMARK    5  A    between atoms: C14_17  and  C15_19 
REMARK    6  A    between atoms: O5_23  and  C19_24 
ROOT
HETATM    1  C1  UNL     1      -3.071   0.024   2.690  1.00  0.00    -0.001 C 
HETATM    2  C2  UNL     1      -3.521  -1.008   1.682  1.00  0.00     0.151 C 
HETATM    3  C3  UNL     1      -2.617  -0.629   0.468  1.00  0.00     0.067 C 
HETATM    4  C4  UNL     1      -2.431   0.917   0.609  1.00  0.00     0.057 C 
HETATM    5  C5  UNL     1      -2.478   1.068   2.108  1.00  0.00    -0.026 C 
HETATM    6  C6  UNL     1      -1.286   1.692  -0.081  1.00  0.00     0.158 C 
HETATM    7  C7  UNL     1       0.113   1.155   0.282  1.00  0.00     0.180 C 
HETATM    8  C8  UNL     1       0.636  -0.042  -0.542  1.00  0.00     0.161 C 
HETATM    9  C9  UNL     1      -0.458  -1.071  -0.836  1.00  0.00     0.086 C 
HETATM   10  C10 UNL     1      -1.305  -1.427   0.395  1.00  0.00     0.134 C 
HETATM   11  O1  UNL     1      -1.543  -2.809   0.316  1.00  0.00    -0.301 OA
HETATM   12  C11 UNL     1      -0.764  -3.335  -0.662  1.00  0.00     0.292 C 
HETATM   13  C12 UNL     1      -0.057  -2.422  -1.367  1.00  0.00     0.045 C 
HETATM   14  C13 UNL     1       0.770  -2.720  -2.378  1.00  0.00     0.001 C 
HETATM   15  O2  UNL     1      -0.718  -4.528  -0.873  1.00  0.00    -0.260 OA
HETATM   16  C21 UNL     1      -1.424   3.193   0.241  1.00  0.00     0.036 C 
HETATM   17  O7  UNL     1      -1.480   1.608  -1.468  1.00  0.00    -0.223 OA
HETATM   18  C22 UNL     1      -3.409  -2.393   2.322  1.00  0.00     0.038 C 
ENDROOT
BRANCH   8  19
HETATM   19  O3  UNL     1       1.158   0.403  -1.754  1.00  0.00    -0.298 OA
BRANCH  19  20
HETATM   20  C14 UNL     1       2.477   0.587  -2.090  1.00  0.00     0.291 C 
HETATM   21  O4  UNL     1       2.610   1.334  -3.043  1.00  0.00    -0.260 OA
BRANCH  20  22
HETATM   22  C15 UNL     1       3.682   0.143  -1.603  1.00  0.00     0.037 C 
HETATM   23  C16 UNL     1       4.901   0.820  -2.245  1.00  0.00     0.036 C 
HETATM   24  C17 UNL     1       3.992  -0.798  -0.685  1.00  0.00    -0.025 C 
HETATM   25  C18 UNL     1       3.231  -1.856   0.064  1.00  0.00     0.030 C 
ENDBRANCH  20  22
ENDBRANCH  19  20
ENDBRANCH   8  19
BRANCH   7  26
HETATM   26  O5  UNL     1       1.066   2.188   0.267  1.00  0.00    -0.299 OA
BRANCH  26  27
HETATM   27  C19 UNL     1       2.146   2.081   1.089  1.00  0.00     0.273 C 
HETATM   28  C20 UNL     1       3.028   3.305   0.961  1.00  0.00     0.106 C 
HETATM   29  O6  UNL     1       2.373   1.143   1.819  1.00  0.00    -0.264 OA
ENDBRANCH  26  27
ENDBRANCH   7  26
BRANCH   2  30
HETATM   30  O8  UNL     1      -4.875  -0.732   1.384  1.00  0.00    -0.190 OA
HETATM   31  O9  UNL     1      -5.276  -1.715   0.365  1.00  0.00    -0.035 OA
ENDBRANCH   2  30
TORSDOF 6
