REMARK  3 active torsions:
REMARK  status: ('A' for Active; 'I' for Inactive)
REMARK    1  A    between atoms: C6_6  and  O1_7 
REMARK    2  A    between atoms: O1_7  and  C7_8 
REMARK    3  A    between atoms: C8_10  and  C12_17 
ROOT
HETATM    1  C1  UNL     1       0.845  -1.985  -0.450  1.00  0.00     0.126 A 
HETATM    2  C2  UNL     1       0.589  -3.296  -0.497  1.00  0.00     0.052 A 
HETATM    3  C3  UNL     1      -0.608  -3.826  -0.230  1.00  0.00     0.135 A 
HETATM    4  C4  UNL     1      -1.578  -2.945   0.095  1.00  0.00     0.051 A 
HETATM    5  C5  UNL     1      -1.341  -1.611   0.151  1.00  0.00     0.129 A 
HETATM    6  C6  UNL     1      -0.115  -1.098  -0.129  1.00  0.00     0.142 A 
HETATM    7  O7  UNL     1      -2.325  -0.713   0.487  1.00  0.00    -0.271 OA
HETATM    8  C13 UNL     1      -3.562  -1.215   0.748  1.00  0.00     0.300 A 
HETATM    9  C14 UNL     1      -3.811  -2.546   0.696  1.00  0.00     0.069 A 
HETATM   10  C15 UNL     1      -2.819  -3.387   0.375  1.00  0.00     0.010 A 
HETATM   11  O8  UNL     1      -4.476  -0.469   1.034  1.00  0.00    -0.259 OA
HETATM   12  O9  UNL     1      -0.792  -5.172  -0.294  1.00  0.00    -0.190 OA
HETATM   13  C16 UNL     1       1.741  -3.878  -0.848  1.00  0.00     0.031 A 
HETATM   14  C17 UNL     1       2.576  -2.841  -0.983  1.00  0.00     0.123 A 
HETATM   15  O10 UNL     1       2.021  -1.770  -0.745  1.00  0.00    -0.303 OA
ENDROOT
BRANCH   6  16
HETATM   16  O1  UNL     1       0.039   0.262  -0.009  1.00  0.00    -0.300 OA
BRANCH  16  17
HETATM   17  C7  UNL     1       1.302   0.850   0.203  1.00  0.00     0.274 C 
HETATM   18  O2  UNL     1       1.139   1.782   1.254  1.00  0.00    -0.326 OA
HETATM   19  C8  UNL     1       0.277   2.848   0.964  1.00  0.00     0.184 C 
HETATM   20  C9  UNL     1       0.787   3.631  -0.238  1.00  0.00     0.215 C 
HETATM   21  C10 UNL     1       1.023   2.736  -1.437  1.00  0.00     0.220 C 
HETATM   22  O5  UNL     1      -0.171   4.591  -0.621  1.00  0.00    -0.218 OA
HETATM   23  C11 UNL     1       1.833   1.516  -1.047  1.00  0.00     0.241 C 
HETATM   24  O4  UNL     1      -0.231   2.315  -1.920  1.00  0.00    -0.218 OA
HETATM   25  O3  UNL     1       1.790   0.618  -2.130  1.00  0.00    -0.215 OA
BRANCH  19  26
HETATM   26  C12 UNL     1       0.184   3.728   2.205  1.00  0.00     0.214 C 
HETATM   27  O6  UNL     1      -0.364   2.988   3.279  1.00  0.00    -0.218 OA
ENDBRANCH  19  26
ENDBRANCH  16  17
ENDBRANCH   6  16
TORSDOF 3
