REMARK  5 active torsions:
REMARK  status: ('A' for Active; 'I' for Inactive)
REMARK    1  A    between atoms: C3_3  and  O2_7 
REMARK    2  A    between atoms: O2_7  and  C6_8 
REMARK    3  A    between atoms: C7_10  and  C11_17 
REMARK    4  A    between atoms: C12_19  and  O9_23 
REMARK    5  A    between atoms: O9_23  and  C15_24 
ROOT
HETATM    1  C1  UNL     1       5.992   0.985   0.239  1.00  0.00     0.182 C 
HETATM    2  C2  UNL     1       4.793   0.073  -0.043  1.00  0.00     0.117 C 
HETATM    3  C3  UNL     1       3.548   0.918  -0.306  1.00  0.00     0.247 C 
HETATM    4  O1  UNL     1       3.742   1.897  -1.306  1.00  0.00    -0.304 OA
HETATM    5  C4  UNL     1       4.862   2.662  -1.201  1.00  0.00     0.117 C 
HETATM    6  C5  UNL     1       5.915   2.311  -0.454  1.00  0.00     0.032 C 
HETATM    7  C12 UNL     1       4.724  -0.893   1.176  1.00  0.00     0.111 C 
HETATM    8  C13 UNL     1       5.780  -0.357   2.175  1.00  0.00     0.064 C 
HETATM    9  C14 UNL     1       6.050   1.079   1.746  1.00  0.00     0.186 C 
HETATM   10  O8  UNL     1       7.326   1.513   2.143  1.00  0.00    -0.220 OA
HETATM   11  C17 UNL     1       3.385  -0.975   1.924  1.00  0.00     0.031 C 
HETATM   12  O11 UNL     1       7.174   0.339  -0.186  1.00  0.00    -0.218 OA
ENDROOT
BRANCH   3  13
HETATM   13  O2  UNL     1       2.550   0.103  -0.879  1.00  0.00    -0.303 OA
BRANCH  13  14
HETATM   14  C6  UNL     1       1.278   0.706  -1.006  1.00  0.00     0.277 C 
HETATM   15  O3  UNL     1       0.447  -0.044  -0.145  1.00  0.00    -0.325 OA
HETATM   16  C7  UNL     1      -0.877   0.420  -0.136  1.00  0.00     0.188 C 
HETATM   17  C8  UNL     1      -1.494   0.236  -1.516  1.00  0.00     0.241 C 
HETATM   18  C9  UNL     1      -0.630   0.838  -2.604  1.00  0.00     0.218 C 
HETATM   19  O6  UNL     1      -2.765   0.856  -1.594  1.00  0.00    -0.213 OA
HETATM   20  C10 UNL     1       0.854   0.575  -2.452  1.00  0.00     0.267 C 
HETATM   21  O5  UNL     1      -1.183   1.412  -3.514  1.00  0.00    -0.290 OA
HETATM   22  O4  UNL     1       1.653   1.465  -3.211  1.00  0.00    -0.210 OA
BRANCH  16  23
HETATM   23  C11 UNL     1      -1.657  -0.330   0.941  1.00  0.00     0.215 C 
HETATM   24  O7  UNL     1      -2.235   0.587   1.849  1.00  0.00    -0.218 OA
ENDBRANCH  16  23
ENDBRANCH  13  14
ENDBRANCH   3  13
BRANCH   7  25
HETATM   25  O9  UNL     1       5.141  -2.181   0.825  1.00  0.00    -0.306 OA
BRANCH  25  26
HETATM   26  C15 UNL     1       4.415  -2.930  -0.047  1.00  0.00     0.272 C 
HETATM   27  C16 UNL     1       5.048  -4.298  -0.209  1.00  0.00     0.106 C 
HETATM   28  O10 UNL     1       3.405  -2.583  -0.614  1.00  0.00    -0.264 OA
ENDBRANCH  25  26
ENDBRANCH   7  25
TORSDOF 5
