REMARK  2 active torsions:
REMARK  status: ('A' for Active; 'I' for Inactive)
REMARK    1  A    between atoms: C1_1  and  O7_22 
REMARK    2  A    between atoms: C3_3  and  O6_20 
ROOT
HETATM    1  C1  UNL     1       3.372   0.419  -0.177  1.00  0.00     0.121 A 
HETATM    2  C2  UNL     1       3.268  -0.901   0.037  1.00  0.00     0.051 A 
HETATM    3  C3  UNL     1       2.112  -1.573   0.153  1.00  0.00     0.099 A 
HETATM    4  C4  UNL     1       0.974  -0.840   0.122  1.00  0.00     0.066 A 
HETATM    5  C5  UNL     1       1.032   0.494  -0.097  1.00  0.00     0.071 A 
HETATM    6  C6  UNL     1       2.223   1.125  -0.263  1.00  0.00     0.156 A 
HETATM    7  O1  UNL     1       2.333   2.474  -0.438  1.00  0.00    -0.188 OA
HETATM    8  C7  UNL     1      -0.131   1.208  -0.155  1.00  0.00     0.194 A 
HETATM    9  C8  UNL     1      -1.323   0.585   0.025  1.00  0.00     0.023 A 
HETATM   10  C9  UNL     1      -1.375  -0.737   0.235  1.00  0.00     0.046 A 
HETATM   11  C10 UNL     1      -0.230  -1.463   0.289  1.00  0.00     0.196 A 
HETATM   12  O2  UNL     1      -0.365  -2.651   0.480  1.00  0.00    -0.287 OA
HETATM   13  C11 UNL     1      -2.705  -1.449   0.396  1.00  0.00     0.174 C 
HETATM   14  O3  UNL     1      -3.837  -0.660   0.085  1.00  0.00    -0.327 OA
HETATM   15  C12 UNL     1      -3.757   0.634   0.612  1.00  0.00     0.224 C 
HETATM   16  C13 UNL     1      -2.607   1.382  -0.036  1.00  0.00     0.089 C 
HETATM   17  C14 UNL     1      -5.089   1.333   0.397  1.00  0.00     0.065 C 
HETATM   18  O4  UNL     1      -3.524   0.528   2.001  1.00  0.00    -0.195 OA
HETATM   19  O5  UNL     1      -0.181   2.398  -0.367  1.00  0.00    -0.287 OA
ENDROOT
BRANCH   1  20
HETATM   20  O7  UNL     1       4.644   0.934  -0.312  1.00  0.00    -0.326 OA
HETATM   21  C16 UNL     1       4.888   1.922  -1.287  1.00  0.00     0.181 C 
ENDBRANCH   1  20
BRANCH   3  22
HETATM   22  O6  UNL     1       2.179  -2.919   0.433  1.00  0.00    -0.328 OA
HETATM   23  C15 UNL     1       2.222  -3.741  -0.712  1.00  0.00     0.181 C 
ENDBRANCH   3  22
TORSDOF 2
