REMARK  4 active torsions:
REMARK  status: ('A' for Active; 'I' for Inactive)
REMARK    1  A    between atoms: C1_1  and  O17_49 
REMARK    2  A    between atoms: C11_13  and  C14_17 
REMARK    3  A    between atoms: C25_32  and  C27_35 
REMARK    4  A    between atoms: C28_37  and  C32_44 
ROOT
HETATM    1  C14 UNL     1       0.965  -0.049  -0.123  1.00  0.00     0.050 A 
HETATM    2  C15 UNL     1       1.609  -1.066  -0.875  1.00  0.00     0.107 A 
HETATM    3  C16 UNL     1       2.840  -1.615  -0.408  1.00  0.00     0.087 A 
HETATM    4  C17 UNL     1       3.523  -2.699  -1.197  1.00  0.00     0.201 A 
HETATM    5  C18 UNL     1       2.809  -3.098  -2.453  1.00  0.00     0.064 A 
HETATM    6  C19 UNL     1       1.586  -2.465  -2.809  1.00  0.00     0.105 A 
HETATM    7  O4  UNL     1       1.055  -1.506  -2.025  1.00  0.00    -0.307 OA
HETATM    8  C20 UNL     1       0.914  -2.842  -3.996  1.00  0.00     0.054 A 
HETATM    9  C21 UNL     1       1.457  -3.848  -4.830  1.00  0.00     0.158 A 
HETATM   10  C22 UNL     1       2.672  -4.481  -4.477  1.00  0.00     0.156 A 
HETATM   11  C23 UNL     1       3.348  -4.108  -3.291  1.00  0.00     0.035 A 
HETATM   12  O5  UNL     1       3.186  -5.436  -5.266  1.00  0.00    -0.188 OA
HETATM   13  O6  UNL     1       0.814  -4.197  -5.953  1.00  0.00    -0.188 OA
HETATM   14  O7  UNL     1       4.566  -3.211  -0.854  1.00  0.00    -0.286 OA
HETATM   15  C24 UNL     1       3.412  -1.133   0.803  1.00  0.00     0.136 A 
HETATM   16  C25 UNL     1       2.762  -0.117   1.543  1.00  0.00     0.058 A 
HETATM   17  C26 UNL     1       1.537   0.426   1.084  1.00  0.00     0.133 A 
HETATM   18  O8  UNL     1       0.930   1.387   1.799  1.00  0.00    -0.190 OA
HETATM   19  O14 UNL     1       4.572  -1.633   1.256  1.00  0.00    -0.190 OA
ENDROOT
BRANCH   1  20
HETATM   20  C11 UNL     1      -0.295   0.512  -0.594  1.00  0.00     0.032 A 
HETATM   21  C10 UNL     1      -1.500  -0.229  -0.469  1.00  0.00     0.136 A 
HETATM   22  C8  UNL     1      -2.723   0.334  -0.934  1.00  0.00     0.089 A 
HETATM   23  O15 UNL     1      -1.484  -1.451   0.086  1.00  0.00    -0.190 OA
HETATM   24  C7  UNL     1      -2.721   1.633  -1.523  1.00  0.00     0.130 A 
HETATM   25  C9  UNL     1      -4.012  -0.430  -0.809  1.00  0.00     0.203 A 
HETATM   26  O1  UNL     1      -3.865   2.186  -1.975  1.00  0.00    -0.305 OA
HETATM   27  C13 UNL     1      -1.514   2.359  -1.639  1.00  0.00     0.154 A 
HETATM   28  C5  UNL     1      -5.074   1.590  -1.912  1.00  0.00     0.107 A 
HETATM   29  C4  UNL     1      -5.219   0.293  -1.344  1.00  0.00     0.087 A 
HETATM   30  C6  UNL     1      -6.205   2.271  -2.420  1.00  0.00     0.049 A 
HETATM   31  C3  UNL     1      -6.508  -0.309  -1.287  1.00  0.00     0.138 A 
HETATM   32  C2  UNL     1      -7.633   0.383  -1.795  1.00  0.00     0.052 A 
HETATM   33  O16 UNL     1      -6.680  -1.527  -0.754  1.00  0.00    -0.190 OA
HETATM   34  C1  UNL     1      -7.483   1.668  -2.361  1.00  0.00     0.098 A 
HETATM   35  C12 UNL     1      -0.301   1.801  -1.176  1.00  0.00     0.032 A 
HETATM   36  O3  UNL     1      -1.516   3.580  -2.191  1.00  0.00    -0.188 OA
HETATM   37  O2  UNL     1      -4.074  -1.535  -0.320  1.00  0.00    -0.286 OA
BRANCH  34  38
HETATM   38  O17 UNL     1      -8.551   2.318  -2.844  1.00  0.00    -0.328 OA
HETATM   39  C33 UNL     1      -9.805   1.654  -2.809  1.00  0.00     0.181 C 
ENDBRANCH  34  38
ENDBRANCH   1  20
BRANCH  16  40
HETATM   40  C27 UNL     1       3.361   0.379   2.795  1.00  0.00     0.175 C 
HETATM   41  O9  UNL     1       3.080   1.764   2.932  1.00  0.00    -0.347 OA
HETATM   42  C28 UNL     1       3.861   2.455   3.910  1.00  0.00     0.181 C 
HETATM   43  C29 UNL     1       4.111   1.596   5.190  1.00  0.00     0.214 C 
HETATM   44  C30 UNL     1       3.043   0.502   5.383  1.00  0.00     0.218 C 
HETATM   45  O12 UNL     1       5.377   0.961   5.133  1.00  0.00    -0.218 OA
HETATM   46  C31 UNL     1       2.928  -0.377   4.098  1.00  0.00     0.216 C 
HETATM   47  O11 UNL     1       1.826   1.166   5.695  1.00  0.00    -0.218 OA
HETATM   48  O10 UNL     1       1.641  -0.975   3.998  1.00  0.00    -0.218 OA
BRANCH  42  49
HETATM   49  C32 UNL     1       5.125   2.994   3.223  1.00  0.00     0.214 C 
HETATM   50  O13 UNL     1       5.715   3.951   4.072  1.00  0.00    -0.218 OA
ENDBRANCH  42  49
ENDBRANCH  16  40
TORSDOF 4
