REMARK  1 active torsions:
REMARK  status: ('A' for Active; 'I' for Inactive)
REMARK    1  A    between atoms: C4_4  and  C8_8 
ROOT
HETATM    1  C1  UNL     1      -1.738   1.428  -0.466  1.00  0.00     0.022 C 
HETATM    2  C2  UNL     1      -2.133  -0.053  -0.525  1.00  0.00     0.005 C 
HETATM    3  C3  UNL     1      -1.184  -0.884   0.346  1.00  0.00     0.009 C 
HETATM    4  C4  UNL     1       0.245  -0.784  -0.207  1.00  0.00     0.040 C 
HETATM    5  C5  UNL     1       0.631   0.641  -0.514  1.00  0.00    -0.031 C 
HETATM    6  C6  UNL     1      -0.254   1.643  -0.641  1.00  0.00    -0.048 C 
HETATM    7  C7  UNL     1       0.178   3.062  -0.919  1.00  0.00     0.026 C 
ENDROOT
BRANCH   4   8
HETATM    8  C8  UNL     1       1.233  -1.431   0.743  1.00  0.00    -0.040 C 
HETATM    9  C9  UNL     1       1.746  -2.797   0.358  1.00  0.00     0.026 C 
HETATM   10  C10 UNL     1       1.602  -0.837   1.889  1.00  0.00    -0.009 C 
ENDBRANCH   4   8
TORSDOF 1
