REMARK  9 active torsions:
REMARK  status: ('A' for Active; 'I' for Inactive)
REMARK    1  A    between atoms: C1_1  and  O13_40 
REMARK    2  A    between atoms: C3_3  and  C14_21 
REMARK    3  A    between atoms: C5_5  and  O7_19 
REMARK    4  A    between atoms: C6_6  and  O1_7 
REMARK    5  A    between atoms: O1_7  and  C7_8 
REMARK    6  A    between atoms: C8_10  and  C12_17 
REMARK    7  A    between atoms: C19_28  and  C20_29 
REMARK    8  A    between atoms: C22_31  and  O12_38 
REMARK    9  A    between atoms: C24_33  and  O10_35 
ROOT
HETATM    1  C1  UNL     1      -2.719  -0.367   0.516  1.00  0.00     0.118 A 
HETATM    2  C2  UNL     1      -1.820   0.714   0.502  1.00  0.00     0.024 A 
HETATM    3  C3  UNL     1      -1.492   1.344  -0.711  1.00  0.00     0.009 A 
HETATM    4  C4  UNL     1      -2.064   0.891  -1.913  1.00  0.00     0.024 A 
HETATM    5  C5  UNL     1      -2.963  -0.190  -1.904  1.00  0.00     0.118 A 
HETATM    6  C6  UNL     1      -3.291  -0.820  -0.688  1.00  0.00     0.141 A 
ENDROOT
BRANCH   3   7
HETATM    7  C14 UNL     1      -0.540   2.488  -0.723  1.00  0.00     0.140 C 
HETATM    8  O8  UNL     1       0.093   2.610  -1.973  1.00  0.00    -0.352 OA
HETATM    9  C15 UNL     1       1.191   3.483  -1.855  1.00  0.00     0.145 C 
HETATM   10  C16 UNL     1       1.775   3.145  -0.479  1.00  0.00     0.066 C 
HETATM   11  C17 UNL     1       0.645   2.373   0.246  1.00  0.00     0.066 C 
HETATM   12  C19 UNL     1       2.950   2.154  -0.530  1.00  0.00     0.140 C 
HETATM   13  C18 UNL     1       1.257   0.983   0.469  1.00  0.00     0.145 C 
HETATM   14  O9  UNL     1       2.636   1.245   0.493  1.00  0.00    -0.352 OA
BRANCH  12  15
HETATM   15  C20 UNL     1       4.283   2.767  -0.293  1.00  0.00     0.009 A 
HETATM   16  C21 UNL     1       5.324   2.567  -1.216  1.00  0.00     0.025 A 
HETATM   17  C22 UNL     1       6.586   3.146  -0.995  1.00  0.00     0.121 A 
HETATM   18  C23 UNL     1       6.807   3.928   0.155  1.00  0.00     0.175 A 
HETATM   19  C24 UNL     1       5.765   4.129   1.080  1.00  0.00     0.121 A 
HETATM   20  O11 UNL     1       7.990   4.472   0.365  1.00  0.00    -0.186 OA
HETATM   21  C25 UNL     1       4.505   3.548   0.854  1.00  0.00     0.025 A 
BRANCH  17  22
HETATM   22  O12 UNL     1       7.558   2.955  -1.864  1.00  0.00    -0.326 OA
HETATM   23  C27 UNL     1       7.313   2.083  -2.958  1.00  0.00     0.181 C 
ENDBRANCH  17  22
BRANCH  19  24
HETATM   24  O10 UNL     1       5.967   4.861   2.158  1.00  0.00    -0.326 OA
HETATM   25  C26 UNL     1       4.884   5.033   3.059  1.00  0.00     0.181 C 
ENDBRANCH  19  24
ENDBRANCH  12  15
ENDBRANCH   3   7
BRANCH   1  26
HETATM   26  O13 UNL     1      -3.023  -0.954   1.656  1.00  0.00    -0.326 OA
HETATM   27  C28 UNL     1      -2.578  -0.344   2.859  1.00  0.00     0.181 C 
ENDBRANCH   1  26
BRANCH   5  28
HETATM   28  O7  UNL     1      -3.496  -0.610  -3.034  1.00  0.00    -0.326 OA
HETATM   29  C13 UNL     1      -4.911  -0.584  -3.153  1.00  0.00     0.181 C 
ENDBRANCH   5  28
BRANCH   6  30
HETATM   30  O1  UNL     1      -4.134  -1.833  -0.678  1.00  0.00    -0.300 OA
BRANCH  30  31
HETATM   31  C7  UNL     1      -3.716  -3.042  -0.058  1.00  0.00     0.274 C 
HETATM   32  O2  UNL     1      -4.506  -3.279   1.107  1.00  0.00    -0.326 OA
HETATM   33  C8  UNL     1      -4.169  -4.445   1.854  1.00  0.00     0.184 C 
HETATM   34  C9  UNL     1      -4.311  -5.698   0.956  1.00  0.00     0.215 C 
HETATM   35  C10 UNL     1      -3.485  -5.556  -0.342  1.00  0.00     0.220 C 
HETATM   36  O5  UNL     1      -3.899  -6.841   1.685  1.00  0.00    -0.218 OA
HETATM   37  C11 UNL     1      -3.828  -4.224  -1.050  1.00  0.00     0.241 C 
HETATM   38  O4  UNL     1      -3.695  -6.660  -1.208  1.00  0.00    -0.218 OA
HETATM   39  O3  UNL     1      -5.143  -4.259  -1.589  1.00  0.00    -0.215 OA
BRANCH  33  40
HETATM   40  C12 UNL     1      -2.767  -4.256   2.457  1.00  0.00     0.214 C 
HETATM   41  O6  UNL     1      -2.670  -5.064   3.609  1.00  0.00    -0.218 OA
ENDBRANCH  33  40
ENDBRANCH  30  31
ENDBRANCH   6  30
TORSDOF 9
