REMARK  3 active torsions:
REMARK  status: ('A' for Active; 'I' for Inactive)
REMARK    1  A    between atoms: C12_13  and  C20_24 
REMARK    2  A    between atoms: C16_18  and  O1_19 
REMARK    3  A    between atoms: O1_19  and  C17_20 
ROOT
HETATM    1  C1  UNL     1      -3.619  -1.204   0.846  1.00  0.00     0.001 A 
HETATM    2  C2  UNL     1      -4.412  -2.066   0.185  1.00  0.00     0.000 A 
HETATM    3  C3  UNL     1      -3.948  -3.263  -0.221  1.00  0.00     0.002 A 
HETATM    4  C4  UNL     1      -2.675  -3.625   0.015  1.00  0.00     0.019 A 
HETATM    5  C5  UNL     1      -1.896  -2.765   0.681  1.00  0.00     0.081 A 
HETATM    6  C6  UNL     1      -2.361  -1.581   1.105  1.00  0.00     0.015 A 
HETATM    7  C7  UNL     1      -1.330  -0.961   1.700  1.00  0.00     0.002 A 
HETATM    8  C8  UNL     1      -0.312  -1.832   1.657  1.00  0.00     0.112 A 
HETATM    9  N1  UNL     1      -0.672  -2.857   1.001  1.00  0.00    -0.243 NA
HETATM   10  C9  UNL     1       0.910  -1.515   2.138  1.00  0.00     0.190 C 
HETATM   11  C10 UNL     1       2.003  -1.534   1.094  1.00  0.00     0.073 C 
HETATM   12  C11 UNL     1       1.856  -0.212   0.271  1.00  0.00     0.040 C 
HETATM   13  C12 UNL     1       1.201  -0.428  -1.116  1.00  0.00     0.036 C 
HETATM   14  C13 UNL     1       0.146   0.647  -1.449  1.00  0.00     0.250 C 
HETATM   15  N2  UNL     1      -0.851   0.735  -0.396  1.00  0.00     0.140 N 
HETATM   16  C14 UNL     1      -0.321   1.158   0.904  1.00  0.00     0.251 C 
HETATM   17  C15 UNL     1      -1.175   0.499   2.044  1.00  0.00     0.064 C 
HETATM   18  C16 UNL     1       1.226   1.014   0.991  1.00  0.00     0.156 C 
HETATM   19  C19 UNL     1      -1.981   1.552  -0.816  1.00  0.00     0.285 C 
HETATM   20  O3  UNL     1       1.082  -0.889   3.160  1.00  0.00    -0.290 OA
ENDROOT
BRANCH  18  21
HETATM   21  O1  UNL     1       1.828   2.162   0.438  1.00  0.00    -0.302 OA
BRANCH  21  22
HETATM   22  C17 UNL     1       1.888   3.304   1.176  1.00  0.00     0.272 C 
HETATM   23  C18 UNL     1       2.572   4.397   0.381  1.00  0.00     0.106 C 
HETATM   24  O2  UNL     1       1.454   3.439   2.298  1.00  0.00    -0.264 OA
ENDBRANCH  21  22
ENDBRANCH  18  21
BRANCH  13  25
HETATM   25  C20 UNL     1       2.281  -0.543  -2.215  1.00  0.00     0.002 C 
HETATM   26  C21 UNL     1       1.752  -0.915  -3.607  1.00  0.00     0.000 C 
ENDBRANCH  13  25
TORSDOF 3
