REMARK  2 active torsions:
REMARK  status: ('A' for Active; 'I' for Inactive)
REMARK    1  A    between atoms: O1_2  and  C2_3 
REMARK    2  A    between atoms: C18_21  and  C19_22 
ROOT
HETATM    1  C2  UNL     1      -4.286   1.695  -0.829  1.00  0.00     0.096 A 
HETATM    2  C3  UNL     1      -3.712   0.474  -0.874  1.00  0.00     0.043 A 
HETATM    3  C4  UNL     1      -2.388   0.350  -0.747  1.00  0.00     0.083 A 
HETATM    4  C5  UNL     1      -1.592   1.408  -0.570  1.00  0.00     0.015 A 
HETATM    5  C6  UNL     1      -2.127   2.632  -0.520  1.00  0.00     0.003 A 
HETATM    6  C7  UNL     1      -3.462   2.752  -0.646  1.00  0.00     0.024 A 
HETATM    7  C8  UNL     1      -0.338   0.939  -0.473  1.00  0.00    -0.005 A 
HETATM    8  C9  UNL     1      -0.419  -0.401  -0.588  1.00  0.00     0.057 A 
HETATM    9  N1  UNL     1      -1.651  -0.679  -0.754  1.00  0.00    -0.250 NA
HETATM   10  C10 UNL     1       0.705  -1.409  -0.513  1.00  0.00     0.071 C 
HETATM   11  C11 UNL     1       2.099  -0.853  -0.132  1.00  0.00     0.225 C 
HETATM   12  N2  UNL     1       2.042  -0.079   1.100  1.00  0.00     0.136 N 
HETATM   13  C12 UNL     1       1.740   1.336   0.942  1.00  0.00     0.255 C 
HETATM   14  C13 UNL     1       0.909   1.745  -0.283  1.00  0.00     0.063 C 
HETATM   15  C14 UNL     1       1.192  -0.756   2.072  1.00  0.00     0.250 C 
HETATM   16  C15 UNL     1       1.191  -2.270   1.779  1.00  0.00     0.034 C 
HETATM   17  C16 UNL     1       0.344  -2.505   0.517  1.00  0.00     0.010 C 
HETATM   18  C17 UNL     1       2.634  -2.702   1.472  1.00  0.00     0.004 C 
HETATM   19  C18 UNL     1       3.058  -2.044   0.139  1.00  0.00     0.032 C 
ENDROOT
BRANCH   1  20
HETATM   20  O1  UNL     1      -5.654   1.770  -0.948  1.00  0.00    -0.328 OA
HETATM   21  C1  UNL     1      -6.285   3.018  -0.779  1.00  0.00     0.181 C 
ENDBRANCH   1  20
BRANCH  19  22
HETATM   22  C19 UNL     1       4.549  -1.657   0.182  1.00  0.00     0.002 C 
HETATM   23  C20 UNL     1       5.137  -1.284  -1.186  1.00  0.00     0.000 C 
ENDBRANCH  19  22
TORSDOF 2
