REMARK  4 active torsions:
REMARK  status: ('A' for Active; 'I' for Inactive)
REMARK    1  A    between atoms: C6_6  and  O1_7 
REMARK    2  A    between atoms: O1_7  and  C7_8 
REMARK    3  A    between atoms: C15_19  and  O5_21 
REMARK    4  A    between atoms: O5_21  and  C17_22 
ROOT
HETATM    1  C1  UNL     1      -4.033   0.223   3.016  1.00  0.00     0.170 A 
HETATM    2  C2  UNL     1      -4.873  -1.092   3.113  1.00  0.00     0.148 A 
HETATM    3  C3  UNL     1      -4.668  -2.199   2.082  1.00  0.00     0.070 C 
HETATM    4  C4  UNL     1      -3.270  -2.142   1.406  1.00  0.00     0.184 C 
HETATM    5  C5  UNL     1      -2.932  -0.732   0.813  1.00  0.00     0.061 C 
HETATM    6  C6  UNL     1      -2.967   0.367   1.928  1.00  0.00     0.156 C 
HETATM    7  C9  UNL     1      -1.527  -0.783   0.119  1.00  0.00     0.010 C 
HETATM    8  C10 UNL     1      -0.395  -1.254   1.068  1.00  0.00     0.038 C 
HETATM    9  C11 UNL     1      -0.732  -2.588   1.777  1.00  0.00     0.211 C 
HETATM   10  C12 UNL     1      -2.148  -2.609   2.324  1.00  0.00     0.208 C 
HETATM   11  O3  UNL     1      -2.365  -2.978   3.455  1.00  0.00    -0.291 OA
HETATM   12  O4  UNL     1      -0.549  -3.684   0.902  1.00  0.00    -0.215 OA
HETATM   13  C13 UNL     1       0.998  -1.238   0.381  1.00  0.00     0.005 C 
HETATM   14  C14 UNL     1       1.010  -0.885  -1.119  1.00  0.00     0.026 C 
HETATM   15  C15 UNL     1       0.178   0.395  -1.400  1.00  0.00     0.124 C 
HETATM   16  C16 UNL     1      -1.104   0.535  -0.553  1.00  0.00     0.030 C 
HETATM   17  C19 UNL     1       2.525  -0.721  -1.375  1.00  0.00     0.007 C 
HETATM   18  C20 UNL     1       3.098  -0.158  -0.055  1.00  0.00     0.009 C 
HETATM   19  C21 UNL     1       1.932  -0.160   0.936  1.00  0.00     0.001 C 
HETATM   20  C22 UNL     1       3.758   1.219  -0.232  1.00  0.00     0.083 C 
HETATM   21  C23 UNL     1       4.731   1.164  -1.381  1.00  0.00     0.079 C 
HETATM   22  C24 UNL     1       4.344   0.604  -2.541  1.00  0.00    -0.006 C 
HETATM   23  C25 UNL     1       2.936   0.063  -2.648  1.00  0.00     0.024 C 
HETATM   24  C26 UNL     1       2.768  -0.836  -3.877  1.00  0.00     0.005 C 
HETATM   25  O7  UNL     1       5.941   1.676  -1.166  1.00  0.00    -0.279 OA
HETATM   26  C27 UNL     1       5.949   2.035   0.119  1.00  0.00     0.304 C 
HETATM   27  C28 UNL     1       4.682   1.731   0.885  1.00  0.00     0.209 C 
HETATM   28  O8  UNL     1       4.152   2.912   1.453  1.00  0.00    -0.215 OA
HETATM   29  C29 UNL     1       4.938   0.746   2.024  1.00  0.00     0.044 C 
HETATM   30  O9  UNL     1       6.895   2.567   0.656  1.00  0.00    -0.261 OA
HETATM   31  C30 UNL     1       0.512  -2.094  -1.916  1.00  0.00     0.002 C 
HETATM   32  C31 UNL     1      -3.990  -0.375  -0.252  1.00  0.00     0.005 C 
HETATM   33  O10 UNL     1      -3.357  -3.088   0.350  1.00  0.00    -0.218 OA
HETATM   34  O11 UNL     1      -5.303   0.070   2.471  1.00  0.00    -0.352 OA
ENDROOT
BRANCH   6  35
HETATM   35  O1  UNL     1      -3.090   1.658   1.344  1.00  0.00    -0.302 OA
BRANCH  35  36
HETATM   36  C7  UNL     1      -2.754   2.631   2.186  1.00  0.00     0.272 C 
HETATM   37  O2  UNL     1      -2.281   2.438   3.281  1.00  0.00    -0.264 OA
HETATM   38  C8  UNL     1      -3.004   4.028   1.686  1.00  0.00     0.106 C 
ENDBRANCH  35  36
ENDBRANCH   6  35
BRANCH  15  39
HETATM   39  O5  UNL     1      -0.174   0.436  -2.777  1.00  0.00    -0.304 OA
BRANCH  39  40
HETATM   40  C17 UNL     1      -0.543   1.652  -3.170  1.00  0.00     0.272 C 
HETATM   41  C18 UNL     1      -0.936   1.766  -4.619  1.00  0.00     0.106 C 
HETATM   42  O6  UNL     1      -0.568   2.615  -2.441  1.00  0.00    -0.264 OA
ENDBRANCH  39  40
ENDBRANCH  15  39
TORSDOF 4
