REMARK  4 active torsions:
REMARK  status: ('A' for Active; 'I' for Inactive)
REMARK    1  A    between atoms: C6_6  and  O1_7 
REMARK    2  A    between atoms: O1_7  and  C7_8 
REMARK    3  A    between atoms: C15_19  and  O5_21 
REMARK    4  A    between atoms: O5_21  and  C17_22 
ROOT
HETATM    1  C1  UNL     1       5.275   0.305  -2.316  1.00  0.00     0.170 A 
HETATM    2  C2  UNL     1       6.244   0.400  -1.094  1.00  0.00     0.147 A 
HETATM    3  C3  UNL     1       5.678   0.490   0.326  1.00  0.00     0.066 C 
HETATM    4  C4  UNL     1       4.141   0.699   0.449  1.00  0.00     0.166 C 
HETATM    5  C5  UNL     1       3.342  -0.102  -0.635  1.00  0.00     0.057 C 
HETATM    6  C6  UNL     1       3.758   0.295  -2.086  1.00  0.00     0.156 C 
HETATM    7  C9  UNL     1       1.807   0.115  -0.453  1.00  0.00     0.015 C 
HETATM    8  C10 UNL     1       1.271  -0.158   0.979  1.00  0.00     0.068 C 
HETATM    9  C11 UNL     1       2.158   0.451   2.053  1.00  0.00     0.183 C 
HETATM   10  C12 UNL     1       3.654   0.301   1.875  1.00  0.00     0.236 C 
HETATM   11  O3  UNL     1       4.359   1.023   2.875  1.00  0.00    -0.213 OA
HETATM   12  O4  UNL     1       1.689   1.037   3.004  1.00  0.00    -0.293 OA
HETATM   13  C13 UNL     1      -0.150   0.455   0.994  1.00  0.00     0.067 C 
HETATM   14  C14 UNL     1      -1.098   0.133  -0.197  1.00  0.00     0.033 C 
HETATM   15  C15 UNL     1      -0.469  -0.963  -1.078  1.00  0.00     0.125 C 
HETATM   16  C16 UNL     1       0.969  -0.637  -1.514  1.00  0.00     0.031 C 
HETATM   17  C19 UNL     1      -2.504  -0.199   0.432  1.00  0.00     0.010 C 
HETATM   18  C20 UNL     1      -2.420   0.469   1.820  1.00  0.00     0.063 C 
HETATM   19  C21 UNL     1      -1.002   0.139   2.182  1.00  0.00     0.150 C 
HETATM   20  O7  UNL     1      -0.611  -0.324   3.229  1.00  0.00    -0.296 OA
HETATM   21  C22 UNL     1      -3.526   0.150   2.850  1.00  0.00     0.067 C 
HETATM   22  C23 UNL     1      -4.014  -1.309   2.844  1.00  0.00     0.127 C 
HETATM   23  C24 UNL     1      -4.152  -1.861   1.424  1.00  0.00     0.030 C 
HETATM   24  C25 UNL     1      -2.865  -1.699   0.602  1.00  0.00     0.003 C 
HETATM   25  C26 UNL     1      -3.096  -2.373  -0.756  1.00  0.00     0.000 C 
HETATM   26  O8  UNL     1      -5.303  -1.303   3.455  1.00  0.00    -0.302 OA
HETATM   27  C27 UNL     1      -5.830  -0.094   3.281  1.00  0.00     0.300 C 
HETATM   28  C28 UNL     1      -4.881   0.883   2.647  1.00  0.00     0.206 C 
HETATM   29  O9  UNL     1      -4.906   2.135   3.307  1.00  0.00    -0.216 OA
HETATM   30  C29 UNL     1      -5.264   1.164   1.197  1.00  0.00     0.043 C 
HETATM   31  O10 UNL     1      -6.955   0.211   3.606  1.00  0.00    -0.262 OA
HETATM   32  C30 UNL     1      -3.022   0.396   4.283  1.00  0.00     0.006 C 
HETATM   33  C31 UNL     1      -1.279   1.422  -1.012  1.00  0.00     0.003 C 
HETATM   34  C32 UNL     1       3.654  -1.600  -0.451  1.00  0.00     0.005 C 
HETATM   35  O11 UNL     1       3.885   2.090   0.271  1.00  0.00    -0.223 OA
HETATM   36  O12 UNL     1       5.850   1.490  -1.859  1.00  0.00    -0.352 OA
ENDROOT
BRANCH   6  37
HETATM   37  O1  UNL     1       3.205   1.557  -2.447  1.00  0.00    -0.302 OA
BRANCH  37  38
HETATM   38  C7  UNL     1       3.277   1.785  -3.756  1.00  0.00     0.272 C 
HETATM   39  C8  UNL     1       2.783   3.137  -4.195  1.00  0.00     0.106 C 
HETATM   40  O2  UNL     1       3.705   0.988  -4.557  1.00  0.00    -0.264 OA
ENDBRANCH  37  38
ENDBRANCH   6  37
BRANCH  15  41
HETATM   41  O5  UNL     1      -1.244  -1.154  -2.252  1.00  0.00    -0.304 OA
BRANCH  41  42
HETATM   42  C17 UNL     1      -0.828  -2.193  -2.971  1.00  0.00     0.272 C 
HETATM   43  C18 UNL     1      -1.295  -2.211  -4.402  1.00  0.00     0.106 C 
HETATM   44  O6  UNL     1      -0.123  -3.074  -2.537  1.00  0.00    -0.264 OA
ENDBRANCH  41  42
ENDBRANCH  15  41
TORSDOF 4
