REMARK  4 active torsions:
REMARK  status: ('A' for Active; 'I' for Inactive)
REMARK    1  A    between atoms: C1_1  and  O6_28 
REMARK    2  A    between atoms: C2_2  and  O4_24 
REMARK    3  A    between atoms: O4_24  and  C21_25 
REMARK    4  A    between atoms: O6_28  and  C23_29 
ROOT
HETATM    1  C1  UNL     1       2.246  -1.025  -0.664  1.00  0.00     0.152 C 
HETATM    2  C2  UNL     1       2.881   0.006   0.275  1.00  0.00     0.152 C 
HETATM    3  C3  UNL     1       2.190   1.377   0.172  1.00  0.00     0.028 C 
HETATM    4  C4  UNL     1       0.660   1.219   0.412  1.00  0.00     0.003 C 
HETATM    5  C5  UNL     1      -0.043   0.162  -0.504  1.00  0.00     0.005 C 
HETATM    6  C6  UNL     1       0.738  -1.172  -0.408  1.00  0.00     0.033 C 
HETATM    7  C7  UNL     1      -1.516  -0.004   0.006  1.00  0.00     0.038 C 
HETATM    8  C8  UNL     1      -2.277   1.369   0.023  1.00  0.00     0.060 C 
HETATM    9  C9  UNL     1      -1.418   2.611  -0.258  1.00  0.00     0.007 C 
HETATM   10  C10 UNL     1      -0.074   2.580   0.477  1.00  0.00     0.001 C 
HETATM   11  C11 UNL     1      -3.416   1.375  -1.029  1.00  0.00     0.042 C 
HETATM   12  C12 UNL     1      -4.422   0.426  -0.353  1.00  0.00     0.151 C 
HETATM   13  C13 UNL     1      -3.904  -1.018  -0.512  1.00  0.00     0.068 C 
HETATM   14  C14 UNL     1      -2.363  -1.105  -0.721  1.00  0.00     0.155 C 
HETATM   15  O1  UNL     1      -1.963  -2.402  -0.316  1.00  0.00    -0.223 OA
HETATM   16  C15 UNL     1      -4.369   0.885   1.082  1.00  0.00     0.040 C 
HETATM   17  C16 UNL     1      -3.062   1.475   1.309  1.00  0.00     0.171 C 
HETATM   18  O2  UNL     1      -2.668   1.965   2.342  1.00  0.00    -0.292 OA
HETATM   19  C17 UNL     1      -5.357   0.771   1.992  1.00  0.00     0.001 C 
HETATM   20  O3  UNL     1      -5.709   0.578  -0.930  1.00  0.00    -0.221 OA
HETATM   21  C18 UNL     1      -0.037   0.594  -1.980  1.00  0.00     0.000 C 
HETATM   22  C19 UNL     1       2.467   1.990  -1.207  1.00  0.00     0.003 C 
HETATM   23  C20 UNL     1       2.791   2.316   1.227  1.00  0.00     0.003 C 
ENDROOT
BRANCH   1  24
HETATM   24  O6  UNL     1       2.877  -2.283  -0.475  1.00  0.00    -0.302 OA
BRANCH  24  25
HETATM   25  C23 UNL     1       2.643  -3.123  -1.478  1.00  0.00     0.272 C 
HETATM   26  C24 UNL     1       3.162  -4.522  -1.279  1.00  0.00     0.106 C 
HETATM   27  O7  UNL     1       2.055  -2.816  -2.490  1.00  0.00    -0.264 OA
ENDBRANCH  24  25
ENDBRANCH   1  24
BRANCH   2  28
HETATM   28  O4  UNL     1       2.791  -0.475   1.611  1.00  0.00    -0.302 OA
BRANCH  28  29
HETATM   29  C21 UNL     1       3.772  -1.320   1.912  1.00  0.00     0.272 C 
HETATM   30  C22 UNL     1       3.649  -1.990   3.256  1.00  0.00     0.106 C 
HETATM   31  O5  UNL     1       4.705  -1.557   1.184  1.00  0.00    -0.264 OA
ENDBRANCH  28  29
ENDBRANCH   2  28
TORSDOF 4
