REMARK  6 active torsions:
REMARK  status: ('A' for Active; 'I' for Inactive)
REMARK    1  A    between atoms: C1_1  and  O4_25 
REMARK    2  A    between atoms: C2_2  and  O3_23 
REMARK    3  A    between atoms: C3_3  and  O2_21 
REMARK    4  A    between atoms: C9_10  and  C10_11 
REMARK    5  A    between atoms: C10_11  and  C11_12 
REMARK    6  A    between atoms: C14_15  and  O1_18 
ROOT
HETATM    1  C1  UNL     1      -2.133  -2.359   1.062  1.00  0.00     0.118 A 
HETATM    2  C2  UNL     1      -2.055  -0.949   1.018  1.00  0.00     0.138 A 
HETATM    3  C3  UNL     1      -0.799  -0.299   1.008  1.00  0.00     0.119 A 
HETATM    4  C4  UNL     1       0.408  -1.064   1.041  1.00  0.00     0.036 A 
HETATM    5  C5  UNL     1       0.314  -2.494   1.086  1.00  0.00     0.006 A 
HETATM    6  C6  UNL     1      -0.951  -3.133   1.096  1.00  0.00     0.026 A 
HETATM    7  C7  UNL     1       1.486  -3.289   1.117  1.00  0.00     0.019 A 
HETATM    8  C8  UNL     1       2.756  -2.674   1.109  1.00  0.00     0.076 A 
HETATM    9  N1  UNL     1       2.867  -1.266   1.068  1.00  0.00    -0.328 N 
HETATM   10  C9  UNL     1       1.701  -0.455   1.033  1.00  0.00     0.043 A 
HETATM   11  C18 UNL     1       4.207  -0.656   1.062  1.00  0.00     0.130 C 
ENDROOT
BRANCH  10  12
HETATM   12  C10 UNL     1       1.873   1.012   0.990  1.00  0.00     0.070 C 
BRANCH  12  13
HETATM   13  C11 UNL     1       1.480   1.518  -0.350  1.00  0.00    -0.016 A 
HETATM   14  C12 UNL     1       0.764   2.721  -0.467  1.00  0.00    -0.002 A 
HETATM   15  C13 UNL     1       0.394   3.197  -1.736  1.00  0.00     0.024 A 
HETATM   16  C14 UNL     1       0.740   2.475  -2.893  1.00  0.00     0.094 A 
HETATM   17  C15 UNL     1       1.457   1.272  -2.772  1.00  0.00     0.024 A 
HETATM   18  C16 UNL     1       1.828   0.793  -1.504  1.00  0.00    -0.002 A 
BRANCH  16  19
HETATM   19  O1  UNL     1       0.393   2.924  -4.082  1.00  0.00    -0.328 OA
HETATM   20  C17 UNL     1      -0.365   4.121  -4.149  1.00  0.00     0.181 C 
ENDBRANCH  16  19
ENDBRANCH  12  13
ENDBRANCH  10  12
BRANCH   3  21
HETATM   21  O2  UNL     1      -0.785   1.043   0.965  1.00  0.00    -0.326 OA
HETATM   22  C19 UNL     1      -1.317   1.750   2.074  1.00  0.00     0.181 C 
ENDBRANCH   3  21
BRANCH   2  23
HETATM   23  O3  UNL     1      -3.184  -0.225   0.984  1.00  0.00    -0.324 OA
HETATM   24  C20 UNL     1      -3.635   0.246  -0.277  1.00  0.00     0.182 C 
ENDBRANCH   2  23
BRANCH   1  25
HETATM   25  O4  UNL     1      -3.326  -2.969   1.072  1.00  0.00    -0.326 OA
HETATM   26  C21 UNL     1      -3.352  -4.387   1.119  1.00  0.00     0.181 C 
ENDBRANCH   1  25
TORSDOF 6
