REMARK  1 active torsions:
REMARK  status: ('A' for Active; 'I' for Inactive)
REMARK    1  A    between atoms: C16_16  and  C25_25 
ROOT
HETATM    1  C1  UNL     1      -4.990  -1.637  -0.545  1.00  0.00     0.065 C 
HETATM    2  C2  UNL     1      -5.744  -0.453   0.033  1.00  0.00     0.150 C 
HETATM    3  C3  UNL     1      -5.104   0.922  -0.070  1.00  0.00     0.051 C 
HETATM    4  C4  UNL     1      -3.592   0.766  -0.393  1.00  0.00     0.007 C 
HETATM    5  C5  UNL     1      -2.938  -0.395   0.416  1.00  0.00     0.001 C 
HETATM    6  C6  UNL     1      -3.496  -1.721  -0.152  1.00  0.00     0.008 C 
HETATM    7  C7  UNL     1      -1.381  -0.275   0.373  1.00  0.00     0.004 C 
HETATM    8  C8  UNL     1      -0.824   0.437  -0.889  1.00  0.00     0.015 C 
HETATM    9  C9  UNL     1      -1.359   1.895  -0.924  1.00  0.00     0.004 C 
HETATM   10  C10 UNL     1      -2.764   2.063  -0.303  1.00  0.00     0.001 C 
HETATM   11  C11 UNL     1       0.705   0.436  -0.900  1.00  0.00    -0.050 C 
HETATM   12  C12 UNL     1       1.445   0.047   0.383  1.00  0.00     0.015 C 
HETATM   13  C13 UNL     1       0.910  -1.346   0.840  1.00  0.00     0.004 C 
HETATM   14  C14 UNL     1      -0.611  -1.576   0.662  1.00  0.00     0.001 C 
HETATM   15  C15 UNL     1       3.008   0.076   0.242  1.00  0.00     0.006 C 
HETATM   16  C16 UNL     1       3.502  -0.289  -1.182  1.00  0.00     0.035 C 
HETATM   17  C17 UNL     1       2.855   0.689  -2.174  1.00  0.00     0.028 C 
HETATM   18  C18 UNL     1       1.357   0.752  -2.041  1.00  0.00    -0.035 C 
HETATM   19  C19 UNL     1       5.035  -0.147  -1.275  1.00  0.00     0.003 C 
HETATM   20  C20 UNL     1       5.768  -0.945  -0.191  1.00  0.00     0.000 C 
HETATM   21  C21 UNL     1       5.297  -0.547   1.215  1.00  0.00     0.000 C 
HETATM   22  C22 UNL     1       3.772  -0.707   1.350  1.00  0.00     0.000 C 
HETATM   23  C23 UNL     1       3.328  -0.318   2.770  1.00  0.00     0.000 C 
HETATM   24  C24 UNL     1       5.762   0.875   1.564  1.00  0.00     0.000 C 
HETATM   25  C26 UNL     1       1.098   1.105   1.445  1.00  0.00     0.004 C 
HETATM   26  C27 UNL     1      -1.289  -0.332  -2.141  1.00  0.00     0.004 C 
HETATM   27  C28 UNL     1      -3.346  -0.330   1.900  1.00  0.00     0.000 C 
HETATM   28  C29 UNL     1      -5.318   1.688   1.242  1.00  0.00     0.007 C 
HETATM   29  C30 UNL     1      -5.807   1.693  -1.191  1.00  0.00     0.007 C 
HETATM   30  O2  UNL     1      -6.822  -0.606   0.564  1.00  0.00    -0.296 OA
ENDROOT
BRANCH  16  31
HETATM   31  C25 UNL     1       3.111  -1.731  -1.551  1.00  0.00     0.182 C 
HETATM   32  O1  UNL     1       3.662  -2.025  -2.815  1.00  0.00    -0.221 OA
ENDBRANCH  16  31
TORSDOF 1
