REMARK  6 active torsions:
REMARK  status: ('A' for Active; 'I' for Inactive)
REMARK    1  A    between atoms: C1_1  and  O7_26 
REMARK    2  A    between atoms: C2_2  and  O6_24 
REMARK    3  A    between atoms: C3_3  and  O5_22 
REMARK    4  A    between atoms: C6_6  and  O1_7 
REMARK    5  A    between atoms: C8_10  and  C11_14 
REMARK    6  A    between atoms: C14_17  and  O4_20 
ROOT
HETATM    1  C1  UNL     1      -2.959  -0.359   0.387  1.00  0.00     0.142 A 
HETATM    2  C2  UNL     1      -2.805  -1.668   0.904  1.00  0.00     0.141 A 
HETATM    3  C3  UNL     1      -1.510  -2.203   1.111  1.00  0.00     0.123 A 
HETATM    4  C4  UNL     1      -0.369  -1.420   0.797  1.00  0.00     0.088 A 
HETATM    5  C5  UNL     1      -0.524  -0.107   0.279  1.00  0.00     0.129 A 
HETATM    6  C6  UNL     1      -1.820   0.420   0.074  1.00  0.00     0.141 A 
HETATM    7  O2  UNL     1       0.562   0.641  -0.019  1.00  0.00    -0.305 OA
HETATM    8  C8  UNL     1       1.832   0.213   0.147  1.00  0.00     0.103 A 
HETATM    9  C9  UNL     1       2.100  -1.022   0.631  1.00  0.00     0.067 A 
HETATM   10  C10 UNL     1       1.010  -1.947   1.000  1.00  0.00     0.202 A 
HETATM   11  O3  UNL     1       1.328  -3.035   1.426  1.00  0.00    -0.286 OA
ENDROOT
BRANCH   8  12
HETATM   12  C11 UNL     1       2.971   1.111  -0.209  1.00  0.00     0.023 A 
HETATM   13  C12 UNL     1       2.799   2.117  -1.176  1.00  0.00     0.004 A 
HETATM   14  C13 UNL     1       3.873   2.961  -1.510  1.00  0.00     0.024 A 
HETATM   15  C14 UNL     1       5.119   2.805  -0.879  1.00  0.00     0.094 A 
HETATM   16  C15 UNL     1       5.289   1.797   0.088  1.00  0.00     0.024 A 
HETATM   17  C16 UNL     1       4.217   0.951   0.422  1.00  0.00     0.004 A 
BRANCH  15  18
HETATM   18  O4  UNL     1       6.125   3.596  -1.193  1.00  0.00    -0.328 OA
HETATM   19  C17 UNL     1       5.887   4.637  -2.131  1.00  0.00     0.181 C 
ENDBRANCH  15  18
ENDBRANCH   8  12
BRANCH   6  20
HETATM   20  O1  UNL     1      -1.969   1.660  -0.416  1.00  0.00    -0.324 OA
HETATM   21  C7  UNL     1      -3.000   1.881  -1.367  1.00  0.00     0.182 C 
ENDBRANCH   6  20
BRANCH   3  22
HETATM   22  O5  UNL     1      -1.377  -3.445   1.602  1.00  0.00    -0.326 OA
HETATM   23  C18 UNL     1      -1.877  -3.703   2.906  1.00  0.00     0.181 C 
ENDBRANCH   3  22
BRANCH   1  24
HETATM   24  O7  UNL     1      -4.188   0.143   0.192  1.00  0.00    -0.324 OA
HETATM   25  C20 UNL     1      -5.162  -0.695  -0.408  1.00  0.00     0.182 C 
ENDBRANCH   1  24
BRANCH   2  26
HETATM   26  O6  UNL     1      -3.887  -2.402   1.199  1.00  0.00    -0.324 OA
HETATM   27  C19 UNL     1      -4.072  -3.625   0.504  1.00  0.00     0.182 C 
ENDBRANCH   2  26
TORSDOF 6
