REMARK  1 active torsions:
REMARK  status: ('A' for Active; 'I' for Inactive)
REMARK    1  A    between atoms: C14_17  and  C18_21 
ROOT
HETATM    1  C1  UNL     1       1.351  -0.685   0.236  1.00  0.00     0.003 A 
HETATM    2  C2  UNL     1       2.072   0.541   0.014  1.00  0.00    -0.001 A 
HETATM    3  C3  UNL     1       1.365   1.740  -0.254  1.00  0.00    -0.000 A 
HETATM    4  C4  UNL     1      -0.039   1.748  -0.311  1.00  0.00     0.002 A 
HETATM    5  C5  UNL     1      -0.762   0.553  -0.092  1.00  0.00     0.026 A 
HETATM    6  C6  UNL     1      -0.090  -0.682   0.193  1.00  0.00     0.044 A 
HETATM    7  C7  UNL     1      -0.918  -1.937   0.441  1.00  0.00     0.234 A 
HETATM    8  C8  UNL     1      -2.402  -1.846   0.363  1.00  0.00     0.236 A 
HETATM    9  C9  UNL     1      -2.998  -0.533   0.049  1.00  0.00     0.063 A 
HETATM   10  C10 UNL     1      -2.250   0.588  -0.164  1.00  0.00     0.103 A 
HETATM   11  O1  UNL     1      -3.008   1.711  -0.443  1.00  0.00    -0.305 OA
HETATM   12  C11 UNL     1      -4.328   1.227  -0.397  1.00  0.00     0.118 A 
HETATM   13  C12 UNL     1      -4.301  -0.144  -0.094  1.00  0.00     0.008 A 
HETATM   14  C13 UNL     1      -5.518  -1.033   0.045  1.00  0.00     0.033 C 
HETATM   15  O2  UNL     1      -3.106  -2.812   0.549  1.00  0.00    -0.283 OA
HETATM   16  O3  UNL     1      -0.520  -3.049   0.707  1.00  0.00    -0.283 OA
HETATM   17  C14 UNL     1       3.498   0.563   0.060  1.00  0.00     0.011 A 
HETATM   18  C15 UNL     1       4.211  -0.629   0.318  1.00  0.00    -0.002 A 
HETATM   19  C16 UNL     1       3.519  -1.836   0.531  1.00  0.00    -0.000 A 
HETATM   20  C17 UNL     1       2.109  -1.867   0.492  1.00  0.00     0.000 A 
ENDROOT
BRANCH  17  21
HETATM   21  C18 UNL     1       4.269   1.801  -0.158  1.00  0.00     0.209 C 
HETATM   22  O4  UNL     1       4.232   2.145  -1.524  1.00  0.00    -0.215 OA
ENDBRANCH  17  21
TORSDOF 1
