REMARK  0 active torsions:
REMARK  status: ('A' for Active; 'I' for Inactive)
ROOT
HETATM    1  C1  UNL     1       1.498  -0.596   0.176  1.00  0.00     0.003 A 
HETATM    2  C2  UNL     1       0.059  -0.590   0.133  1.00  0.00     0.044 A 
HETATM    3  C3  UNL     1      -0.615   0.645  -0.154  1.00  0.00     0.026 A 
HETATM    4  C4  UNL     1       0.107   1.838  -0.371  1.00  0.00     0.002 A 
HETATM    5  C5  UNL     1       1.514   1.832  -0.317  1.00  0.00    -0.000 A 
HETATM    6  C6  UNL     1       2.219   0.631  -0.047  1.00  0.00    -0.004 A 
HETATM    7  C7  UNL     1       3.645   0.653  -0.002  1.00  0.00    -0.022 A 
HETATM    8  C8  UNL     1       4.357  -0.537   0.256  1.00  0.00    -0.004 A 
HETATM    9  C9  UNL     1       3.668  -1.746   0.471  1.00  0.00    -0.000 A 
HETATM   10  C10 UNL     1       2.256  -1.777   0.431  1.00  0.00     0.000 A 
HETATM   11  C11 UNL     1       4.418   1.893  -0.219  1.00  0.00     0.031 C 
HETATM   12  C12 UNL     1      -2.104   0.680  -0.225  1.00  0.00     0.103 A 
HETATM   13  C13 UNL     1      -2.852  -0.443  -0.012  1.00  0.00     0.063 A 
HETATM   14  C14 UNL     1      -2.256  -1.754   0.301  1.00  0.00     0.236 A 
HETATM   15  C15 UNL     1      -0.770  -1.848   0.381  1.00  0.00     0.234 A 
HETATM   16  O1  UNL     1      -0.371  -2.957   0.644  1.00  0.00    -0.283 OA
HETATM   17  O2  UNL     1      -2.959  -2.723   0.486  1.00  0.00    -0.283 OA
HETATM   18  C16 UNL     1      -4.152  -0.055  -0.156  1.00  0.00     0.008 A 
HETATM   19  C17 UNL     1      -4.180   1.317  -0.459  1.00  0.00     0.118 A 
HETATM   20  O3  UNL     1      -2.861   1.803  -0.506  1.00  0.00    -0.305 OA
HETATM   21  C18 UNL     1      -5.371  -0.943  -0.016  1.00  0.00     0.033 C 
ENDROOT
TORSDOF 0
