REMARK  0 active torsions:
REMARK  status: ('A' for Active; 'I' for Inactive)
ROOT
HETATM    1  C1  UNL     1      -0.805   0.047  -0.590  1.00  0.00    -0.023 A 
HETATM    2  C2  UNL     1       0.600  -0.227  -0.508  1.00  0.00     0.040 A 
HETATM    3  C3  UNL     1       1.260  -0.123   0.758  1.00  0.00     0.026 A 
HETATM    4  C4  UNL     1       0.541   0.225   1.920  1.00  0.00     0.002 A 
HETATM    5  C5  UNL     1      -0.846   0.459   1.840  1.00  0.00    -0.004 A 
HETATM    6  C6  UNL     1      -1.539   0.359   0.604  1.00  0.00    -0.027 A 
HETATM    7  C7  UNL     1      -3.020   0.598   0.596  1.00  0.00     0.019 C 
HETATM    8  C8  UNL     1      -3.690   0.086  -0.693  1.00  0.00     0.004 C 
HETATM    9  C9  UNL     1      -2.926   0.557  -1.926  1.00  0.00     0.005 C 
HETATM   10  C10 UNL     1      -1.496   0.004  -1.914  1.00  0.00     0.026 C 
HETATM   11  C11 UNL     1      -3.697  -0.115   1.777  1.00  0.00     0.004 C 
HETATM   12  C12 UNL     1      -3.270   2.106   0.734  1.00  0.00     0.004 C 
HETATM   13  C13 UNL     1       2.725  -0.387   0.846  1.00  0.00     0.103 A 
HETATM   14  C14 UNL     1       3.451  -0.729  -0.260  1.00  0.00     0.063 A 
HETATM   15  C15 UNL     1       2.854  -0.865  -1.604  1.00  0.00     0.236 A 
HETATM   16  C16 UNL     1       1.389  -0.631  -1.740  1.00  0.00     0.234 A 
HETATM   17  O1  UNL     1       0.961  -0.795  -2.859  1.00  0.00    -0.283 OA
HETATM   18  O2  UNL     1       3.539  -1.160  -2.557  1.00  0.00    -0.283 OA
HETATM   19  C17 UNL     1       4.736  -0.891   0.178  1.00  0.00     0.008 A 
HETATM   20  C18 UNL     1       4.774  -0.645   1.559  1.00  0.00     0.118 A 
HETATM   21  O3  UNL     1       3.479  -0.318   2.004  1.00  0.00    -0.305 OA
HETATM   22  C19 UNL     1       5.926  -1.272  -0.680  1.00  0.00     0.033 C 
ENDROOT
TORSDOF 0
