REMARK  0 active torsions:
REMARK  status: ('A' for Active; 'I' for Inactive)
ROOT
HETATM    1  C1  UNL     1       5.018  -0.227  -1.469  1.00  0.00     0.033 C 
HETATM    2  C2  UNL     1       5.541   0.977  -0.672  1.00  0.00     0.152 C 
HETATM    3  C3  UNL     1       4.861   1.113   0.713  1.00  0.00     0.028 C 
HETATM    4  C4  UNL     1       3.316   1.145   0.520  1.00  0.00     0.002 C 
HETATM    5  C5  UNL     1       2.744  -0.066  -0.279  1.00  0.00     0.000 C 
HETATM    6  C6  UNL     1       3.494  -0.160  -1.631  1.00  0.00     0.003 C 
HETATM    7  C7  UNL     1       1.209   0.143  -0.504  1.00  0.00     0.000 C 
HETATM    8  C8  UNL     1       0.402   0.395   0.813  1.00  0.00     0.000 C 
HETATM    9  C9  UNL     1       1.057   1.553   1.600  1.00  0.00     0.000 C 
HETATM   10  C10 UNL     1       2.555   1.344   1.842  1.00  0.00     0.000 C 
HETATM   11  C11 UNL     1      -1.098   0.715   0.479  1.00  0.00     0.000 C 
HETATM   12  C12 UNL     1      -1.736  -0.455  -0.330  1.00  0.00     0.000 C 
HETATM   13  C13 UNL     1      -0.924  -0.740  -1.609  1.00  0.00     0.000 C 
HETATM   14  C14 UNL     1       0.561  -0.988  -1.324  1.00  0.00     0.000 C 
HETATM   15  C15 UNL     1      -3.258  -0.229  -0.605  1.00  0.00     0.004 C 
HETATM   16  C16 UNL     1      -4.033  -0.022   0.721  1.00  0.00     0.004 C 
HETATM   17  C17 UNL     1      -3.416   1.148   1.508  1.00  0.00     0.000 C 
HETATM   18  C18 UNL     1      -1.920   0.945   1.773  1.00  0.00     0.000 C 
HETATM   19  C19 UNL     1      -5.500   0.309   0.391  1.00  0.00     0.025 C 
HETATM   20  C20 UNL     1      -6.143  -0.736  -0.488  1.00  0.00    -0.035 C 
HETATM   21  C21 UNL     1      -5.414  -1.486  -1.338  1.00  0.00    -0.049 C 
HETATM   22  C22 UNL     1      -3.908  -1.338  -1.484  1.00  0.00     0.018 C 
HETATM   23  C23 UNL     1      -3.602  -1.123  -2.973  1.00  0.00     0.004 C 
HETATM   24  C24 UNL     1      -6.104  -2.531  -2.180  1.00  0.00     0.026 C 
HETATM   25  C25 UNL     1      -3.984  -1.295   1.582  1.00  0.00     0.000 C 
HETATM   26  C26 UNL     1      -1.176   2.004  -0.361  1.00  0.00     0.000 C 
HETATM   27  C27 UNL     1       0.451  -0.861   1.703  1.00  0.00     0.000 C 
HETATM   28  C28 UNL     1       2.981  -1.383   0.479  1.00  0.00     0.000 C 
HETATM   29  C29 UNL     1       5.322   2.426   1.367  1.00  0.00     0.003 C 
HETATM   30  C30 UNL     1       5.266  -0.041   1.645  1.00  0.00     0.003 C 
HETATM   31  O1  UNL     1       6.947   0.857  -0.531  1.00  0.00    -0.224 OA
ENDROOT
TORSDOF 0
