REMARK  2 active torsions:
REMARK  status: ('A' for Active; 'I' for Inactive)
REMARK    1  A    between atoms: C2_2  and  O1_31 
REMARK    2  A    between atoms: O1_31  and  C31_32 
ROOT
HETATM    1  C1  UNL     1       4.703   0.504  -1.160  1.00  0.00     0.030 C 
HETATM    2  C2  UNL     1       5.158   1.299   0.068  1.00  0.00     0.124 C 
HETATM    3  C3  UNL     1       4.410   0.883   1.352  1.00  0.00     0.026 C 
HETATM    4  C4  UNL     1       2.877   0.971   1.115  1.00  0.00     0.002 C 
HETATM    5  C5  UNL     1       2.381   0.164  -0.119  1.00  0.00     0.000 C 
HETATM    6  C6  UNL     1       3.186   0.615  -1.365  1.00  0.00     0.003 C 
HETATM    7  C7  UNL     1       0.852   0.400  -0.324  1.00  0.00     0.003 C 
HETATM    8  C8  UNL     1      -0.010   0.094   0.940  1.00  0.00     0.015 C 
HETATM    9  C9  UNL     1       0.564   0.865   2.152  1.00  0.00     0.004 C 
HETATM   10  C10 UNL     1       2.061   0.619   2.371  1.00  0.00     0.000 C 
HETATM   11  C11 UNL     1      -1.469   0.449   0.652  1.00  0.00    -0.050 C 
HETATM   12  C12 UNL     1      -2.066   0.107  -0.711  1.00  0.00     0.015 C 
HETATM   13  C13 UNL     1      -1.115  -0.820  -1.498  1.00  0.00     0.004 C 
HETATM   14  C14 UNL     1       0.322  -0.297  -1.603  1.00  0.00     0.001 C 
HETATM   15  C15 UNL     1      -3.453  -0.594  -0.518  1.00  0.00     0.004 C 
HETATM   16  C16 UNL     1      -4.344   0.002   0.633  1.00  0.00     0.004 C 
HETATM   17  C17 UNL     1      -3.717   1.283   1.219  1.00  0.00     0.025 C 
HETATM   18  C18 UNL     1      -2.270   1.049   1.561  1.00  0.00    -0.035 C 
HETATM   19  C19 UNL     1      -5.772   0.311   0.137  1.00  0.00     0.000 C 
HETATM   20  C20 UNL     1      -6.432  -0.898  -0.551  1.00  0.00     0.000 C 
HETATM   21  C21 UNL     1      -5.565  -1.521  -1.674  1.00  0.00     0.000 C 
HETATM   22  C22 UNL     1      -4.234  -0.754  -1.846  1.00  0.00     0.000 C 
HETATM   23  C23 UNL     1      -6.328  -1.490  -3.002  1.00  0.00     0.000 C 
HETATM   24  C24 UNL     1      -5.254  -2.988  -1.340  1.00  0.00     0.000 C 
HETATM   25  C25 UNL     1      -4.455  -1.027   1.777  1.00  0.00     0.000 C 
HETATM   26  C26 UNL     1      -2.213   1.422  -1.492  1.00  0.00     0.004 C 
HETATM   27  C27 UNL     1       0.004  -1.404   1.281  1.00  0.00     0.004 C 
HETATM   28  C28 UNL     1       2.629  -1.340   0.086  1.00  0.00     0.000 C 
HETATM   29  C29 UNL     1       4.822   1.836   2.483  1.00  0.00     0.002 C 
HETATM   30  C30 UNL     1       4.826  -0.537   1.764  1.00  0.00     0.002 C 
ENDROOT
BRANCH   2  31
HETATM   31  O1  UNL     1       6.561   1.127   0.244  1.00  0.00    -0.304 OA
BRANCH  31  32
HETATM   32  C31 UNL     1       7.270   1.785  -0.668  1.00  0.00     0.272 C 
HETATM   33  C32 UNL     1       8.752   1.525  -0.639  1.00  0.00     0.106 C 
HETATM   34  O2  UNL     1       6.787   2.543  -1.477  1.00  0.00    -0.264 OA
ENDBRANCH  31  32
ENDBRANCH   2  31
TORSDOF 2
