REMARK  3 active torsions:
REMARK  status: ('A' for Active; 'I' for Inactive)
REMARK    1  A    between atoms: C1_2  and  C2_3 
REMARK    2  A    between atoms: C2_3  and  C3_4 
REMARK    3  A    between atoms: C3_4  and  C4_5 
ROOT
HETATM    1  C2  UNL     1      -0.325   0.455   0.521  1.00  0.00     0.279 C 
HETATM    2  O5  UNL     1       0.172   0.097   1.791  1.00  0.00    -0.208 OA
ENDROOT
BRANCH   1   3
HETATM    3  C1  UNL     1      -1.827   0.347   0.521  1.00  0.00     0.221 C 
HETATM    4  O1  UNL     1      -2.477   1.507   0.521  1.00  0.00    -0.645 OA
HETATM    5  O6  UNL     1      -2.373  -0.732   0.521  1.00  0.00    -0.645 OA
ENDBRANCH   1   3
BRANCH   1   6
HETATM    6  C3  UNL     1       0.325  -0.455  -0.521  1.00  0.00     0.279 C 
HETATM    7  O4  UNL     1      -0.172  -0.097  -1.791  1.00  0.00    -0.208 OA
BRANCH   6   8
HETATM    8  C4  UNL     1       1.827  -0.347  -0.521  1.00  0.00     0.221 C 
HETATM    9  O2  UNL     1       2.477  -1.507  -0.521  1.00  0.00    -0.645 OA
HETATM   10  O3  UNL     1       2.373   0.732  -0.521  1.00  0.00    -0.645 OA
ENDBRANCH   6   8
ENDBRANCH   1   6
TORSDOF 3
