REMARK  0 active torsions:
REMARK  status: ('A' for Active; 'I' for Inactive)
ROOT
HETATM    1  C1  UNL     1       3.504  -0.459  -0.213  1.00  0.00     0.035 C 
HETATM    2  C2  UNL     1       3.238   0.834   0.063  1.00  0.00     0.006 C 
HETATM    3  C3  UNL     1       1.832   1.318   0.348  1.00  0.00     0.148 C 
HETATM    4  C4  UNL     1       0.777   0.346  -0.256  1.00  0.00     0.067 C 
HETATM    5  C5  UNL     1       1.041  -1.139   0.151  1.00  0.00     0.060 C 
HETATM    6  C6  UNL     1       2.461  -1.504  -0.242  1.00  0.00     0.172 C 
HETATM    7  O1  UNL     1       2.754  -2.629  -0.576  1.00  0.00    -0.291 OA
HETATM    8  C7  UNL     1       0.014  -2.080  -0.533  1.00  0.00     0.007 C 
HETATM    9  C8  UNL     1      -1.455  -1.690  -0.264  1.00  0.00     0.003 C 
HETATM   10  C9  UNL     1      -1.611  -0.242  -0.723  1.00  0.00     0.037 C 
HETATM   11  C10 UNL     1      -0.688   0.658   0.100  1.00  0.00     0.128 C 
HETATM   12  O2  UNL     1      -1.086   1.988  -0.211  1.00  0.00    -0.304 OA
HETATM   13  C11 UNL     1      -2.395   1.928  -0.445  1.00  0.00     0.271 C 
HETATM   14  C12 UNL     1      -2.918   0.518  -0.496  1.00  0.00     0.089 C 
HETATM   15  C13 UNL     1      -3.916   0.264  -1.619  1.00  0.00     0.011 C 
HETATM   16  O3  UNL     1      -3.106   2.891  -0.615  1.00  0.00    -0.264 OA
HETATM   17  C14 UNL     1       0.947  -1.334   1.672  1.00  0.00     0.008 C 
HETATM   18  C15 UNL     1       1.646   1.551   1.850  1.00  0.00     0.038 C 
HETATM   19  O4  UNL     1       1.682   2.582  -0.265  1.00  0.00    -0.221 OA
ENDROOT
TORSDOF 0
