REMARK  0 active torsions:
REMARK  status: ('A' for Active; 'I' for Inactive)
ROOT
HETATM    1  C1  UNL     1      -3.129  -0.815   0.945  1.00  0.00     0.069 C 
HETATM    2  C2  UNL     1      -3.195   0.494   0.160  1.00  0.00     0.029 C 
HETATM    3  C3  UNL     1      -1.816   1.027  -0.135  1.00  0.00    -0.049 C 
HETATM    4  C4  UNL     1      -0.777   0.185  -0.356  1.00  0.00    -0.019 C 
HETATM    5  C5  UNL     1      -0.924  -1.340  -0.334  1.00  0.00     0.068 C 
HETATM    6  C6  UNL     1      -2.254  -1.815   0.232  1.00  0.00     0.154 C 
HETATM    7  O1  UNL     1      -2.609  -2.965   0.115  1.00  0.00    -0.296 OA
HETATM    8  C7  UNL     1       0.215  -1.986   0.502  1.00  0.00     0.011 C 
HETATM    9  C8  UNL     1       1.633  -1.483   0.158  1.00  0.00     0.004 C 
HETATM   10  C9  UNL     1       1.623   0.033   0.348  1.00  0.00     0.041 C 
HETATM   11  C10 UNL     1       0.639   0.646  -0.649  1.00  0.00     0.143 C 
HETATM   12  O2  UNL     1       0.896   2.047  -0.623  1.00  0.00    -0.300 OA
HETATM   13  C11 UNL     1       2.195   2.176  -0.360  1.00  0.00     0.272 C 
HETATM   14  C12 UNL     1       2.854   0.869  -0.004  1.00  0.00     0.089 C 
HETATM   15  C13 UNL     1       3.824   0.959   1.170  1.00  0.00     0.011 C 
HETATM   16  O3  UNL     1       2.801   3.221  -0.385  1.00  0.00    -0.264 OA
HETATM   17  C14 UNL     1      -0.840  -1.826  -1.787  1.00  0.00     0.011 C 
HETATM   18  C15 UNL     1      -1.672   2.529  -0.160  1.00  0.00     0.026 C 
ENDROOT
TORSDOF 0
