REMARK  7 active torsions:
REMARK  status: ('A' for Active; 'I' for Inactive)
REMARK    1  A    between atoms: C15_15  and  C18_18 
REMARK    2  A    between atoms: C18_18  and  C19_19 
REMARK    3  A    between atoms: C19_19  and  C20_20 
REMARK    4  A    between atoms: C20_20  and  C21_21 
REMARK       I    between atoms: C21_21  and  N1_22 
REMARK    5  A    between atoms: N1_22  and  C22_23 
REMARK    6  A    between atoms: C22_23  and  C23_24 
REMARK    7  A    between atoms: C23_24  and  S1_25 
ROOT
HETATM    1  C1  UNL     1       6.729  -2.090  -1.395  1.00  0.00     0.033 C 
HETATM    2  C2  UNL     1       7.268  -0.664  -1.199  1.00  0.00     0.152 C 
HETATM    3  C3  UNL     1       6.629   0.021   0.020  1.00  0.00     0.033 C 
HETATM    4  C4  UNL     1       5.086  -0.064   0.074  1.00  0.00     0.003 C 
HETATM    5  C5  UNL     1       4.537  -1.502  -0.156  1.00  0.00     0.000 C 
HETATM    6  C6  UNL     1       5.193  -2.135  -1.410  1.00  0.00     0.003 C 
HETATM    7  C7  UNL     1       2.980  -1.492  -0.369  1.00  0.00     0.000 C 
HETATM    8  C8  UNL     1       2.309  -0.205   0.162  1.00  0.00     0.000 C 
HETATM    9  C9  UNL     1       2.889   1.068  -0.500  1.00  0.00     0.000 C 
HETATM   10  C10 UNL     1       4.383   0.949  -0.840  1.00  0.00     0.000 C 
HETATM   11  C11 UNL     1       0.771  -0.219   0.025  1.00  0.00     0.000 C 
HETATM   12  C12 UNL     1       0.121  -1.510   0.549  1.00  0.00     0.000 C 
HETATM   13  C13 UNL     1       0.775  -2.756  -0.080  1.00  0.00     0.000 C 
HETATM   14  C14 UNL     1       2.287  -2.756   0.182  1.00  0.00     0.000 C 
HETATM   15  C15 UNL     1      -1.324  -1.348   0.051  1.00  0.00     0.000 C 
HETATM   16  C16 UNL     1      -1.156  -0.803  -1.369  1.00  0.00     0.000 C 
HETATM   17  C17 UNL     1       0.209  -0.113  -1.398  1.00  0.00     0.000 C 
HETATM   18  C25 UNL     1       0.180  -1.564   2.078  1.00  0.00     0.000 C 
HETATM   19  C26 UNL     1       4.930  -2.338   1.074  1.00  0.00     0.000 C 
HETATM   20  O5  UNL     1       7.027   0.102  -2.363  1.00  0.00    -0.224 OA
ENDROOT
BRANCH  15  21
HETATM   21  C18 UNL     1      -2.127  -0.340   0.877  1.00  0.00     0.001 C 
HETATM   22  C24 UNL     1      -2.709  -1.035   2.107  1.00  0.00     0.000 C 
BRANCH  21  23
HETATM   23  C19 UNL     1      -3.203   0.299  -0.004  1.00  0.00     0.010 C 
BRANCH  23  24
HETATM   24  C20 UNL     1      -4.385   0.836   0.805  1.00  0.00     0.090 C 
BRANCH  24  25
HETATM   25  C21 UNL     1      -5.289   1.715  -0.018  1.00  0.00     0.251 C 
HETATM   26  N1  UNL     1      -6.379   2.279   0.584  1.00  0.00    -0.237 NA
HETATM   27  O4  UNL     1      -5.061   1.924  -1.186  1.00  0.00    -0.271 OA
BRANCH  26  28
HETATM   28  C22 UNL     1      -7.272   3.141  -0.203  1.00  0.00     0.149 C 
BRANCH  28  29
HETATM   29  C23 UNL     1      -8.424   3.666   0.654  1.00  0.00     0.172 C 
BRANCH  29  30
HETATM   30  S1  UNL     1      -9.500   4.713  -0.316  1.00  0.00     0.118 S 
HETATM   31  O1  UNL     1     -10.076   3.924  -1.393  1.00  0.00    -0.594 OA
HETATM   32  O2  UNL     1      -8.742   5.858  -0.789  1.00  0.00    -0.594 OA
HETATM   33  O3  UNL     1     -10.684   5.252   0.564  1.00  0.00    -0.594 OA
ENDBRANCH  29  30
ENDBRANCH  28  29
ENDBRANCH  26  28
ENDBRANCH  24  25
ENDBRANCH  23  24
ENDBRANCH  21  23
ENDBRANCH  15  21
TORSDOF 7
