REMARK  13 active torsions:
REMARK  status: ('A' for Active; 'I' for Inactive)
REMARK    1  A    between atoms: C2_2  and  O12_41 
REMARK    2  A    between atoms: C7_7  and  O10_35 
REMARK    3  A    between atoms: C8_8  and  O8_31 
REMARK    4  A    between atoms: C11_11  and  O6_27 
REMARK    5  A    between atoms: C13_13  and  O4_23 
REMARK    6  A    between atoms: C14_14  and  C19_21 
REMARK    7  A    between atoms: C16_16  and  O1_17 
REMARK    8  A    between atoms: O1_17  and  C17_18 
REMARK    9  A    between atoms: O4_23  and  C20_24 
REMARK   10  A    between atoms: O6_27  and  C22_28 
REMARK   11  A    between atoms: O8_31  and  C24_32 
REMARK   12  A    between atoms: O10_35  and  C26_36 
REMARK   13  A    between atoms: O12_41  and  C30_42 
ROOT
HETATM    1  C1  UNL     1       2.531  -1.197  -0.756  1.00  0.00    -0.022 C 
HETATM    2  C2  UNL     1       3.395  -0.006  -1.100  1.00  0.00     0.142 C 
HETATM    3  C3  UNL     1       2.588   1.258  -0.789  1.00  0.00     0.038 C 
HETATM    4  C4  UNL     1       2.225   1.346   0.711  1.00  0.00     0.038 C 
HETATM    5  C5  UNL     1       2.047  -0.063   1.400  1.00  0.00     0.020 C 
HETATM    6  C6  UNL     1       1.797  -1.184   0.385  1.00  0.00    -0.017 C 
HETATM    7  C7  UNL     1       0.746  -2.272   0.601  1.00  0.00     0.186 C 
HETATM    8  C8  UNL     1      -0.473  -1.893  -0.219  1.00  0.00     0.106 C 
HETATM    9  C9  UNL     1      -1.568  -1.283   0.289  1.00  0.00     0.005 C 
HETATM   10  C10 UNL     1      -1.793  -1.111   1.771  1.00  0.00     0.031 C 
HETATM   11  C11 UNL     1      -2.615  -0.729  -0.664  1.00  0.00     0.147 C 
HETATM   12  C12 UNL     1      -3.406   0.516  -0.209  1.00  0.00     0.069 C 
HETATM   13  C13 UNL     1      -2.647   1.598   0.592  1.00  0.00     0.148 C 
HETATM   14  C14 UNL     1      -1.209   1.902   0.205  1.00  0.00     0.014 C 
HETATM   15  C15 UNL     1      -0.297   2.094   1.184  1.00  0.00    -0.000 C 
HETATM   16  C16 UNL     1       1.168   2.453   1.016  1.00  0.00     0.146 C 
HETATM   17  C28 UNL     1       3.367  -0.463   2.080  1.00  0.00     0.004 C 
HETATM   18  C29 UNL     1       1.020  -0.010   2.537  1.00  0.00     0.004 C 
HETATM   19  C32 UNL     1       2.500  -2.354  -1.729  1.00  0.00     0.028 C 
ENDROOT
BRANCH   2  20
HETATM   20  O12 UNL     1       3.734  -0.012  -2.481  1.00  0.00    -0.300 OA
BRANCH  20  21
HETATM   21  C30 UNL     1       4.711  -0.869  -2.758  1.00  0.00     0.273 C 
HETATM   22  C31 UNL     1       5.131  -0.916  -4.203  1.00  0.00     0.106 C 
HETATM   23  O13 UNL     1       5.244  -1.572  -1.934  1.00  0.00    -0.264 OA
ENDBRANCH  20  21
ENDBRANCH   2  20
BRANCH   7  24
HETATM   24  O10 UNL     1       0.471  -2.531   1.973  1.00  0.00    -0.293 OA
BRANCH  24  25
HETATM   25  C26 UNL     1       1.451  -3.205   2.566  1.00  0.00     0.273 C 
HETATM   26  C27 UNL     1       2.650  -3.490   1.701  1.00  0.00     0.106 C 
HETATM   27  O11 UNL     1       1.412  -3.576   3.717  1.00  0.00    -0.264 OA
ENDBRANCH  24  25
ENDBRANCH   7  24
BRANCH  16  28
HETATM   28  O1  UNL     1       1.287   3.516   0.078  1.00  0.00    -0.300 OA
BRANCH  28  29
HETATM   29  C17 UNL     1       0.488   4.539   0.369  1.00  0.00     0.273 C 
HETATM   30  C18 UNL     1      -0.211   4.447   1.699  1.00  0.00     0.106 C 
HETATM   31  O2  UNL     1       0.316   5.486  -0.359  1.00  0.00    -0.264 OA
ENDBRANCH  28  29
ENDBRANCH  16  28
BRANCH   8  32
HETATM   32  O8  UNL     1      -0.443  -2.168  -1.522  1.00  0.00    -0.279 OA
BRANCH  32  33
HETATM   33  C24 UNL     1      -0.807  -3.434  -1.717  1.00  0.00     0.277 C 
HETATM   34  C25 UNL     1      -2.248  -3.633  -2.108  1.00  0.00     0.107 C 
HETATM   35  O9  UNL     1      -0.059  -4.375  -1.598  1.00  0.00    -0.264 OA
ENDBRANCH  32  33
ENDBRANCH   8  32
BRANCH  14  36
HETATM   36  C19 UNL     1      -0.852   1.992  -1.256  1.00  0.00     0.207 C 
HETATM   37  O3  UNL     1       0.527   1.758  -1.418  1.00  0.00    -0.216 OA
ENDBRANCH  14  36
BRANCH  11  38
HETATM   38  O6  UNL     1      -3.531  -1.768  -0.979  1.00  0.00    -0.300 OA
BRANCH  38  39
HETATM   39  C22 UNL     1      -4.383  -1.418  -1.940  1.00  0.00     0.273 C 
HETATM   40  C23 UNL     1      -5.838  -1.481  -1.559  1.00  0.00     0.106 C 
HETATM   41  O7  UNL     1      -4.043  -1.070  -3.045  1.00  0.00    -0.264 OA
ENDBRANCH  38  39
ENDBRANCH  11  38
BRANCH  13  42
HETATM   42  O4  UNL     1      -3.381   2.812   0.516  1.00  0.00    -0.300 OA
BRANCH  42  43
HETATM   43  C20 UNL     1      -3.397   3.467   1.672  1.00  0.00     0.273 C 
HETATM   44  C21 UNL     1      -3.969   4.857   1.613  1.00  0.00     0.106 C 
HETATM   45  O5  UNL     1      -2.988   3.006   2.713  1.00  0.00    -0.264 OA
ENDBRANCH  42  43
ENDBRANCH  13  42
TORSDOF 13
