REMARK  4 active torsions:
REMARK  status: ('A' for Active; 'I' for Inactive)
REMARK    1  A    between atoms: C15_19  and  O8_29 
REMARK    2  A    between atoms: C18_22  and  O5_23 
REMARK    3  A    between atoms: O5_23  and  C19_24 
REMARK    4  A    between atoms: O8_29  and  C22_30 
ROOT
HETATM    1  C1  UNL     1       2.567   1.714  -0.151  1.00  0.00     0.239 C 
HETATM    2  C2  UNL     1       1.865   0.604  -1.161  1.00  0.00     0.185 C 
HETATM    3  C3  UNL     1       0.673  -0.641  -0.982  1.00  0.00     0.085 C 
HETATM    4  C4  UNL     1      -0.713  -0.716   0.078  1.00  0.00     0.070 C 
HETATM    5  C5  UNL     1      -0.886  -0.327   1.750  1.00  0.00     0.155 C 
HETATM    6  C6  UNL     1       0.051   0.673   2.742  1.00  0.00     0.038 C 
HETATM    7  C7  UNL     1       1.540   1.107   2.343  1.00  0.00     0.061 C 
HETATM    8  C8  UNL     1       1.906   2.186   1.244  1.00  0.00     0.188 C 
HETATM    9  C9  UNL     1       0.512   2.490   0.797  1.00  0.00     0.149 C 
HETATM   10  C10 UNL     1      -0.516   2.915   1.855  1.00  0.00     0.179 C 
HETATM   11  C11 UNL     1      -0.524   2.049   3.106  1.00  0.00     0.038 C 
HETATM   12  O1  UNL     1      -1.823   2.853   1.321  1.00  0.00    -0.221 OA
HETATM   13  O2  UNL     1       0.359   1.156   0.488  1.00  0.00    -0.354 OA
HETATM   14  C12 UNL     1       1.329   0.229   1.203  1.00  0.00     0.145 C 
HETATM   15  C13 UNL     1       0.340   3.390  -0.441  1.00  0.00     0.035 C 
HETATM   16  O3  UNL     1       2.527   3.312   1.786  1.00  0.00    -0.220 OA
HETATM   17  C14 UNL     1       2.657   0.718   3.304  1.00  0.00     0.005 C 
HETATM   18  O4  UNL     1      -2.207   0.141   1.926  1.00  0.00    -0.223 OA
HETATM   19  C15 UNL     1      -1.665  -1.922  -0.196  1.00  0.00     0.156 C 
HETATM   20  C16 UNL     1      -1.861  -2.217  -1.686  1.00  0.00     0.146 C 
HETATM   21  C17 UNL     1      -1.365  -1.143  -2.633  1.00  0.00     0.063 C 
HETATM   22  C18 UNL     1       0.070  -0.640  -2.436  1.00  0.00     0.133 C 
HETATM   23  O7  UNL     1      -1.063  -3.372  -1.625  1.00  0.00    -0.351 OA
HETATM   24  C21 UNL     1      -1.089  -3.341  -0.206  1.00  0.00     0.172 C 
HETATM   25  C24 UNL     1       1.605  -1.892  -0.840  1.00  0.00     0.010 C 
HETATM   26  O10 UNL     1       2.475   0.630  -2.211  1.00  0.00    -0.293 OA
HETATM   27  O11 UNL     1       3.910   1.297   0.055  1.00  0.00    -0.213 OA
ENDROOT
BRANCH  19  28
HETATM   28  O8  UNL     1      -2.866  -1.803   0.499  1.00  0.00    -0.302 OA
BRANCH  28  29
HETATM   29  C22 UNL     1      -3.933  -2.644   0.401  1.00  0.00     0.272 C 
HETATM   30  C23 UNL     1      -5.056  -2.141   1.288  1.00  0.00     0.106 C 
HETATM   31  O9  UNL     1      -4.007  -3.646  -0.272  1.00  0.00    -0.264 OA
ENDBRANCH  28  29
ENDBRANCH  19  28
BRANCH  22  32
HETATM   32  O5  UNL     1       0.909  -1.326  -3.329  1.00  0.00    -0.304 OA
BRANCH  32  33
HETATM   33  C19 UNL     1       0.975  -0.910  -4.622  1.00  0.00     0.272 C 
HETATM   34  C20 UNL     1       1.931  -1.796  -5.397  1.00  0.00     0.106 C 
HETATM   35  O6  UNL     1       0.354   0.014  -5.095  1.00  0.00    -0.264 OA
ENDBRANCH  32  33
ENDBRANCH  22  32
TORSDOF 4
