REMARK  10 active torsions:
REMARK  status: ('A' for Active; 'I' for Inactive)
REMARK    1  A    between atoms: C1_1  and  O9_40 
REMARK    2  A    between atoms: C3_3  and  C29_36 
REMARK    3  A    between atoms: C7_7  and  O1_8 
REMARK    4  A    between atoms: O1_8  and  C8_9 
REMARK    5  A    between atoms: C8_9  and  C9_10 
REMARK    6  A    between atoms: C15_17  and  O4_23 
REMARK    7  A    between atoms: O4_23  and  C20_24 
REMARK    8  A    between atoms: C24_29  and  O6_32 
REMARK    9  A    between atoms: O6_32  and  C27_33 
REMARK   10  A    between atoms: O9_40  and  C32_41 
ROOT
HETATM    1  C1  UNL     1      -0.262   1.208   0.694  1.00  0.00     0.170 C 
HETATM    2  C2  UNL     1      -1.557   0.423   0.559  1.00  0.00    -0.018 C 
HETATM    3  C3  UNL     1      -1.677  -1.110   0.539  1.00  0.00     0.046 C 
HETATM    4  C4  UNL     1      -1.079  -1.617  -0.807  1.00  0.00     0.011 C 
HETATM    5  C5  UNL     1      -0.299  -0.596  -1.671  1.00  0.00     0.026 C 
HETATM    6  C6  UNL     1       1.079  -0.092  -1.130  1.00  0.00     0.058 C 
HETATM    7  C7  UNL     1       0.981   0.376   0.358  1.00  0.00     0.159 C 
HETATM    8  C15 UNL     1       1.561   1.057  -2.070  1.00  0.00     0.130 C 
HETATM    9  C16 UNL     1       1.568   0.702  -3.565  1.00  0.00     0.068 C 
HETATM   10  C17 UNL     1       0.237   0.128  -4.033  1.00  0.00     0.173 C 
HETATM   11  C18 UNL     1      -0.129  -1.023  -3.123  1.00  0.00    -0.015 C 
HETATM   12  C19 UNL     1      -0.228  -2.287  -3.565  1.00  0.00    -0.007 C 
HETATM   13  O3  UNL     1       0.346  -0.245  -5.395  1.00  0.00    -0.219 OA
HETATM   14  C22 UNL     1       2.099  -1.256  -1.207  1.00  0.00     0.005 C 
HETATM   15  C23 UNL     1      -3.242  -1.192   0.487  1.00  0.00     0.041 C 
HETATM   16  C24 UNL     1      -3.795   0.075  -0.163  1.00  0.00     0.142 C 
HETATM   17  C25 UNL     1      -2.703   1.035   0.207  1.00  0.00    -0.022 C 
HETATM   18  C26 UNL     1      -2.964   2.503   0.017  1.00  0.00     0.028 C 
ENDROOT
BRANCH   7  19
HETATM   19  O1  UNL     1       2.175   0.988   0.781  1.00  0.00    -0.298 OA
BRANCH  19  20
HETATM   20  C8  UNL     1       2.474   1.026   2.125  1.00  0.00     0.296 C 
HETATM   21  O2  UNL     1       2.669   2.123   2.611  1.00  0.00    -0.259 OA
BRANCH  20  22
HETATM   22  C9  UNL     1       2.673  -0.051   2.946  1.00  0.00     0.063 A 
HETATM   23  C10 UNL     1       2.711  -1.313   2.481  1.00  0.00     0.005 A 
HETATM   24  C11 UNL     1       2.868  -2.364   3.299  1.00  0.00     0.000 A 
HETATM   25  C12 UNL     1       3.009  -2.171   4.617  1.00  0.00     0.000 A 
HETATM   26  C13 UNL     1       3.010  -0.920   5.099  1.00  0.00     0.000 A 
HETATM   27  C14 UNL     1       2.849   0.125   4.272  1.00  0.00     0.005 A 
ENDBRANCH  20  22
ENDBRANCH  19  20
ENDBRANCH   7  19
BRANCH   1  28
HETATM   28  O9  UNL     1      -0.222   1.744   1.998  1.00  0.00    -0.298 OA
BRANCH  28  29
HETATM   29  C32 UNL     1       0.009   3.077   2.168  1.00  0.00     0.273 C 
HETATM   30  C33 UNL     1      -0.068   3.435   3.639  1.00  0.00     0.106 C 
HETATM   31  O10 UNL     1       0.220   3.870   1.278  1.00  0.00    -0.264 OA
ENDBRANCH  28  29
ENDBRANCH   1  28
BRANCH   8  32
HETATM   32  O4  UNL     1       2.850   1.471  -1.713  1.00  0.00    -0.304 OA
BRANCH  32  33
HETATM   33  C20 UNL     1       3.225   2.750  -1.980  1.00  0.00     0.272 C 
HETATM   34  C21 UNL     1       4.588   3.023  -1.378  1.00  0.00     0.106 C 
HETATM   35  O5  UNL     1       2.561   3.558  -2.588  1.00  0.00    -0.264 OA
ENDBRANCH  32  33
ENDBRANCH   8  32
BRANCH   3  36
HETATM   36  C29 UNL     1      -1.223  -1.966   1.778  1.00  0.00     0.130 C 
HETATM   37  C30 UNL     1      -1.238  -1.176   3.090  1.00  0.00     0.033 C 
HETATM   38  O8  UNL     1       0.089  -2.454   1.622  1.00  0.00    -0.226 OA
HETATM   39  C31 UNL     1      -2.049  -3.254   1.967  1.00  0.00     0.033 C 
ENDBRANCH   3  36
BRANCH  16  40
HETATM   40  O6  UNL     1      -3.885  -0.035  -1.560  1.00  0.00    -0.300 OA
BRANCH  40  41
HETATM   41  C27 UNL     1      -4.914  -0.774  -2.054  1.00  0.00     0.273 C 
HETATM   42  C28 UNL     1      -4.858  -0.802  -3.567  1.00  0.00     0.106 C 
HETATM   43  O7  UNL     1      -5.755  -1.328  -1.383  1.00  0.00    -0.264 OA
ENDBRANCH  40  41
ENDBRANCH  16  40
TORSDOF 10
