REMARK  6 active torsions:
REMARK  status: ('A' for Active; 'I' for Inactive)
REMARK    1  A    between atoms: C8_8  and  O1_9 
REMARK    2  A    between atoms: O1_9  and  C9_10 
REMARK    3  A    between atoms: C13_16  and  O4_19 
REMARK    4  A    between atoms: O4_19  and  C16_20 
REMARK    5  A    between atoms: C20_26  and  O7_29 
REMARK    6  A    between atoms: O7_29  and  C23_30 
ROOT
HETATM    1  C1  UNL     1      -1.777   0.599   0.657  1.00  0.00    -0.018 C 
HETATM    2  C2  UNL     1      -2.086  -0.572   1.590  1.00  0.00     0.043 C 
HETATM    3  C3  UNL     1      -1.480  -1.790   0.867  1.00  0.00     0.133 C 
HETATM    4  C4  UNL     1       0.071  -1.768   0.757  1.00  0.00     0.035 C 
HETATM    5  C5  UNL     1       0.806  -0.558   0.132  1.00  0.00     0.028 C 
HETATM    6  C6  UNL     1       1.454   0.505   1.088  1.00  0.00     0.063 C 
HETATM    7  C7  UNL     1       0.429   1.486   1.754  1.00  0.00     0.186 C 
HETATM    8  C8  UNL     1      -0.926   1.781   1.101  1.00  0.00     0.172 C 
HETATM    9  O3  UNL     1       1.052   2.724   2.041  1.00  0.00    -0.220 OA
HETATM   10  C11 UNL     1       2.497   1.269   0.233  1.00  0.00     0.158 C 
HETATM   11  C12 UNL     1       3.618   0.398  -0.359  1.00  0.00     0.068 C 
HETATM   12  C13 UNL     1       3.205  -1.046  -0.663  1.00  0.00     0.145 C 
HETATM   13  C14 UNL     1       1.736  -1.015  -0.991  1.00  0.00    -0.017 C 
HETATM   14  C15 UNL     1       1.272  -1.345  -2.209  1.00  0.00    -0.007 C 
HETATM   15  O6  UNL     1       1.826   1.953  -0.799  1.00  0.00    -0.223 OA
HETATM   16  C18 UNL     1       2.255  -0.096   2.281  1.00  0.00     0.005 C 
HETATM   17  C19 UNL     1      -2.173  -2.010  -0.493  1.00  0.00     0.065 C 
HETATM   18  C20 UNL     1      -2.722  -0.771  -1.220  1.00  0.00     0.144 C 
HETATM   19  C21 UNL     1      -2.207   0.528  -0.626  1.00  0.00    -0.022 C 
HETATM   20  C22 UNL     1      -2.161   1.682  -1.608  1.00  0.00     0.028 C 
HETATM   21  O9  UNL     1      -1.774  -2.934   1.637  1.00  0.00    -0.226 OA
HETATM   22  C25 UNL     1      -3.629  -0.647   1.769  1.00  0.00     0.007 C 
HETATM   23  C26 UNL     1      -1.609  -0.506   3.060  1.00  0.00     0.007 C 
ENDROOT
BRANCH   8  24
HETATM   24  O1  UNL     1      -1.719   2.626   1.906  1.00  0.00    -0.297 OA
BRANCH  24  25
HETATM   25  C9  UNL     1      -1.469   3.964   1.864  1.00  0.00     0.273 C 
HETATM   26  C10 UNL     1      -2.414   4.703   2.788  1.00  0.00     0.106 C 
HETATM   27  O2  UNL     1      -0.616   4.487   1.182  1.00  0.00    -0.264 OA
ENDBRANCH  24  25
ENDBRANCH   8  24
BRANCH  18  28
HETATM   28  O7  UNL     1      -2.422  -0.842  -2.598  1.00  0.00    -0.300 OA
BRANCH  28  29
HETATM   29  C23 UNL     1      -3.015  -1.823  -3.331  1.00  0.00     0.273 C 
HETATM   30  C24 UNL     1      -2.596  -1.714  -4.783  1.00  0.00     0.106 C 
HETATM   31  O8  UNL     1      -3.779  -2.655  -2.897  1.00  0.00    -0.264 OA
ENDBRANCH  28  29
ENDBRANCH  18  28
BRANCH  12  32
HETATM   32  O4  UNL     1       3.986  -1.595  -1.698  1.00  0.00    -0.300 OA
BRANCH  32  33
HETATM   33  C16 UNL     1       5.282  -1.896  -1.413  1.00  0.00     0.273 C 
HETATM   34  C17 UNL     1       5.964  -2.482  -2.632  1.00  0.00     0.106 C 
HETATM   35  O5  UNL     1       5.815  -1.733  -0.339  1.00  0.00    -0.264 OA
ENDBRANCH  32  33
ENDBRANCH  12  32
TORSDOF 6
