REMARK  7 active torsions:
REMARK  status: ('A' for Active; 'I' for Inactive)
REMARK    1  A    between atoms: C1_1  and  O8_32 
REMARK    2  A    between atoms: C3_3  and  C22_28 
REMARK    3  A    between atoms: C7_7  and  O1_8 
REMARK    4  A    between atoms: O1_8  and  C8_9 
REMARK    5  A    between atoms: C10_12  and  O4_18 
REMARK    6  A    between atoms: O4_18  and  C15_19 
REMARK    7  A    between atoms: O8_32  and  C25_33 
ROOT
HETATM    1  C1  UNL     1      -0.452   0.662   0.994  1.00  0.00     0.170 C 
HETATM    2  C2  UNL     1      -1.497  -0.385   0.667  1.00  0.00    -0.018 C 
HETATM    3  C3  UNL     1      -1.250  -1.896   0.645  1.00  0.00     0.046 C 
HETATM    4  C4  UNL     1      -0.179  -2.237  -0.434  1.00  0.00     0.011 C 
HETATM    5  C5  UNL     1       0.139  -1.104  -1.433  1.00  0.00     0.026 C 
HETATM    6  C6  UNL     1       1.179  -0.048  -0.949  1.00  0.00     0.058 C 
HETATM    7  C7  UNL     1       0.973   0.309   0.556  1.00  0.00     0.158 C 
HETATM    8  C10 UNL     1       1.045   1.166  -1.918  1.00  0.00     0.130 C 
HETATM    9  C11 UNL     1       1.239   0.787  -3.398  1.00  0.00     0.068 C 
HETATM   10  C12 UNL     1       0.389  -0.398  -3.850  1.00  0.00     0.173 C 
HETATM   11  C13 UNL     1       0.507  -1.521  -2.844  1.00  0.00    -0.015 C 
HETATM   12  C14 UNL     1       0.960  -2.736  -3.191  1.00  0.00    -0.007 C 
HETATM   13  O3  UNL     1      -0.957   0.022  -3.989  1.00  0.00    -0.219 OA
HETATM   14  C17 UNL     1       2.613  -0.641  -1.057  1.00  0.00     0.005 C 
HETATM   15  C18 UNL     1      -2.662  -2.384   0.154  1.00  0.00     0.043 C 
HETATM   16  C19 UNL     1      -3.447  -1.203  -0.404  1.00  0.00     0.170 C 
HETATM   17  C20 UNL     1      -2.697  -0.041   0.167  1.00  0.00    -0.020 C 
HETATM   18  C21 UNL     1      -3.263   1.338  -0.026  1.00  0.00     0.028 C 
HETATM   19  O6  UNL     1      -3.387  -1.202  -1.817  1.00  0.00    -0.219 OA
ENDROOT
BRANCH   1  20
HETATM   20  O8  UNL     1      -0.521   0.938   2.374  1.00  0.00    -0.298 OA
BRANCH  20  21
HETATM   21  C25 UNL     1      -0.509   2.228   2.805  1.00  0.00     0.273 C 
HETATM   22  C26 UNL     1      -0.630   2.267   4.314  1.00  0.00     0.106 C 
HETATM   23  O9  UNL     1      -0.404   3.206   2.100  1.00  0.00    -0.264 OA
ENDBRANCH  20  21
ENDBRANCH   1  20
BRANCH   7  24
HETATM   24  O1  UNL     1       1.839   1.352   0.919  1.00  0.00    -0.301 OA
BRANCH  24  25
HETATM   25  C8  UNL     1       2.543   1.292   2.080  1.00  0.00     0.272 C 
HETATM   26  C9  UNL     1       3.348   2.563   2.258  1.00  0.00     0.106 C 
HETATM   27  O2  UNL     1       2.527   0.377   2.872  1.00  0.00    -0.264 OA
ENDBRANCH  24  25
ENDBRANCH   7  24
BRANCH   3  28
HETATM   28  C22 UNL     1      -0.977  -2.587   2.020  1.00  0.00     0.130 C 
HETATM   29  C23 UNL     1      -1.023  -4.122   1.901  1.00  0.00     0.033 C 
HETATM   30  O7  UNL     1      -1.990  -2.197   2.916  1.00  0.00    -0.226 OA
HETATM   31  C24 UNL     1       0.334  -2.260   2.744  1.00  0.00     0.033 C 
ENDBRANCH   3  28
BRANCH   8  32
HETATM   32  O4  UNL     1       1.972   2.160  -1.589  1.00  0.00    -0.304 OA
BRANCH  32  33
HETATM   33  C15 UNL     1       1.763   3.427  -2.034  1.00  0.00     0.272 C 
HETATM   34  C16 UNL     1       2.906   4.322  -1.597  1.00  0.00     0.106 C 
HETATM   35  O5  UNL     1       0.815   3.794  -2.691  1.00  0.00    -0.264 OA
ENDBRANCH  32  33
ENDBRANCH   8  32
TORSDOF 7
