REMARK  10 active torsions:
REMARK  status: ('A' for Active; 'I' for Inactive)
REMARK    1  A    between atoms: C4_4  and  C25_35 
REMARK    2  A    between atoms: C7_7  and  O8_30 
REMARK    3  A    between atoms: C10_10  and  O1_11 
REMARK    4  A    between atoms: O1_11  and  C11_12 
REMARK    5  A    between atoms: C13_15  and  C21_27 
REMARK    6  A    between atoms: C14_16  and  O5_23 
REMARK    7  A    between atoms: C16_18  and  O3_19 
REMARK    8  A    between atoms: O3_19  and  C17_20 
REMARK    9  A    between atoms: O5_23  and  C19_24 
REMARK   10  A    between atoms: O8_30  and  C23_31 
ROOT
HETATM    1  C1  UNL     1      -2.387   1.034   1.286  1.00  0.00    -0.019 C 
HETATM    2  C2  UNL     1      -3.437   0.065   0.840  1.00  0.00     0.171 C 
HETATM    3  C3  UNL     1      -2.860  -1.212   1.433  1.00  0.00     0.046 C 
HETATM    4  C4  UNL     1      -1.290  -1.100   1.442  1.00  0.00     0.071 C 
HETATM    5  C5  UNL     1      -1.219   0.428   1.569  1.00  0.00    -0.013 C 
HETATM    6  C6  UNL     1       0.048   1.229   1.725  1.00  0.00     0.198 C 
HETATM    7  C7  UNL     1       1.338   0.592   1.231  1.00  0.00     0.161 C 
HETATM    8  C8  UNL     1       1.382   0.230  -0.292  1.00  0.00     0.057 C 
HETATM    9  C9  UNL     1       0.010  -0.368  -0.784  1.00  0.00     0.038 C 
HETATM   10  C10 UNL     1      -0.624  -1.516   0.075  1.00  0.00     0.130 C 
HETATM   11  C13 UNL     1      -0.048  -0.603  -2.326  1.00  0.00     0.064 C 
HETATM   12  C14 UNL     1       0.265   0.679  -3.113  1.00  0.00     0.129 C 
HETATM   13  C15 UNL     1       1.604   1.260  -2.675  1.00  0.00     0.061 C 
HETATM   14  C16 UNL     1       1.708   1.484  -1.162  1.00  0.00     0.129 C 
HETATM   15  C22 UNL     1       2.543  -0.791  -0.432  1.00  0.00     0.005 C 
HETATM   16  O10 UNL     1       0.158   1.608   3.082  1.00  0.00    -0.216 OA
HETATM   17  O12 UNL     1      -3.473  -0.020  -0.571  1.00  0.00    -0.219 OA
HETATM   18  C28 UNL     1      -2.687   2.504   1.208  1.00  0.00     0.028 C 
ENDROOT
BRANCH   4  19
HETATM   19  C25 UNL     1      -0.819  -1.966   2.665  1.00  0.00     0.132 C 
HETATM   20  C26 UNL     1      -1.182  -1.397   4.046  1.00  0.00     0.033 C 
HETATM   21  C27 UNL     1      -1.340  -3.412   2.607  1.00  0.00     0.033 C 
HETATM   22  O11 UNL     1       0.578  -2.101   2.679  1.00  0.00    -0.226 OA
ENDBRANCH   4  19
BRANCH  10  23
HETATM   23  O1  UNL     1      -1.578  -2.205  -0.693  1.00  0.00    -0.304 OA
BRANCH  23  24
HETATM   24  C11 UNL     1      -1.410  -3.506  -1.050  1.00  0.00     0.272 C 
HETATM   25  C12 UNL     1      -2.586  -3.962  -1.892  1.00  0.00     0.106 C 
HETATM   26  O2  UNL     1      -0.473  -4.210  -0.750  1.00  0.00    -0.264 OA
ENDBRANCH  23  24
ENDBRANCH  10  23
BRANCH   7  27
HETATM   27  O8  UNL     1       2.402   1.437   1.572  1.00  0.00    -0.301 OA
BRANCH  27  28
HETATM   28  C23 UNL     1       3.123   1.379   2.728  1.00  0.00     0.272 C 
HETATM   29  O9  UNL     1       3.926   2.242   3.018  1.00  0.00    -0.264 OA
HETATM   30  C24 UNL     1       2.981   0.131   3.580  1.00  0.00     0.106 C 
ENDBRANCH  27  28
ENDBRANCH   7  27
BRANCH  11  31
HETATM   31  C21 UNL     1       0.749  -1.803  -2.849  1.00  0.00     0.185 C 
HETATM   32  O7  UNL     1       0.040  -2.439  -3.894  1.00  0.00    -0.221 OA
ENDBRANCH  11  31
BRANCH  14  33
HETATM   33  O3  UNL     1       3.013   1.952  -0.931  1.00  0.00    -0.304 OA
BRANCH  33  34
HETATM   34  C17 UNL     1       3.208   3.268  -0.647  1.00  0.00     0.272 C 
HETATM   35  C18 UNL     1       4.672   3.518  -0.347  1.00  0.00     0.106 C 
HETATM   36  O4  UNL     1       2.346   4.117  -0.628  1.00  0.00    -0.264 OA
ENDBRANCH  33  34
ENDBRANCH  14  33
BRANCH  12  37
HETATM   37  O5  UNL     1      -0.760   1.611  -2.903  1.00  0.00    -0.304 OA
BRANCH  37  38
HETATM   38  C19 UNL     1      -0.913   2.615  -3.808  1.00  0.00     0.272 C 
HETATM   39  C20 UNL     1      -2.062   3.513  -3.396  1.00  0.00     0.106 C 
HETATM   40  O6  UNL     1      -0.235   2.775  -4.798  1.00  0.00    -0.264 OA
ENDBRANCH  37  38
ENDBRANCH  12  37
TORSDOF 10
