REMARK  17 active torsions:
REMARK  status: ('A' for Active; 'I' for Inactive)
REMARK    1  A    between atoms: C1_1  and  O13_52 
REMARK    2  A    between atoms: C2_2  and  O11_48 
REMARK    3  A    between atoms: C5_5  and  O3_19 
REMARK    4  A    between atoms: C10_10  and  O1_12 
REMARK    5  A    between atoms: O1_12  and  C12_13 
REMARK    6  A    between atoms: O3_19  and  C17_20 
REMARK    7  A    between atoms: C19_23  and  C27_35 
REMARK    8  A    between atoms: C20_24  and  O7_31 
REMARK    9  A    between atoms: C22_26  and  O5_27 
REMARK   10  A    between atoms: O5_27  and  C23_28 
REMARK   11  A    between atoms: O7_31  and  C25_32 
REMARK   12  A    between atoms: C27_35  and  O9_36 
REMARK   13  A    between atoms: O9_36  and  C28_37 
REMARK   14  A    between atoms: C28_37  and  C29_38 
REMARK   15  A    between atoms: C30_39  and  C31_40 
REMARK   16  A    between atoms: O11_48  and  C38_49 
REMARK   17  A    between atoms: O13_52  and  C40_53 
ROOT
HETATM    1  C1  UNL     1      -2.400   1.849  -1.477  1.00  0.00     0.170 C 
HETATM    2  C2  UNL     1      -0.978   1.935  -0.879  1.00  0.00     0.161 C 
HETATM    3  C3  UNL     1      -0.678   1.361   0.559  1.00  0.00     0.071 C 
HETATM    4  C4  UNL     1      -0.982  -0.199   0.654  1.00  0.00    -0.017 C 
HETATM    5  C5  UNL     1      -2.357  -0.754   1.171  1.00  0.00     0.073 C 
HETATM    6  C6  UNL     1      -3.559  -1.071   0.231  1.00  0.00     0.051 C 
HETATM    7  C7  UNL     1      -4.114   0.055  -0.666  1.00  0.00     0.023 C 
HETATM    8  C8  UNL     1      -2.922   0.425  -1.538  1.00  0.00    -0.020 C 
HETATM    9  C9  UNL     1      -2.295  -0.559  -2.228  1.00  0.00    -0.022 C 
HETATM   10  C10 UNL     1      -2.555  -2.037  -1.950  1.00  0.00     0.142 C 
HETATM   11  C11 UNL     1      -3.329  -2.319  -0.654  1.00  0.00     0.041 C 
HETATM   12  C14 UNL     1      -1.159  -0.385  -3.219  1.00  0.00     0.028 C 
HETATM   13  C15 UNL     1      -5.263  -0.404  -1.610  1.00  0.00     0.004 C 
HETATM   14  C16 UNL     1      -4.828   1.131   0.184  1.00  0.00     0.004 C 
HETATM   15  C19 UNL     1       0.187  -1.012   1.312  1.00  0.00     0.078 C 
HETATM   16  C20 UNL     1       0.692  -0.261   2.546  1.00  0.00     0.133 C 
HETATM   17  C21 UNL     1       1.390   1.039   2.173  1.00  0.00     0.061 C 
HETATM   18  C22 UNL     1       0.824   1.699   0.909  1.00  0.00     0.132 C 
HETATM   19  C37 UNL     1      -1.442   2.231   1.591  1.00  0.00     0.009 C 
ENDROOT
BRANCH  15  20
HETATM   20  C27 UNL     1       1.211  -1.514   0.272  1.00  0.00     0.159 C 
BRANCH  20  21
HETATM   21  O9  UNL     1       2.429  -1.849   0.883  1.00  0.00    -0.298 OA
BRANCH  21  22
HETATM   22  C28 UNL     1       3.601  -1.637   0.209  1.00  0.00     0.296 C 
HETATM   23  O10 UNL     1       3.586  -1.268  -0.945  1.00  0.00    -0.259 OA
BRANCH  22  24
HETATM   24  C29 UNL     1       4.792  -1.803   0.849  1.00  0.00     0.068 C 
HETATM   25  C30 UNL     1       5.994  -1.581   0.286  1.00  0.00     0.005 C 
BRANCH  25  26
HETATM   26  C31 UNL     1       7.207  -1.739   0.859  1.00  0.00     0.000 A 
HETATM   27  C32 UNL     1       8.310  -1.436   0.142  1.00  0.00     0.000 A 
HETATM   28  C33 UNL     1       9.545  -1.576   0.649  1.00  0.00     0.000 A 
HETATM   29  C34 UNL     1       9.710  -2.031   1.899  1.00  0.00     0.000 A 
HETATM   30  C35 UNL     1       8.629  -2.339   2.630  1.00  0.00     0.000 A 
HETATM   31  C36 UNL     1       7.398  -2.192   2.114  1.00  0.00     0.000 A 
ENDBRANCH  25  26
ENDBRANCH  22  24
ENDBRANCH  21  22
ENDBRANCH  20  21
ENDBRANCH  15  20
BRANCH  16  32
HETATM   32  O7  UNL     1       1.525  -1.080   3.319  1.00  0.00    -0.304 OA
BRANCH  32  33
HETATM   33  C25 UNL     1       1.660  -0.789   4.641  1.00  0.00     0.272 C 
HETATM   34  C26 UNL     1       2.621  -1.766   5.289  1.00  0.00     0.106 C 
HETATM   35  O8  UNL     1       1.103   0.118   5.216  1.00  0.00    -0.264 OA
ENDBRANCH  32  33
ENDBRANCH  16  32
BRANCH   5  36
HETATM   36  O3  UNL     1      -2.757  -0.068   2.320  1.00  0.00    -0.281 OA
BRANCH  36  37
HETATM   37  C17 UNL     1      -3.295  -0.745   3.371  1.00  0.00     0.276 C 
HETATM   38  C18 UNL     1      -3.529   0.205   4.528  1.00  0.00     0.107 C 
HETATM   39  O4  UNL     1      -3.525  -1.933   3.400  1.00  0.00    -0.264 OA
ENDBRANCH  36  37
ENDBRANCH   5  36
BRANCH   2  40
HETATM   40  O11 UNL     1      -0.590   3.287  -0.918  1.00  0.00    -0.301 OA
BRANCH  40  41
HETATM   41  C38 UNL     1       0.168   3.744  -1.952  1.00  0.00     0.272 C 
HETATM   42  C39 UNL     1       0.483   5.212  -1.749  1.00  0.00     0.106 C 
HETATM   43  O12 UNL     1       0.553   3.083  -2.890  1.00  0.00    -0.264 OA
ENDBRANCH  40  41
ENDBRANCH   2  40
BRANCH  18  44
HETATM   44  O5  UNL     1       1.686   1.467  -0.171  1.00  0.00    -0.304 OA
BRANCH  44  45
HETATM   45  C23 UNL     1       2.772   2.273  -0.338  1.00  0.00     0.272 C 
HETATM   46  C24 UNL     1       3.523   1.918  -1.605  1.00  0.00     0.106 C 
HETATM   47  O6  UNL     1       3.094   3.172   0.406  1.00  0.00    -0.264 OA
ENDBRANCH  44  45
ENDBRANCH  18  44
BRANCH   1  48
HETATM   48  O13 UNL     1      -2.385   2.425  -2.765  1.00  0.00    -0.298 OA
BRANCH  48  49
HETATM   49  C40 UNL     1      -3.557   2.771  -3.355  1.00  0.00     0.273 C 
HETATM   50  C41 UNL     1      -3.306   3.179  -4.793  1.00  0.00     0.106 C 
HETATM   51  O14 UNL     1      -4.644   2.731  -2.827  1.00  0.00    -0.264 OA
ENDBRANCH  48  49
ENDBRANCH   1  48
BRANCH  10  52
HETATM   52  O1  UNL     1      -3.144  -2.652  -3.072  1.00  0.00    -0.300 OA
BRANCH  52  53
HETATM   53  C12 UNL     1      -3.263  -4.007  -3.075  1.00  0.00     0.273 C 
HETATM   54  C13 UNL     1      -4.068  -4.457  -4.277  1.00  0.00     0.106 C 
HETATM   55  O2  UNL     1      -2.816  -4.748  -2.229  1.00  0.00    -0.264 OA
ENDBRANCH  52  53
ENDBRANCH  10  52
TORSDOF 17
