REMARK  3 active torsions:
REMARK  status: ('A' for Active; 'I' for Inactive)
REMARK    1  A    between atoms: C8_10  and  C12_15 
REMARK    2  A    between atoms: C12_15  and  C13_16 
REMARK    3  A    between atoms: C14_17  and  C15_18 
ROOT
HETATM    1  C1  UNL     1       0.627  -3.212  -1.035  1.00  0.00     0.066 C 
HETATM    2  C2  UNL     1      -0.495  -2.982  -0.052  1.00  0.00     0.028 A 
HETATM    3  C3  UNL     1      -0.906  -1.671   0.253  1.00  0.00     0.095 A 
HETATM    4  O1  UNL     1      -0.355  -0.574  -0.354  1.00  0.00    -0.333 OA
HETATM    5  C4  UNL     1       0.457  -0.748  -1.470  1.00  0.00     0.127 C 
HETATM    6  C5  UNL     1       1.403  -1.923  -1.250  1.00  0.00     0.182 C 
HETATM    7  O2  UNL     1       2.202  -1.701  -0.110  1.00  0.00    -0.221 OA
HETATM    8  C6  UNL     1       1.266   0.546  -1.659  1.00  0.00     0.033 C 
HETATM    9  C7  UNL     1      -0.436  -0.932  -2.705  1.00  0.00     0.033 C 
HETATM   10  C8  UNL     1      -1.999  -1.523   1.135  1.00  0.00     0.061 A 
HETATM   11  C9  UNL     1      -2.588  -2.648   1.729  1.00  0.00     0.007 A 
HETATM   12  C10 UNL     1      -2.140  -3.930   1.425  1.00  0.00     0.027 A 
HETATM   13  C11 UNL     1      -1.095  -4.114   0.521  1.00  0.00     0.129 A 
HETATM   14  O3  UNL     1      -0.701  -5.375   0.196  1.00  0.00    -0.190 OA
ENDROOT
BRANCH  10  15
HETATM   15  C12 UNL     1      -2.631  -0.207   1.464  1.00  0.00     0.198 C 
HETATM   16  O5  UNL     1      -3.817  -0.169   1.783  1.00  0.00    -0.286 OA
BRANCH  15  17
HETATM   17  C13 UNL     1      -1.941   1.102   1.268  1.00  0.00     0.042 C 
HETATM   18  C14 UNL     1      -0.648   1.357   1.561  1.00  0.00     0.003 C 
BRANCH  18  19
HETATM   19  C15 UNL     1       0.015   2.644   1.291  1.00  0.00     0.000 A 
HETATM   20  C16 UNL     1       1.418   2.704   1.313  1.00  0.00     0.002 A 
HETATM   21  C17 UNL     1       2.092   3.881   0.991  1.00  0.00     0.027 A 
HETATM   22  C18 UNL     1       1.401   5.053   0.666  1.00  0.00     0.131 A 
HETATM   23  C19 UNL     1       0.005   5.006   0.695  1.00  0.00     0.027 A 
HETATM   24  O4  UNL     1       2.066   6.191   0.338  1.00  0.00    -0.190 OA
HETATM   25  C20 UNL     1      -0.679   3.830   1.007  1.00  0.00     0.002 A 
ENDBRANCH  18  19
ENDBRANCH  15  17
ENDBRANCH  10  15
TORSDOF 3
