REMARK  14 active torsions:
REMARK  status: ('A' for Active; 'I' for Inactive)
REMARK    1  A    between atoms: C1_1  and  O11_46 
REMARK    2  A    between atoms: C3_3  and  C33_42 
REMARK    3  A    between atoms: C4_4  and  O6_23 
REMARK    4  A    between atoms: C7_7  and  O1_8 
REMARK    5  A    between atoms: O1_8  and  C8_9 
REMARK    6  A    between atoms: C10_12  and  O4_18 
REMARK    7  A    between atoms: O4_18  and  C15_19 
REMARK    8  A    between atoms: O6_23  and  C18_24 
REMARK    9  A    between atoms: C21_28  and  O8_31 
REMARK   10  A    between atoms: O8_31  and  C24_32 
REMARK   11  A    between atoms: C24_32  and  C25_33 
REMARK   12  A    between atoms: C26_34  and  C27_35 
REMARK   13  A    between atoms: O11_46  and  C36_47 
REMARK   14  A    between atoms: C36_47  and  C37_49 
ROOT
HETATM    1  C1  UNL     1       0.912   1.025   0.818  1.00  0.00     0.171 C 
HETATM    2  C2  UNL     1      -0.310   0.120   0.802  1.00  0.00    -0.016 C 
HETATM    3  C3  UNL     1      -0.300  -1.403   0.881  1.00  0.00     0.075 C 
HETATM    4  C4  UNL     1       0.395  -1.960  -0.406  1.00  0.00     0.148 C 
HETATM    5  C5  UNL     1       1.087  -0.948  -1.363  1.00  0.00    -0.014 C 
HETATM    6  C6  UNL     1       2.416  -0.240  -0.943  1.00  0.00     0.071 C 
HETATM    7  C7  UNL     1       2.278   0.418   0.470  1.00  0.00     0.161 C 
HETATM    8  C10 UNL     1       2.802   0.820  -2.035  1.00  0.00     0.133 C 
HETATM    9  C11 UNL     1       2.680   0.363  -3.494  1.00  0.00     0.068 C 
HETATM   10  C12 UNL     1       1.329  -0.262  -3.789  1.00  0.00     0.176 C 
HETATM   11  C13 UNL     1       1.182  -1.410  -2.817  1.00  0.00     0.002 C 
HETATM   12  C14 UNL     1       1.202  -2.683  -3.240  1.00  0.00    -0.003 C 
HETATM   13  O3  UNL     1       1.284  -0.656  -5.149  1.00  0.00    -0.218 OA
HETATM   14  C17 UNL     1       3.565  -1.279  -0.877  1.00  0.00     0.009 C 
HETATM   15  C20 UNL     1      -1.848  -1.699   0.723  1.00  0.00     0.043 C 
HETATM   16  C21 UNL     1      -2.567  -0.431   0.267  1.00  0.00     0.143 C 
HETATM   17  C22 UNL     1      -1.530   0.620   0.535  1.00  0.00    -0.022 C 
HETATM   18  C23 UNL     1      -1.912   2.063   0.330  1.00  0.00     0.028 C 
ENDROOT
BRANCH  16  19
HETATM   19  O8  UNL     1      -3.735  -0.187   1.014  1.00  0.00    -0.297 OA
BRANCH  19  20
HETATM   20  C24 UNL     1      -4.952  -0.577   0.521  1.00  0.00     0.296 C 
HETATM   21  O9  UNL     1      -5.003  -1.085  -0.576  1.00  0.00    -0.259 OA
BRANCH  20  22
HETATM   22  C25 UNL     1      -6.052  -0.455   1.315  1.00  0.00     0.068 C 
HETATM   23  C26 UNL     1      -7.364  -0.686   1.113  1.00  0.00     0.005 C 
BRANCH  23  24
HETATM   24  C27 UNL     1      -8.153  -0.984   0.056  1.00  0.00     0.000 A 
HETATM   25  C28 UNL     1      -9.443  -1.304   0.304  1.00  0.00     0.000 A 
HETATM   26  C29 UNL     1     -10.317  -1.594  -0.674  1.00  0.00     0.000 A 
HETATM   27  C30 UNL     1      -9.928  -1.554  -1.954  1.00  0.00     0.000 A 
HETATM   28  C31 UNL     1      -8.664  -1.209  -2.234  1.00  0.00     0.000 A 
HETATM   29  C32 UNL     1      -7.803  -0.923  -1.243  1.00  0.00     0.000 A 
ENDBRANCH  23  24
ENDBRANCH  20  22
ENDBRANCH  19  20
ENDBRANCH  16  19
BRANCH   3  30
HETATM   30  C33 UNL     1       0.095  -1.972   2.295  1.00  0.00     0.133 C 
HETATM   31  O10 UNL     1      -0.339  -3.310   2.355  1.00  0.00    -0.226 OA
HETATM   32  C34 UNL     1       1.569  -2.037   2.720  1.00  0.00     0.033 C 
HETATM   33  C35 UNL     1      -0.594  -1.217   3.454  1.00  0.00     0.033 C 
ENDBRANCH   3  30
BRANCH   4  34
HETATM   34  O6  UNL     1       1.210  -3.057  -0.131  1.00  0.00    -0.300 OA
BRANCH  34  35
HETATM   35  C18 UNL     1       0.694  -4.318  -0.198  1.00  0.00     0.273 C 
HETATM   36  C19 UNL     1       1.752  -5.328   0.195  1.00  0.00     0.106 C 
HETATM   37  O7  UNL     1      -0.435  -4.605  -0.529  1.00  0.00    -0.264 OA
ENDBRANCH  34  35
ENDBRANCH   4  34
BRANCH   1  38
HETATM   38  O11 UNL     1       0.975   1.659   2.069  1.00  0.00    -0.294 OA
BRANCH  38  39
HETATM   39  C36 UNL     1       1.191   2.987   2.380  1.00  0.00     0.296 C 
HETATM   40  O12 UNL     1       1.158   3.176   3.583  1.00  0.00    -0.259 OA
BRANCH  39  41
HETATM   41  C37 UNL     1       1.433   4.114   1.629  1.00  0.00     0.063 A 
HETATM   42  C38 UNL     1       1.582   5.299   2.267  1.00  0.00     0.005 A 
HETATM   43  C39 UNL     1       1.809   6.455   1.621  1.00  0.00     0.000 A 
HETATM   44  C40 UNL     1       1.895   6.475   0.286  1.00  0.00     0.000 A 
HETATM   45  C41 UNL     1       1.764   5.320  -0.377  1.00  0.00     0.000 A 
HETATM   46  C42 UNL     1       1.548   4.172   0.287  1.00  0.00     0.005 A 
ENDBRANCH  39  41
ENDBRANCH  38  39
ENDBRANCH   1  38
BRANCH   7  47
HETATM   47  O1  UNL     1       3.232   1.434   0.619  1.00  0.00    -0.301 OA
BRANCH  47  48
HETATM   48  C8  UNL     1       4.142   1.583   1.622  1.00  0.00     0.272 C 
HETATM   49  O2  UNL     1       4.911   2.521   1.635  1.00  0.00    -0.264 OA
HETATM   50  C9  UNL     1       4.160   0.547   2.727  1.00  0.00     0.106 C 
ENDBRANCH  47  48
ENDBRANCH   7  47
BRANCH   8  51
HETATM   51  O4  UNL     1       4.130   1.259  -1.885  1.00  0.00    -0.304 OA
BRANCH  51  52
HETATM   52  C15 UNL     1       4.404   2.584  -2.025  1.00  0.00     0.272 C 
HETATM   53  C16 UNL     1       5.859   2.857  -1.703  1.00  0.00     0.106 C 
HETATM   54  O5  UNL     1       3.601   3.429  -2.348  1.00  0.00    -0.264 OA
ENDBRANCH  51  52
ENDBRANCH   8  51
TORSDOF 14
