REMARK  6 active torsions:
REMARK  status: ('A' for Active; 'I' for Inactive)
REMARK    1  A    between atoms: C4_4  and  O6_24 
REMARK    2  A    between atoms: C7_7  and  O3_13 
REMARK    3  A    between atoms: C8_8  and  O1_9 
REMARK    4  A    between atoms: O1_9  and  C9_10 
REMARK    5  A    between atoms: O3_13  and  C11_14 
REMARK    6  A    between atoms: O6_24  and  C19_25 
ROOT
HETATM    1  C1  UNL     1      -0.919   0.060   1.607  1.00  0.00    -0.016 C 
HETATM    2  C2  UNL     1      -0.917  -1.462   1.794  1.00  0.00     0.047 C 
HETATM    3  C3  UNL     1      -0.988  -1.998   0.338  1.00  0.00     0.039 C 
HETATM    4  C4  UNL     1       0.220  -1.473  -0.480  1.00  0.00     0.129 C 
HETATM    5  C5  UNL     1       0.036  -0.192  -1.337  1.00  0.00     0.051 C 
HETATM    6  C6  UNL     1       1.072   0.926  -0.961  1.00  0.00     0.034 C 
HETATM    7  C7  UNL     1       0.689   1.705   0.352  1.00  0.00     0.156 C 
HETATM    8  C8  UNL     1       0.302   0.978   1.667  1.00  0.00     0.170 C 
HETATM    9  C13 UNL     1       1.076   2.012  -2.079  1.00  0.00     0.006 C 
HETATM   10  C14 UNL     1       1.289   1.460  -3.488  1.00  0.00     0.037 C 
HETATM   11  C15 UNL     1       0.117   0.571  -3.859  1.00  0.00     0.171 C 
HETATM   12  C16 UNL     1      -0.158  -0.499  -2.828  1.00  0.00    -0.012 C 
HETATM   13  C17 UNL     1      -0.752  -1.618  -3.282  1.00  0.00    -0.007 C 
HETATM   14  O5  UNL     1      -1.048   1.356  -4.045  1.00  0.00    -0.219 OA
HETATM   15  C18 UNL     1       2.514   0.362  -0.890  1.00  0.00     0.003 C 
HETATM   16  C21 UNL     1      -2.405  -1.638  -0.173  1.00  0.00     0.066 C 
HETATM   17  C22 UNL     1      -3.055  -0.658   0.798  1.00  0.00     0.235 C 
HETATM   18  C23 UNL     1      -2.123   0.475   1.159  1.00  0.00     0.004 C 
HETATM   19  C24 UNL     1      -2.588   1.885   0.929  1.00  0.00     0.031 C 
HETATM   20  O8  UNL     1      -3.388  -1.335   1.975  1.00  0.00    -0.329 OA
HETATM   21  C25 UNL     1      -2.216  -1.839   2.562  1.00  0.00     0.149 C 
HETATM   22  O9  UNL     1      -4.326  -0.242   0.332  1.00  0.00    -0.191 OA
HETATM   23  C26 UNL     1       0.186  -2.141   2.634  1.00  0.00     0.007 C 
ENDROOT
BRANCH   4  24
HETATM   24  O6  UNL     1       0.811  -2.497  -1.235  1.00  0.00    -0.304 OA
BRANCH  24  25
HETATM   25  C19 UNL     1       1.889  -3.180  -0.764  1.00  0.00     0.272 C 
HETATM   26  C20 UNL     1       2.342  -4.201  -1.789  1.00  0.00     0.106 C 
HETATM   27  O7  UNL     1       2.431  -3.007   0.303  1.00  0.00    -0.264 OA
ENDBRANCH  24  25
ENDBRANCH   4  24
BRANCH   7  28
HETATM   28  O3  UNL     1       1.737   2.595   0.660  1.00  0.00    -0.301 OA
BRANCH  28  29
HETATM   29  C11 UNL     1       1.647   3.955   0.694  1.00  0.00     0.272 C 
HETATM   30  O4  UNL     1       2.623   4.652   0.883  1.00  0.00    -0.264 OA
HETATM   31  C12 UNL     1       0.274   4.578   0.533  1.00  0.00     0.106 C 
ENDBRANCH  28  29
ENDBRANCH   7  28
BRANCH   8  32
HETATM   32  O1  UNL     1       1.469   0.385   2.184  1.00  0.00    -0.298 OA
BRANCH  32  33
HETATM   33  C9  UNL     1       1.750   0.500   3.510  1.00  0.00     0.273 C 
HETATM   34  C10 UNL     1       3.100  -0.122   3.808  1.00  0.00     0.106 C 
HETATM   35  O2  UNL     1       1.035   1.026   4.333  1.00  0.00    -0.264 OA
ENDBRANCH  32  33
ENDBRANCH   8  32
TORSDOF 6
