REMARK  2 active torsions:
REMARK  status: ('A' for Active; 'I' for Inactive)
REMARK    1  A    between atoms: C8_8  and  O1_9 
REMARK    2  A    between atoms: O1_9  and  C9_10 
ROOT
HETATM    1  C1  UNL     1      -1.833  -0.497   0.384  1.00  0.00    -0.002 C 
HETATM    2  C2  UNL     1      -1.158  -1.696   0.989  1.00  0.00     0.026 C 
HETATM    3  C3  UNL     1      -0.434  -2.212  -0.284  1.00  0.00     0.059 C 
HETATM    4  C4  UNL     1       0.234  -1.249  -1.330  1.00  0.00     0.105 C 
HETATM    5  C5  UNL     1       1.373  -0.242  -1.081  1.00  0.00    -0.000 C 
HETATM    6  C6  UNL     1       1.461   0.612   0.204  1.00  0.00     0.054 C 
HETATM    7  C7  UNL     1       0.137   1.375   0.588  1.00  0.00     0.200 C 
HETATM    8  C8  UNL     1      -1.338   0.876   0.800  1.00  0.00     0.107 C 
HETATM    9  O3  UNL     1      -0.006   2.459  -0.320  1.00  0.00    -0.216 OA
HETATM   10  C11 UNL     1       2.594   1.713   0.017  1.00  0.00     0.010 C 
HETATM   11  C12 UNL     1       3.281   1.729  -1.359  1.00  0.00     0.038 C 
HETATM   12  C13 UNL     1       3.780   0.336  -1.738  1.00  0.00     0.174 C 
HETATM   13  C14 UNL     1       2.765  -0.743  -1.429  1.00  0.00     0.005 C 
HETATM   14  C15 UNL     1       3.142  -2.032  -1.406  1.00  0.00    -0.002 C 
HETATM   15  O4  UNL     1       4.107   0.318  -3.115  1.00  0.00    -0.219 OA
HETATM   16  C16 UNL     1       2.138  -0.303   1.265  1.00  0.00     0.007 C 
HETATM   17  O5  UNL     1      -0.727  -0.549  -2.096  1.00  0.00    -0.195 OA
HETATM   18  C17 UNL     1      -1.609  -2.885  -1.056  1.00  0.00     0.076 C 
HETATM   19  C18 UNL     1      -2.823  -1.941  -1.175  1.00  0.00     0.169 C 
HETATM   20  C19 UNL     1      -2.795  -0.729  -0.541  1.00  0.00     0.011 C 
HETATM   21  C20 UNL     1      -3.819   0.303  -0.964  1.00  0.00     0.034 C 
HETATM   22  O6  UNL     1      -3.705  -2.244  -1.947  1.00  0.00    -0.292 OA
HETATM   23  C21 UNL     1      -2.242  -2.672   1.576  1.00  0.00     0.005 C 
HETATM   24  C22 UNL     1      -0.400  -1.424   2.307  1.00  0.00     0.005 C 
ENDROOT
BRANCH   8  25
HETATM   25  O1  UNL     1      -1.841   1.217   2.073  1.00  0.00    -0.279 OA
BRANCH  25  26
HETATM   26  C9  UNL     1      -1.934   2.545   2.364  1.00  0.00     0.277 C 
HETATM   27  C10 UNL     1      -2.525   2.739   3.745  1.00  0.00     0.107 C 
HETATM   28  O2  UNL     1      -1.598   3.439   1.619  1.00  0.00    -0.264 OA
ENDBRANCH  25  26
ENDBRANCH   8  25
TORSDOF 2
