REMARK  8 active torsions:
REMARK  status: ('A' for Active; 'I' for Inactive)
REMARK    1  A    between atoms: C4_4  and  O8_28 
REMARK    2  A    between atoms: C7_7  and  O3_13 
REMARK    3  A    between atoms: C8_8  and  O1_9 
REMARK    4  A    between atoms: O1_9  and  C9_10 
REMARK    5  A    between atoms: O3_13  and  C11_14 
REMARK    6  A    between atoms: C13_17  and  O6_23 
REMARK    7  A    between atoms: O6_23  and  C18_24 
REMARK    8  A    between atoms: O8_28  and  C21_29 
ROOT
HETATM    1  C1  UNL     1      -1.890  -0.803   0.660  1.00  0.00    -0.020 C 
HETATM    2  C2  UNL     1      -1.330  -2.158   1.079  1.00  0.00     0.023 C 
HETATM    3  C3  UNL     1      -0.791  -2.691  -0.261  1.00  0.00     0.052 C 
HETATM    4  C4  UNL     1       0.163  -1.739  -1.050  1.00  0.00     0.076 C 
HETATM    5  C5  UNL     1       1.308  -0.864  -0.439  1.00  0.00    -0.001 C 
HETATM    6  C6  UNL     1       1.241   0.375   0.541  1.00  0.00     0.074 C 
HETATM    7  C7  UNL     1      -0.140   1.099   0.648  1.00  0.00     0.162 C 
HETATM    8  C8  UNL     1      -1.385   0.467   1.318  1.00  0.00     0.170 C 
HETATM    9  C13 UNL     1       2.334   1.378  -0.043  1.00  0.00     0.133 C 
HETATM   10  C14 UNL     1       3.744   0.759  -0.093  1.00  0.00     0.068 C 
HETATM   11  C15 UNL     1       3.812  -0.611  -0.777  1.00  0.00     0.177 C 
HETATM   12  C16 UNL     1       2.675  -1.515  -0.347  1.00  0.00     0.006 C 
HETATM   13  C17 UNL     1       2.884  -2.780   0.047  1.00  0.00    -0.002 C 
HETATM   14  O5  UNL     1       3.780  -0.431  -2.183  1.00  0.00    -0.218 OA
HETATM   15  C20 UNL     1       1.801   0.119   1.976  1.00  0.00     0.009 C 
HETATM   16  C23 UNL     1      -2.013  -3.123  -1.104  1.00  0.00     0.044 C 
HETATM   17  C24 UNL     1      -3.122  -2.060  -1.142  1.00  0.00     0.170 C 
HETATM   18  C25 UNL     1      -2.814  -0.801  -0.333  1.00  0.00    -0.020 C 
HETATM   19  C26 UNL     1      -3.610   0.400  -0.801  1.00  0.00     0.028 C 
HETATM   20  O10 UNL     1      -3.386  -1.755  -2.504  1.00  0.00    -0.219 OA
HETATM   21  C27 UNL     1      -2.480  -2.962   1.746  1.00  0.00     0.004 C 
HETATM   22  C28 UNL     1      -0.200  -2.337   2.111  1.00  0.00     0.004 C 
ENDROOT
BRANCH   4  23
HETATM   23  O8  UNL     1      -0.564  -0.951  -1.967  1.00  0.00    -0.281 OA
BRANCH  23  24
HETATM   24  C21 UNL     1      -0.364  -1.114  -3.308  1.00  0.00     0.276 C 
HETATM   25  C22 UNL     1      -1.140  -0.091  -4.112  1.00  0.00     0.107 C 
HETATM   26  O9  UNL     1       0.347  -1.949  -3.821  1.00  0.00    -0.264 OA
ENDBRANCH  23  24
ENDBRANCH   4  23
BRANCH   7  27
HETATM   27  O3  UNL     1      -0.501   1.553  -0.632  1.00  0.00    -0.301 OA
BRANCH  27  28
HETATM   28  C11 UNL     1      -0.657   2.888  -0.858  1.00  0.00     0.272 C 
HETATM   29  C12 UNL     1      -0.935   3.142  -2.325  1.00  0.00     0.106 C 
HETATM   30  O4  UNL     1      -0.562   3.762  -0.027  1.00  0.00    -0.264 OA
ENDBRANCH  27  28
ENDBRANCH   7  27
BRANCH   9  31
HETATM   31  O6  UNL     1       2.234   2.625   0.600  1.00  0.00    -0.304 OA
BRANCH  31  32
HETATM   32  C18 UNL     1       3.262   3.333   1.135  1.00  0.00     0.272 C 
HETATM   33  C19 UNL     1       2.709   4.560   1.835  1.00  0.00     0.106 C 
HETATM   34  O7  UNL     1       4.438   3.056   1.108  1.00  0.00    -0.264 OA
ENDBRANCH  31  32
ENDBRANCH   9  31
BRANCH   8  35
HETATM   35  O1  UNL     1      -1.276   0.310   2.712  1.00  0.00    -0.298 OA
BRANCH  35  36
HETATM   36  C9  UNL     1      -1.429   1.391   3.525  1.00  0.00     0.273 C 
HETATM   37  C10 UNL     1      -1.244   0.982   4.972  1.00  0.00     0.106 C 
HETATM   38  O2  UNL     1      -1.673   2.517   3.157  1.00  0.00    -0.264 OA
ENDBRANCH  35  36
ENDBRANCH   8  35
TORSDOF 8
