REMARK  3 active torsions:
REMARK  status: ('A' for Active; 'I' for Inactive)
REMARK    1  A    between atoms: C7_9  and  C12_17 
REMARK    2  A    between atoms: C8_10  and  O4_13 
REMARK    3  A    between atoms: O4_13  and  C10_14 
ROOT
HETATM    1  C1  UNL     1      -3.445  -0.358   1.914  1.00  0.00     0.055 A 
HETATM    2  C2  UNL     1      -2.248  -0.958   2.048  1.00  0.00     0.138 A 
HETATM    3  C3  UNL     1      -1.141  -0.258   1.704  1.00  0.00     0.085 A 
HETATM    4  C4  UNL     1      -1.239   1.018   1.262  1.00  0.00     0.101 A 
HETATM    5  C5  UNL     1      -2.468   1.554   1.146  1.00  0.00     0.052 A 
HETATM    6  C6  UNL     1      -3.589   0.897   1.471  1.00  0.00     0.135 A 
HETATM    7  O1  UNL     1      -4.818   1.464   1.341  1.00  0.00    -0.190 OA
HETATM    8  O2  UNL     1      -0.177   1.785   0.860  1.00  0.00    -0.326 OA
HETATM    9  C7  UNL     1       0.957   1.097   0.406  1.00  0.00     0.179 C 
HETATM   10  C8  UNL     1       1.321   0.022   1.418  1.00  0.00     0.217 C 
HETATM   11  C9  UNL     1       0.100  -0.812   1.807  1.00  0.00     0.207 C 
HETATM   12  O3  UNL     1       0.323  -1.929   2.214  1.00  0.00    -0.288 OA
HETATM   13  O8  UNL     1      -2.253  -2.251   2.485  1.00  0.00    -0.190 OA
ENDROOT
BRANCH   9  14
HETATM   14  C12 UNL     1       0.815   0.630  -1.041  1.00  0.00     0.010 A 
HETATM   15  C13 UNL     1       1.645   1.101  -1.992  1.00  0.00     0.028 A 
HETATM   16  C14 UNL     1       1.556   0.739  -3.283  1.00  0.00     0.156 A 
HETATM   17  C15 UNL     1       0.600  -0.128  -3.659  1.00  0.00     0.156 A 
HETATM   18  O7  UNL     1       2.408   1.237  -4.221  1.00  0.00    -0.188 OA
HETATM   19  C16 UNL     1      -0.229  -0.616  -2.724  1.00  0.00     0.029 A 
HETATM   20  O6  UNL     1       0.484  -0.499  -4.962  1.00  0.00    -0.188 OA
HETATM   21  C17 UNL     1      -0.122  -0.248  -1.440  1.00  0.00     0.000 A 
ENDBRANCH   9  14
BRANCH  10  22
HETATM   22  O4  UNL     1       2.369  -0.755   0.881  1.00  0.00    -0.293 OA
BRANCH  22  23
HETATM   23  C10 UNL     1       3.320  -1.381   1.634  1.00  0.00     0.273 C 
HETATM   24  O5  UNL     1       4.159  -2.099   1.132  1.00  0.00    -0.264 OA
HETATM   25  C11 UNL     1       3.326  -1.092   3.126  1.00  0.00     0.106 C 
ENDBRANCH  22  23
ENDBRANCH  10  22
TORSDOF 3
