REMARK  1 active torsions:
REMARK  status: ('A' for Active; 'I' for Inactive)
REMARK    1  A    between atoms: C2_2  and  C3_3 
ROOT
HETATM    1  C3  UNL     1      -3.454  -1.698  -0.377  1.00  0.00     0.153 C 
HETATM    2  O1  UNL     1      -3.152  -0.305  -0.239  1.00  0.00    -0.331 OA
HETATM    3  C4  UNL     1      -1.786  -0.125  -0.264  1.00  0.00     0.092 A 
HETATM    4  C5  UNL     1      -1.126  -1.365  -0.255  1.00  0.00     0.003 A 
HETATM    5  C6  UNL     1      -2.129  -2.476  -0.156  1.00  0.00     0.061 C 
HETATM    6  C7  UNL     1       0.255  -1.464  -0.281  1.00  0.00    -0.000 A 
HETATM    7  C8  UNL     1       0.948  -0.239  -0.295  1.00  0.00     0.030 A 
HETATM    8  C9  UNL     1       0.293   1.003  -0.280  1.00  0.00     0.102 A 
HETATM    9  C10 UNL     1      -1.111   1.088  -0.266  1.00  0.00     0.049 A 
HETATM   10  O2  UNL     1       1.193   2.047  -0.257  1.00  0.00    -0.307 OA
HETATM   11  C11 UNL     1       2.437   1.465  -0.265  1.00  0.00     0.107 A 
HETATM   12  C12 UNL     1       2.345   0.106  -0.292  1.00  0.00     0.088 A 
HETATM   13  C13 UNL     1       3.560  -0.723  -0.295  1.00  0.00     0.302 A 
HETATM   14  O3  UNL     1       4.798  -0.142  -0.283  1.00  0.00    -0.273 OA
HETATM   15  C14 UNL     1       4.871   1.230  -0.222  1.00  0.00     0.107 A 
HETATM   16  C15 UNL     1       3.751   2.088  -0.210  1.00  0.00     0.046 A 
HETATM   17  C16 UNL     1       3.892   3.479  -0.140  1.00  0.00     0.006 A 
HETATM   18  C17 UNL     1       5.163   4.045  -0.084  1.00  0.00     0.028 A 
HETATM   19  C18 UNL     1       6.304   3.237  -0.099  1.00  0.00     0.133 A 
HETATM   20  C19 UNL     1       6.125   1.850  -0.168  1.00  0.00     0.052 A 
HETATM   21  O4  UNL     1       7.544   3.789  -0.043  1.00  0.00    -0.190 OA
HETATM   22  O5  UNL     1       3.442  -1.947  -0.314  1.00  0.00    -0.259 OA
ENDROOT
BRANCH   1  23
HETATM   23  C2  UNL     1      -4.678  -2.122   0.462  1.00  0.00     0.152 C 
HETATM   24  C1  UNL     1      -5.845  -2.530  -0.446  1.00  0.00     0.036 C 
HETATM   25  C20 UNL     1      -5.144  -1.027   1.426  1.00  0.00     0.036 C 
HETATM   26  O6  UNL     1      -4.361  -3.243   1.246  1.00  0.00    -0.224 OA
ENDBRANCH   1  23
TORSDOF 1
