REMARK  1 active torsions:
REMARK  status: ('A' for Active; 'I' for Inactive)
REMARK    1  A    between atoms: C12_13  and  C15_18 
ROOT
HETATM    1  C1  UNL     1      -3.011  -0.552  -1.450  1.00  0.00     0.001 C 
HETATM    2  C2  UNL     1      -3.595  -1.425  -0.342  1.00  0.00     0.004 C 
HETATM    3  C3  UNL     1      -2.511  -2.386   0.205  1.00  0.00     0.018 C 
HETATM    4  C4  UNL     1      -1.130  -1.648   0.377  1.00  0.00    -0.003 C 
HETATM    5  C5  UNL     1      -1.160  -0.087   0.331  1.00  0.00     0.039 C 
HETATM    6  C6  UNL     1      -1.990   0.432  -0.872  1.00  0.00     0.008 C 
HETATM    7  C7  UNL     1       0.230   0.562   0.160  1.00  0.00     0.009 A 
HETATM    8  C8  UNL     1       1.274  -0.168  -0.277  1.00  0.00     0.001 A 
HETATM    9  C9  UNL     1       1.174  -1.480  -0.543  1.00  0.00     0.041 C 
HETATM   10  C10 UNL     1       0.080  -2.249  -0.326  1.00  0.00     0.188 C 
HETATM   11  O1  UNL     1       0.168  -3.423  -0.608  1.00  0.00    -0.287 OA
HETATM   12  C11 UNL     1       2.467   0.418  -0.491  1.00  0.00    -0.001 A 
HETATM   13  C12 UNL     1       2.684   1.725  -0.288  1.00  0.00     0.018 A 
HETATM   14  C13 UNL     1       1.639   2.469   0.150  1.00  0.00     0.216 A 
HETATM   15  C14 UNL     1       0.427   1.886   0.353  1.00  0.00     0.166 A 
HETATM   16  O2  UNL     1      -0.541   2.775   0.716  1.00  0.00    -0.187 OA
HETATM   17  O3  UNL     1       1.739   3.660   0.344  1.00  0.00    -0.285 OA
HETATM   18  C18 UNL     1      -1.758   0.380   1.688  1.00  0.00     0.009 C 
HETATM   19  C19 UNL     1      -3.006  -2.961   1.559  1.00  0.00     0.004 C 
HETATM   20  C20 UNL     1      -2.495  -3.612  -0.748  1.00  0.00     0.004 C 
ENDROOT
BRANCH  13  21
HETATM   21  C15 UNL     1       4.040   2.387  -0.506  1.00  0.00     0.026 C 
HETATM   22  C16 UNL     1       4.953   1.692  -1.532  1.00  0.00     0.005 C 
HETATM   23  C17 UNL     1       4.769   2.516   0.843  1.00  0.00     0.005 C 
ENDBRANCH  13  21
TORSDOF 1
