REMARK  13 active torsions:
REMARK  status: ('A' for Active; 'I' for Inactive)
REMARK    1  A    between atoms: C1_1  and  O13_43 
REMARK    2  A    between atoms: C3_3  and  C28_39 
REMARK    3  A    between atoms: C4_4  and  O8_27 
REMARK    4  A    between atoms: C7_7  and  O1_8 
REMARK    5  A    between atoms: O1_8  and  C8_9 
REMARK    6  A    between atoms: C10_12  and  O6_22 
REMARK    7  A    between atoms: C12_14  and  O4_18 
REMARK    8  A    between atoms: O4_18  and  C15_19 
REMARK    9  A    between atoms: O6_22  and  C17_23 
REMARK   10  A    between atoms: O8_27  and  C20_28 
REMARK   11  A    between atoms: C23_32  and  O10_35 
REMARK   12  A    between atoms: O10_35  and  C26_36 
REMARK   13  A    between atoms: O13_43  and  C31_44 
ROOT
HETATM    1  C1  UNL     1      -0.217   1.287   1.349  1.00  0.00     0.170 C 
HETATM    2  C2  UNL     1      -1.262   0.201   1.265  1.00  0.00    -0.016 C 
HETATM    3  C3  UNL     1      -1.005  -1.306   1.244  1.00  0.00     0.071 C 
HETATM    4  C4  UNL     1      -0.285  -1.657  -0.115  1.00  0.00     0.133 C 
HETATM    5  C5  UNL     1       0.251  -0.465  -1.008  1.00  0.00     0.063 C 
HETATM    6  C6  UNL     1       1.516   0.257  -0.358  1.00  0.00     0.059 C 
HETATM    7  C7  UNL     1       1.234   0.939   1.030  1.00  0.00     0.158 C 
HETATM    8  C10 UNL     1       2.027   1.426  -1.271  1.00  0.00     0.129 C 
HETATM    9  C11 UNL     1       2.363   1.014  -2.700  1.00  0.00     0.063 C 
HETATM   10  C12 UNL     1       1.132   0.434  -3.367  1.00  0.00     0.154 C 
HETATM   11  C13 UNL     1       0.480  -0.676  -2.539  1.00  0.00     0.148 A 
HETATM   12  O3  UNL     1       0.838  -2.178  -2.939  1.00  0.00    -0.351 OA
HETATM   13  C14 UNL     1      -0.314  -1.513  -3.401  1.00  0.00     0.172 A 
HETATM   14  C19 UNL     1       2.696  -0.752  -0.279  1.00  0.00     0.005 C 
HETATM   15  C22 UNL     1      -2.518  -1.745   1.302  1.00  0.00     0.043 C 
HETATM   16  C23 UNL     1      -3.402  -0.667   0.681  1.00  0.00     0.142 C 
HETATM   17  C24 UNL     1      -2.539   0.522   0.977  1.00  0.00    -0.022 C 
HETATM   18  C25 UNL     1      -3.155   1.887   0.825  1.00  0.00     0.028 C 
ENDROOT
BRANCH   1  19
HETATM   19  O13 UNL     1      -0.318   1.946   2.594  1.00  0.00    -0.298 OA
BRANCH  19  20
HETATM   20  C31 UNL     1      -0.073   3.284   2.646  1.00  0.00     0.273 C 
HETATM   21  C32 UNL     1      -0.181   3.776   4.074  1.00  0.00     0.106 C 
HETATM   22  O14 UNL     1       0.192   3.980   1.692  1.00  0.00    -0.264 OA
ENDBRANCH  19  20
ENDBRANCH   1  19
BRANCH   7  23
HETATM   23  O1  UNL     1       1.850   0.295   2.107  1.00  0.00    -0.301 OA
BRANCH  23  24
HETATM   24  C8  UNL     1       2.652   0.991   2.963  1.00  0.00     0.272 C 
HETATM   25  C9  UNL     1       3.231   0.059   4.009  1.00  0.00     0.106 C 
HETATM   26  O2  UNL     1       2.877   2.179   2.917  1.00  0.00    -0.264 OA
ENDBRANCH  23  24
ENDBRANCH   7  23
BRANCH   3  27
HETATM   27  C28 UNL     1      -0.365  -1.974   2.515  1.00  0.00     0.132 C 
HETATM   28  C29 UNL     1      -0.650  -1.236   3.832  1.00  0.00     0.033 C 
HETATM   29  O12 UNL     1       1.030  -2.022   2.398  1.00  0.00    -0.226 OA
HETATM   30  C30 UNL     1      -0.766  -3.451   2.707  1.00  0.00     0.033 C 
ENDBRANCH   3  27
BRANCH   4  31
HETATM   31  O8  UNL     1      -1.131  -2.505  -0.836  1.00  0.00    -0.304 OA
BRANCH  31  32
HETATM   32  C20 UNL     1      -0.842  -3.831  -0.988  1.00  0.00     0.272 C 
HETATM   33  C21 UNL     1      -1.974  -4.531  -1.715  1.00  0.00     0.106 C 
HETATM   34  O9  UNL     1       0.149  -4.397  -0.582  1.00  0.00    -0.264 OA
ENDBRANCH  31  32
ENDBRANCH   4  31
BRANCH  16  35
HETATM   35  O10 UNL     1      -3.571  -0.822  -0.704  1.00  0.00    -0.300 OA
BRANCH  35  36
HETATM   36  C26 UNL     1      -4.419  -1.808  -1.104  1.00  0.00     0.273 C 
HETATM   37  C27 UNL     1      -4.552  -1.812  -2.613  1.00  0.00     0.106 C 
HETATM   38  O11 UNL     1      -5.002  -2.566  -0.363  1.00  0.00    -0.264 OA
ENDBRANCH  35  36
ENDBRANCH  16  35
BRANCH   8  39
HETATM   39  O6  UNL     1       3.189   2.015  -0.736  1.00  0.00    -0.304 OA
BRANCH  39  40
HETATM   40  C17 UNL     1       3.381   3.350  -0.929  1.00  0.00     0.272 C 
HETATM   41  C18 UNL     1       4.593   3.818  -0.151  1.00  0.00     0.106 C 
HETATM   42  O7  UNL     1       2.675   4.064  -1.604  1.00  0.00    -0.264 OA
ENDBRANCH  39  40
ENDBRANCH   8  39
BRANCH  10  43
HETATM   43  O4  UNL     1       0.175   1.446  -3.596  1.00  0.00    -0.302 OA
BRANCH  43  44
HETATM   44  C15 UNL     1       0.346   2.261  -4.673  1.00  0.00     0.272 C 
HETATM   45  C16 UNL     1      -0.725   3.332  -4.695  1.00  0.00     0.106 C 
HETATM   46  O5  UNL     1       1.230   2.158  -5.493  1.00  0.00    -0.264 OA
ENDBRANCH  43  44
ENDBRANCH  10  43
TORSDOF 13
