REMARK  10 active torsions:
REMARK  status: ('A' for Active; 'I' for Inactive)
REMARK    1  A    between atoms: C2_2  and  O12_40 
REMARK    2  A    between atoms: C3_3  and  O10_36 
REMARK    3  A    between atoms: C6_6  and  O3_17 
REMARK    4  A    between atoms: O3_17  and  C15_18 
REMARK    5  A    between atoms: C18_22  and  O7_29 
REMARK    6  A    between atoms: C20_24  and  O5_25 
REMARK    7  A    between atoms: O5_25  and  C21_26 
REMARK    8  A    between atoms: O7_29  and  C23_30 
REMARK    9  A    between atoms: O10_36  and  C27_37 
REMARK   10  A    between atoms: O12_40  and  C29_41 
ROOT
HETATM    1  C1  UNL     1      -1.818   0.061   1.663  1.00  0.00    -0.018 C 
HETATM    2  C2  UNL     1      -0.544   0.668   2.219  1.00  0.00     0.170 C 
HETATM    3  C3  UNL     1       0.842   0.293   1.606  1.00  0.00     0.158 C 
HETATM    4  C4  UNL     1       1.014  -0.270   0.121  1.00  0.00     0.059 C 
HETATM    5  C5  UNL     1      -0.268  -0.060  -0.750  1.00  0.00     0.065 C 
HETATM    6  C6  UNL     1      -1.320  -1.217  -0.908  1.00  0.00     0.155 C 
HETATM    7  C7  UNL     1      -2.228  -1.802   0.242  1.00  0.00     0.158 C 
HETATM    8  C8  UNL     1      -1.988  -1.437   1.732  1.00  0.00     0.045 C 
HETATM    9  C9  UNL     1      -3.204  -1.684   2.687  1.00  0.00     0.007 C 
HETATM   10  C10 UNL     1      -0.916  -2.267   2.481  1.00  0.00     0.007 C 
HETATM   11  C11 UNL     1      -3.684  -1.370  -0.048  1.00  0.00     0.070 C 
HETATM   12  C12 UNL     1      -3.896   0.121   0.245  1.00  0.00     0.173 C 
HETATM   13  C13 UNL     1      -2.803   0.782   1.076  1.00  0.00    -0.019 C 
HETATM   14  C14 UNL     1      -2.874   2.295   1.078  1.00  0.00     0.028 C 
HETATM   15  O1  UNL     1      -3.995   0.792  -1.001  1.00  0.00    -0.219 OA
HETATM   16  O2  UNL     1      -2.219  -3.208   0.169  1.00  0.00    -0.223 OA
HETATM   17  C17 UNL     1       0.089   0.534  -2.132  1.00  0.00     0.148 A 
HETATM   18  C18 UNL     1       1.273  -0.077  -2.872  1.00  0.00     0.154 C 
HETATM   19  C19 UNL     1       2.538   0.105  -2.034  1.00  0.00     0.063 C 
HETATM   20  C20 UNL     1       2.248   0.433  -0.558  1.00  0.00     0.129 C 
HETATM   21  C25 UNL     1      -0.815   1.439  -2.791  1.00  0.00     0.172 A 
HETATM   22  O9  UNL     1       0.198   2.137  -2.111  1.00  0.00    -0.351 OA
HETATM   23  C26 UNL     1       1.443  -1.765   0.096  1.00  0.00     0.005 C 
ENDROOT
BRANCH   2  24
HETATM   24  O12 UNL     1      -0.528   0.473   3.619  1.00  0.00    -0.298 OA
BRANCH  24  25
HETATM   25  C29 UNL     1      -0.458   1.542   4.457  1.00  0.00     0.273 C 
HETATM   26  C30 UNL     1      -0.394   1.063   5.893  1.00  0.00     0.106 C 
HETATM   27  O13 UNL     1      -0.430   2.702   4.115  1.00  0.00    -0.264 OA
ENDBRANCH  24  25
ENDBRANCH   2  24
BRANCH   3  28
HETATM   28  O10 UNL     1       1.623   1.460   1.776  1.00  0.00    -0.301 OA
BRANCH  28  29
HETATM   29  C27 UNL     1       2.328   1.667   2.921  1.00  0.00     0.272 C 
HETATM   30  C28 UNL     1       2.936   3.056   2.903  1.00  0.00     0.106 C 
HETATM   31  O11 UNL     1       2.437   0.879   3.831  1.00  0.00    -0.264 OA
ENDBRANCH  28  29
ENDBRANCH   3  28
BRANCH  20  32
HETATM   32  O5  UNL     1       3.406   0.143   0.184  1.00  0.00    -0.304 OA
BRANCH  32  33
HETATM   33  C21 UNL     1       4.436   1.030   0.177  1.00  0.00     0.272 C 
HETATM   34  C22 UNL     1       5.535   0.549   1.102  1.00  0.00     0.106 C 
HETATM   35  O6  UNL     1       4.466   2.065  -0.449  1.00  0.00    -0.264 OA
ENDBRANCH  32  33
ENDBRANCH  20  32
BRANCH   6  36
HETATM   36  O3  UNL     1      -0.770  -2.272  -1.652  1.00  0.00    -0.302 OA
BRANCH  36  37
HETATM   37  C15 UNL     1      -1.181  -2.689  -2.887  1.00  0.00     0.272 C 
HETATM   38  C16 UNL     1      -2.199  -1.847  -3.634  1.00  0.00     0.106 C 
HETATM   39  O4  UNL     1      -0.722  -3.691  -3.394  1.00  0.00    -0.264 OA
ENDBRANCH  36  37
ENDBRANCH   6  36
BRANCH  18  40
HETATM   40  O7  UNL     1       1.442   0.437  -4.173  1.00  0.00    -0.302 OA
BRANCH  40  41
HETATM   41  C23 UNL     1       2.352  -0.167  -4.984  1.00  0.00     0.272 C 
HETATM   42  C24 UNL     1       2.466   0.585  -6.294  1.00  0.00     0.106 C 
HETATM   43  O8  UNL     1       2.988  -1.156  -4.700  1.00  0.00    -0.264 OA
ENDBRANCH  40  41
ENDBRANCH  18  40
TORSDOF 10
