REMARK  12 active torsions:
REMARK  status: ('A' for Active; 'I' for Inactive)
REMARK    1  A    between atoms: C2_2  and  O10_43 
REMARK    2  A    between atoms: C3_3  and  O8_39 
REMARK    3  A    between atoms: C10_10  and  O1_13 
REMARK    4  A    between atoms: O1_13  and  C13_14 
REMARK    5  A    between atoms: C16_19  and  O6_26 
REMARK    6  A    between atoms: C18_21  and  O4_22 
REMARK    7  A    between atoms: O4_22  and  C19_23 
REMARK    8  A    between atoms: O6_26  and  C21_27 
REMARK    9  A    between atoms: C21_27  and  C22_28 
REMARK   10  A    between atoms: C23_29  and  C24_30 
REMARK   11  A    between atoms: O8_39  and  C32_40 
REMARK   12  A    between atoms: O10_43  and  C34_44 
ROOT
HETATM    1  C1  UNL     1       1.531   2.140  -0.781  1.00  0.00    -0.020 C 
HETATM    2  C2  UNL     1       0.599   3.171  -0.168  1.00  0.00     0.170 C 
HETATM    3  C3  UNL     1      -0.322   2.578   0.937  1.00  0.00     0.161 C 
HETATM    4  C4  UNL     1      -0.835   1.097   0.816  1.00  0.00     0.071 C 
HETATM    5  C5  UNL     1       0.043   0.055   1.615  1.00  0.00    -0.012 C 
HETATM    6  C6  UNL     1       1.589  -0.081   1.616  1.00  0.00     0.171 C 
HETATM    7  C7  UNL     1       2.527   0.249   0.449  1.00  0.00     0.041 C 
HETATM    8  C8  UNL     1       2.634   1.742   0.164  1.00  0.00     0.027 C 
HETATM    9  C9  UNL     1       2.291  -0.568  -0.830  1.00  0.00     0.038 C 
HETATM   10  C10 UNL     1       2.401   0.270  -2.116  1.00  0.00     0.142 C 
HETATM   11  C11 UNL     1       1.517   1.513  -1.979  1.00  0.00    -0.022 C 
HETATM   12  C12 UNL     1       0.660   1.833  -3.183  1.00  0.00     0.028 C 
HETATM   13  O3  UNL     1       2.098   0.573   2.767  1.00  0.00    -0.219 OA
HETATM   14  C15 UNL     1      -0.652  -1.270   1.900  1.00  0.00    -0.000 C 
HETATM   15  C16 UNL     1      -1.838  -1.549   1.020  1.00  0.00     0.149 C 
HETATM   16  C17 UNL     1      -2.868  -0.473   1.378  1.00  0.00     0.065 C 
HETATM   17  C18 UNL     1      -2.273   0.962   1.447  1.00  0.00     0.133 C 
HETATM   18  C30 UNL     1      -0.323  -2.055   2.942  1.00  0.00    -0.003 C 
HETATM   19  C31 UNL     1      -1.117   0.818  -0.682  1.00  0.00     0.009 C 
ENDROOT
BRANCH  15  20
HETATM   20  O6  UNL     1      -2.369  -2.852   1.110  1.00  0.00    -0.296 OA
BRANCH  20  21
HETATM   21  C21 UNL     1      -1.594  -3.841   0.544  1.00  0.00     0.296 C 
HETATM   22  O7  UNL     1      -0.457  -3.571   0.231  1.00  0.00    -0.259 OA
BRANCH  21  23
HETATM   23  C22 UNL     1      -2.081  -5.097   0.355  1.00  0.00     0.068 C 
HETATM   24  C23 UNL     1      -1.526  -6.172  -0.240  1.00  0.00     0.005 C 
BRANCH  24  25
HETATM   25  C24 UNL     1      -0.425  -6.377  -0.997  1.00  0.00     0.000 A 
HETATM   26  C25 UNL     1      -0.012  -7.648  -1.193  1.00  0.00     0.000 A 
HETATM   27  C26 UNL     1       1.073  -7.947  -1.926  1.00  0.00     0.000 A 
HETATM   28  C27 UNL     1       1.774  -6.974  -2.522  1.00  0.00     0.000 A 
HETATM   29  C28 UNL     1       1.356  -5.708  -2.395  1.00  0.00     0.000 A 
HETATM   30  C29 UNL     1       0.270  -5.428  -1.657  1.00  0.00     0.000 A 
ENDBRANCH  24  25
ENDBRANCH  21  23
ENDBRANCH  20  21
ENDBRANCH  15  20
BRANCH  17  31
HETATM   31  O4  UNL     1      -2.244   1.421   2.772  1.00  0.00    -0.304 OA
BRANCH  31  32
HETATM   32  C19 UNL     1      -3.415   1.779   3.361  1.00  0.00     0.272 C 
HETATM   33  C20 UNL     1      -3.161   2.220   4.787  1.00  0.00     0.106 C 
HETATM   34  O5  UNL     1      -4.499   1.754   2.823  1.00  0.00    -0.264 OA
ENDBRANCH  31  32
ENDBRANCH  17  31
BRANCH   3  35
HETATM   35  O8  UNL     1       0.296   2.738   2.185  1.00  0.00    -0.301 OA
BRANCH  35  36
HETATM   36  C32 UNL     1       0.198   3.846   2.970  1.00  0.00     0.272 C 
HETATM   37  O9  UNL     1       0.798   3.924   4.021  1.00  0.00    -0.264 OA
HETATM   38  C33 UNL     1      -0.717   4.958   2.491  1.00  0.00     0.106 C 
ENDBRANCH  35  36
ENDBRANCH   3  35
BRANCH   2  39
HETATM   39  O10 UNL     1      -0.155   3.952  -1.065  1.00  0.00    -0.298 OA
BRANCH  39  40
HETATM   40  C34 UNL     1       0.503   4.900  -1.790  1.00  0.00     0.273 C 
HETATM   41  C35 UNL     1      -0.471   5.664  -2.663  1.00  0.00     0.106 C 
HETATM   42  O11 UNL     1       1.694   5.113  -1.735  1.00  0.00    -0.264 OA
ENDBRANCH  39  40
ENDBRANCH   2  39
BRANCH  10  43
HETATM   43  O1  UNL     1       2.014  -0.595  -3.163  1.00  0.00    -0.300 OA
BRANCH  43  44
HETATM   44  C13 UNL     1       2.602  -0.472  -4.382  1.00  0.00     0.273 C 
HETATM   45  C14 UNL     1       2.039  -1.513  -5.330  1.00  0.00     0.106 C 
HETATM   46  O2  UNL     1       3.449   0.341  -4.673  1.00  0.00    -0.264 OA
ENDBRANCH  43  44
ENDBRANCH  10  43
TORSDOF 12
