REMARK  6 active torsions:
REMARK  status: ('A' for Active; 'I' for Inactive)
REMARK    1  A    between atoms: C2_2  and  O7_31 
REMARK    2  A    between atoms: C3_3  and  O5_27 
REMARK    3  A    between atoms: C18_19  and  O2_20 
REMARK    4  A    between atoms: O2_20  and  C19_21 
REMARK    5  A    between atoms: O5_27  and  C23_28 
REMARK    6  A    between atoms: O7_31  and  C25_32 
ROOT
HETATM    1  C1  UNL     1       1.877   0.344  -0.999  1.00  0.00    -0.016 C 
HETATM    2  C2  UNL     1       0.912   1.432  -0.562  1.00  0.00     0.170 C 
HETATM    3  C3  UNL     1      -0.320   0.944   0.248  1.00  0.00     0.158 C 
HETATM    4  C4  UNL     1      -0.742  -0.575   0.300  1.00  0.00     0.058 C 
HETATM    5  C5  UNL     1       0.298  -1.458   1.085  1.00  0.00     0.025 C 
HETATM    6  C6  UNL     1       1.435  -2.185   0.325  1.00  0.00     0.005 C 
HETATM    7  C7  UNL     1       2.842  -1.549   0.104  1.00  0.00     0.011 C 
HETATM    8  C8  UNL     1       2.950  -0.015   0.026  1.00  0.00     0.018 C 
HETATM    9  C9  UNL     1       4.305   0.501  -0.553  1.00  0.00     0.004 C 
HETATM   10  C10 UNL     1       2.978   0.630   1.437  1.00  0.00     0.004 C 
HETATM   11  C11 UNL     1       3.392  -2.067  -1.238  1.00  0.00     0.069 C 
HETATM   12  C12 UNL     1       2.709  -1.365  -2.408  1.00  0.00     0.169 C 
HETATM   13  C13 UNL     1       1.911  -0.273  -2.209  1.00  0.00     0.007 C 
HETATM   14  C14 UNL     1       1.100   0.144  -3.428  1.00  0.00     0.033 C 
HETATM   15  O1  UNL     1       2.823  -1.886  -3.496  1.00  0.00    -0.292 OA
HETATM   16  C15 UNL     1      -0.395  -2.491   1.969  1.00  0.00    -0.015 C 
HETATM   17  C16 UNL     1      -1.568  -3.169   1.324  1.00  0.00     0.173 C 
HETATM   18  C17 UNL     1      -2.668  -2.123   1.188  1.00  0.00     0.068 C 
HETATM   19  C18 UNL     1      -2.119  -0.688   1.054  1.00  0.00     0.130 C 
HETATM   20  O4  UNL     1      -2.041  -4.272   2.074  1.00  0.00    -0.219 OA
HETATM   21  C21 UNL     1       0.024  -2.765   3.216  1.00  0.00    -0.007 C 
HETATM   22  C22 UNL     1      -1.059  -1.069  -1.133  1.00  0.00     0.005 C 
ENDROOT
BRANCH   2  23
HETATM   23  O7  UNL     1       0.491   2.312  -1.581  1.00  0.00    -0.298 OA
BRANCH  23  24
HETATM   24  C25 UNL     1       1.423   3.097  -2.187  1.00  0.00     0.273 C 
HETATM   25  C26 UNL     1       0.765   3.967  -3.238  1.00  0.00     0.106 C 
HETATM   26  O8  UNL     1       2.604   3.103  -1.924  1.00  0.00    -0.264 OA
ENDBRANCH  23  24
ENDBRANCH   2  23
BRANCH   3  27
HETATM   27  O5  UNL     1      -0.217   1.411   1.570  1.00  0.00    -0.301 OA
BRANCH  27  28
HETATM   28  C23 UNL     1      -0.730   2.583   2.041  1.00  0.00     0.272 C 
HETATM   29  O6  UNL     1      -0.597   2.913   3.201  1.00  0.00    -0.264 OA
HETATM   30  C24 UNL     1      -1.473   3.471   1.060  1.00  0.00     0.106 C 
ENDBRANCH  27  28
ENDBRANCH   3  27
BRANCH  19  31
HETATM   31  O2  UNL     1      -3.070   0.122   0.421  1.00  0.00    -0.304 OA
BRANCH  31  32
HETATM   32  C19 UNL     1      -4.276   0.332   1.012  1.00  0.00     0.272 C 
HETATM   33  C20 UNL     1      -5.179   1.108   0.073  1.00  0.00     0.106 C 
HETATM   34  O3  UNL     1      -4.594  -0.051   2.114  1.00  0.00    -0.264 OA
ENDBRANCH  31  32
ENDBRANCH  19  31
TORSDOF 6
