REMARK  6 active torsions:
REMARK  status: ('A' for Active; 'I' for Inactive)
REMARK    1  A    between atoms: C1_1  and  O9_40 
REMARK    2  A    between atoms: C3_3  and  O3_9 
REMARK    3  A    between atoms: O3_9  and  C7_10 
REMARK    4  A    between atoms: C21_24  and  C26_31 
REMARK    5  A    between atoms: C22_25  and  O4_27 
REMARK    6  A    between atoms: O4_27  and  C24_28 
ROOT
HETATM    1  C7  UNL     1      -3.420  -1.072   0.758  1.00  0.00     0.118 C 
HETATM    2  C8  UNL     1      -2.839  -1.520  -0.592  1.00  0.00     0.030 C 
HETATM    3  C9  UNL     1      -1.384  -1.049  -0.744  1.00  0.00     0.002 C 
HETATM    4  C10 UNL     1      -1.250   0.495  -0.695  1.00  0.00     0.000 C 
HETATM    5  C11 UNL     1      -1.745   0.891   0.717  1.00  0.00     0.003 C 
HETATM    6  C12 UNL     1      -3.185   0.425   1.000  1.00  0.00     0.030 C 
HETATM    7  C13 UNL     1       0.222   0.916  -1.010  1.00  0.00     0.002 C 
HETATM    8  C14 UNL     1       1.254  -0.218  -0.869  1.00  0.00     0.029 C 
HETATM    9  C15 UNL     1       0.877  -1.363  -1.839  1.00  0.00     0.003 C 
HETATM   10  C16 UNL     1      -0.641  -1.620  -1.956  1.00  0.00     0.000 C 
HETATM   11  C17 UNL     1       2.745   0.236  -0.841  1.00  0.00     0.132 C 
HETATM   12  C18 UNL     1       3.038   1.679  -1.338  1.00  0.00     0.043 C 
HETATM   13  C19 UNL     1       1.974   2.725  -0.932  1.00  0.00     0.006 C 
HETATM   14  C20 UNL     1       0.720   2.155  -0.263  1.00  0.00     0.001 C 
HETATM   15  C21 UNL     1       3.093   1.442  -2.871  1.00  0.00    -0.017 C 
HETATM   16  C22 UNL     1       3.770   0.077  -3.086  1.00  0.00     0.145 C 
HETATM   17  C23 UNL     1       3.698  -0.603  -1.710  1.00  0.00     0.065 C 
HETATM   18  C30 UNL     1       4.404   2.199  -0.828  1.00  0.00     0.007 C 
HETATM   19  O8  UNL     1       3.175   0.117   0.494  1.00  0.00    -0.226 OA
HETATM   20  C31 UNL     1      -2.133   1.212  -1.753  1.00  0.00     0.000 C 
ENDROOT
BRANCH   1  21
HETATM   21  O3  UNL     1      -2.860  -1.874   1.766  1.00  0.00    -0.333 OA
BRANCH  21  22
HETATM   22  C3  UNL     1      -3.436  -1.694   3.046  1.00  0.00     0.238 C 
HETATM   23  C2  UNL     1      -3.803  -3.037   3.656  1.00  0.00     0.094 C 
HETATM   24  C1  UNL     1      -4.326  -2.821   5.080  1.00  0.00     0.153 C 
HETATM   25  C5  UNL     1      -3.233  -2.068   5.834  1.00  0.00     0.206 C 
HETATM   26  C4  UNL     1      -2.810  -0.791   5.114  1.00  0.00     0.151 C 
HETATM   27  O2  UNL     1      -3.656  -1.773   7.144  1.00  0.00    -0.218 OA
HETATM   28  O1  UNL     1      -2.415  -1.077   3.800  1.00  0.00    -0.331 OA
HETATM   29  C6  UNL     1      -1.631  -0.107   5.810  1.00  0.00     0.035 C 
BRANCH  24  30
HETATM   30  O9  UNL     1      -5.508  -2.065   4.998  1.00  0.00    -0.351 OA
HETATM   31  C32 UNL     1      -6.508  -2.459   5.912  1.00  0.00     0.174 C 
ENDBRANCH  24  30
ENDBRANCH  21  22
ENDBRANCH   1  21
BRANCH  15  32
HETATM   32  C26 UNL     1       3.448   2.573  -3.809  1.00  0.00     0.008 A 
HETATM   33  C27 UNL     1       2.587   3.110  -4.692  1.00  0.00     0.066 A 
HETATM   34  C28 UNL     1       3.343   4.157  -5.400  1.00  0.00     0.296 A 
HETATM   35  O6  UNL     1       4.630   4.265  -4.973  1.00  0.00    -0.294 OA
HETATM   36  O7  UNL     1       2.860   4.854  -6.286  1.00  0.00    -0.259 OA
HETATM   37  C29 UNL     1       4.781   3.285  -3.948  1.00  0.00     0.178 A 
ENDBRANCH  15  32
BRANCH  16  38
HETATM   38  O4  UNL     1       5.101   0.216  -3.484  1.00  0.00    -0.300 OA
BRANCH  38  39
HETATM   39  C24 UNL     1       5.626  -0.313  -4.627  1.00  0.00     0.273 C 
HETATM   40  O5  UNL     1       6.782  -0.123  -4.941  1.00  0.00    -0.264 OA
HETATM   41  C25 UNL     1       4.711  -1.161  -5.493  1.00  0.00     0.106 C 
ENDBRANCH  38  39
ENDBRANCH  16  38
TORSDOF 6
