REMARK  8 active torsions:
REMARK  status: ('A' for Active; 'I' for Inactive)
REMARK    1  A    between atoms: C4_4  and  O8_28 
REMARK    2  A    between atoms: C7_7  and  O3_13 
REMARK    3  A    between atoms: C8_8  and  O1_9 
REMARK    4  A    between atoms: O1_9  and  C9_10 
REMARK    5  A    between atoms: O3_13  and  C11_14 
REMARK    6  A    between atoms: C13_17  and  O6_23 
REMARK    7  A    between atoms: O6_23  and  C18_24 
REMARK    8  A    between atoms: O8_28  and  C21_29 
ROOT
HETATM    1  C1  UNL     1      -1.969  -0.689   1.028  1.00  0.00    -0.016 C 
HETATM    2  C2  UNL     1      -1.502  -2.127   1.237  1.00  0.00     0.023 C 
HETATM    3  C3  UNL     1      -1.458  -2.645  -0.208  1.00  0.00     0.056 C 
HETATM    4  C4  UNL     1      -0.649  -1.769  -1.224  1.00  0.00     0.077 C 
HETATM    5  C5  UNL     1       0.712  -1.044  -0.942  1.00  0.00    -0.001 C 
HETATM    6  C6  UNL     1       1.028   0.194  -0.010  1.00  0.00     0.074 C 
HETATM    7  C7  UNL     1      -0.178   1.034   0.530  1.00  0.00     0.162 C 
HETATM    8  C8  UNL     1      -1.148   0.457   1.591  1.00  0.00     0.170 C 
HETATM    9  C13 UNL     1       1.932   1.125  -0.919  1.00  0.00     0.133 C 
HETATM   10  C14 UNL     1       2.927   0.394  -1.852  1.00  0.00     0.068 C 
HETATM   11  C15 UNL     1       3.205  -1.083  -1.557  1.00  0.00     0.177 C 
HETATM   12  C16 UNL     1       1.979  -1.863  -1.121  1.00  0.00     0.006 C 
HETATM   13  C17 UNL     1       2.062  -3.187  -0.919  1.00  0.00    -0.002 C 
HETATM   14  O5  UNL     1       3.762  -1.670  -2.724  1.00  0.00    -0.218 OA
HETATM   15  C20 UNL     1       1.977  -0.094   1.198  1.00  0.00     0.009 C 
HETATM   16  C23 UNL     1      -2.938  -2.802  -0.609  1.00  0.00     0.075 C 
HETATM   17  C24 UNL     1      -3.711  -1.511  -0.351  1.00  0.00     0.169 C 
HETATM   18  C25 UNL     1      -3.130  -0.492   0.349  1.00  0.00     0.007 C 
HETATM   19  C26 UNL     1      -3.886   0.824   0.251  1.00  0.00     0.033 C 
HETATM   20  O10 UNL     1      -4.784  -1.387  -0.900  1.00  0.00    -0.292 OA
HETATM   21  C27 UNL     1      -2.539  -2.779   2.196  1.00  0.00     0.004 C 
HETATM   22  C28 UNL     1      -0.169  -2.551   1.881  1.00  0.00     0.004 C 
ENDROOT
BRANCH   4  23
HETATM   23  O8  UNL     1      -1.522  -0.875  -1.873  1.00  0.00    -0.281 OA
BRANCH  23  24
HETATM   24  C21 UNL     1      -1.480  -0.733  -3.228  1.00  0.00     0.276 C 
HETATM   25  C22 UNL     1      -2.606   0.167  -3.693  1.00  0.00     0.107 C 
HETATM   26  O9  UNL     1      -0.685  -1.272  -3.965  1.00  0.00    -0.264 OA
ENDBRANCH  23  24
ENDBRANCH   4  23
BRANCH   7  27
HETATM   27  O3  UNL     1      -0.935   1.510  -0.552  1.00  0.00    -0.301 OA
BRANCH  27  28
HETATM   28  C11 UNL     1      -1.228   2.824  -0.790  1.00  0.00     0.272 C 
HETATM   29  O4  UNL     1      -1.839   3.169  -1.779  1.00  0.00    -0.264 OA
HETATM   30  C12 UNL     1      -0.801   3.843   0.251  1.00  0.00     0.106 C 
ENDBRANCH  27  28
ENDBRANCH   7  27
BRANCH   9  31
HETATM   31  O6  UNL     1       2.604   2.079  -0.143  1.00  0.00    -0.304 OA
BRANCH  31  32
HETATM   32  C18 UNL     1       3.044   3.222  -0.735  1.00  0.00     0.272 C 
HETATM   33  C19 UNL     1       3.720   4.111   0.290  1.00  0.00     0.106 C 
HETATM   34  O7  UNL     1       2.909   3.497  -1.905  1.00  0.00    -0.264 OA
ENDBRANCH  31  32
ENDBRANCH   9  31
BRANCH   8  35
HETATM   35  O1  UNL     1      -0.538   0.127   2.813  1.00  0.00    -0.297 OA
BRANCH  35  36
HETATM   36  C9  UNL     1      -0.101   1.122   3.632  1.00  0.00     0.273 C 
HETATM   37  C10 UNL     1       0.563   0.531   4.859  1.00  0.00     0.106 C 
HETATM   38  O2  UNL     1      -0.208   2.306   3.408  1.00  0.00    -0.264 OA
ENDBRANCH  35  36
ENDBRANCH   8  35
TORSDOF 8
