REMARK  13 active torsions:
REMARK  status: ('A' for Active; 'I' for Inactive)
REMARK    1  A    between atoms: C4_4  and  O10_32 
REMARK    2  A    between atoms: C7_7  and  O3_13 
REMARK    3  A    between atoms: C8_8  and  O1_9 
REMARK    4  A    between atoms: O1_9  and  C9_10 
REMARK    5  A    between atoms: O3_13  and  C11_14 
REMARK    6  A    between atoms: C13_17  and  O8_27 
REMARK    7  A    between atoms: C15_19  and  O6_23 
REMARK    8  A    between atoms: C16_20  and  C17_21 
REMARK    9  A    between atoms: O6_23  and  C18_24 
REMARK   10  A    between atoms: O8_27  and  C20_28 
REMARK   11  A    between atoms: O10_32  and  C23_33 
REMARK   12  A    between atoms: C26_37  and  O12_40 
REMARK   13  A    between atoms: O12_40  and  C29_41 
ROOT
HETATM    1  C1  UNL     1      -1.124  -1.078   1.798  1.00  0.00    -0.020 C 
HETATM    2  C2  UNL     1       0.109  -1.853   2.253  1.00  0.00     0.023 C 
HETATM    3  C3  UNL     1       0.505  -2.548   0.938  1.00  0.00     0.051 C 
HETATM    4  C4  UNL     1       0.603  -1.635  -0.330  1.00  0.00     0.073 C 
HETATM    5  C5  UNL     1       1.292  -0.216  -0.412  1.00  0.00    -0.017 C 
HETATM    6  C6  UNL     1       0.889   1.141   0.325  1.00  0.00     0.071 C 
HETATM    7  C7  UNL     1      -0.611   1.242   0.778  1.00  0.00     0.161 C 
HETATM    8  C8  UNL     1      -1.173   0.428   1.975  1.00  0.00     0.170 C 
HETATM    9  C13 UNL     1       1.182   2.264  -0.761  1.00  0.00     0.132 C 
HETATM   10  C14 UNL     1       2.651   2.265  -1.222  1.00  0.00     0.061 C 
HETATM   11  C15 UNL     1       3.077   0.948  -1.870  1.00  0.00     0.133 C 
HETATM   12  C16 UNL     1       2.736  -0.283  -1.005  1.00  0.00     0.081 C 
HETATM   13  C22 UNL     1       1.776   1.632   1.508  1.00  0.00     0.009 C 
HETATM   14  C25 UNL     1      -0.489  -3.713   0.734  1.00  0.00     0.041 C 
HETATM   15  C26 UNL     1      -1.962  -3.291   0.917  1.00  0.00     0.142 C 
HETATM   16  C27 UNL     1      -2.125  -1.794   1.221  1.00  0.00    -0.022 C 
HETATM   17  C28 UNL     1      -3.474  -1.238   0.807  1.00  0.00     0.028 C 
HETATM   18  C31 UNL     1      -0.294  -2.742   3.461  1.00  0.00     0.004 C 
HETATM   19  C32 UNL     1       1.405  -1.213   2.787  1.00  0.00     0.004 C 
ENDROOT
BRANCH   4  20
HETATM   20  O10 UNL     1      -0.625  -1.629  -1.023  1.00  0.00    -0.281 OA
BRANCH  20  21
HETATM   21  C23 UNL     1      -0.629  -1.704  -2.387  1.00  0.00     0.276 C 
HETATM   22  C24 UNL     1      -2.046  -1.703  -2.922  1.00  0.00     0.107 C 
HETATM   23  O11 UNL     1       0.354  -1.775  -3.088  1.00  0.00    -0.264 OA
ENDBRANCH  20  21
ENDBRANCH   4  20
BRANCH  12  24
HETATM   24  C17 UNL     1       3.833  -0.699  -0.023  1.00  0.00     0.189 C 
HETATM   25  O5  UNL     1       4.983  -1.128  -0.729  1.00  0.00    -0.220 OA
ENDBRANCH  12  24
BRANCH  15  26
HETATM   26  O12 UNL     1      -2.675  -3.718  -0.227  1.00  0.00    -0.300 OA
BRANCH  26  27
HETATM   27  C29 UNL     1      -3.905  -4.285  -0.073  1.00  0.00     0.273 C 
HETATM   28  C30 UNL     1      -4.468  -4.697  -1.418  1.00  0.00     0.106 C 
HETATM   29  O13 UNL     1      -4.477  -4.451   0.981  1.00  0.00    -0.264 OA
ENDBRANCH  26  27
ENDBRANCH  15  26
BRANCH   7  30
HETATM   30  O3  UNL     1      -1.421   1.005  -0.344  1.00  0.00    -0.301 OA
BRANCH  30  31
HETATM   31  C11 UNL     1      -2.415   1.823  -0.796  1.00  0.00     0.272 C 
HETATM   32  O4  UNL     1      -3.021   1.579  -1.818  1.00  0.00    -0.264 OA
HETATM   33  C12 UNL     1      -2.777   3.028   0.050  1.00  0.00     0.106 C 
ENDBRANCH  30  31
ENDBRANCH   7  30
BRANCH   9  34
HETATM   34  O8  UNL     1       0.858   3.546  -0.290  1.00  0.00    -0.304 OA
BRANCH  34  35
HETATM   35  C20 UNL     1       0.631   4.540  -1.192  1.00  0.00     0.272 C 
HETATM   36  C21 UNL     1       0.422   5.857  -0.471  1.00  0.00     0.106 C 
HETATM   37  O9  UNL     1       0.614   4.404  -2.394  1.00  0.00    -0.264 OA
ENDBRANCH  34  35
ENDBRANCH   9  34
BRANCH  11  38
HETATM   38  O6  UNL     1       2.424   0.824  -3.107  1.00  0.00    -0.304 OA
BRANCH  38  39
HETATM   39  C18 UNL     1       2.887   1.549  -4.161  1.00  0.00     0.272 C 
HETATM   40  C19 UNL     1       1.959   1.383  -5.347  1.00  0.00     0.106 C 
HETATM   41  O7  UNL     1       3.873   2.250  -4.151  1.00  0.00    -0.264 OA
ENDBRANCH  38  39
ENDBRANCH  11  38
BRANCH   8  42
HETATM   42  O1  UNL     1      -0.677   0.794   3.239  1.00  0.00    -0.298 OA
BRANCH  42  43
HETATM   43  C9  UNL     1      -1.038   1.984   3.790  1.00  0.00     0.273 C 
HETATM   44  C10 UNL     1      -0.396   2.139   5.154  1.00  0.00     0.106 C 
HETATM   45  O2  UNL     1      -1.764   2.803   3.275  1.00  0.00    -0.264 OA
ENDBRANCH  42  43
ENDBRANCH   8  42
TORSDOF 13
