REMARK  17 active torsions:
REMARK  status: ('A' for Active; 'I' for Inactive)
REMARK    1  A    between atoms: C4_4  and  O10_37 
REMARK    2  A    between atoms: C7_7  and  O3_18 
REMARK    3  A    between atoms: C8_8  and  O1_9 
REMARK    4  A    between atoms: O1_9  and  C9_10 
REMARK    5  A    between atoms: C9_10  and  C10_11 
REMARK    6  A    between atoms: O3_18  and  C16_19 
REMARK    7  A    between atoms: C18_22  and  O8_32 
REMARK    8  A    between atoms: C21_25  and  O6_28 
REMARK    9  A    between atoms: O6_28  and  C23_29 
REMARK   10  A    between atoms: O8_32  and  C25_33 
REMARK   11  A    between atoms: O10_37  and  C28_38 
REMARK   12  A    between atoms: C31_42  and  O12_45 
REMARK   13  A    between atoms: O12_45  and  C34_46 
REMARK   14  A    between atoms: C34_46  and  C35_47 
REMARK   15  A    between atoms: C35_47  and  C36_48 
REMARK   16  A    between atoms: C36_48  and  C37_49 
REMARK   17  A    between atoms: C36_48  and  N1_55 
ROOT
HETATM    1  C1  UNL     1       0.080   0.405   1.432  1.00  0.00    -0.018 C 
HETATM    2  C2  UNL     1       1.324  -0.398   1.839  1.00  0.00     0.045 C 
HETATM    3  C3  UNL     1       1.581  -1.188   0.535  1.00  0.00     0.158 C 
HETATM    4  C4  UNL     1       1.544  -0.312  -0.748  1.00  0.00     0.155 C 
HETATM    5  C5  UNL     1       2.477   0.947  -0.934  1.00  0.00     0.065 C 
HETATM    6  C6  UNL     1       2.087   2.424  -0.460  1.00  0.00     0.059 C 
HETATM    7  C7  UNL     1       0.579   2.540  -0.005  1.00  0.00     0.158 C 
HETATM    8  C8  UNL     1       0.112   1.931   1.349  1.00  0.00     0.170 C 
HETATM    9  C18 UNL     1       2.364   3.297  -1.752  1.00  0.00     0.129 C 
HETATM   10  C19 UNL     1       3.600   2.909  -2.599  1.00  0.00     0.062 C 
HETATM   11  C20 UNL     1       4.537   1.792  -2.141  1.00  0.00     0.146 C 
HETATM   12  C21 UNL     1       3.968   0.675  -1.248  1.00  0.00     0.156 C 
HETATM   13  C22 UNL     1       5.110   1.123  -0.324  1.00  0.00     0.172 C 
HETATM   14  O5  UNL     1       5.453   2.212  -1.160  1.00  0.00    -0.351 OA
HETATM   15  C27 UNL     1       2.931   3.167   0.620  1.00  0.00     0.005 C 
HETATM   16  C30 UNL     1       0.524  -2.310   0.503  1.00  0.00     0.068 C 
HETATM   17  C31 UNL     1      -0.901  -1.826   0.819  1.00  0.00     0.145 C 
HETATM   18  C32 UNL     1      -0.979  -0.307   0.960  1.00  0.00    -0.022 C 
HETATM   19  C33 UNL     1      -2.296   0.257   0.461  1.00  0.00     0.028 C 
HETATM   20  O14 UNL     1       2.842  -1.804   0.551  1.00  0.00    -0.223 OA
HETATM   21  C45 UNL     1       1.030  -1.200   3.136  1.00  0.00     0.007 C 
HETATM   22  C46 UNL     1       2.641   0.285   2.242  1.00  0.00     0.007 C 
ENDROOT
BRANCH  17  23
HETATM   23  O12 UNL     1      -1.840  -2.351  -0.097  1.00  0.00    -0.300 OA
BRANCH  23  24
HETATM   24  C34 UNL     1      -2.062  -3.695  -0.031  1.00  0.00     0.274 C 
HETATM   25  O13 UNL     1      -1.344  -4.481   0.544  1.00  0.00    -0.264 OA
BRANCH  24  26
HETATM   26  C35 UNL     1      -3.419  -4.076  -0.610  1.00  0.00     0.134 C 
BRANCH  26  27
HETATM   27  C36 UNL     1      -4.217  -5.062   0.281  1.00  0.00     0.252 C 
BRANCH  27  28
HETATM   28  C37 UNL     1      -5.215  -5.803  -0.602  1.00  0.00     0.009 A 
HETATM   29  C38 UNL     1      -5.077  -7.118  -0.855  1.00  0.00    -0.002 A 
HETATM   30  C39 UNL     1      -5.966  -7.774  -1.617  1.00  0.00    -0.000 A 
HETATM   31  C40 UNL     1      -7.014  -7.120  -2.140  1.00  0.00    -0.000 A 
HETATM   32  C41 UNL     1      -7.163  -5.809  -1.899  1.00  0.00    -0.000 A 
HETATM   33  C42 UNL     1      -6.269  -5.159  -1.138  1.00  0.00    -0.002 A 
ENDBRANCH  27  28
BRANCH  27  34
HETATM   34  N1  UNL     1      -4.928  -4.444   1.408  1.00  0.00     0.144 N 
HETATM   35  C43 UNL     1      -5.534  -5.459   2.264  1.00  0.00     0.286 C 
HETATM   36  C44 UNL     1      -4.097  -3.567   2.218  1.00  0.00     0.286 C 
ENDBRANCH  27  34
ENDBRANCH  26  27
ENDBRANCH  24  26
ENDBRANCH  23  24
ENDBRANCH  17  23
BRANCH   4  37
HETATM   37  O10 UNL     1       1.710  -1.189  -1.844  1.00  0.00    -0.302 OA
BRANCH  37  38
HETATM   38  C28 UNL     1       0.698  -1.374  -2.740  1.00  0.00     0.272 C 
HETATM   39  C29 UNL     1       1.133  -2.353  -3.812  1.00  0.00     0.106 C 
HETATM   40  O11 UNL     1      -0.386  -0.837  -2.700  1.00  0.00    -0.264 OA
ENDBRANCH  37  38
ENDBRANCH   4  37
BRANCH   8  41
HETATM   41  O1  UNL     1       0.732   2.518   2.460  1.00  0.00    -0.294 OA
BRANCH  41  42
HETATM   42  C9  UNL     1       0.123   3.137   3.532  1.00  0.00     0.296 C 
HETATM   43  O2  UNL     1       0.826   3.151   4.527  1.00  0.00    -0.259 OA
BRANCH  42  44
HETATM   44  C10 UNL     1      -1.094   3.759   3.680  1.00  0.00     0.063 A 
HETATM   45  C11 UNL     1      -1.468   4.177   4.912  1.00  0.00     0.005 A 
HETATM   46  C12 UNL     1      -2.643   4.784   5.147  1.00  0.00     0.000 A 
HETATM   47  C13 UNL     1      -3.498   5.013   4.142  1.00  0.00     0.000 A 
HETATM   48  C14 UNL     1      -3.147   4.635   2.906  1.00  0.00     0.000 A 
HETATM   49  C15 UNL     1      -1.969   4.027   2.689  1.00  0.00     0.005 A 
ENDBRANCH  42  44
ENDBRANCH  41  42
ENDBRANCH   8  41
BRANCH   7  50
HETATM   50  O3  UNL     1       0.209   3.896   0.038  1.00  0.00    -0.301 OA
BRANCH  50  51
HETATM   51  C16 UNL     1      -0.722   4.500  -0.756  1.00  0.00     0.272 C 
HETATM   52  O4  UNL     1      -0.927   5.694  -0.692  1.00  0.00    -0.264 OA
HETATM   53  C17 UNL     1      -1.529   3.623  -1.695  1.00  0.00     0.106 C 
ENDBRANCH  50  51
ENDBRANCH   7  50
BRANCH  12  54
HETATM   54  O6  UNL     1       4.156  -0.594  -1.789  1.00  0.00    -0.302 OA
BRANCH  54  55
HETATM   55  C23 UNL     1       5.327  -1.094  -2.266  1.00  0.00     0.272 C 
HETATM   56  C24 UNL     1       5.108  -2.521  -2.733  1.00  0.00     0.106 C 
HETATM   57  O7  UNL     1       6.389  -0.519  -2.333  1.00  0.00    -0.264 OA
ENDBRANCH  54  55
ENDBRANCH  12  54
BRANCH   9  58
HETATM   58  O8  UNL     1       2.436   4.671  -1.468  1.00  0.00    -0.304 OA
BRANCH  58  59
HETATM   59  C25 UNL     1       2.189   5.556  -2.470  1.00  0.00     0.272 C 
HETATM   60  C26 UNL     1       2.346   6.974  -1.960  1.00  0.00     0.106 C 
HETATM   61  O9  UNL     1       1.888   5.254  -3.603  1.00  0.00    -0.264 OA
ENDBRANCH  58  59
ENDBRANCH   9  58
TORSDOF 17
