REMARK  13 active torsions:
REMARK  status: ('A' for Active; 'I' for Inactive)
REMARK    1  A    between atoms: C5_5  and  C7_7 
REMARK    2  A    between atoms: C8_8  and  C9_9 
REMARK    3  A    between atoms: C9_9  and  O1_10 
REMARK    4  A    between atoms: O1_10  and  C10_11 
REMARK    5  A    between atoms: C11_12  and  O9_34 
REMARK    6  A    between atoms: C12_13  and  O7_30 
REMARK    7  A    between atoms: C13_14  and  O4_19 
REMARK    8  A    between atoms: C14_16  and  C15_17 
REMARK    9  A    between atoms: O4_19  and  C16_20 
REMARK   10  A    between atoms: C16_20  and  C17_21 
REMARK   11  A    between atoms: C17_21  and  C18_22 
REMARK   12  A    between atoms: O7_30  and  C24_31 
REMARK   13  A    between atoms: O9_34  and  C26_35 
ROOT
HETATM    1  C10 UNL     1       1.361  -0.084   0.377  1.00  0.00     0.184 C 
HETATM    2  C11 UNL     1       0.129   0.812   0.592  1.00  0.00     0.181 C 
HETATM    3  C12 UNL     1      -1.156  -0.031   0.672  1.00  0.00     0.210 C 
HETATM    4  C13 UNL     1      -1.021  -1.262   1.602  1.00  0.00     0.267 C 
HETATM    5  O2  UNL     1       0.158  -2.008   1.297  1.00  0.00    -0.326 OA
HETATM    6  C14 UNL     1       1.398  -1.301   1.328  1.00  0.00     0.181 C 
ENDROOT
BRANCH   1   7
HETATM    7  O1  UNL     1       1.346  -0.557  -0.965  1.00  0.00    -0.296 OA
BRANCH   7   8
HETATM    8  C9  UNL     1       1.715   0.379  -1.834  1.00  0.00     0.296 C 
HETATM    9  O14 UNL     1       2.053   1.496  -1.520  1.00  0.00    -0.259 OA
BRANCH   8  10
HETATM   10  C8  UNL     1       1.693  -0.020  -3.246  1.00  0.00     0.068 C 
HETATM   11  C7  UNL     1       1.402  -1.283  -3.598  1.00  0.00     0.005 C 
BRANCH  11  12
HETATM   12  C5  UNL     1       1.393  -1.643  -5.047  1.00  0.00     0.002 A 
HETATM   13  C4  UNL     1       1.719  -2.947  -5.453  1.00  0.00     0.002 A 
HETATM   14  C3  UNL     1       1.709  -3.281  -6.818  1.00  0.00     0.029 A 
HETATM   15  C2  UNL     1       1.371  -2.313  -7.781  1.00  0.00     0.156 A 
HETATM   16  C1  UNL     1       1.043  -1.006  -7.375  1.00  0.00     0.156 A 
HETATM   17  O15 UNL     1       1.363  -2.635  -9.059  1.00  0.00    -0.188 OA
HETATM   18  C6  UNL     1       1.055  -0.674  -6.010  1.00  0.00     0.029 A 
HETATM   19  O16 UNL     1       0.727  -0.094  -8.272  1.00  0.00    -0.188 OA
ENDBRANCH  11  12
ENDBRANCH   8  10
ENDBRANCH   7   8
ENDBRANCH   1   7
BRANCH   2  20
HETATM   20  O9  UNL     1       0.287   1.561   1.783  1.00  0.00    -0.326 OA
BRANCH  20  21
HETATM   21  C26 UNL     1       1.272   2.572   1.680  1.00  0.00     0.270 C 
HETATM   22  O10 UNL     1       2.451   2.111   2.342  1.00  0.00    -0.329 OA
HETATM   23  C27 UNL     1       3.297   3.100   2.932  1.00  0.00     0.151 C 
HETATM   24  C28 UNL     1       3.274   4.408   2.109  1.00  0.00     0.212 C 
HETATM   25  C31 UNL     1       4.686   2.465   3.053  1.00  0.00     0.035 C 
HETATM   26  C29 UNL     1       1.850   5.025   2.092  1.00  0.00     0.220 C 
HETATM   27  O13 UNL     1       4.184   5.338   2.674  1.00  0.00    -0.218 OA
HETATM   28  C30 UNL     1       0.775   3.916   2.274  1.00  0.00     0.241 C 
HETATM   29  O12 UNL     1       1.699   5.732   0.867  1.00  0.00    -0.218 OA
HETATM   30  O11 UNL     1      -0.480   4.295   1.725  1.00  0.00    -0.215 OA
ENDBRANCH  20  21
ENDBRANCH   2  20
BRANCH   6  31
HETATM   31  C15 UNL     1       1.779  -0.947   2.772  1.00  0.00     0.214 C 
HETATM   32  O3  UNL     1       1.756  -2.131   3.537  1.00  0.00    -0.218 OA
ENDBRANCH   6  31
BRANCH   3  33
HETATM   33  O7  UNL     1      -1.467  -0.494  -0.635  1.00  0.00    -0.296 OA
BRANCH  33  34
HETATM   34  C24 UNL     1      -1.984   0.461  -1.402  1.00  0.00     0.273 C 
HETATM   35  O8  UNL     1      -2.191   1.590  -1.021  1.00  0.00    -0.264 OA
HETATM   36  C25 UNL     1      -2.305   0.049  -2.812  1.00  0.00     0.106 C 
ENDBRANCH  33  34
ENDBRANCH   3  33
BRANCH   4  37
HETATM   37  O4  UNL     1      -1.102  -0.873   2.959  1.00  0.00    -0.329 OA
BRANCH  37  38
HETATM   38  C16 UNL     1      -1.336  -1.955   3.834  1.00  0.00     0.150 C 
BRANCH  38  39
HETATM   39  C17 UNL     1      -2.814  -1.943   4.223  1.00  0.00     0.059 C 
BRANCH  39  40
HETATM   40  C18 UNL     1      -3.682  -2.363   3.092  1.00  0.00    -0.018 A 
HETATM   41  C19 UNL     1      -4.428  -1.404   2.385  1.00  0.00     0.025 A 
HETATM   42  C20 UNL     1      -5.250  -1.797   1.313  1.00  0.00     0.156 A 
HETATM   43  C21 UNL     1      -5.326  -3.154   0.947  1.00  0.00     0.156 A 
HETATM   44  O6  UNL     1      -5.945  -0.891   0.654  1.00  0.00    -0.188 OA
HETATM   45  C22 UNL     1      -4.578  -4.111   1.656  1.00  0.00     0.029 A 
HETATM   46  O5  UNL     1      -6.094  -3.529  -0.057  1.00  0.00    -0.188 OA
HETATM   47  C23 UNL     1      -3.758  -3.719   2.727  1.00  0.00    -0.002 A 
ENDBRANCH  39  40
ENDBRANCH  38  39
ENDBRANCH  37  38
ENDBRANCH   4  37
TORSDOF 13
