REMARK  13 active torsions:
REMARK  status: ('A' for Active; 'I' for Inactive)
REMARK    1  A    between atoms: C4_4  and  O11_39 
REMARK    2  A    between atoms: C6_6  and  C13_17 
REMARK    3  A    between atoms: C7_7  and  O3_13 
REMARK    4  A    between atoms: C8_8  and  O1_9 
REMARK    5  A    between atoms: O1_9  and  C9_10 
REMARK    6  A    between atoms: O3_13  and  C11_14 
REMARK    7  A    between atoms: C14_19  and  O9_35 
REMARK    8  A    between atoms: C16_21  and  O7_24 
REMARK    9  A    between atoms: O7_24  and  C18_25 
REMARK   10  A    between atoms: C18_25  and  C19_26 
REMARK   11  A    between atoms: C20_27  and  C21_28 
REMARK   12  A    between atoms: O9_35  and  C27_36 
REMARK   13  A    between atoms: O11_39  and  C29_40 
ROOT
HETATM    1  C1  UNL     1       0.247   2.312   2.791  1.00  0.00     0.185 C 
HETATM    2  C2  UNL     1      -0.051   0.839   2.717  1.00  0.00     0.061 C 
HETATM    3  C3  UNL     1      -0.923  -0.066   3.562  1.00  0.00     0.044 C 
HETATM    4  C4  UNL     1      -0.838  -1.343   2.622  1.00  0.00     0.146 C 
HETATM    5  C5  UNL     1      -0.050  -1.351   1.154  1.00  0.00     0.027 C 
HETATM    6  C6  UNL     1       1.197  -0.446   0.467  1.00  0.00     0.104 C 
HETATM    7  C7  UNL     1       1.336   1.274   0.419  1.00  0.00     0.163 C 
HETATM    8  C8  UNL     1       1.258   2.396   1.598  1.00  0.00     0.183 C 
HETATM    9  C14 UNL     1       1.086  -0.846  -1.091  1.00  0.00     0.136 C 
HETATM   10  C15 UNL     1       0.989  -2.331  -1.516  1.00  0.00     0.069 C 
HETATM   11  C16 UNL     1      -0.093  -3.107  -0.772  1.00  0.00     0.188 C 
HETATM   12  C17 UNL     1       0.177  -2.806   0.701  1.00  0.00     0.195 C 
HETATM   13  O6  UNL     1       0.645  -3.668   1.411  1.00  0.00    -0.289 OA
HETATM   14  C31 UNL     1      -2.214   0.699   3.942  1.00  0.00     0.070 C 
HETATM   15  C32 UNL     1      -1.828   2.183   3.996  1.00  0.00     0.177 C 
HETATM   16  C33 UNL     1      -1.177   2.830   2.750  1.00  0.00     0.171 C 
HETATM   17  O13 UNL     1      -1.676   2.289   1.581  1.00  0.00    -0.349 OA
HETATM   18  C34 UNL     1      -1.095   1.011   1.513  1.00  0.00     0.145 C 
HETATM   19  C35 UNL     1      -1.365   4.344   2.746  1.00  0.00     0.040 C 
HETATM   20  O14 UNL     1      -1.799   2.797   5.039  1.00  0.00    -0.293 OA
HETATM   21  C36 UNL     1       1.326   0.169   3.063  1.00  0.00     0.005 C 
HETATM   22  O15 UNL     1       0.819   2.745   3.999  1.00  0.00    -0.220 OA
ENDROOT
BRANCH  11  23
HETATM   23  O7  UNL     1      -1.378  -2.699  -1.189  1.00  0.00    -0.293 OA
BRANCH  23  24
HETATM   24  C18 UNL     1      -1.746  -2.953  -2.488  1.00  0.00     0.296 C 
HETATM   25  O8  UNL     1      -1.180  -3.846  -3.078  1.00  0.00    -0.259 OA
BRANCH  24  26
HETATM   26  C19 UNL     1      -2.562  -2.079  -3.139  1.00  0.00     0.068 C 
HETATM   27  C20 UNL     1      -3.037  -2.059  -4.400  1.00  0.00     0.005 C 
BRANCH  27  28
HETATM   28  C21 UNL     1      -3.031  -2.920  -5.441  1.00  0.00     0.000 A 
HETATM   29  C22 UNL     1      -3.378  -2.449  -6.660  1.00  0.00     0.000 A 
HETATM   30  C23 UNL     1      -3.402  -3.229  -7.753  1.00  0.00     0.000 A 
HETATM   31  C24 UNL     1      -3.106  -4.531  -7.654  1.00  0.00     0.000 A 
HETATM   32  C25 UNL     1      -2.805  -5.037  -6.450  1.00  0.00     0.000 A 
HETATM   33  C26 UNL     1      -2.779  -4.241  -5.369  1.00  0.00     0.000 A 
ENDBRANCH  27  28
ENDBRANCH  24  26
ENDBRANCH  23  24
ENDBRANCH  11  23
BRANCH   9  34
HETATM   34  O9  UNL     1       2.169  -0.301  -1.801  1.00  0.00    -0.304 OA
BRANCH  34  35
HETATM   35  C27 UNL     1       2.007  -0.005  -3.119  1.00  0.00     0.272 C 
HETATM   36  C28 UNL     1       3.329   0.415  -3.727  1.00  0.00     0.106 C 
HETATM   37  O10 UNL     1       0.963  -0.085  -3.725  1.00  0.00    -0.264 OA
ENDBRANCH  34  35
ENDBRANCH   9  34
BRANCH   6  38
HETATM   38  C13 UNL     1       2.562  -1.152   0.825  1.00  0.00     0.191 C 
HETATM   39  O5  UNL     1       3.694  -0.324   0.655  1.00  0.00    -0.220 OA
ENDBRANCH   6  38
BRANCH   4  40
HETATM   40  O11 UNL     1      -0.414  -2.441   3.390  1.00  0.00    -0.300 OA
BRANCH  40  41
HETATM   41  C29 UNL     1      -1.175  -2.855   4.438  1.00  0.00     0.273 C 
HETATM   42  C30 UNL     1      -0.489  -3.998   5.158  1.00  0.00     0.106 C 
HETATM   43  O12 UNL     1      -2.242  -2.378   4.752  1.00  0.00    -0.264 OA
ENDBRANCH  40  41
ENDBRANCH   4  40
BRANCH   7  44
HETATM   44  O3  UNL     1       0.601   1.800  -0.671  1.00  0.00    -0.301 OA
BRANCH  44  45
HETATM   45  C11 UNL     1       1.157   2.617  -1.609  1.00  0.00     0.272 C 
HETATM   46  C12 UNL     1       0.092   3.073  -2.584  1.00  0.00     0.106 C 
HETATM   47  O4  UNL     1       2.317   2.955  -1.658  1.00  0.00    -0.264 OA
ENDBRANCH  44  45
ENDBRANCH   7  44
BRANCH   8  48
HETATM   48  O1  UNL     1       1.135   3.686   1.057  1.00  0.00    -0.299 OA
BRANCH  48  49
HETATM   49  C9  UNL     1       2.228   4.489   0.914  1.00  0.00     0.273 C 
HETATM   50  C10 UNL     1       1.817   5.800   0.274  1.00  0.00     0.106 C 
HETATM   51  O2  UNL     1       3.360   4.211   1.238  1.00  0.00    -0.264 OA
ENDBRANCH  48  49
ENDBRANCH   8  48
TORSDOF 13
