REMARK  9 active torsions:
REMARK  status: ('A' for Active; 'I' for Inactive)
REMARK    1  A    between atoms: C1_1  and  O10_36 
REMARK    2  A    between atoms: C7_7  and  C18_23 
REMARK    3  A    between atoms: C8_8  and  O4_19 
REMARK    4  A    between atoms: C13_13  and  O1_14 
REMARK    5  A    between atoms: O1_14  and  C14_15 
REMARK    6  A    between atoms: O4_19  and  C16_20 
REMARK    7  A    between atoms: C20_27  and  O8_30 
REMARK    8  A    between atoms: O8_30  and  C23_31 
REMARK    9  A    between atoms: O10_36  and  C27_37 
ROOT
HETATM    1  C1  UNL     1      -1.171   1.701   0.780  1.00  0.00     0.186 C 
HETATM    2  C2  UNL     1      -1.239   0.192   1.064  1.00  0.00    -0.017 C 
HETATM    3  C3  UNL     1      -0.081  -0.459   1.825  1.00  0.00     0.020 C 
HETATM    4  C4  UNL     1       0.111  -1.904   1.278  1.00  0.00     0.041 C 
HETATM    5  C5  UNL     1       0.472  -2.151  -0.210  1.00  0.00     0.174 C 
HETATM    6  C6  UNL     1       1.341  -1.191  -0.983  1.00  0.00     0.003 C 
HETATM    7  C7  UNL     1       2.649  -0.892  -0.963  1.00  0.00     0.014 C 
HETATM    8  C8  UNL     1       3.174   0.114  -1.986  1.00  0.00     0.148 C 
HETATM    9  C9  UNL     1       2.697   1.569  -1.801  1.00  0.00     0.072 C 
HETATM   10  C10 UNL     1       1.303   2.010  -2.300  1.00  0.00     0.175 C 
HETATM   11  C11 UNL     1       0.090   1.668  -1.446  1.00  0.00     0.007 C 
HETATM   12  C12 UNL     1      -1.042   1.006  -2.201  1.00  0.00     0.031 C 
HETATM   13  C13 UNL     1      -0.011   2.077  -0.161  1.00  0.00     0.107 C 
HETATM   14  O3  UNL     1       1.308   3.419  -2.494  1.00  0.00    -0.219 OA
HETATM   15  O7  UNL     1      -0.715  -2.275  -0.982  1.00  0.00    -0.219 OA
HETATM   16  C19 UNL     1      -1.133  -2.726   1.666  1.00  0.00     0.038 C 
HETATM   17  C20 UNL     1      -2.440  -2.049   1.223  1.00  0.00     0.142 C 
HETATM   18  C21 UNL     1      -2.328  -0.575   0.808  1.00  0.00    -0.022 C 
HETATM   19  C22 UNL     1      -3.617  -0.087   0.164  1.00  0.00     0.028 C 
HETATM   20  C25 UNL     1       1.285   0.263   1.831  1.00  0.00     0.004 C 
HETATM   21  C26 UNL     1      -0.474  -0.473   3.331  1.00  0.00     0.004 C 
ENDROOT
BRANCH   1  22
HETATM   22  O10 UNL     1      -1.017   2.445   1.982  1.00  0.00    -0.293 OA
BRANCH  22  23
HETATM   23  C27 UNL     1      -1.968   2.656   2.931  1.00  0.00     0.273 C 
HETATM   24  O11 UNL     1      -1.731   3.293   3.936  1.00  0.00    -0.264 OA
HETATM   25  C28 UNL     1      -3.342   2.073   2.682  1.00  0.00     0.106 C 
ENDBRANCH  22  23
ENDBRANCH   1  22
BRANCH  13  26
HETATM   26  O1  UNL     1       0.951   2.885   0.389  1.00  0.00    -0.279 OA
BRANCH  26  27
HETATM   27  C14 UNL     1       0.618   4.205   0.401  1.00  0.00     0.277 C 
HETATM   28  O2  UNL     1       0.010   4.744  -0.497  1.00  0.00    -0.264 OA
HETATM   29  C15 UNL     1       1.101   4.899   1.659  1.00  0.00     0.107 C 
ENDBRANCH  26  27
ENDBRANCH  13  26
BRANCH  17  30
HETATM   30  O8  UNL     1      -3.007  -2.825   0.186  1.00  0.00    -0.300 OA
BRANCH  30  31
HETATM   31  C23 UNL     1      -4.062  -3.675   0.340  1.00  0.00     0.273 C 
HETATM   32  O9  UNL     1      -4.499  -4.319  -0.590  1.00  0.00    -0.264 OA
HETATM   33  C24 UNL     1      -4.668  -3.792   1.726  1.00  0.00     0.106 C 
ENDBRANCH  30  31
ENDBRANCH  17  30
BRANCH   8  34
HETATM   34  O4  UNL     1       2.896  -0.287  -3.309  1.00  0.00    -0.300 OA
BRANCH  34  35
HETATM   35  C16 UNL     1       3.534  -1.388  -3.788  1.00  0.00     0.273 C 
HETATM   36  C17 UNL     1       3.078  -1.680  -5.203  1.00  0.00     0.106 C 
HETATM   37  O5  UNL     1       4.350  -2.045  -3.182  1.00  0.00    -0.264 OA
ENDBRANCH  34  35
ENDBRANCH   8  34
BRANCH   7  38
HETATM   38  C18 UNL     1       3.682  -1.471  -0.024  1.00  0.00     0.207 C 
HETATM   39  O6  UNL     1       3.217  -2.546   0.776  1.00  0.00    -0.216 OA
ENDBRANCH   7  38
TORSDOF 9
