REMARK  17 active torsions:
REMARK  status: ('A' for Active; 'I' for Inactive)
REMARK    1  A    between atoms: C1_1  and  C7_7 
REMARK    2  A    between atoms: C8_8  and  C9_9 
REMARK    3  A    between atoms: C9_9  and  O2_11 
REMARK    4  A    between atoms: O2_11  and  C10_12 
REMARK    5  A    between atoms: C12_14  and  O13_52 
REMARK    6  A    between atoms: C15_17  and  O3_18 
REMARK    7  A    between atoms: O3_18  and  C16_19 
REMARK    8  A    between atoms: C18_22  and  O11_48 
REMARK    9  A    between atoms: C21_25  and  O9_43 
REMARK   10  A    between atoms: C27_31  and  O7_39 
REMARK   11  A    between atoms: C29_33  and  C30_34 
REMARK   12  A    between atoms: C30_34  and  O5_35 
REMARK   13  A    between atoms: O5_35  and  C31_36 
REMARK   14  A    between atoms: O7_39  and  C33_40 
REMARK   15  A    between atoms: O9_43  and  C35_44 
REMARK   16  A    between atoms: O11_48  and  C38_49 
REMARK   17  A    between atoms: O13_52  and  C40_53 
ROOT
HETATM    1  C10 UNL     1      -2.012   1.809   0.445  1.00  0.00     0.148 C 
HETATM    2  C11 UNL     1      -2.213   0.531   1.291  1.00  0.00     0.069 C 
HETATM    3  C12 UNL     1      -1.965  -0.803   0.541  1.00  0.00     0.147 C 
HETATM    4  C13 UNL     1      -0.645  -1.445   0.918  1.00  0.00     0.005 C 
HETATM    5  C14 UNL     1      -0.592  -2.055   2.299  1.00  0.00     0.031 C 
HETATM    6  C15 UNL     1       0.414  -1.463   0.070  1.00  0.00     0.106 C 
HETATM    7  C18 UNL     1       1.781  -2.027   0.434  1.00  0.00     0.186 C 
HETATM    8  C19 UNL     1       2.832  -0.932   0.529  1.00  0.00    -0.017 C 
HETATM    9  C20 UNL     1       3.848  -0.846  -0.365  1.00  0.00    -0.022 C 
HETATM   10  C21 UNL     1       4.902   0.236  -0.207  1.00  0.00     0.142 C 
HETATM   11  C22 UNL     1       4.375   1.596   0.322  1.00  0.00     0.038 C 
HETATM   12  C23 UNL     1       2.986   1.522   1.008  1.00  0.00     0.038 C 
HETATM   13  C24 UNL     1       2.779   0.109   1.645  1.00  0.00     0.020 C 
HETATM   14  C25 UNL     1       1.500   0.061   2.481  1.00  0.00     0.004 C 
HETATM   15  C26 UNL     1       3.916  -0.199   2.629  1.00  0.00     0.004 C 
HETATM   16  C27 UNL     1       1.883   1.984   0.010  1.00  0.00     0.146 C 
HETATM   17  C28 UNL     1       0.465   2.006   0.549  1.00  0.00    -0.000 C 
HETATM   18  C29 UNL     1      -0.646   1.912  -0.211  1.00  0.00     0.011 C 
HETATM   19  C37 UNL     1       3.979  -1.793  -1.535  1.00  0.00     0.028 C 
ENDROOT
BRANCH   1  20
HETATM   20  O2  UNL     1      -3.037   1.865  -0.539  1.00  0.00    -0.297 OA
BRANCH  20  21
HETATM   21  C9  UNL     1      -3.932   2.818  -0.285  1.00  0.00     0.296 C 
HETATM   22  O1  UNL     1      -4.004   3.856  -0.900  1.00  0.00    -0.259 OA
BRANCH  21  23
HETATM   23  C8  UNL     1      -4.861   2.541   0.816  1.00  0.00     0.068 C 
HETATM   24  C7  UNL     1      -5.729   1.520   0.740  1.00  0.00     0.005 C 
BRANCH  24  25
HETATM   25  C1  UNL     1      -6.656   1.277   1.885  1.00  0.00     0.000 A 
HETATM   26  C2  UNL     1      -7.107  -0.025   2.164  1.00  0.00     0.000 A 
HETATM   27  C3  UNL     1      -7.979  -0.252   3.242  1.00  0.00     0.000 A 
HETATM   28  C4  UNL     1      -8.400   0.822   4.045  1.00  0.00     0.000 A 
HETATM   29  C5  UNL     1      -7.949   2.125   3.768  1.00  0.00     0.000 A 
HETATM   30  C6  UNL     1      -7.078   2.352   2.690  1.00  0.00     0.000 A 
ENDBRANCH  24  25
ENDBRANCH  21  23
ENDBRANCH  20  21
ENDBRANCH   1  20
BRANCH  18  31
HETATM   31  C30 UNL     1      -0.584   1.900  -1.721  1.00  0.00     0.176 C 
BRANCH  31  32
HETATM   32  O5  UNL     1      -1.609   2.732  -2.242  1.00  0.00    -0.297 OA
BRANCH  32  33
HETATM   33  C31 UNL     1      -1.145   3.625  -3.111  1.00  0.00     0.273 C 
HETATM   34  O6  UNL     1      -0.080   4.188  -2.994  1.00  0.00    -0.264 OA
HETATM   35  C32 UNL     1      -2.045   3.906  -4.285  1.00  0.00     0.106 C 
ENDBRANCH  32  33
ENDBRANCH  31  32
ENDBRANCH  18  31
BRANCH   3  36
HETATM   36  O13 UNL     1      -3.006  -1.713   0.869  1.00  0.00    -0.300 OA
BRANCH  36  37
HETATM   37  C40 UNL     1      -3.068  -2.738   0.023  1.00  0.00     0.273 C 
HETATM   38  O14 UNL     1      -2.305  -2.897  -0.900  1.00  0.00    -0.264 OA
HETATM   39  C41 UNL     1      -4.178  -3.721   0.287  1.00  0.00     0.106 C 
ENDBRANCH  36  37
ENDBRANCH   3  36
BRANCH  16  40
HETATM   40  O7  UNL     1       1.959   1.182  -1.160  1.00  0.00    -0.300 OA
BRANCH  40  41
HETATM   41  C33 UNL     1       2.600   1.791  -2.152  1.00  0.00     0.273 C 
HETATM   42  C34 UNL     1       2.938   0.916  -3.330  1.00  0.00     0.106 C 
HETATM   43  O8  UNL     1       2.904   2.961  -2.141  1.00  0.00    -0.264 OA
ENDBRANCH  40  41
ENDBRANCH  16  40
BRANCH   6  44
HETATM   44  O3  UNL     1       0.264  -0.969  -1.156  1.00  0.00    -0.279 OA
BRANCH  44  45
HETATM   45  C16 UNL     1       0.219  -1.965  -2.035  1.00  0.00     0.277 C 
HETATM   46  O4  UNL     1       0.277  -3.135  -1.730  1.00  0.00    -0.264 OA
HETATM   47  C17 UNL     1       0.084  -1.545  -3.475  1.00  0.00     0.107 C 
ENDBRANCH  44  45
ENDBRANCH   6  44
BRANCH   7  48
HETATM   48  O11 UNL     1       1.818  -2.795   1.627  1.00  0.00    -0.293 OA
BRANCH  48  49
HETATM   49  C38 UNL     1       1.637  -4.094   1.402  1.00  0.00     0.273 C 
HETATM   50  C39 UNL     1       2.899  -4.895   1.221  1.00  0.00     0.106 C 
HETATM   51  O12 UNL     1       0.551  -4.619   1.340  1.00  0.00    -0.264 OA
ENDBRANCH  48  49
ENDBRANCH   7  48
BRANCH  10  52
HETATM   52  O9  UNL     1       5.584   0.449  -1.437  1.00  0.00    -0.300 OA
BRANCH  52  53
HETATM   53  C35 UNL     1       6.658  -0.324  -1.562  1.00  0.00     0.273 C 
HETATM   54  O10 UNL     1       6.828  -1.346  -0.939  1.00  0.00    -0.264 OA
HETATM   55  C36 UNL     1       7.682   0.158  -2.553  1.00  0.00     0.106 C 
ENDBRANCH  52  53
ENDBRANCH  10  52
TORSDOF 17
