REMARK  12 active torsions:
REMARK  status: ('A' for Active; 'I' for Inactive)
REMARK    1  A    between atoms: C7_7  and  O3_13 
REMARK    2  A    between atoms: C8_8  and  O1_9 
REMARK    3  A    between atoms: O1_9  and  C9_10 
REMARK    4  A    between atoms: O3_13  and  C11_14 
REMARK    5  A    between atoms: C16_20  and  O5_23 
REMARK    6  A    between atoms: O5_23  and  C19_24 
REMARK    7  A    between atoms: C19_24  and  C20_26 
REMARK    8  A    between atoms: C20_26  and  C21_27 
REMARK    9  A    between atoms: C21_27  and  C22_28 
REMARK   10  A    between atoms: C21_27  and  N1_34 
REMARK   11  A    between atoms: C31_39  and  O8_42 
REMARK   12  A    between atoms: O8_42  and  C34_43 
ROOT
HETATM    1  C1  UNL     1       4.677   1.421  -0.027  1.00  0.00    -0.021 C 
HETATM    2  C2  UNL     1       4.094   0.372  -0.430  1.00  0.00     0.019 C 
HETATM    3  C3  UNL     1       4.347  -0.938  -0.760  1.00  0.00     0.037 C 
HETATM    4  C4  UNL     1       2.707  -1.604  -1.037  1.00  0.00     0.156 C 
HETATM    5  C5  UNL     1       1.367  -1.126   0.001  1.00  0.00     0.053 C 
HETATM    6  C6  UNL     1       0.664   0.651   0.010  1.00  0.00     0.034 C 
HETATM    7  C7  UNL     1       1.675   2.317  -0.185  1.00  0.00     0.156 C 
HETATM    8  C8  UNL     1       3.417   2.677   0.419  1.00  0.00     0.170 C 
HETATM    9  C13 UNL     1      -0.243   0.832  -1.245  1.00  0.00     0.003 C 
HETATM   10  C14 UNL     1      -0.221   0.539   1.345  1.00  0.00     0.006 C 
HETATM   11  C15 UNL     1      -1.091  -0.863   1.536  1.00  0.00     0.035 C 
HETATM   12  C16 UNL     1      -1.167  -1.808   0.261  1.00  0.00     0.143 C 
HETATM   13  C17 UNL     1       0.209  -2.110  -0.155  1.00  0.00    -0.015 C 
HETATM   14  C18 UNL     1       0.449  -3.392  -0.412  1.00  0.00    -0.007 C 
HETATM   15  O7  UNL     1       3.009  -2.999  -1.013  1.00  0.00    -0.223 OA
HETATM   16  C30 UNL     1       5.334  -1.339   0.346  1.00  0.00     0.037 C 
HETATM   17  C31 UNL     1       6.578  -0.311  -0.031  1.00  0.00     0.142 C 
HETATM   18  C32 UNL     1       6.040   1.235   0.216  1.00  0.00    -0.022 C 
HETATM   19  C33 UNL     1       6.888   2.267   0.857  1.00  0.00     0.028 C 
HETATM   20  C36 UNL     1       3.624   0.316   1.211  1.00  0.00     0.004 C 
HETATM   21  C37 UNL     1       3.576   0.795  -1.889  1.00  0.00     0.004 C 
ENDROOT
BRANCH  12  22
HETATM   22  O5  UNL     1      -1.724  -3.146   0.336  1.00  0.00    -0.297 OA
BRANCH  22  23
HETATM   23  C19 UNL     1      -3.070  -3.378   0.534  1.00  0.00     0.294 C 
HETATM   24  O6  UNL     1      -3.864  -2.455   0.726  1.00  0.00    -0.259 OA
BRANCH  23  25
HETATM   25  C20 UNL     1      -3.479  -4.869   0.376  1.00  0.00     0.079 C 
BRANCH  25  26
HETATM   26  C21 UNL     1      -4.973  -5.437   0.461  1.00  0.00     0.269 C 
BRANCH  26  27
HETATM   27  C22 UNL     1      -4.769  -7.013   0.317  1.00  0.00     0.013 A 
HETATM   28  C23 UNL     1      -3.538  -7.476   0.073  1.00  0.00    -0.002 A 
HETATM   29  C24 UNL     1      -3.280  -8.919  -0.066  1.00  0.00    -0.000 A 
HETATM   30  C25 UNL     1      -4.276  -9.793   0.046  1.00  0.00    -0.000 A 
HETATM   31  C26 UNL     1      -5.628  -9.316   0.323  1.00  0.00    -0.000 A 
HETATM   32  C27 UNL     1      -5.864  -8.011   0.462  1.00  0.00    -0.002 A 
ENDBRANCH  26  27
BRANCH  26  33
HETATM   33  N1  UNL     1      -5.968  -4.891  -0.623  1.00  0.00     0.148 N 
HETATM   34  C28 UNL     1      -7.337  -5.434  -0.490  1.00  0.00     0.286 C 
HETATM   35  C29 UNL     1      -6.168  -3.443  -0.582  1.00  0.00     0.286 C 
ENDBRANCH  26  33
ENDBRANCH  25  26
ENDBRANCH  23  25
ENDBRANCH  22  23
ENDBRANCH  12  22
BRANCH   7  36
HETATM   36  O3  UNL     1       0.942   3.559   0.226  1.00  0.00    -0.301 OA
BRANCH  36  37
HETATM   37  C11 UNL     1      -0.182   4.073  -0.463  1.00  0.00     0.272 C 
HETATM   38  O4  UNL     1      -0.602   3.581  -1.509  1.00  0.00    -0.264 OA
HETATM   39  C12 UNL     1      -0.830   5.324   0.064  1.00  0.00     0.106 C 
ENDBRANCH  36  37
ENDBRANCH   7  36
BRANCH   8  40
HETATM   40  O1  UNL     1       3.743   3.982  -0.203  1.00  0.00    -0.298 OA
BRANCH  40  41
HETATM   41  C9  UNL     1       4.624   4.917   0.445  1.00  0.00     0.273 C 
HETATM   42  O2  UNL     1       4.949   5.935  -0.179  1.00  0.00    -0.264 OA
HETATM   43  C10 UNL     1       5.051   4.807   1.892  1.00  0.00     0.106 C 
ENDBRANCH  40  41
ENDBRANCH   8  40
BRANCH  17  44
HETATM   44  O8  UNL     1       7.785  -0.656   0.725  1.00  0.00    -0.300 OA
BRANCH  44  45
HETATM   45  C34 UNL     1       9.049  -0.201   0.193  1.00  0.00     0.273 C 
HETATM   46  O9  UNL     1      10.076  -0.461   0.826  1.00  0.00    -0.264 OA
HETATM   47  C35 UNL     1       9.192   0.504  -1.150  1.00  0.00     0.106 C 
ENDBRANCH  44  45
ENDBRANCH  17  44
TORSDOF 12
