REMARK  4 active torsions:
REMARK  status: ('A' for Active; 'I' for Inactive)
REMARK    1  A    between atoms: C12_13  and  O2_16 
REMARK    2  A    between atoms: O2_16  and  C15_17 
REMARK    3  A    between atoms: C17_21  and  O5_25 
REMARK    4  A    between atoms: O5_25  and  C21_26 
ROOT
HETATM    1  C1  UNL     1       4.346   0.802   0.694  1.00  0.00    -0.023 C 
HETATM    2  C2  UNL     1       3.587  -0.290   1.562  1.00  0.00     0.022 C 
HETATM    3  C3  UNL     1       3.560  -1.196   0.162  1.00  0.00     0.062 C 
HETATM    4  C4  UNL     1       2.361  -2.087  -0.164  1.00  0.00     0.159 C 
HETATM    5  C5  UNL     1       1.083  -1.072  -0.127  1.00  0.00     0.051 C 
HETATM    6  C6  UNL     1       1.057   0.399  -1.043  1.00  0.00     0.009 C 
HETATM    7  C7  UNL     1       2.373   1.563  -1.123  1.00  0.00     0.038 C 
HETATM    8  C8  UNL     1       3.365   2.107   0.157  1.00  0.00     0.170 C 
HETATM    9  O1  UNL     1       4.154   3.181  -0.361  1.00  0.00    -0.219 OA
HETATM   10  C9  UNL     1       0.856   0.033  -2.544  1.00  0.00     0.001 C 
HETATM   11  C10 UNL     1      -0.206   1.178  -0.457  1.00  0.00     0.003 C 
HETATM   12  C11 UNL     1      -1.374   0.283   0.144  1.00  0.00     0.035 C 
HETATM   13  C12 UNL     1      -1.549  -1.089  -0.528  1.00  0.00     0.143 C 
HETATM   14  C13 UNL     1      -0.236  -1.821  -0.439  1.00  0.00    -0.015 C 
HETATM   15  C14 UNL     1      -0.253  -3.149  -0.586  1.00  0.00    -0.007 C 
HETATM   16  O4  UNL     1       2.217  -3.148   0.787  1.00  0.00    -0.223 OA
HETATM   17  C17 UNL     1       5.005  -1.913   0.154  1.00  0.00     0.131 C 
HETATM   18  C18 UNL     1       6.179  -0.816   0.400  1.00  0.00     0.052 C 
HETATM   19  C19 UNL     1       5.572   0.539   0.157  1.00  0.00    -0.047 C 
HETATM   20  C20 UNL     1       6.325   1.460  -0.777  1.00  0.00     0.026 C 
HETATM   21  C23 UNL     1       4.139  -1.101   2.809  1.00  0.00     0.004 C 
HETATM   22  C24 UNL     1       2.461   0.540   2.277  1.00  0.00     0.004 C 
ENDROOT
BRANCH  13  23
HETATM   23  O2  UNL     1      -2.545  -1.943   0.089  1.00  0.00    -0.300 OA
BRANCH  23  24
HETATM   24  C15 UNL     1      -3.860  -1.470   0.026  1.00  0.00     0.273 C 
HETATM   25  C16 UNL     1      -4.958  -2.295   0.636  1.00  0.00     0.106 C 
HETATM   26  O3  UNL     1      -4.139  -0.408  -0.542  1.00  0.00    -0.264 OA
ENDBRANCH  23  24
ENDBRANCH  13  23
BRANCH  17  27
HETATM   27  O5  UNL     1       5.254  -2.680  -1.021  1.00  0.00    -0.304 OA
BRANCH  27  28
HETATM   28  C21 UNL     1       6.344  -3.575  -0.733  1.00  0.00     0.272 C 
HETATM   29  C22 UNL     1       6.824  -4.546  -1.766  1.00  0.00     0.106 C 
HETATM   30  O6  UNL     1       6.845  -3.629   0.402  1.00  0.00    -0.264 OA
ENDBRANCH  27  28
ENDBRANCH  17  27
TORSDOF 4
