REMARK  5 active torsions:
REMARK  status: ('A' for Active; 'I' for Inactive)
REMARK    1  A    between atoms: C4_4  and  O3_17 
REMARK    2  A    between atoms: O3_17  and  C15_18 
REMARK    3  A    between atoms: C17_21  and  O5_25 
REMARK    4  A    between atoms: O5_25  and  C21_26 
REMARK    5  A    between atoms: C21_26  and  C22_27 
ROOT
HETATM    1  C1  UNL     1       4.558   1.091  -0.140  1.00  0.00    -0.023 C 
HETATM    2  C2  UNL     1       3.921  -0.024  -0.389  1.00  0.00     0.021 C 
HETATM    3  C3  UNL     1       4.177  -1.373  -0.555  1.00  0.00     0.060 C 
HETATM    4  C4  UNL     1       2.374  -2.003  -0.732  1.00  0.00     0.131 C 
HETATM    5  C5  UNL     1       0.959  -1.099   0.202  1.00  0.00     0.049 C 
HETATM    6  C6  UNL     1       0.584   0.727  -0.272  1.00  0.00     0.009 C 
HETATM    7  C7  UNL     1       1.737   2.111  -0.584  1.00  0.00     0.038 C 
HETATM    8  C8  UNL     1       3.415   2.420   0.040  1.00  0.00     0.170 C 
HETATM    9  O1  UNL     1       3.919   3.591  -0.610  1.00  0.00    -0.219 OA
HETATM   10  C9  UNL     1      -0.079   0.777  -1.708  1.00  0.00     0.001 C 
HETATM   11  C10 UNL     1      -0.404   1.223   0.824  1.00  0.00     0.003 C 
HETATM   12  C11 UNL     1      -1.567   0.236   1.222  1.00  0.00     0.037 C 
HETATM   13  C12 UNL     1      -1.773  -1.002   0.306  1.00  0.00     0.171 C 
HETATM   14  C13 UNL     1      -0.458  -1.821   0.274  1.00  0.00    -0.012 C 
HETATM   15  C14 UNL     1      -0.524  -2.996   0.891  1.00  0.00    -0.007 C 
HETATM   16  O2  UNL     1      -2.869  -1.782   0.791  1.00  0.00    -0.219 OA
HETATM   17  C17 UNL     1       5.341  -1.655   0.546  1.00  0.00     0.131 C 
HETATM   18  C18 UNL     1       6.486  -0.505   0.175  1.00  0.00     0.052 C 
HETATM   19  C19 UNL     1       5.875   0.969   0.185  1.00  0.00    -0.047 C 
HETATM   20  C20 UNL     1       6.704   2.132   0.639  1.00  0.00     0.026 C 
HETATM   21  C25 UNL     1       3.403   0.161   1.194  1.00  0.00     0.004 C 
HETATM   22  C26 UNL     1       3.431   0.152  -1.927  1.00  0.00     0.004 C 
ENDROOT
BRANCH  17  23
HETATM   23  O5  UNL     1       6.091  -2.883   0.349  1.00  0.00    -0.304 OA
BRANCH  23  24
HETATM   24  C21 UNL     1       5.593  -4.150   0.464  1.00  0.00     0.271 C 
HETATM   25  O6  UNL     1       4.423  -4.391   0.773  1.00  0.00    -0.264 OA
BRANCH  24  26
HETATM   26  C22 UNL     1       6.581  -5.258   0.169  1.00  0.00     0.086 C 
HETATM   27  C23 UNL     1       6.033  -6.171  -0.940  1.00  0.00     0.010 C 
HETATM   28  C24 UNL     1       7.940  -4.647  -0.256  1.00  0.00     0.010 C 
ENDBRANCH  24  26
ENDBRANCH  23  24
ENDBRANCH  17  23
BRANCH   4  29
HETATM   29  O3  UNL     1       2.567  -3.434  -0.500  1.00  0.00    -0.304 OA
BRANCH  29  30
HETATM   30  C15 UNL     1       1.567  -4.293  -0.975  1.00  0.00     0.272 C 
HETATM   31  C16 UNL     1       1.672  -5.769  -0.702  1.00  0.00     0.106 C 
HETATM   32  O4  UNL     1       0.606  -3.857  -1.616  1.00  0.00    -0.264 OA
ENDBRANCH  29  30
ENDBRANCH   4  29
TORSDOF 5
