REMARK  2 active torsions:
REMARK  status: ('A' for Active; 'I' for Inactive)
REMARK    1  A    between atoms: C2_2  and  O5_20 
REMARK    2  A    between atoms: C8_9  and  C10_12 
ROOT
HETATM    1  C1  UNL     1       3.400   2.027   0.104  1.00  0.00     0.157 A 
HETATM    2  C2  UNL     1       3.547   0.619   0.104  1.00  0.00     0.145 A 
HETATM    3  C3  UNL     1       2.404  -0.215   0.131  1.00  0.00     0.160 A 
HETATM    4  C4  UNL     1       1.109   0.367   0.158  1.00  0.00     0.089 A 
HETATM    5  C5  UNL     1       0.961   1.779   0.160  1.00  0.00     0.107 A 
HETATM    6  C6  UNL     1       2.109   2.605   0.133  1.00  0.00     0.054 A 
HETATM    7  O1  UNL     1      -0.270   2.338   0.189  1.00  0.00    -0.305 OA
HETATM    8  C7  UNL     1      -1.406   1.615   0.219  1.00  0.00     0.126 A 
HETATM    9  C8  UNL     1      -1.404   0.262   0.217  1.00  0.00     0.064 A 
HETATM   10  C9  UNL     1      -0.117  -0.481   0.184  1.00  0.00     0.202 A 
HETATM   11  O2  UNL     1      -0.160  -1.692   0.180  1.00  0.00    -0.286 OA
HETATM   12  O4  UNL     1       2.559  -1.547   0.129  1.00  0.00    -0.188 OA
HETATM   13  O6  UNL     1       4.482   2.816   0.078  1.00  0.00    -0.188 OA
ENDROOT
BRANCH   9  14
HETATM   14  C10 UNL     1      -2.701  -0.475   0.248  1.00  0.00     0.005 A 
HETATM   15  C11 UNL     1      -2.822  -1.660   0.996  1.00  0.00     0.002 A 
HETATM   16  C12 UNL     1      -4.045  -2.354   1.023  1.00  0.00     0.027 A 
HETATM   17  C13 UNL     1      -5.150  -1.865   0.307  1.00  0.00     0.131 A 
HETATM   18  C14 UNL     1      -5.029  -0.680  -0.441  1.00  0.00     0.027 A 
HETATM   19  O3  UNL     1      -6.297  -2.516   0.334  1.00  0.00    -0.190 OA
HETATM   20  C15 UNL     1      -3.807   0.014  -0.471  1.00  0.00     0.002 A 
ENDBRANCH   9  14
BRANCH   2  21
HETATM   21  O5  UNL     1       4.772   0.076   0.080  1.00  0.00    -0.324 OA
HETATM   22  C16 UNL     1       5.408  -0.080  -1.180  1.00  0.00     0.182 C 
ENDBRANCH   2  21
TORSDOF 2
