REMARK  8 active torsions:
REMARK  status: ('A' for Active; 'I' for Inactive)
REMARK    1  A    between atoms: C1_1  and  O3_12 
REMARK    2  A    between atoms: C4_4  and  C8_9 
REMARK    3  A    between atoms: C6_6  and  O1_7 
REMARK    4  A    between atoms: O3_12  and  C10_13 
REMARK    5  A    between atoms: C11_15  and  C15_22 
REMARK    6  A    between atoms: C15_22  and  O8_23 
REMARK    7  A    between atoms: O8_23  and  C16_24 
REMARK    8  A    between atoms: C17_26  and  C21_33 
ROOT
HETATM    1  C10 UNL     1       0.979   2.065  -1.035  1.00  0.00     0.274 C 
HETATM    2  O4  UNL     1      -0.215   1.607  -1.672  1.00  0.00    -0.326 OA
HETATM    3  C11 UNL     1      -1.439   2.004  -1.062  1.00  0.00     0.180 C 
HETATM    4  C12 UNL     1      -1.603   3.547  -1.168  1.00  0.00     0.215 C 
HETATM    5  C13 UNL     1      -0.254   4.313  -1.258  1.00  0.00     0.220 C 
HETATM    6  C14 UNL     1       0.840   3.524  -0.506  1.00  0.00     0.241 C 
HETATM    7  O5  UNL     1       2.086   4.195  -0.574  1.00  0.00    -0.215 OA
HETATM    8  O6  UNL     1      -0.410   5.609  -0.707  1.00  0.00    -0.218 OA
HETATM    9  O7  UNL     1      -2.381   3.861  -2.311  1.00  0.00    -0.218 OA
ENDROOT
BRANCH   3  10
HETATM   10  C15 UNL     1      -1.469   1.490   0.385  1.00  0.00     0.177 C 
BRANCH  10  11
HETATM   11  O8  UNL     1      -1.437   0.082   0.354  1.00  0.00    -0.326 OA
BRANCH  11  12
HETATM   12  C16 UNL     1      -1.529  -0.506   1.637  1.00  0.00     0.270 C 
HETATM   13  O9  UNL     1      -2.828  -0.283   2.188  1.00  0.00    -0.326 OA
HETATM   14  C17 UNL     1      -3.820  -1.230   1.815  1.00  0.00     0.184 C 
HETATM   15  C18 UNL     1      -3.478  -2.611   2.447  1.00  0.00     0.215 C 
HETATM   16  C19 UNL     1      -1.955  -2.875   2.584  1.00  0.00     0.220 C 
HETATM   17  O12 UNL     1      -4.043  -3.615   1.625  1.00  0.00    -0.218 OA
HETATM   18  C20 UNL     1      -1.187  -2.025   1.547  1.00  0.00     0.241 C 
HETATM   19  O11 UNL     1      -1.553  -2.518   3.899  1.00  0.00    -0.218 OA
HETATM   20  O10 UNL     1       0.211  -2.223   1.668  1.00  0.00    -0.215 OA
BRANCH  14  21
HETATM   21  C21 UNL     1      -5.170  -0.689   2.287  1.00  0.00     0.214 C 
HETATM   22  O13 UNL     1      -5.494   0.436   1.502  1.00  0.00    -0.218 OA
ENDBRANCH  14  21
ENDBRANCH  11  12
ENDBRANCH  10  11
ENDBRANCH   3  10
BRANCH   1  23
HETATM   23  O3  UNL     1       2.033   1.945  -1.980  1.00  0.00    -0.302 OA
BRANCH  23  24
HETATM   24  C1  UNL     1       2.936   1.006  -1.785  1.00  0.00     0.119 A 
HETATM   25  C2  UNL     1       4.293   1.352  -1.668  1.00  0.00     0.026 A 
HETATM   26  C3  UNL     1       5.264   0.356  -1.459  1.00  0.00     0.005 A 
HETATM   27  C4  UNL     1       4.875  -0.992  -1.365  1.00  0.00     0.037 A 
HETATM   28  C5  UNL     1       3.518  -1.340  -1.480  1.00  0.00     0.029 A 
HETATM   29  C6  UNL     1       2.547  -0.344  -1.691  1.00  0.00     0.117 A 
BRANCH  27  30
HETATM   30  C8  UNL     1       5.903  -2.053  -1.143  1.00  0.00     0.173 C 
HETATM   31  C9  UNL     1       5.438  -3.480  -1.047  1.00  0.00     0.077 C 
HETATM   32  O2  UNL     1       7.074  -1.771  -1.041  1.00  0.00    -0.291 OA
ENDBRANCH  27  30
BRANCH  29  33
HETATM   33  O1  UNL     1       1.278  -0.678  -1.799  1.00  0.00    -0.326 OA
HETATM   34  C7  UNL     1       0.961  -2.051  -1.979  1.00  0.00     0.181 C 
ENDBRANCH  29  33
ENDBRANCH  23  24
ENDBRANCH   1  23
TORSDOF 8
