REMARK  9 active torsions:
REMARK  status: ('A' for Active; 'I' for Inactive)
REMARK    1  A    between atoms: C2_2  and  O2_4 
REMARK    2  A    between atoms: O2_4  and  C3_5 
REMARK    3  A    between atoms: C6_8  and  O8_28 
REMARK    4  A    between atoms: C7_9  and  C18_24 
REMARK    5  A    between atoms: C9_11  and  O3_12 
REMARK    6  A    between atoms: O3_12  and  C10_13 
REMARK    7  A    between atoms: C13_17  and  O5_19 
REMARK    8  A    between atoms: O5_19  and  C15_20 
REMARK    9  A    between atoms: O8_28  and  C21_29 
ROOT
HETATM    1  C3  UNL     1      -1.072  -1.561  -0.808  1.00  0.00     0.156 C 
HETATM    2  C4  UNL     1      -1.234  -1.464   0.741  1.00  0.00     0.034 C 
HETATM    3  C5  UNL     1      -0.980   0.001   1.257  1.00  0.00     0.051 C 
HETATM    4  C6  UNL     1       0.559   0.336   1.291  1.00  0.00     0.134 C 
HETATM    5  C7  UNL     1       1.082   0.994   0.001  1.00  0.00     0.071 C 
HETATM    6  C8  UNL     1       0.513   0.380  -1.251  1.00  0.00    -0.016 C 
HETATM    7  C9  UNL     1       0.277  -1.105  -1.405  1.00  0.00     0.170 C 
HETATM    8  C12 UNL     1       0.237   1.315  -2.169  1.00  0.00    -0.022 C 
HETATM    9  C13 UNL     1       0.557   2.687  -1.655  1.00  0.00     0.142 C 
HETATM   10  C14 UNL     1       0.668   2.478  -0.136  1.00  0.00     0.043 C 
HETATM   11  C17 UNL     1      -0.333   1.061  -3.541  1.00  0.00     0.028 C 
HETATM   12  C23 UNL     1      -1.789   0.447   2.487  1.00  0.00    -0.012 C 
HETATM   13  C24 UNL     1      -2.789  -0.475   3.174  1.00  0.00     0.171 C 
HETATM   14  C25 UNL     1      -2.876  -1.901   2.617  1.00  0.00     0.037 C 
HETATM   15  C26 UNL     1      -2.662  -1.919   1.102  1.00  0.00     0.006 C 
HETATM   16  O10 UNL     1      -4.081   0.096   3.063  1.00  0.00    -0.219 OA
HETATM   17  C27 UNL     1      -1.666   1.704   2.969  1.00  0.00    -0.007 C 
HETATM   18  C28 UNL     1      -0.278  -2.477   1.402  1.00  0.00     0.003 C 
ENDROOT
BRANCH   1  19
HETATM   19  O2  UNL     1      -1.294  -2.906  -1.217  1.00  0.00    -0.301 OA
BRANCH  19  20
HETATM   20  C2  UNL     1      -1.735  -2.987  -2.469  1.00  0.00     0.272 C 
HETATM   21  C1  UNL     1      -1.917  -4.386  -2.994  1.00  0.00     0.106 C 
HETATM   22  O1  UNL     1      -1.981  -2.027  -3.160  1.00  0.00    -0.264 OA
ENDBRANCH  19  20
ENDBRANCH   1  19
BRANCH   7  23
HETATM   23  O3  UNL     1       1.349  -1.826  -0.813  1.00  0.00    -0.298 OA
BRANCH  23  24
HETATM   24  C10 UNL     1       1.533  -3.015  -1.380  1.00  0.00     0.273 C 
HETATM   25  O4  UNL     1       1.081  -3.324  -2.458  1.00  0.00    -0.264 OA
HETATM   26  C11 UNL     1       2.360  -3.985  -0.579  1.00  0.00     0.106 C 
ENDBRANCH  23  24
ENDBRANCH   7  23
BRANCH   4  27
HETATM   27  O8  UNL     1       0.926   1.148   2.399  1.00  0.00    -0.304 OA
BRANCH  27  28
HETATM   28  C21 UNL     1       1.012   0.454   3.530  1.00  0.00     0.272 C 
HETATM   29  C22 UNL     1       1.384   1.257   4.747  1.00  0.00     0.106 C 
HETATM   30  O9  UNL     1       0.812  -0.736   3.606  1.00  0.00    -0.264 OA
ENDBRANCH  27  28
ENDBRANCH   4  27
BRANCH   5  31
HETATM   31  C18 UNL     1       2.610   0.954  -0.060  1.00  0.00     0.132 C 
HETATM   32  C19 UNL     1       3.085   1.601  -1.361  1.00  0.00     0.033 C 
HETATM   33  C20 UNL     1       3.187   1.633   1.182  1.00  0.00     0.033 C 
HETATM   34  O7  UNL     1       3.026  -0.393  -0.060  1.00  0.00    -0.226 OA
ENDBRANCH   5  31
BRANCH   9  35
HETATM   35  O5  UNL     1      -0.477   3.613  -1.958  1.00  0.00    -0.300 OA
BRANCH  35  36
HETATM   36  C15 UNL     1      -0.338   4.149  -3.167  1.00  0.00     0.273 C 
HETATM   37  C16 UNL     1      -1.382   5.167  -3.541  1.00  0.00     0.106 C 
HETATM   38  O6  UNL     1       0.552   3.860  -3.933  1.00  0.00    -0.264 OA
ENDBRANCH  35  36
ENDBRANCH   9  35
TORSDOF 9
