REMARK  0 active torsions:
REMARK  status: ('A' for Active; 'I' for Inactive)
ROOT
HETATM    1  C1  UNL     1       1.936  -0.762  -0.156  1.00  0.00     0.031 C 
HETATM    2  C2  UNL     1       1.391   0.525   0.545  1.00  0.00     0.084 C 
HETATM    3  C3  UNL     1       0.102   1.041  -0.143  1.00  0.00     0.128 C 
HETATM    4  C4  UNL     1      -0.846  -0.053  -0.619  1.00  0.00     0.069 C 
HETATM    5  C5  UNL     1      -1.027  -1.211   0.377  1.00  0.00     0.127 C 
HETATM    6  C6  UNL     1      -0.080  -2.377   0.078  1.00  0.00     0.031 C 
HETATM    7  C7  UNL     1       1.412  -2.111   0.396  1.00  0.00     0.007 C 
HETATM    8  C8  UNL     1       2.266  -3.252  -0.172  1.00  0.00     0.000 C 
HETATM    9  O1  UNL     1      -2.389  -1.611   0.281  1.00  0.00    -0.304 OA
HETATM   10  C9  UNL     1      -3.084  -0.551  -0.113  1.00  0.00     0.276 C 
HETATM   11  C10 UNL     1      -2.238   0.588  -0.631  1.00  0.00     0.132 C 
HETATM   12  C11 UNL     1      -2.041   1.856   0.252  1.00  0.00     0.228 C 
HETATM   13  C12 UNL     1      -2.162   3.184  -0.496  1.00  0.00     0.065 C 
HETATM   14  O2  UNL     1      -2.945   1.902   1.336  1.00  0.00    -0.195 OA
HETATM   15  O3  UNL     1      -0.719   1.775   0.740  1.00  0.00    -0.334 OA
HETATM   16  C13 UNL     1      -2.633   0.924  -2.072  1.00  0.00     0.015 C 
HETATM   17  O4  UNL     1      -4.291  -0.484  -0.082  1.00  0.00    -0.264 OA
HETATM   18  C14 UNL     1       2.563   1.469   0.428  1.00  0.00     0.174 C 
HETATM   19  C15 UNL     1       3.766   0.701   0.144  1.00  0.00     0.033 C 
HETATM   20  C16 UNL     1       3.442  -0.566  -0.135  1.00  0.00    -0.023 C 
HETATM   21  O5  UNL     1       2.516   2.670   0.551  1.00  0.00    -0.291 OA
HETATM   22  C17 UNL     1       1.221   0.275   2.051  1.00  0.00     0.011 C 
ENDROOT
TORSDOF 0
