REMARK  7 active torsions:
REMARK  status: ('A' for Active; 'I' for Inactive)
REMARK    1  A    between atoms: C4_4  and  C7_8 
REMARK    2  A    between atoms: C7_8  and  O2_9 
REMARK    3  A    between atoms: C7_8  and  C15_18 
REMARK    4  A    between atoms: O2_9  and  C8_10 
REMARK    5  A    between atoms: C8_10  and  C9_11 
REMARK    6  A    between atoms: C9_11  and  C10_12 
REMARK    7  A    between atoms: C15_18  and  C16_19 
ROOT
HETATM    1  C7  UNL     1      -0.192   0.186  -0.711  1.00  0.00     0.154 C 
ENDROOT
BRANCH   1   2
HETATM    2  C4  UNL     1      -1.473  -0.566  -0.451  1.00  0.00     0.048 A 
HETATM    3  C3  UNL     1      -2.766   0.158  -0.473  1.00  0.00     0.196 A 
HETATM    4  C2  UNL     1      -4.008  -0.629  -0.201  1.00  0.00     0.069 A 
HETATM    5  O4  UNL     1      -2.705   1.344  -0.711  1.00  0.00    -0.287 OA
HETATM    6  C1  UNL     1      -3.928  -2.029   0.057  1.00  0.00     0.069 A 
HETATM    7  C20 UNL     1      -5.274   0.016  -0.201  1.00  0.00     0.134 A 
HETATM    8  C6  UNL     1      -2.602  -2.715   0.061  1.00  0.00     0.198 A 
HETATM    9  C23 UNL     1      -5.115  -2.767   0.311  1.00  0.00     0.134 A 
HETATM   10  C5  UNL     1      -1.406  -1.890  -0.205  1.00  0.00     0.043 A 
HETATM   11  O1  UNL     1      -2.395  -3.891   0.258  1.00  0.00    -0.286 OA
HETATM   12  C22 UNL     1      -6.369  -2.115   0.311  1.00  0.00     0.030 A 
HETATM   13  O5  UNL     1      -5.067  -4.086   0.555  1.00  0.00    -0.190 OA
HETATM   14  C21 UNL     1      -6.447  -0.728   0.055  1.00  0.00     0.030 A 
HETATM   15  O6  UNL     1      -5.377   1.332  -0.441  1.00  0.00    -0.190 OA
ENDBRANCH   1   2
BRANCH   1  16
HETATM   16  O2  UNL     1       0.808  -0.258   0.195  1.00  0.00    -0.299 OA
BRANCH  16  17
HETATM   17  C8  UNL     1       0.572   0.135   1.443  1.00  0.00     0.276 C 
HETATM   18  O3  UNL     1      -0.383   0.799   1.772  1.00  0.00    -0.264 OA
BRANCH  17  19
HETATM   19  C9  UNL     1       1.590  -0.312   2.459  1.00  0.00     0.117 C 
BRANCH  19  20
HETATM   20  C10 UNL     1       2.338   0.871   3.012  1.00  0.00    -0.042 C 
HETATM   21  C11 UNL     1       3.463   1.262   2.395  1.00  0.00    -0.051 C 
HETATM   22  C12 UNL     1       4.023   0.651   1.139  1.00  0.00     0.026 C 
HETATM   23  C13 UNL     1       4.248   2.405   2.986  1.00  0.00     0.026 C 
HETATM   24  C14 UNL     1       1.881   1.635   4.225  1.00  0.00     0.026 C 
ENDBRANCH  19  20
ENDBRANCH  17  19
ENDBRANCH  16  17
ENDBRANCH   1  16
BRANCH   1  25
HETATM   25  C15 UNL     1       0.307   0.014  -2.145  1.00  0.00     0.060 C 
BRANCH  25  26
HETATM   26  C16 UNL     1       1.517   0.858  -2.438  1.00  0.00    -0.032 C 
HETATM   27  C17 UNL     1       2.291   0.526  -3.484  1.00  0.00    -0.048 C 
HETATM   28  C18 UNL     1       3.547   1.319  -3.729  1.00  0.00     0.026 C 
HETATM   29  C19 UNL     1       1.863  -0.621  -4.359  1.00  0.00     0.026 C 
ENDBRANCH  25  26
ENDBRANCH   1  25
TORSDOF 7
