REMARK  1 active torsions:
REMARK  status: ('A' for Active; 'I' for Inactive)
REMARK    1  A    between atoms: C3_3  and  C8_9 
ROOT
HETATM    1  C1  UNL     1       1.150  -1.510  -0.510  1.00  0.00     0.031 C 
HETATM    2  C2  UNL     1      -0.229  -1.187   0.092  1.00  0.00     0.005 C 
HETATM    3  C3  UNL     1      -0.760   0.178  -0.377  1.00  0.00     0.028 C 
HETATM    4  C4  UNL     1       0.262   1.293  -0.100  1.00  0.00     0.005 C 
HETATM    5  C5  UNL     1       1.643   0.977  -0.703  1.00  0.00     0.031 C 
HETATM    6  C6  UNL     1       2.189  -0.396  -0.262  1.00  0.00     0.127 C 
HETATM    7  C7  UNL     1       3.518  -0.713  -0.955  1.00  0.00     0.033 C 
HETATM    8  O1  UNL     1       2.475  -0.346   1.125  1.00  0.00    -0.226 OA
ENDROOT
BRANCH   3   9
HETATM    9  C8  UNL     1      -2.113   0.496   0.264  1.00  0.00     0.127 C 
HETATM   10  C9  UNL     1      -3.174  -0.562  -0.043  1.00  0.00     0.033 C 
HETATM   11  C10 UNL     1      -2.000   0.801   1.758  1.00  0.00     0.033 C 
HETATM   12  O2  UNL     1      -2.652   1.629  -0.379  1.00  0.00    -0.226 OA
ENDBRANCH   3   9
TORSDOF 1
