REMARK  1 active torsions:
REMARK  status: ('A' for Active; 'I' for Inactive)
REMARK    1  A    between atoms: C5_5  and  C8_8 
ROOT
HETATM    1  C1  UNL     1      -3.184  -2.227  -0.121  1.00  0.00     0.026 C 
HETATM    2  C2  UNL     1      -1.949  -1.363  -0.101  1.00  0.00    -0.048 C 
HETATM    3  C3  UNL     1      -2.129   0.127  -0.306  1.00  0.00     0.022 C 
HETATM    4  C4  UNL     1      -0.910   0.959   0.113  1.00  0.00     0.007 C 
HETATM    5  C5  UNL     1       0.387   0.326  -0.404  1.00  0.00     0.033 C 
HETATM    6  C6  UNL     1       0.535  -1.100   0.156  1.00  0.00     0.028 C 
HETATM    7  C7  UNL     1      -0.734  -1.920   0.092  1.00  0.00    -0.035 C 
ENDROOT
BRANCH   5   8
HETATM    8  C8  UNL     1       1.609   1.188  -0.070  1.00  0.00     0.127 C 
HETATM    9  C9  UNL     1       1.619   1.656   1.385  1.00  0.00     0.033 C 
HETATM   10  C10 UNL     1       2.926   0.531  -0.488  1.00  0.00     0.033 C 
HETATM   11  O1  UNL     1       1.395   2.311  -0.894  1.00  0.00    -0.226 OA
ENDBRANCH   5   8
TORSDOF 1
