REMARK  1 active torsions:
REMARK  status: ('A' for Active; 'I' for Inactive)
REMARK    1  A    between atoms: C5_5  and  C8_8 
ROOT
HETATM    1  C1  UNL     1       0.686   3.500   1.049  1.00  0.00    -0.009 C 
HETATM    2  C2  UNL     1       0.524   2.176   0.873  1.00  0.00    -0.044 C 
HETATM    3  C3  UNL     1       1.658   1.207   1.125  1.00  0.00     0.022 C 
HETATM    4  C4  UNL     1       1.502  -0.055   0.262  1.00  0.00     0.007 C 
HETATM    5  C5  UNL     1       0.158  -0.785   0.481  1.00  0.00     0.029 C 
HETATM    6  C6  UNL     1      -0.977   0.164   0.928  1.00  0.00     0.007 C 
HETATM    7  C7  UNL     1      -0.801   1.601   0.418  1.00  0.00     0.022 C 
ENDROOT
BRANCH   5   8
HETATM    8  C8  UNL     1      -0.234  -1.580  -0.769  1.00  0.00     0.127 C 
HETATM    9  C9  UNL     1      -1.228  -2.701  -0.467  1.00  0.00     0.033 C 
HETATM   10  C10 UNL     1      -0.689  -0.682  -1.920  1.00  0.00     0.033 C 
HETATM   11  O1  UNL     1       0.891  -2.311  -1.199  1.00  0.00    -0.226 OA
ENDBRANCH   5   8
TORSDOF 1
