REMARK  2 active torsions:
REMARK  status: ('A' for Active; 'I' for Inactive)
REMARK    1  A    between atoms: C15_16  and  O1_17 
REMARK    2  A    between atoms: O1_17  and  C16_18 
ROOT
HETATM    1  C1  UNL     1      -2.945  -0.442   0.505  1.00  0.00     0.119 A 
HETATM    2  C2  UNL     1      -2.882  -1.702  -0.020  1.00  0.00     0.119 A 
HETATM    3  C3  UNL     1      -1.732  -2.323  -0.266  1.00  0.00     0.024 A 
HETATM    4  C4  UNL     1      -0.481  -1.596   0.030  1.00  0.00     0.009 A 
HETATM    5  C5  UNL     1      -0.552  -0.352   0.557  1.00  0.00    -0.018 A 
HETATM    6  C6  UNL     1      -1.870   0.258   0.820  1.00  0.00     0.022 A 
HETATM    7  C7  UNL     1       0.691   0.441   0.808  1.00  0.00     0.086 C 
HETATM    8  C8  UNL     1       1.702  -0.027  -0.175  1.00  0.00     0.244 C 
HETATM    9  N1  UNL     1       2.025  -1.396  -0.018  1.00  0.00     0.144 N 
HETATM   10  C9  UNL     1       0.866  -2.246  -0.364  1.00  0.00     0.277 C 
HETATM   11  C10 UNL     1       3.183  -1.546  -0.943  1.00  0.00     0.255 C 
HETATM   12  C11 UNL     1       4.065  -0.284  -0.555  1.00  0.00     0.059 C 
HETATM   13  C12 UNL     1       2.966   0.624  -0.095  1.00  0.00    -0.015 C 
HETATM   14  C13 UNL     1       3.109   1.860   0.389  1.00  0.00    -0.030 C 
HETATM   15  C14 UNL     1       1.894   2.604   0.985  1.00  0.00     0.056 C 
HETATM   16  C15 UNL     1       0.486   1.942   0.642  1.00  0.00     0.135 C 
HETATM   17  O3  UNL     1      -4.115  -2.159  -0.235  1.00  0.00    -0.300 OA
HETATM   18  C18 UNL     1      -5.071  -1.138   0.152  1.00  0.00     0.304 A 
HETATM   19  O4  UNL     1      -4.218  -0.070   0.629  1.00  0.00    -0.300 OA
ENDROOT
BRANCH  16  20
HETATM   20  O1  UNL     1       0.019   2.172  -0.722  1.00  0.00    -0.304 OA
BRANCH  20  21
HETATM   21  C16 UNL     1      -0.533   3.481  -1.005  1.00  0.00     0.272 C 
HETATM   22  C17 UNL     1      -0.726   4.567   0.046  1.00  0.00     0.106 C 
HETATM   23  O2  UNL     1      -0.958   3.701  -2.144  1.00  0.00    -0.264 OA
ENDBRANCH  20  21
ENDBRANCH  16  20
TORSDOF 2
