REMARK  9 active torsions:
REMARK  status: ('A' for Active; 'I' for Inactive)
REMARK    1  A    between atoms: C3_3  and  C45_61 
REMARK    2  A    between atoms: C4_5  and  O8_19 
REMARK    3  A    between atoms: C5_6  and  O2_7 
REMARK    4  A    between atoms: O2_7  and  C6_8 
REMARK    5  A    between atoms: C10_12  and  C11_14 
REMARK    6  A    between atoms: O8_19  and  C12_20 
REMARK    7  A    between atoms: C15_23  and  O11_28 
REMARK    8  A    between atoms: C16_25  and  C17_26 
REMARK    9  A    between atoms: O11_28  and  C18_29 
ROOT
HETATM    1  C12 UNL     1       4.758  -2.250   0.545  1.00  0.00     0.181 C 
HETATM    2  C13 UNL     1       5.647  -0.988   0.471  1.00  0.00     0.217 C 
HETATM    3  C14 UNL     1       5.186  -0.088  -0.697  1.00  0.00     0.241 C 
HETATM    4  C15 UNL     1       3.656   0.162  -0.639  1.00  0.00     0.270 C 
HETATM    5  O9  UNL     1       2.965  -1.080  -0.584  1.00  0.00    -0.326 OA
HETATM    6  C16 UNL     1       3.258  -1.883   0.553  1.00  0.00     0.181 C 
HETATM    7  O15 UNL     1       5.867   1.154  -0.629  1.00  0.00    -0.215 OA
HETATM    8  O16 UNL     1       7.002  -1.365   0.283  1.00  0.00    -0.218 OA
ENDROOT
BRANCH   4   9
HETATM    9  O11 UNL     1       3.225   0.863  -1.787  1.00  0.00    -0.329 OA
BRANCH   9  10
HETATM   10  C18 UNL     1       1.891   1.326  -1.691  1.00  0.00     0.148 C 
HETATM   11  C19 UNL     1       1.320   1.611  -3.098  1.00  0.00     0.179 C 
HETATM   12  C20 UNL     1      -0.070   2.277  -3.025  1.00  0.00     0.035 C 
HETATM   13  O14 UNL     1       1.201   0.402  -3.826  1.00  0.00    -0.221 OA
HETATM   14  C21 UNL     1      -0.066   3.572  -2.168  1.00  0.00     0.003 C 
HETATM   15  C22 UNL     1       0.484   3.246  -0.752  1.00  0.00     0.003 C 
HETATM   16  C27 UNL     1      -1.484   4.207  -2.049  1.00  0.00     0.000 C 
HETATM   17  C44 UNL     1       0.859   4.604  -2.836  1.00  0.00     0.000 C 
HETATM   18  C23 UNL     1       1.881   2.594  -0.816  1.00  0.00     0.032 C 
HETATM   19  C24 UNL     1      -0.492   2.385   0.072  1.00  0.00     0.000 C 
HETATM   20  C25 UNL     1      -1.881   3.025   0.170  1.00  0.00     0.000 C 
HETATM   21  C26 UNL     1      -2.459   3.338  -1.221  1.00  0.00     0.000 C 
HETATM   22  C31 UNL     1      -3.807   4.072  -1.066  1.00  0.00     0.003 C 
HETATM   23  C30 UNL     1      -4.387   4.615  -2.397  1.00  0.00     0.003 C 
HETATM   24  C32 UNL     1      -4.893   3.158  -0.494  1.00  0.00     0.030 C 
HETATM   25  C29 UNL     1      -3.543   4.203  -3.611  1.00  0.00     0.000 C 
HETATM   26  C34 UNL     1      -5.846   4.123  -2.469  1.00  0.00     0.032 C 
HETATM   27  C43 UNL     1      -4.455   6.143  -2.287  1.00  0.00     0.000 C 
HETATM   28  C28 UNL     1      -2.086   4.649  -3.410  1.00  0.00     0.000 C 
HETATM   29  C33 UNL     1      -6.190   3.760  -1.029  1.00  0.00     0.118 C 
HETATM   30  C35 UNL     1      -6.168   2.795  -3.174  1.00  0.00     0.054 C 
HETATM   31  O12 UNL     1      -7.197   2.770  -1.094  1.00  0.00    -0.337 OA
HETATM   32  C36 UNL     1      -7.451   2.377  -2.434  1.00  0.00     0.187 C 
HETATM   33  O13 UNL     1      -7.623   0.965  -2.565  1.00  0.00    -0.335 OA
HETATM   34  C40 UNL     1      -8.719   3.109  -2.943  1.00  0.00     0.056 C 
HETATM   35  C37 UNL     1      -8.736   0.410  -1.871  1.00  0.00     0.145 C 
HETATM   36  C38 UNL     1     -10.049   1.047  -2.363  1.00  0.00     0.030 C 
HETATM   37  C39 UNL     1      -9.981   2.576  -2.248  1.00  0.00     0.007 C 
HETATM   38  C41 UNL     1     -11.254   0.488  -1.604  1.00  0.00     0.003 C 
HETATM   39  C42 UNL     1      -6.320   2.967  -4.684  1.00  0.00     0.005 C 
ENDBRANCH   9  10
ENDBRANCH   4   9
BRANCH   6  40
HETATM   40  C17 UNL     1       2.342  -3.107   0.475  1.00  0.00     0.214 C 
HETATM   41  O10 UNL     1       1.004  -2.662   0.523  1.00  0.00    -0.218 OA
ENDBRANCH   6  40
BRANCH   1  42
HETATM   42  O8  UNL     1       5.053  -2.977   1.727  1.00  0.00    -0.326 OA
BRANCH  42  43
HETATM   43  C4  UNL     1       5.186  -4.367   1.508  1.00  0.00     0.267 C 
HETATM   44  O1  UNL     1       6.395  -4.596   0.795  1.00  0.00    -0.326 OA
HETATM   45  C3  UNL     1       6.645  -5.953   0.455  1.00  0.00     0.184 C 
HETATM   46  C2  UNL     1       6.766  -6.791   1.748  1.00  0.00     0.215 C 
HETATM   47  C1  UNL     1       5.518  -6.627   2.643  1.00  0.00     0.217 C 
HETATM   48  O18 UNL     1       6.930  -8.152   1.393  1.00  0.00    -0.218 OA
HETATM   49  C5  UNL     1       5.215  -5.127   2.857  1.00  0.00     0.207 C 
HETATM   50  O19 UNL     1       5.736  -7.258   3.895  1.00  0.00    -0.218 OA
BRANCH  45  51
HETATM   51  C45 UNL     1       7.922  -5.969  -0.389  1.00  0.00     0.214 C 
HETATM   52  O17 UNL     1       7.627  -5.406  -1.647  1.00  0.00    -0.218 OA
ENDBRANCH  45  51
BRANCH  49  53
HETATM   53  O2  UNL     1       3.957  -4.990   3.502  1.00  0.00    -0.324 OA
BRANCH  53  54
HETATM   54  C6  UNL     1       3.899  -3.879   4.375  1.00  0.00     0.270 C 
HETATM   55  C7  UNL     1       4.096  -4.334   5.844  1.00  0.00     0.241 C 
HETATM   56  C8  UNL     1       3.875  -3.160   6.822  1.00  0.00     0.220 C 
HETATM   57  O7  UNL     1       5.412  -4.840   6.006  1.00  0.00    -0.215 OA
HETATM   58  C9  UNL     1       2.537  -2.455   6.508  1.00  0.00     0.215 C 
HETATM   59  O6  UNL     1       3.863  -3.641   8.158  1.00  0.00    -0.218 OA
HETATM   60  C10 UNL     1       2.434  -2.090   5.010  1.00  0.00     0.184 C 
HETATM   61  O5  UNL     1       2.428  -1.268   7.274  1.00  0.00    -0.218 OA
HETATM   62  O3  UNL     1       2.627  -3.260   4.227  1.00  0.00    -0.326 OA
BRANCH  60  63
HETATM   63  C11 UNL     1       1.061  -1.525   4.627  1.00  0.00     0.214 C 
HETATM   64  O4  UNL     1       1.131  -1.062   3.297  1.00  0.00    -0.218 OA
ENDBRANCH  60  63
ENDBRANCH  53  54
ENDBRANCH  49  53
ENDBRANCH  42  43
ENDBRANCH   1  42
TORSDOF 9
