REMARK  3 active torsions:
REMARK  status: ('A' for Active; 'I' for Inactive)
REMARK    1  A    between atoms: C4_4  and  C5_6 
REMARK    2  A    between atoms: C8_9  and  C9_11 
REMARK    3  A    between atoms: C12_14  and  C13_16 
ROOT
HETATM    1  C5  UNL     1       0.617  -2.188   0.058  1.00  0.00     0.035 A 
HETATM    2  C6  UNL     1      -0.785  -2.272   0.058  1.00  0.00     0.007 A 
HETATM    3  C7  UNL     1      -1.344  -0.973   0.058  1.00  0.00     0.007 A 
HETATM    4  C8  UNL     1      -0.318  -0.012   0.058  1.00  0.00     0.035 A 
HETATM    5  S2  UNL     1       1.266  -0.619   0.058  1.00  0.00    -0.086 SA
ENDROOT
BRANCH   4   6
HETATM    6  C9  UNL     1      -0.621   1.447   0.058  1.00  0.00     0.035 A 
HETATM    7  C10 UNL     1       0.393   2.408   0.058  1.00  0.00     0.007 A 
HETATM    8  C11 UNL     1      -0.186   3.697   0.058  1.00  0.00     0.005 A 
HETATM    9  C12 UNL     1      -1.596   3.654   0.058  1.00  0.00     0.040 A 
HETATM   10  S3  UNL     1      -2.199   2.061   0.058  1.00  0.00    -0.088 SA
BRANCH   9  11
HETATM   11  C13 UNL     1      -2.541   4.838   0.058  1.00  0.00     0.215 C 
HETATM   12  O1  UNL     1      -3.162   4.941  -1.204  1.00  0.00    -0.215 OA
ENDBRANCH   9  11
ENDBRANCH   4   6
BRANCH   1  13
HETATM   13  C4  UNL     1       1.467  -3.410   0.058  1.00  0.00     0.035 A 
HETATM   14  C3  UNL     1       2.863  -3.338   0.058  1.00  0.00     0.007 A 
HETATM   15  C2  UNL     1       3.398  -4.645   0.058  1.00  0.00     0.007 A 
HETATM   16  C1  UNL     1       2.396  -5.641   0.058  1.00  0.00     0.035 A 
HETATM   17  S1  UNL     1       0.826  -4.977   0.058  1.00  0.00    -0.086 SA
ENDBRANCH   1  13
TORSDOF 3
