REMARK  0 active torsions:
REMARK  status: ('A' for Active; 'I' for Inactive)
ROOT
HETATM    1  C1  UNL     1       3.988   0.744  -0.371  1.00  0.00     0.070 C 
HETATM    2  C2  UNL     1       4.471  -0.572   0.190  1.00  0.00     0.172 C 
HETATM    3  C3  UNL     1       3.518  -1.420   0.928  1.00  0.00     0.029 C 
HETATM    4  C4  UNL     1       2.262  -1.016   1.217  1.00  0.00    -0.042 C 
HETATM    5  C5  UNL     1       1.768   0.383   0.852  1.00  0.00     0.016 C 
HETATM    6  C6  UNL     1       2.455   0.809  -0.469  1.00  0.00     0.012 C 
HETATM    7  C7  UNL     1       0.211   0.373   0.746  1.00  0.00     0.004 C 
HETATM    8  C8  UNL     1      -0.279  -0.945   0.102  1.00  0.00     0.001 C 
HETATM    9  C9  UNL     1       0.014  -2.150   1.026  1.00  0.00     0.004 C 
HETATM   10  C10 UNL     1       1.276  -1.949   1.887  1.00  0.00     0.022 C 
HETATM   11  C11 UNL     1      -1.740  -0.879  -0.367  1.00  0.00     0.003 C 
HETATM   12  C12 UNL     1      -1.994   0.277  -1.373  1.00  0.00     0.028 C 
HETATM   13  C13 UNL     1      -0.892   1.359  -1.346  1.00  0.00     0.003 C 
HETATM   14  C14 UNL     1      -0.402   1.627   0.086  1.00  0.00     0.000 C 
HETATM   15  C15 UNL     1      -3.338   0.879  -0.892  1.00  0.00     0.152 C 
HETATM   16  C16 UNL     1      -3.980  -0.201  -0.029  1.00  0.00     0.033 C 
HETATM   17  C17 UNL     1      -2.766  -0.674   0.752  1.00  0.00     0.003 C 
HETATM   18  O1  UNL     1      -4.201   1.246  -1.953  1.00  0.00    -0.224 OA
HETATM   19  C18 UNL     1      -2.080  -0.357  -2.768  1.00  0.00     0.003 C 
HETATM   20  C19 UNL     1       2.186   1.342   1.975  1.00  0.00     0.004 C 
HETATM   21  O2  UNL     1       5.613  -0.936   0.031  1.00  0.00    -0.291 OA
ENDROOT
TORSDOF 0
