REMARK  10 active torsions:
REMARK  status: ('A' for Active; 'I' for Inactive)
REMARK    1  A    between atoms: C4_4  and  C8_9 
REMARK    2  A    between atoms: C6_6  and  O1_7 
REMARK    3  A    between atoms: C8_9  and  O2_10 
REMARK    4  A    between atoms: O2_10  and  C9_11 
REMARK    5  A    between atoms: C9_11  and  C10_12 
REMARK    6  A    between atoms: C14_16  and  O4_18 
REMARK    7  A    between atoms: O4_18  and  C15_19 
REMARK    8  A    between atoms: C17_21  and  O7_29 
REMARK    9  A    between atoms: C18_22  and  O6_27 
REMARK   10  A    between atoms: C19_23  and  O5_25 
ROOT
HETATM    1  C10 UNL     1      -1.968  -1.565  -2.069  1.00  0.00     0.181 C 
HETATM    2  C11 UNL     1      -2.296  -3.053  -2.079  1.00  0.00     0.215 C 
HETATM    3  C12 UNL     1      -1.356  -3.868  -1.211  1.00  0.00     0.220 C 
HETATM    4  C13 UNL     1       0.083  -3.499  -1.520  1.00  0.00     0.241 C 
HETATM    5  C14 UNL     1       0.295  -2.001  -1.517  1.00  0.00     0.274 C 
HETATM    6  O3  UNL     1      -0.616  -1.355  -2.383  1.00  0.00    -0.326 OA
HETATM    7  O8  UNL     1       0.435  -3.975  -2.798  1.00  0.00    -0.215 OA
HETATM    8  O9  UNL     1      -1.621  -3.603   0.147  1.00  0.00    -0.218 OA
HETATM    9  O10 UNL     1      -2.217  -3.527  -3.406  1.00  0.00    -0.218 OA
ENDROOT
BRANCH   1  10
HETATM   10  C9  UNL     1      -2.402  -0.827  -0.798  1.00  0.00     0.184 C 
BRANCH  10  11
HETATM   11  O2  UNL     1      -2.519   0.537  -1.078  1.00  0.00    -0.296 OA
BRANCH  11  12
HETATM   12  C8  UNL     1      -2.743   1.536  -0.160  1.00  0.00     0.296 C 
HETATM   13  O11 UNL     1      -2.791   2.644  -0.663  1.00  0.00    -0.259 OA
BRANCH  12  14
HETATM   14  C4  UNL     1      -2.902   1.510   1.204  1.00  0.00     0.065 A 
HETATM   15  C3  UNL     1      -3.067   2.675   1.866  1.00  0.00     0.008 A 
HETATM   16  C2  UNL     1      -3.234   2.716   3.195  1.00  0.00     0.030 A 
HETATM   17  C1  UNL     1      -3.224   1.599   3.934  1.00  0.00     0.153 A 
HETATM   18  C6  UNL     1      -3.017   0.420   3.317  1.00  0.00     0.119 A 
HETATM   19  O12 UNL     1      -3.403   1.639   5.282  1.00  0.00    -0.188 OA
HETATM   20  C5  UNL     1      -2.915   0.404   1.974  1.00  0.00     0.032 A 
BRANCH  18  21
HETATM   21  O1  UNL     1      -3.050  -0.743   4.047  1.00  0.00    -0.326 OA
HETATM   22  C7  UNL     1      -1.771  -1.255   4.346  1.00  0.00     0.181 C 
ENDBRANCH  18  21
ENDBRANCH  12  14
ENDBRANCH  11  12
ENDBRANCH  10  11
ENDBRANCH   1  10
BRANCH   5  23
HETATM   23  O4  UNL     1       1.578  -1.772  -2.058  1.00  0.00    -0.303 OA
BRANCH  23  24
HETATM   24  C15 UNL     1       2.256  -0.623  -1.729  1.00  0.00     0.101 A 
HETATM   25  C16 UNL     1       3.595  -0.644  -1.684  1.00  0.00     0.051 A 
HETATM   26  C17 UNL     1       4.364   0.405  -1.343  1.00  0.00     0.120 A 
HETATM   27  C18 UNL     1       3.757   1.567  -0.990  1.00  0.00     0.139 A 
HETATM   28  C19 UNL     1       2.401   1.642  -1.014  1.00  0.00     0.120 A 
HETATM   29  C20 UNL     1       1.700   0.540  -1.353  1.00  0.00     0.051 A 
BRANCH  26  30
HETATM   30  O7  UNL     1       5.727   0.187  -1.334  1.00  0.00    -0.326 OA
HETATM   31  C23 UNL     1       6.507   0.739  -0.297  1.00  0.00     0.181 C 
ENDBRANCH  26  30
BRANCH  27  32
HETATM   32  O6  UNL     1       4.574   2.633  -0.681  1.00  0.00    -0.324 OA
HETATM   33  C22 UNL     1       4.189   3.957  -0.969  1.00  0.00     0.182 C 
ENDBRANCH  27  32
BRANCH  28  34
HETATM   34  O5  UNL     1       1.784   2.813  -0.639  1.00  0.00    -0.326 OA
HETATM   35  C21 UNL     1       0.386   2.869  -0.494  1.00  0.00     0.181 C 
ENDBRANCH  28  34
ENDBRANCH  23  24
ENDBRANCH   5  23
TORSDOF 10
