REMARK  4 active torsions:
REMARK  status: ('A' for Active; 'I' for Inactive)
REMARK    1  A    between atoms: C14_15  and  C17_19 
REMARK    2  A    between atoms: C17_19  and  C18_20 
REMARK    3  A    between atoms: C18_20  and  C19_21 
REMARK    4  A    between atoms: C19_21  and  C20_22 
ROOT
HETATM    1  C1  UNL     1      -2.585   0.343   0.683  1.00  0.00    -0.035 C 
HETATM    2  C2  UNL     1      -2.499   0.689  -1.234  1.00  0.00     0.028 C 
HETATM    3  C3  UNL     1      -3.736   1.105  -0.663  1.00  0.00     0.034 C 
HETATM    4  C4  UNL     1      -2.361   2.108  -0.139  1.00  0.00     0.033 C 
HETATM    5  C5  UNL     1      -2.693   2.635   1.251  1.00  0.00     0.026 C 
HETATM    6  C6  UNL     1      -2.724   1.232   1.693  1.00  0.00    -0.048 C 
HETATM    7  C7  UNL     1      -2.797   0.933   3.166  1.00  0.00     0.026 C 
HETATM    8  C8  UNL     1      -0.870   1.032  -0.153  1.00  0.00     0.025 A 
HETATM    9  C9  UNL     1      -0.944  -0.377  -0.410  1.00  0.00     0.091 A 
HETATM   10  O1  UNL     1      -2.206  -1.258  -0.676  1.00  0.00    -0.336 OA
HETATM   11  C10 UNL     1      -3.705  -0.653  -0.719  1.00  0.00     0.099 C 
HETATM   12  C11 UNL     1      -4.397  -1.212  -2.004  1.00  0.00     0.030 C 
HETATM   13  C12 UNL     1      -4.633  -1.265   0.373  1.00  0.00     0.030 C 
HETATM   14  C13 UNL     1       0.236  -1.024  -0.406  1.00  0.00     0.020 A 
HETATM   15  C14 UNL     1       1.423  -0.432  -0.189  1.00  0.00    -0.018 A 
HETATM   16  C15 UNL     1       1.431   0.890   0.044  1.00  0.00     0.023 A 
HETATM   17  C16 UNL     1       0.315   1.634   0.066  1.00  0.00     0.129 A 
HETATM   18  O2  UNL     1       0.387   2.972   0.298  1.00  0.00    -0.190 OA
ENDROOT
BRANCH  15  19
HETATM   19  C17 UNL     1       2.685  -1.278  -0.220  1.00  0.00     0.026 C 
BRANCH  19  20
HETATM   20  C18 UNL     1       4.024  -0.523  -0.196  1.00  0.00     0.005 C 
BRANCH  20  21
HETATM   21  C19 UNL     1       5.234  -1.466  -0.311  1.00  0.00     0.000 C 
BRANCH  21  22
HETATM   22  C20 UNL     1       6.559  -0.687  -0.292  1.00  0.00     0.000 C 
HETATM   23  C21 UNL     1       7.777  -1.615  -0.398  1.00  0.00     0.000 C 
ENDBRANCH  21  22
ENDBRANCH  20  21
ENDBRANCH  19  20
ENDBRANCH  15  19
TORSDOF 4
