REMARK  1 active torsions:
REMARK  status: ('A' for Active; 'I' for Inactive)
REMARK    1  A    between atoms: C5_5  and  C7_7 
ROOT
HETATM    1  C1  UNL     1      -1.689  -0.793   0.000  1.00  0.00     0.000 A 
HETATM    2  C2  UNL     1      -0.943  -1.982   0.000  1.00  0.00     0.000 A 
HETATM    3  C3  UNL     1       0.463  -1.932   0.000  1.00  0.00     0.000 A 
HETATM    4  C4  UNL     1       1.121  -0.689   0.000  1.00  0.00     0.006 A 
HETATM    5  C5  UNL     1       0.375   0.502   0.000  1.00  0.00     0.064 A 
HETATM    6  C6  UNL     1      -1.031   0.449   0.000  1.00  0.00     0.006 A 
ENDROOT
BRANCH   5   7
HETATM    7  C7  UNL     1       1.074   1.822   0.000  1.00  0.00     0.211 C 
HETATM    8  O1  UNL     1       0.275   2.887   0.000  1.00  0.00    -0.644 OA
HETATM    9  O2  UNL     1       2.281   1.885   0.000  1.00  0.00    -0.644 OA
ENDBRANCH   5   7
TORSDOF 1
