REMARK  5 active torsions:
REMARK  status: ('A' for Active; 'I' for Inactive)
REMARK    1  A    between atoms: C1_1  and  C8_10 
REMARK    2  A    between atoms: C8_10  and  C9_11 
REMARK    3  A    between atoms: C9_11  and  C10_12 
REMARK    4  A    between atoms: C10_12  and  C11_13 
REMARK    5  A    between atoms: C11_13  and  C12_14 
ROOT
HETATM    1  C1  UNL     1       0.032   1.468  -0.102  1.00  0.00    -0.020 A 
HETATM    2  C2  UNL     1       0.410   2.762  -0.185  1.00  0.00    -0.002 A 
HETATM    3  C3  UNL     1      -0.477   3.771  -0.226  1.00  0.00     0.026 A 
HETATM    4  C4  UNL     1      -1.778   3.461  -0.180  1.00  0.00     0.119 A 
HETATM    5  C5  UNL     1      -2.172   2.187  -0.096  1.00  0.00     0.119 A 
HETATM    6  C6  UNL     1      -1.285   1.185  -0.057  1.00  0.00     0.022 A 
HETATM    7  O1  UNL     1      -3.397   2.101  -0.065  1.00  0.00    -0.300 OA
HETATM    8  C7  UNL     1      -3.921   3.429  -0.135  1.00  0.00     0.304 A 
HETATM    9  O2  UNL     1      -2.738   4.226  -0.205  1.00  0.00    -0.300 OA
ENDROOT
BRANCH   1  10
HETATM   10  C8  UNL     1       1.107   0.396  -0.067  1.00  0.00     0.026 C 
BRANCH  10  11
HETATM   11  C9  UNL     1       0.622  -1.060   0.024  1.00  0.00     0.005 C 
BRANCH  11  12
HETATM   12  C10 UNL     1       1.779  -2.073   0.050  1.00  0.00     0.012 C 
BRANCH  12  13
HETATM   13  C11 UNL     1       1.251  -3.514   0.142  1.00  0.00     0.098 C 
BRANCH  13  14
HETATM   14  C12 UNL     1       2.345  -4.563   0.158  1.00  0.00     0.185 C 
HETATM   15  O3  UNL     1       1.831  -5.806   0.230  1.00  0.00    -0.647 OA
HETATM   16  O4  UNL     1       3.537  -4.375   0.112  1.00  0.00    -0.647 OA
ENDBRANCH  13  14
ENDBRANCH  12  13
ENDBRANCH  11  12
ENDBRANCH  10  11
ENDBRANCH   1  10
TORSDOF 5
