REMARK  2 active torsions:
REMARK  status: ('A' for Active; 'I' for Inactive)
REMARK    1  A    between atoms: C15_17  and  O4_20 
REMARK    2  A    between atoms: O4_20  and  C17_21 
ROOT
HETATM    1  C1  UNL     1       3.674   0.519   1.395  1.00  0.00     0.209 C 
HETATM    2  C2  UNL     1       4.293  -0.516   0.443  1.00  0.00     0.041 C 
HETATM    3  C3  UNL     1       3.373  -1.721   0.156  1.00  0.00     0.004 C 
HETATM    4  C4  UNL     1       1.869  -1.391   0.334  1.00  0.00     0.009 C 
HETATM    5  C5  UNL     1       1.520   0.084  -0.016  1.00  0.00     0.061 C 
HETATM    6  C6  UNL     1       2.309   0.986   0.932  1.00  0.00     0.180 C 
HETATM    7  O1  UNL     1       1.879   2.049   1.316  1.00  0.00    -0.293 OA
HETATM    8  C7  UNL     1      -0.019   0.322   0.141  1.00  0.00     0.069 C 
HETATM    9  C8  UNL     1      -0.902  -0.733  -0.592  1.00  0.00     0.031 C 
HETATM   10  C9  UNL     1      -0.508  -2.174  -0.178  1.00  0.00     0.102 C 
HETATM   11  C10 UNL     1       0.990  -2.404  -0.422  1.00  0.00     0.028 C 
HETATM   12  O2  UNL     1      -0.736  -2.406   1.217  1.00  0.00    -0.307 OA
HETATM   13  C11 UNL     1      -1.887  -2.006   1.779  1.00  0.00     0.272 C 
HETATM   14  C12 UNL     1      -2.701  -0.863   1.217  1.00  0.00     0.096 C 
HETATM   15  C13 UNL     1      -2.398  -0.512  -0.252  1.00  0.00     0.015 C 
HETATM   16  C14 UNL     1      -2.867   0.916  -0.621  1.00  0.00     0.036 C 
HETATM   17  C15 UNL     1      -1.965   1.996   0.004  1.00  0.00     0.181 C 
HETATM   18  C16 UNL     1      -0.504   1.711  -0.252  1.00  0.00     0.178 C 
HETATM   19  O3  UNL     1       0.225   2.539  -0.750  1.00  0.00    -0.293 OA
HETATM   20  C19 UNL     1      -4.342   1.143  -0.273  1.00  0.00     0.003 C 
HETATM   21  O6  UNL     1      -2.303  -2.543   2.779  1.00  0.00    -0.264 OA
HETATM   22  C20 UNL     1      -1.314  -3.231  -0.953  1.00  0.00     0.030 C 
HETATM   23  C21 UNL     1      -0.725  -0.590  -2.115  1.00  0.00     0.003 C 
HETATM   24  C22 UNL     1       1.973   0.400  -1.449  1.00  0.00     0.008 C 
HETATM   25  C23 UNL     1       3.770  -2.936   1.006  1.00  0.00     0.000 C 
HETATM   26  O7  UNL     1       3.569  -0.035   2.689  1.00  0.00    -0.215 OA
ENDROOT
BRANCH  17  27
HETATM   27  O4  UNL     1      -2.310   3.264  -0.541  1.00  0.00    -0.297 OA
BRANCH  27  28
HETATM   28  C17 UNL     1      -1.805   4.271   0.166  1.00  0.00     0.273 C 
HETATM   29  C18 UNL     1      -2.129   5.646  -0.357  1.00  0.00     0.106 C 
HETATM   30  O5  UNL     1      -1.129   4.127   1.158  1.00  0.00    -0.264 OA
ENDBRANCH  27  28
ENDBRANCH  17  27
TORSDOF 2
