REMARK  5 active torsions:
REMARK  status: ('A' for Active; 'I' for Inactive)
REMARK    1  A    between atoms: C2_2  and  O6_22 
REMARK    2  A    between atoms: C4_4  and  C7_8 
REMARK    3  A    between atoms: C7_8  and  C8_9 
REMARK    4  A    between atoms: C9_10  and  C10_11 
REMARK    5  A    between atoms: C13_14  and  O2_17 
ROOT
HETATM    1  C7  UNL     1      -1.145  -2.505  -0.017  1.00  0.00     0.200 C 
HETATM    2  O4  UNL     1      -1.065  -3.598  -0.536  1.00  0.00    -0.286 OA
ENDROOT
BRANCH   1   3
HETATM    3  C4  UNL     1       0.000  -1.783   0.201  1.00  0.00     0.092 A 
HETATM    4  C3  UNL     1       1.084  -2.012  -0.586  1.00  0.00     0.160 A 
HETATM    5  C2  UNL     1       2.241  -1.336  -0.403  1.00  0.00     0.145 A 
HETATM    6  O5  UNL     1       1.061  -2.878  -1.644  1.00  0.00    -0.188 OA
HETATM    7  C1  UNL     1       2.316  -0.386   0.547  1.00  0.00     0.157 A 
HETATM    8  C6  UNL     1       1.260  -0.208   1.347  1.00  0.00     0.057 A 
HETATM    9  O7  UNL     1       3.452   0.338   0.745  1.00  0.00    -0.188 OA
HETATM   10  C5  UNL     1       0.107  -0.879   1.205  1.00  0.00     0.138 A 
HETATM   11  O1  UNL     1      -0.832  -0.659   2.167  1.00  0.00    -0.190 OA
BRANCH   5  12
HETATM   12  O6  UNL     1       3.301  -1.511  -1.260  1.00  0.00    -0.324 OA
HETATM   13  C17 UNL     1       4.179  -2.546  -0.879  1.00  0.00     0.182 C 
ENDBRANCH   5  12
ENDBRANCH   1   3
BRANCH   1  14
HETATM   14  C8  UNL     1      -2.415  -2.165   0.350  1.00  0.00     0.042 C 
HETATM   15  C9  UNL     1      -2.998  -0.977   0.607  1.00  0.00     0.003 C 
BRANCH  15  16
HETATM   16  C10 UNL     1      -2.613   0.286   0.331  1.00  0.00     0.002 A 
HETATM   17  C11 UNL     1      -1.659   0.602  -0.563  1.00  0.00     0.029 A 
HETATM   18  C12 UNL     1      -1.303   1.866  -0.848  1.00  0.00     0.153 A 
HETATM   19  C13 UNL     1      -1.905   2.890  -0.215  1.00  0.00     0.119 A 
HETATM   20  O3  UNL     1      -0.344   2.125  -1.778  1.00  0.00    -0.188 OA
HETATM   21  C14 UNL     1      -2.932   2.592   0.600  1.00  0.00     0.026 A 
HETATM   22  C15 UNL     1      -3.279   1.325   0.871  1.00  0.00     0.002 A 
BRANCH  19  23
HETATM   23  O2  UNL     1      -1.594   4.185  -0.538  1.00  0.00    -0.326 OA
HETATM   24  C16 UNL     1      -0.584   4.741   0.273  1.00  0.00     0.181 C 
ENDBRANCH  19  23
ENDBRANCH  15  16
ENDBRANCH   1  14
TORSDOF 5
