REMARK  3 active torsions:
REMARK  status: ('A' for Active; 'I' for Inactive)
REMARK    1  A    between atoms: C6_6  and  O1_7 
REMARK    2  A    between atoms: C8_10  and  C11_14 
REMARK    3  A    between atoms: C12_15  and  O6_22 
ROOT
HETATM    1  C1  UNL     1      -3.239   2.453   0.297  1.00  0.00     0.157 A 
HETATM    2  C2  UNL     1      -2.680   3.618  -0.046  1.00  0.00     0.057 A 
HETATM    3  C3  UNL     1      -1.384   3.719  -0.360  1.00  0.00     0.138 A 
HETATM    4  C4  UNL     1      -0.646   2.590  -0.322  1.00  0.00     0.089 A 
HETATM    5  C5  UNL     1      -1.178   1.387  -0.002  1.00  0.00     0.129 A 
HETATM    6  C6  UNL     1      -2.495   1.326   0.334  1.00  0.00     0.142 A 
HETATM    7  O2  UNL     1      -0.406   0.249  -0.029  1.00  0.00    -0.305 OA
HETATM    8  C8  UNL     1       0.963   0.360  -0.065  1.00  0.00     0.107 C 
HETATM    9  C9  UNL     1       1.444   1.559  -0.446  1.00  0.00     0.067 C 
HETATM   10  C10 UNL     1       0.682   2.668  -0.607  1.00  0.00     0.202 C 
HETATM   11  O3  UNL     1       1.250   3.685  -0.944  1.00  0.00    -0.286 OA
HETATM   12  O7  UNL     1      -0.899   4.952  -0.681  1.00  0.00    -0.190 OA
HETATM   13  O8  UNL     1      -4.567   2.420   0.605  1.00  0.00    -0.188 OA
ENDROOT
BRANCH   8  14
HETATM   14  C11 UNL     1       1.802  -0.713   0.078  1.00  0.00     0.073 A 
HETATM   15  C12 UNL     1       1.324  -1.986  -0.086  1.00  0.00     0.123 A 
HETATM   16  C13 UNL     1       2.168  -3.043   0.025  1.00  0.00     0.153 A 
HETATM   17  C14 UNL     1       3.455  -2.846   0.335  1.00  0.00     0.032 A 
HETATM   18  O5  UNL     1       1.794  -4.343  -0.139  1.00  0.00    -0.188 OA
HETATM   19  C15 UNL     1       3.914  -1.613   0.537  1.00  0.00     0.030 A 
HETATM   20  C16 UNL     1       3.112  -0.547   0.407  1.00  0.00     0.135 A 
HETATM   21  O4  UNL     1       3.689   0.639   0.754  1.00  0.00    -0.190 OA
BRANCH  15  22
HETATM   22  O6  UNL     1       0.006  -2.145  -0.459  1.00  0.00    -0.326 OA
HETATM   23  C17 UNL     1      -0.484  -3.339  -1.022  1.00  0.00     0.181 C 
ENDBRANCH  15  22
ENDBRANCH   8  14
BRANCH   6  24
HETATM   24  O1  UNL     1      -3.212   0.199   0.673  1.00  0.00    -0.324 OA
HETATM   25  C7  UNL     1      -2.772  -1.083   0.319  1.00  0.00     0.182 C 
ENDBRANCH   6  24
TORSDOF 3
