REMARK  3 active torsions:
REMARK  status: ('A' for Active; 'I' for Inactive)
REMARK    1  A    between atoms: C7_9  and  C10_13 
REMARK    2  A    between atoms: C10_13  and  C11_14 
REMARK    3  A    between atoms: C11_14  and  C12_15 
ROOT
HETATM    1  C1  UNL     1      -4.191  -0.677   0.110  1.00  0.00     0.222 C 
HETATM    2  C2  UNL     1      -4.168  -2.023  -0.577  1.00  0.00     0.220 C 
HETATM    3  C3  UNL     1      -3.032  -2.882  -0.058  1.00  0.00     0.212 C 
HETATM    4  C4  UNL     1      -1.713  -2.149   0.013  1.00  0.00     0.070 A 
HETATM    5  C5  UNL     1      -1.649  -0.804   0.018  1.00  0.00     0.112 A 
HETATM    6  C6  UNL     1      -2.882   0.058  -0.107  1.00  0.00     0.230 C 
HETATM    7  O1  UNL     1      -2.860   0.620  -1.407  1.00  0.00    -0.214 OA
HETATM    8  O2  UNL     1      -0.486  -0.096   0.080  1.00  0.00    -0.313 OA
HETATM    9  C7  UNL     1       0.644  -0.848   0.174  1.00  0.00     0.081 A 
HETATM   10  C8  UNL     1       0.609  -2.190   0.190  1.00  0.00     0.062 A 
HETATM   11  C9  UNL     1      -0.563  -2.866   0.108  1.00  0.00     0.198 A 
HETATM   12  O3  UNL     1      -0.592  -4.076   0.123  1.00  0.00    -0.287 OA
HETATM   13  O5  UNL     1      -2.947  -4.025  -0.889  1.00  0.00    -0.216 OA
HETATM   14  O6  UNL     1      -5.377  -2.690  -0.310  1.00  0.00    -0.217 OA
HETATM   15  O7  UNL     1      -4.389  -0.900   1.485  1.00  0.00    -0.217 OA
ENDROOT
BRANCH   9  16
HETATM   16  C10 UNL     1       1.967  -0.122   0.319  1.00  0.00     0.056 C 
BRANCH  16  17
HETATM   17  C11 UNL     1       1.921   1.349  -0.125  1.00  0.00     0.035 C 
BRANCH  17  18
HETATM   18  C12 UNL     1       3.186   2.174   0.053  1.00  0.00     0.004 A 
HETATM   19  C13 UNL     1       3.132   3.503  -0.182  1.00  0.00     0.127 A 
HETATM   20  C14 UNL     1       4.242   4.244  -0.021  1.00  0.00     0.027 A 
HETATM   21  O4  UNL     1       1.977   4.108  -0.575  1.00  0.00    -0.191 OA
HETATM   22  C15 UNL     1       5.402   3.696   0.365  1.00  0.00     0.002 A 
HETATM   23  C16 UNL     1       5.458   2.377   0.597  1.00  0.00    -0.000 A 
HETATM   24  C17 UNL     1       4.355   1.629   0.440  1.00  0.00    -0.002 A 
ENDBRANCH  17  18
ENDBRANCH  16  17
ENDBRANCH   9  16
TORSDOF 3
