REMARK  0 active torsions:
REMARK  status: ('A' for Active; 'I' for Inactive)
ROOT
HETATM    1  C1  UNL     1      -2.902  -0.409   1.785  1.00  0.00     0.000 C 
HETATM    2  C2  UNL     1      -2.560  -1.903   1.857  1.00  0.00     0.000 C 
HETATM    3  C3  UNL     1      -1.836  -2.416   0.592  1.00  0.00     0.007 C 
HETATM    4  C4  UNL     1      -0.619  -1.505   0.270  1.00  0.00     0.063 C 
HETATM    5  C5  UNL     1      -0.747   0.038   0.501  1.00  0.00     0.041 C 
HETATM    6  C6  UNL     1      -1.615   0.415   1.699  1.00  0.00     0.003 C 
HETATM    7  C7  UNL     1       0.697   0.643   0.540  1.00  0.00     0.045 C 
HETATM    8  C8  UNL     1       1.142   0.603  -0.947  1.00  0.00     0.120 C 
HETATM    9  C9  UNL     1      -0.050  -0.070  -1.622  1.00  0.00     0.213 C 
HETATM   10  C10 UNL     1      -0.154  -1.527  -1.184  1.00  0.00     0.180 C 
HETATM   11  O1  UNL     1       0.072  -2.496  -1.870  1.00  0.00    -0.293 OA
HETATM   12  C11 UNL     1      -1.261   0.470  -0.876  1.00  0.00     0.188 C 
HETATM   13  O2  UNL     1      -1.408   1.856  -1.019  1.00  0.00    -0.220 OA
HETATM   14  O3  UNL     1      -0.164   0.180  -2.996  1.00  0.00    -0.215 OA
HETATM   15  C12 UNL     1       1.557   1.970  -1.511  1.00  0.00     0.166 C 
HETATM   16  C13 UNL     1       2.797   2.228  -0.662  1.00  0.00     0.059 C 
HETATM   17  C14 UNL     1       2.357   2.542   0.782  1.00  0.00     0.040 C 
HETATM   18  C15 UNL     1       0.946   2.035   1.132  1.00  0.00     0.153 C 
HETATM   19  O4  UNL     1       0.821   2.012   2.536  1.00  0.00    -0.223 OA
HETATM   20  C16 UNL     1       3.434   0.861  -0.777  1.00  0.00     0.015 C 
HETATM   21  C17 UNL     1       2.498  -0.102  -0.967  1.00  0.00     0.174 C 
HETATM   22  O5  UNL     1       2.675  -1.288  -1.097  1.00  0.00    -0.291 OA
HETATM   23  C18 UNL     1       4.748   0.615  -0.712  1.00  0.00    -0.002 C 
HETATM   24  O6  UNL     1       1.914   1.825  -2.865  1.00  0.00    -0.223 OA
HETATM   25  C19 UNL     1      -1.319  -3.847   0.889  1.00  0.00     0.000 C 
HETATM   26  C20 UNL     1      -2.864  -2.566  -0.554  1.00  0.00     0.000 C 
ENDROOT
TORSDOF 0
