REMARK  2 active torsions:
REMARK  status: ('A' for Active; 'I' for Inactive)
REMARK    1  A    between atoms: C10_11  and  C14_17 
REMARK    2  A    between atoms: C14_17  and  C15_18 
ROOT
HETATM    1  C1  UNL     1      -0.064   3.011  -3.490  1.00  0.00     0.030 A 
HETATM    2  C2  UNL     1      -0.134   3.438  -2.221  1.00  0.00     0.158 A 
HETATM    3  C3  UNL     1      -0.112   2.531  -1.228  1.00  0.00     0.179 A 
HETATM    4  C4  UNL     1      -0.022   1.211  -1.496  1.00  0.00     0.130 A 
HETATM    5  C5  UNL     1       0.048   0.797  -2.772  1.00  0.00     0.064 A 
HETATM    6  C6  UNL     1       0.027   1.703  -3.767  1.00  0.00     0.007 A 
HETATM    7  C7  UNL     1       0.137  -0.533  -3.044  1.00  0.00     0.201 A 
HETATM    8  C8  UNL     1       0.151  -1.433  -2.016  1.00  0.00     0.087 A 
HETATM    9  C9  UNL     1       0.077  -0.996  -0.737  1.00  0.00     0.107 A 
HETATM   10  O1  UNL     1      -0.007   0.333  -0.459  1.00  0.00    -0.305 OA
HETATM   11  C10 UNL     1       0.083  -1.884   0.288  1.00  0.00     0.048 A 
HETATM   12  C11 UNL     1       0.174  -3.204   0.019  1.00  0.00     0.135 A 
HETATM   13  C12 UNL     1       0.249  -3.605  -1.256  1.00  0.00     0.055 A 
HETATM   14  C13 UNL     1       0.238  -2.753  -2.289  1.00  0.00     0.138 A 
HETATM   15  O2  UNL     1       0.317  -3.280  -3.544  1.00  0.00    -0.190 OA
HETATM   16  O3  UNL     1       0.193  -4.146   1.005  1.00  0.00    -0.190 OA
HETATM   17  O4  UNL     1       0.200  -0.881  -4.204  1.00  0.00    -0.286 OA
HETATM   18  O5  UNL     1      -0.185   2.973   0.058  1.00  0.00    -0.186 OA
HETATM   19  O6  UNL     1      -0.227   4.764  -1.935  1.00  0.00    -0.188 OA
ENDROOT
BRANCH  11  20
HETATM   20  C14 UNL     1      -0.003  -1.525   1.773  1.00  0.00     0.003 C 
BRANCH  20  21
HETATM   21  C15 UNL     1      -0.148  -0.133   2.336  1.00  0.00    -0.008 C 
HETATM   22  C16 UNL     1      -0.120   0.172   3.647  1.00  0.00    -0.044 C 
HETATM   23  C17 UNL     1      -0.281   1.598   4.123  1.00  0.00     0.026 C 
HETATM   24  C18 UNL     1       0.051  -0.842   4.754  1.00  0.00     0.026 C 
ENDBRANCH  20  21
ENDBRANCH  11  20
TORSDOF 2
