REMARK  3 active torsions:
REMARK  status: ('A' for Active; 'I' for Inactive)
REMARK    1  A    between atoms: C6_6  and  O1_7 
REMARK    2  A    between atoms: O1_7  and  C7_8 
REMARK    3  A    between atoms: C11_12  and  C12_14 
ROOT
HETATM    1  C1  UNL     1       3.122  -0.217  -0.637  1.00  0.00     0.153 A 
HETATM    2  C2  UNL     1       4.033  -0.123   0.341  1.00  0.00     0.032 A 
HETATM    3  C3  UNL     1       3.717   0.452   1.505  1.00  0.00     0.027 A 
HETATM    4  C4  UNL     1       2.490   0.951   1.725  1.00  0.00     0.105 A 
HETATM    5  C5  UNL     1       1.564   0.838   0.750  1.00  0.00     0.086 A 
HETATM    6  C6  UNL     1       1.864   0.229  -0.429  1.00  0.00     0.127 A 
HETATM    7  C13 UNL     1       0.319   1.347   0.993  1.00  0.00     0.203 A 
HETATM    8  C14 UNL     1       0.034   1.962   2.177  1.00  0.00     0.087 A 
HETATM    9  C15 UNL     1       1.002   2.059   3.109  1.00  0.00     0.107 A 
HETATM   10  O7  UNL     1       2.250   1.550   2.925  1.00  0.00    -0.307 OA
HETATM   11  C16 UNL     1       0.722   2.683   4.267  1.00  0.00     0.052 A 
HETATM   12  C17 UNL     1      -0.481   3.209   4.536  1.00  0.00     0.135 A 
HETATM   13  C18 UNL     1      -1.425   3.075   3.594  1.00  0.00     0.055 A 
HETATM   14  C19 UNL     1      -1.199   2.466   2.418  1.00  0.00     0.138 A 
HETATM   15  O8  UNL     1      -2.235   2.384   1.535  1.00  0.00    -0.190 OA
HETATM   16  O9  UNL     1      -0.729   3.840   5.715  1.00  0.00    -0.190 OA
HETATM   17  O10 UNL     1      -0.551   1.250   0.160  1.00  0.00    -0.286 OA
HETATM   18  O11 UNL     1       3.466  -0.784  -1.828  1.00  0.00    -0.188 OA
ENDROOT
BRANCH   6  19
HETATM   19  O1  UNL     1       1.006   0.155  -1.501  1.00  0.00    -0.301 OA
BRANCH  19  20
HETATM   20  C7  UNL     1       0.054  -0.890  -1.467  1.00  0.00     0.274 C 
HETATM   21  C8  UNL     1       0.518  -2.043  -2.321  1.00  0.00     0.241 C 
HETATM   22  C9  UNL     1      -0.615  -3.036  -2.508  1.00  0.00     0.220 C 
HETATM   23  O6  UNL     1       0.908  -1.518  -3.569  1.00  0.00    -0.215 OA
HETATM   24  C10 UNL     1      -1.891  -2.340  -2.943  1.00  0.00     0.215 C 
HETATM   25  O5  UNL     1      -0.247  -3.979  -3.486  1.00  0.00    -0.218 OA
HETATM   26  C11 UNL     1      -2.205  -1.118  -2.091  1.00  0.00     0.184 C 
HETATM   27  O4  UNL     1      -1.717  -1.919  -4.278  1.00  0.00    -0.218 OA
HETATM   28  O2  UNL     1      -1.087  -0.282  -2.039  1.00  0.00    -0.326 OA
BRANCH  26  29
HETATM   29  C12 UNL     1      -2.743  -1.421  -0.701  1.00  0.00     0.214 C 
HETATM   30  O3  UNL     1      -2.928  -0.211   0.016  1.00  0.00    -0.218 OA
ENDBRANCH  26  29
ENDBRANCH  19  20
ENDBRANCH   6  19
TORSDOF 3
