REMARK  5 active torsions:
REMARK  status: ('A' for Active; 'I' for Inactive)
REMARK    1  A    between atoms: C1_1  and  O2_10 
REMARK    2  A    between atoms: O2_10  and  C7_11 
REMARK    3  A    between atoms: C10_15  and  C13_19 
REMARK    4  A    between atoms: C13_19  and  C14_20 
REMARK    5  A    between atoms: C14_20  and  C15_21 
ROOT
HETATM    1  C7  UNL     1      -0.114  -0.398   1.061  1.00  0.00     0.111 A 
HETATM    2  C8  UNL     1       1.050   0.203   0.735  1.00  0.00     0.053 A 
HETATM    3  I3  UNL     1       2.906  -0.285   1.754  1.00  0.00    -0.041 I 
HETATM    4  C9  UNL     1       1.129   1.129  -0.234  1.00  0.00     0.004 A 
HETATM    5  C10 UNL     1       0.040   1.517  -0.916  1.00  0.00    -0.018 A 
HETATM    6  C11 UNL     1      -1.127   0.934  -0.593  1.00  0.00     0.004 A 
HETATM    7  C12 UNL     1      -1.203   0.002   0.371  1.00  0.00     0.053 A 
HETATM    8  I4  UNL     1      -3.177  -0.814   0.754  1.00  0.00    -0.041 I 
ENDROOT
BRANCH   1   9
HETATM    9  O2  UNL     1      -0.179  -1.341   2.056  1.00  0.00    -0.306 OA
BRANCH   9  10
HETATM   10  C1  UNL     1      -0.309  -2.646   1.655  1.00  0.00     0.101 A 
HETATM   11  C2  UNL     1       0.412  -3.188   0.656  1.00  0.00     0.033 A 
HETATM   12  C3  UNL     1       0.268  -4.471   0.289  1.00  0.00     0.058 A 
HETATM   13  C4  UNL     1      -0.608  -5.284   0.907  1.00  0.00     0.142 A 
HETATM   14  I2  UNL     1       1.497  -5.199  -1.339  1.00  0.00    -0.041 I 
HETATM   15  C5  UNL     1      -1.327  -4.750   1.910  1.00  0.00     0.058 A 
HETATM   16  O1  UNL     1      -0.764  -6.586   0.540  1.00  0.00    -0.189 OA
HETATM   17  C6  UNL     1      -1.175  -3.469   2.276  1.00  0.00     0.033 A 
HETATM   18  I1  UNL     1      -2.766  -5.967   2.972  1.00  0.00    -0.041 I 
ENDBRANCH   9  10
ENDBRANCH   1   9
BRANCH   5  19
HETATM   19  C13 UNL     1       0.103   2.583  -1.994  1.00  0.00     0.077 C 
BRANCH  19  20
HETATM   20  C14 UNL     1       0.955   3.815  -1.641  1.00  0.00     0.391 C 
HETATM   21  N1  UNL     1       0.812   4.830  -2.697  1.00  0.00     0.628 N 
BRANCH  20  22
HETATM   22  C15 UNL     1       0.596   4.441  -0.307  1.00  0.00     0.224 C 
HETATM   23  O3  UNL     1       1.411   5.474  -0.024  1.00  0.00    -0.646 OA
HETATM   24  O4  UNL     1      -0.277   4.100   0.455  1.00  0.00    -0.646 OA
ENDBRANCH  20  22
ENDBRANCH  19  20
ENDBRANCH   5  19
TORSDOF 5
