REMARK  9 active torsions:
REMARK  status: ('A' for Active; 'I' for Inactive)
REMARK    1  A    between atoms: C1_1  and  O16_43 
REMARK    2  A    between atoms: C10_11  and  O14_40 
REMARK    3  A    between atoms: C11_12  and  O13_38 
REMARK    4  A    between atoms: C12_13  and  O12_36 
REMARK    5  A    between atoms: C13_14  and  O2_15 
REMARK    6  A    between atoms: O2_15  and  C14_16 
REMARK    7  A    between atoms: C18_20  and  C19_22 
REMARK    8  A    between atoms: C19_22  and  O4_23 
REMARK    9  A    between atoms: O4_23  and  C20_24 
ROOT
HETATM    1  C1  UNL     1       6.123  -1.512  -2.774  1.00  0.00     0.094 A 
HETATM    2  C2  UNL     1       6.846  -1.252  -1.669  1.00  0.00     0.026 A 
HETATM    3  C3  UNL     1       6.315  -0.639  -0.603  1.00  0.00     0.027 A 
HETATM    4  C4  UNL     1       5.025  -0.263  -0.580  1.00  0.00     0.103 A 
HETATM    5  C5  UNL     1       4.277  -0.517  -1.663  1.00  0.00     0.064 A 
HETATM    6  C6  UNL     1       4.829  -1.135  -2.729  1.00  0.00     0.029 A 
HETATM    7  C7  UNL     1       2.963  -0.156  -1.657  1.00  0.00     0.201 A 
HETATM    8  C8  UNL     1       2.412   0.434  -0.549  1.00  0.00     0.088 A 
HETATM    9  C9  UNL     1       3.197   0.670   0.526  1.00  0.00     0.129 A 
HETATM   10  O1  UNL     1       4.521   0.347   0.520  1.00  0.00    -0.305 OA
HETATM   11  C10 UNL     1       2.682   1.250   1.638  1.00  0.00     0.141 A 
HETATM   12  C11 UNL     1       1.376   1.602   1.649  1.00  0.00     0.142 A 
HETATM   13  C12 UNL     1       0.596   1.375   0.572  1.00  0.00     0.141 A 
HETATM   14  C13 UNL     1       1.092   0.745  -0.516  1.00  0.00     0.126 A 
HETATM   15  O15 UNL     1       2.326  -0.397  -2.658  1.00  0.00    -0.286 OA
ENDROOT
BRANCH  14  16
HETATM   16  O2  UNL     1       0.246   0.557  -1.586  1.00  0.00    -0.301 OA
BRANCH  16  17
HETATM   17  C14 UNL     1      -0.751  -0.439  -1.448  1.00  0.00     0.274 C 
HETATM   18  C15 UNL     1      -0.430  -1.609  -2.350  1.00  0.00     0.241 C 
HETATM   19  C16 UNL     1      -1.625  -2.527  -2.505  1.00  0.00     0.220 C 
HETATM   20  O11 UNL     1      -0.076  -1.106  -3.617  1.00  0.00    -0.215 OA
HETATM   21  C17 UNL     1      -2.861  -1.728  -2.863  1.00  0.00     0.215 C 
HETATM   22  O10 UNL     1      -1.366  -3.451  -3.534  1.00  0.00    -0.218 OA
HETATM   23  C18 UNL     1      -3.071  -0.570  -1.899  1.00  0.00     0.180 C 
HETATM   24  O9  UNL     1      -2.692  -1.209  -4.164  1.00  0.00    -0.218 OA
HETATM   25  O3  UNL     1      -1.925   0.235  -1.862  1.00  0.00    -0.326 OA
BRANCH  23  26
HETATM   26  C19 UNL     1      -3.533  -1.006  -0.511  1.00  0.00     0.177 C 
BRANCH  26  27
HETATM   27  O4  UNL     1      -3.892   0.129   0.238  1.00  0.00    -0.326 OA
BRANCH  27  28
HETATM   28  C20 UNL     1      -4.197  -0.166   1.587  1.00  0.00     0.270 C 
HETATM   29  C21 UNL     1      -5.532   0.453   1.927  1.00  0.00     0.241 C 
HETATM   30  C22 UNL     1      -5.781   0.367   3.419  1.00  0.00     0.220 C 
HETATM   31  O8  UNL     1      -5.507   1.802   1.528  1.00  0.00    -0.215 OA
HETATM   32  C23 UNL     1      -4.593   0.915   4.185  1.00  0.00     0.215 C 
HETATM   33  O7  UNL     1      -6.930   1.111   3.743  1.00  0.00    -0.218 OA
HETATM   34  C24 UNL     1      -3.301   0.279   3.704  1.00  0.00     0.181 C 
HETATM   35  O6  UNL     1      -4.531   2.308   3.979  1.00  0.00    -0.218 OA
HETATM   36  O5  UNL     1      -3.152   0.445   2.316  1.00  0.00    -0.326 OA
ENDBRANCH  27  28
ENDBRANCH  26  27
ENDBRANCH  23  26
ENDBRANCH  16  17
ENDBRANCH  14  16
BRANCH  13  37
HETATM   37  O12 UNL     1      -0.750   1.660   0.642  1.00  0.00    -0.324 OA
HETATM   38  C25 UNL     1      -1.121   2.925   0.147  1.00  0.00     0.182 C 
ENDBRANCH  13  37
BRANCH  12  39
HETATM   39  O13 UNL     1       0.800   2.148   2.778  1.00  0.00    -0.324 OA
HETATM   40  C26 UNL     1       1.208   3.459   3.103  1.00  0.00     0.182 C 
ENDBRANCH  12  39
BRANCH  11  41
HETATM   41  O14 UNL     1       3.379   1.492   2.805  1.00  0.00    -0.324 OA
HETATM   42  C27 UNL     1       4.572   0.818   3.128  1.00  0.00     0.182 C 
ENDBRANCH  11  41
BRANCH   1  43
HETATM   43  O16 UNL     1       6.732  -2.169  -3.816  1.00  0.00    -0.328 OA
HETATM   44  C28 UNL     1       5.934  -2.689  -4.854  1.00  0.00     0.181 C 
ENDBRANCH   1  43
TORSDOF 9
