REMARK  8 active torsions:
REMARK  status: ('A' for Active; 'I' for Inactive)
REMARK    1  A    between atoms: C2_2  and  C3_3 
REMARK    2  A    between atoms: C3_3  and  C4_4 
REMARK    3  A    between atoms: C4_4  and  C5_5 
REMARK    4  A    between atoms: C5_5  and  C6_6 
REMARK    5  A    between atoms: C6_6  and  C7_7 
REMARK    6  A    between atoms: C7_7  and  C8_8 
REMARK    7  A    between atoms: C8_8  and  C9_9 
REMARK    8  A    between atoms: C9_9  and  C10_10 
ROOT
HETATM    1  C6  UNL     1      -1.317  -0.682   0.299  1.00  0.00     0.000 C 
ENDROOT
BRANCH   1   2
HETATM    2  C5  UNL     1      -0.481  -0.195   1.504  1.00  0.00     0.000 C 
HETATM    3  C13 UNL     1      -1.405   0.272   2.645  1.00  0.00     0.000 C 
BRANCH   2   4
HETATM    4  C4  UNL     1       0.484  -1.286   2.013  1.00  0.00     0.000 C 
BRANCH   4   5
HETATM    5  C3  UNL     1       1.728  -1.517   1.125  1.00  0.00     0.000 C 
HETATM    6  C14 UNL     1       2.735  -0.357   1.265  1.00  0.00     0.000 C 
BRANCH   5   7
HETATM    7  C2  UNL     1       2.433  -2.849   1.462  1.00  0.00     0.000 C 
HETATM    8  C1  UNL     1       1.651  -4.095   1.019  1.00  0.00     0.000 C 
ENDBRANCH   5   7
ENDBRANCH   4   5
ENDBRANCH   2   4
ENDBRANCH   1   2
BRANCH   1   9
HETATM    9  C7  UNL     1      -1.735   0.449  -0.665  1.00  0.00     0.001 C 
HETATM   10  C12 UNL     1      -2.947   0.001  -1.504  1.00  0.00     0.000 C 
BRANCH   9  11
HETATM   11  C8  UNL     1      -0.555   0.852  -1.580  1.00  0.00     0.011 C 
BRANCH  11  12
HETATM   12  C9  UNL     1      -0.653   2.274  -2.171  1.00  0.00     0.087 C 
HETATM   13  C11 UNL     1       0.349   2.430  -3.330  1.00  0.00     0.011 C 
BRANCH  12  14
HETATM   14  C10 UNL     1      -0.427   3.351  -1.117  1.00  0.00     0.185 C 
HETATM   15  O1  UNL     1      -0.591   4.589  -1.622  1.00  0.00    -0.647 OA
HETATM   16  O2  UNL     1      -0.153   3.188   0.048  1.00  0.00    -0.647 OA
ENDBRANCH  12  14
ENDBRANCH  11  12
ENDBRANCH   9  11
ENDBRANCH   1   9
TORSDOF 8
