REMARK  9 active torsions:
REMARK  status: ('A' for Active; 'I' for Inactive)
REMARK    1  A    between atoms: C1_1  and  C2_2 
REMARK    2  A    between atoms: C2_2  and  C3_3 
REMARK    3  A    between atoms: C3_3  and  C4_4 
REMARK    4  A    between atoms: C4_4  and  C5_5 
REMARK    5  A    between atoms: C5_5  and  C6_6 
REMARK    6  A    between atoms: C6_6  and  C7_7 
REMARK    7  A    between atoms: C7_7  and  C8_8 
REMARK    8  A    between atoms: C8_8  and  C9_9 
REMARK    9  A    between atoms: C9_9  and  C10_10 
ROOT
HETATM    1  C6  UNL     1      -1.456   0.243  -0.271  1.00  0.00     0.000 C 
ENDROOT
BRANCH   1   2
HETATM    2  C5  UNL     1      -0.576  -0.217  -1.456  1.00  0.00     0.000 C 
HETATM    3  C13 UNL     1      -1.454  -0.760  -2.600  1.00  0.00     0.000 C 
BRANCH   2   4
HETATM    4  C4  UNL     1       0.321   0.927  -1.972  1.00  0.00     0.000 C 
BRANCH   4   5
HETATM    5  C3  UNL     1       1.551   1.215  -1.082  1.00  0.00     0.000 C 
HETATM    6  C14 UNL     1       2.659   0.170  -1.326  1.00  0.00     0.000 C 
BRANCH   5   7
HETATM    7  C2  UNL     1       2.117   2.631  -1.320  1.00  0.00     0.000 C 
BRANCH   7   8
HETATM    8  C1  UNL     1       1.251   3.751  -0.719  1.00  0.00     0.000 C 
HETATM    9  C15 UNL     1       1.894   5.132  -0.910  1.00  0.00     0.000 C 
ENDBRANCH   7   8
ENDBRANCH   5   7
ENDBRANCH   4   5
ENDBRANCH   2   4
ENDBRANCH   1   2
BRANCH   1  10
HETATM   10  C7  UNL     1      -1.861  -0.899   0.686  1.00  0.00     0.001 C 
HETATM   11  C12 UNL     1      -3.104  -0.483   1.496  1.00  0.00     0.000 C 
BRANCH  10  12
HETATM   12  C8  UNL     1      -0.693  -1.267   1.629  1.00  0.00     0.011 C 
BRANCH  12  13
HETATM   13  C9  UNL     1      -0.764  -2.691   2.219  1.00  0.00     0.087 C 
HETATM   14  C11 UNL     1       0.183  -2.808   3.427  1.00  0.00     0.011 C 
BRANCH  13  15
HETATM   15  C10 UNL     1      -0.456  -3.757   1.175  1.00  0.00     0.185 C 
HETATM   16  O1  UNL     1      -0.505  -4.999   1.692  1.00  0.00    -0.647 OA
HETATM   17  O2  UNL     1      -0.212  -3.585   0.005  1.00  0.00    -0.647 OA
ENDBRANCH  13  15
ENDBRANCH  12  13
ENDBRANCH  10  12
ENDBRANCH   1  10
TORSDOF 9
