REMARK  1 active torsions:
REMARK  status: ('A' for Active; 'I' for Inactive)
REMARK    1  A    between atoms: C14_16  and  C16_20 
ROOT
HETATM    1  C1  UNL     1      -3.228  -0.671  -0.957  1.00  0.00     0.005 C 
HETATM    2  C2  UNL     1      -3.162  -2.195  -0.753  1.00  0.00     0.031 C 
HETATM    3  C3  UNL     1      -1.904  -2.562  -0.029  1.00  0.00     0.035 A 
HETATM    4  C4  UNL     1      -0.900  -1.714   0.197  1.00  0.00    -0.016 A 
HETATM    5  C5  UNL     1      -0.829  -0.280  -0.228  1.00  0.00     0.029 C 
HETATM    6  C6  UNL     1      -1.859  -0.090  -1.359  1.00  0.00     0.005 C 
HETATM    7  C7  UNL     1       0.657   0.064  -0.535  1.00  0.00     0.084 A 
HETATM    8  C8  UNL     1       1.392  -1.200  -1.059  1.00  0.00     0.012 C 
HETATM    9  C9  UNL     1       1.469  -2.335  -0.008  1.00  0.00     0.035 C 
HETATM   10  C10 UNL     1       0.232  -2.402   0.888  1.00  0.00     0.143 A 
HETATM   11  O1  UNL     1      -0.244  -3.727   1.050  1.00  0.00    -0.297 OA
HETATM   12  C11 UNL     1      -1.495  -3.744   0.485  1.00  0.00     0.291 A 
HETATM   13  O2  UNL     1      -2.178  -4.743   0.441  1.00  0.00    -0.260 OA
HETATM   14  C12 UNL     1       2.790  -0.933  -1.649  1.00  0.00     0.001 C 
HETATM   15  C13 UNL     1       1.359   0.675   0.694  1.00  0.00     0.045 A 
HETATM   16  C14 UNL     1       1.624   2.133   0.341  1.00  0.00     0.149 A 
HETATM   17  O3  UNL     1       1.258   2.308  -1.001  1.00  0.00    -0.300 OA
HETATM   18  C15 UNL     1       0.752   1.185  -1.562  1.00  0.00     0.272 A 
HETATM   19  O4  UNL     1       0.430   1.104  -2.728  1.00  0.00    -0.264 OA
ENDROOT
BRANCH  16  20
HETATM   20  C16 UNL     1       0.895   3.112   1.220  1.00  0.00     0.032 A 
HETATM   21  C17 UNL     1      -0.425   3.232   1.411  1.00  0.00     0.121 A 
HETATM   22  O5  UNL     1      -0.695   4.141   2.195  1.00  0.00    -0.303 OA
HETATM   23  C18 UNL     1       0.360   4.662   2.553  1.00  0.00     0.122 A 
HETATM   24  C19 UNL     1       1.423   4.076   1.987  1.00  0.00     0.027 A 
ENDBRANCH  16  20
TORSDOF 1
