REMARK  4 active torsions:
REMARK  status: ('A' for Active; 'I' for Inactive)
REMARK    1  A    between atoms: C5_5  and  O2_9 
REMARK    2  A    between atoms: C6_6  and  O1_7 
REMARK    3  A    between atoms: C10_13  and  O4_14 
REMARK    4  A    between atoms: C12_16  and  O7_46 
ROOT
HETATM    1  C1  UNL     1      -2.456   2.497  -1.194  1.00  0.00     0.002 C 
HETATM    2  C2  UNL     1      -2.111   1.225  -1.460  1.00  0.00     0.009 C 
HETATM    3  C3  UNL     1      -0.848   0.871  -1.209  1.00  0.00     0.024 C 
HETATM    4  C4  UNL     1       0.083   1.693  -0.707  1.00  0.00     0.124 C 
HETATM    5  C5  UNL     1      -0.280   2.967  -0.453  1.00  0.00     0.139 C 
HETATM    6  C6  UNL     1      -1.573   3.344  -0.613  1.00  0.00     0.114 C 
HETATM    7  O3  UNL     1       1.367   1.238  -0.602  1.00  0.00    -0.303 OA
HETATM    8  C9  UNL     1       1.980   0.922   0.586  1.00  0.00     0.120 C 
HETATM    9  C10 UNL     1       3.208   1.456   0.800  1.00  0.00     0.139 C 
HETATM   10  C12 UNL     1       3.917   1.180   1.917  1.00  0.00     0.118 C 
HETATM   11  C13 UNL     1       3.440   0.208   2.712  1.00  0.00     0.024 C 
HETATM   12  C14 UNL     1       2.256  -0.380   2.490  1.00  0.00     0.009 C 
HETATM   13  C15 UNL     1       1.482   0.025   1.468  1.00  0.00     0.003 C 
HETATM   14  C16 UNL     1       0.104  -0.591   1.320  1.00  0.00     0.064 C 
HETATM   15  C17 UNL     1      -0.377  -1.549   2.425  1.00  0.00     0.255 C 
HETATM   16  N1  UNL     1       0.414  -1.503   3.638  1.00  0.00     0.142 N 
HETATM   17  C18 UNL     1       1.837  -1.567   3.330  1.00  0.00     0.246 C 
HETATM   18  C19 UNL     1       2.325  -2.886   2.659  1.00  0.00     0.064 C 
HETATM   19  C20 UNL     1       2.032  -3.098   1.178  1.00  0.00    -0.020 A 
HETATM   20  C21 UNL     1       1.135  -4.009   0.759  1.00  0.00    -0.002 A 
HETATM   21  C22 UNL     1       0.828  -4.149  -0.541  1.00  0.00     0.024 A 
HETATM   22  C23 UNL     1       1.403  -3.399  -1.501  1.00  0.00     0.100 A 
HETATM   23  C24 UNL     1       2.356  -2.545  -1.081  1.00  0.00     0.024 A 
HETATM   24  C25 UNL     1       2.675  -2.411   0.216  1.00  0.00    -0.002 A 
HETATM   25  O5  UNL     1       1.074  -3.513  -2.830  1.00  0.00    -0.305 OA
HETATM   26  C26 UNL     1      -0.246  -3.252  -3.104  1.00  0.00     0.125 A 
HETATM   27  C27 UNL     1      -1.117  -4.269  -3.261  1.00  0.00     0.154 A 
HETATM   28  C28 UNL     1      -2.412  -3.999  -3.490  1.00  0.00     0.029 A 
HETATM   29  C29 UNL     1      -2.858  -2.737  -3.561  1.00  0.00    -0.002 A 
HETATM   30  C30 UNL     1      -2.008  -1.705  -3.432  1.00  0.00    -0.018 A 
HETATM   31  C31 UNL     1      -0.709  -1.994  -3.235  1.00  0.00     0.023 A 
HETATM   32  C32 UNL     1      -2.530  -0.275  -3.465  1.00  0.00     0.064 C 
HETATM   33  C33 UNL     1      -3.033   0.173  -2.063  1.00  0.00     0.246 C 
HETATM   34  N2  UNL     1      -4.426   0.608  -2.092  1.00  0.00     0.142 N 
HETATM   35  C34 UNL     1      -4.523   1.989  -2.534  1.00  0.00     0.255 C 
HETATM   36  C35 UNL     1      -3.848   2.963  -1.559  1.00  0.00     0.064 C 
HETATM   37  C36 UNL     1      -5.087   0.399  -0.810  1.00  0.00     0.286 C 
HETATM   38  O6  UNL     1      -0.673  -5.551  -3.153  1.00  0.00    -0.188 OA
HETATM   39  C37 UNL     1       0.086  -0.327   4.434  1.00  0.00     0.286 C 
ENDROOT
BRANCH   5  40
HETATM   40  O2  UNL     1       0.645   3.832   0.080  1.00  0.00    -0.324 OA
HETATM   41  C8  UNL     1       1.336   4.591  -0.886  1.00  0.00     0.182 C 
ENDBRANCH   5  40
BRANCH   6  42
HETATM   42  O1  UNL     1      -1.928   4.648  -0.364  1.00  0.00    -0.326 OA
HETATM   43  C7  UNL     1      -2.328   4.886   0.966  1.00  0.00     0.181 C 
ENDBRANCH   6  42
BRANCH   9  44
HETATM   44  O4  UNL     1       3.705   2.393  -0.079  1.00  0.00    -0.324 OA
HETATM   45  C11 UNL     1       4.494   1.840  -1.109  1.00  0.00     0.182 C 
ENDBRANCH   9  44
BRANCH  10  46
HETATM   46  O7  UNL     1       5.138   1.793   2.092  1.00  0.00    -0.326 OA
HETATM   47  C38 UNL     1       6.050   1.251   3.019  1.00  0.00     0.181 C 
ENDBRANCH  10  46
TORSDOF 4
