REMARK  3 active torsions:
REMARK  status: ('A' for Active; 'I' for Inactive)
REMARK    1  A    between atoms: C12_13  and  O1_14 
REMARK    2  A    between atoms: C16_20  and  O5_25 
REMARK    3  A    between atoms: C17_21  and  O4_23 
ROOT
HETATM    1  C1  UNL     1       2.584  -1.464  -0.020  1.00  0.00     0.028 A 
HETATM    2  C2  UNL     1       1.251  -1.183   0.069  1.00  0.00     0.025 A 
HETATM    3  C3  UNL     1       0.376  -2.208   0.191  1.00  0.00     0.120 A 
HETATM    4  N1  UNL     1       0.734  -3.423   0.230  1.00  0.00    -0.241 NA
HETATM    5  C4  UNL     1       1.957  -3.706   0.153  1.00  0.00     0.099 A 
HETATM    6  C5  UNL     1       2.903  -2.771   0.028  1.00  0.00     0.023 A 
HETATM    7  C6  UNL     1      -0.967  -1.994   0.277  1.00  0.00     0.213 A 
HETATM    8  C7  UNL     1      -1.429  -0.718   0.224  1.00  0.00     0.043 A 
HETATM    9  C8  UNL     1      -0.572   0.311   0.106  1.00  0.00     0.007 A 
HETATM   10  C9  UNL     1       0.764   0.082   0.041  1.00  0.00     0.026 A 
HETATM   11  C10 UNL     1       1.700   1.046  -0.056  1.00  0.00     0.121 A 
HETATM   12  C11 UNL     1       3.001   0.758  -0.160  1.00  0.00     0.141 A 
HETATM   13  C12 UNL     1       3.516  -0.483  -0.148  1.00  0.00     0.118 A 
HETATM   14  O2  UNL     1       3.681   1.777  -0.263  1.00  0.00    -0.298 OA
HETATM   15  C14 UNL     1       2.802   2.890  -0.246  1.00  0.00     0.304 A 
HETATM   16  O3  UNL     1       1.535   2.265  -0.069  1.00  0.00    -0.299 OA
HETATM   17  C15 UNL     1      -1.175   1.516   0.045  1.00  0.00     0.026 A 
HETATM   18  C16 UNL     1      -2.499   1.768   0.111  1.00  0.00     0.116 A 
HETATM   19  C17 UNL     1      -3.337   0.712   0.239  1.00  0.00     0.116 A 
HETATM   20  C18 UNL     1      -2.757  -0.503   0.285  1.00  0.00     0.029 A 
HETATM   21  O6  UNL     1      -1.736  -2.927   0.387  1.00  0.00    -0.285 OA
ENDROOT
BRANCH  13  22
HETATM   22  O1  UNL     1       4.891  -0.514  -0.267  1.00  0.00    -0.326 OA
HETATM   23  C13 UNL     1       5.674  -1.677  -0.324  1.00  0.00     0.181 C 
ENDBRANCH  13  22
BRANCH  18  24
HETATM   24  O5  UNL     1      -2.856   3.099   0.022  1.00  0.00    -0.326 OA
HETATM   25  C20 UNL     1      -4.200   3.511  -0.032  1.00  0.00     0.181 C 
ENDBRANCH  18  24
BRANCH  19  26
HETATM   26  O4  UNL     1      -4.699   0.892   0.284  1.00  0.00    -0.326 OA
HETATM   27  C19 UNL     1      -5.567  -0.214   0.205  1.00  0.00     0.181 C 
ENDBRANCH  19  26
TORSDOF 3
