REMARK  8 active torsions:
REMARK  status: ('A' for Active; 'I' for Inactive)
REMARK    1  A    between atoms: C1_1  and  O8_37 
REMARK    2  A    between atoms: C2_2  and  O7_35 
REMARK    3  A    between atoms: C3_3  and  O6_33 
REMARK    4  A    between atoms: C10_10  and  O4_23 
REMARK    5  A    between atoms: C13_13  and  O3_21 
REMARK    6  A    between atoms: C14_14  and  O2_19 
REMARK    7  A    between atoms: C15_15  and  O1_17 
REMARK    8  A    between atoms: O4_23  and  C20_24 
ROOT
HETATM    1  C1  UNL     1      -3.055   2.412  -0.361  1.00  0.00     0.118 A 
HETATM    2  C2  UNL     1      -1.797   2.768  -0.877  1.00  0.00     0.138 A 
HETATM    3  C3  UNL     1      -0.645   2.068  -0.479  1.00  0.00     0.118 A 
HETATM    4  C4  UNL     1      -0.740   1.006   0.443  1.00  0.00     0.022 A 
HETATM    5  C5  UNL     1      -2.022   0.641   0.965  1.00  0.00    -0.018 A 
HETATM    6  C6  UNL     1      -3.160   1.354   0.555  1.00  0.00     0.022 A 
HETATM    7  C7  UNL     1      -2.215  -0.475   1.941  1.00  0.00     0.029 C 
HETATM    8  C8  UNL     1      -2.604  -1.830   1.297  1.00  0.00     0.035 C 
HETATM    9  C9  UNL     1      -1.389  -2.690   0.840  1.00  0.00     0.156 C 
HETATM   10  C10 UNL     1      -0.401  -1.930  -0.107  1.00  0.00     0.171 C 
HETATM   11  C11 UNL     1       0.627  -1.115   0.623  1.00  0.00     0.011 A 
HETATM   12  C12 UNL     1       0.474   0.287   0.879  1.00  0.00     0.024 A 
HETATM   13  C13 UNL     1       1.500   0.986   1.549  1.00  0.00     0.118 A 
HETATM   14  C14 UNL     1       2.660   0.316   1.971  1.00  0.00     0.138 A 
HETATM   15  C15 UNL     1       2.807  -1.059   1.734  1.00  0.00     0.118 A 
HETATM   16  C16 UNL     1       1.795  -1.764   1.066  1.00  0.00     0.025 A 
HETATM   17  C26 UNL     1      -0.688  -3.320   2.055  1.00  0.00     0.036 C 
HETATM   18  O5  UNL     1      -1.912  -3.809   0.143  1.00  0.00    -0.223 OA
HETATM   19  C27 UNL     1      -3.682  -1.664   0.207  1.00  0.00     0.003 C 
ENDROOT
BRANCH  10  20
HETATM   20  O4  UNL     1       0.269  -2.848  -0.969  1.00  0.00    -0.326 OA
BRANCH  20  21
HETATM   21  C20 UNL     1       0.801  -2.379  -2.080  1.00  0.00     0.095 A 
HETATM   22  C21 UNL     1      -0.008  -1.717  -3.023  1.00  0.00     0.024 A 
HETATM   23  C22 UNL     1       0.558  -1.217  -4.209  1.00  0.00     0.002 A 
HETATM   24  C23 UNL     1       1.932  -1.375  -4.455  1.00  0.00     0.000 A 
HETATM   25  C24 UNL     1       2.742  -2.035  -3.514  1.00  0.00     0.002 A 
HETATM   26  C25 UNL     1       2.176  -2.535  -2.328  1.00  0.00     0.024 A 
ENDBRANCH  20  21
ENDBRANCH  10  20
BRANCH  13  27
HETATM   27  O3  UNL     1       1.379   2.279   1.793  1.00  0.00    -0.326 OA
HETATM   28  C19 UNL     1       0.490   2.682   2.824  1.00  0.00     0.181 C 
ENDBRANCH  13  27
BRANCH  15  29
HETATM   29  O1  UNL     1       3.891  -1.691   2.135  1.00  0.00    -0.326 OA
HETATM   30  C17 UNL     1       5.131  -1.326   1.545  1.00  0.00     0.181 C 
ENDBRANCH  15  29
BRANCH   3  31
HETATM   31  O6  UNL     1       0.525   2.416  -0.980  1.00  0.00    -0.326 OA
HETATM   32  C28 UNL     1       1.312   1.406  -1.594  1.00  0.00     0.181 C 
ENDBRANCH   3  31
BRANCH  14  33
HETATM   33  O2  UNL     1       3.615   0.980   2.592  1.00  0.00    -0.324 OA
HETATM   34  C18 UNL     1       3.935   2.281   2.125  1.00  0.00     0.182 C 
ENDBRANCH  14  33
BRANCH   2  35
HETATM   35  O7  UNL     1      -1.699   3.764  -1.736  1.00  0.00    -0.324 OA
HETATM   36  C29 UNL     1      -0.791   3.621  -2.818  1.00  0.00     0.182 C 
ENDBRANCH   2  35
BRANCH   1  37
HETATM   37  O8  UNL     1      -4.135   3.066  -0.734  1.00  0.00    -0.326 OA
HETATM   38  C30 UNL     1      -5.393   2.596  -0.271  1.00  0.00     0.181 C 
ENDBRANCH   1  37
TORSDOF 8
