REMARK  5 active torsions:
REMARK  status: ('A' for Active; 'I' for Inactive)
REMARK    1  A    between atoms: C8_8  and  O2_13 
REMARK    2  A    between atoms: C9_9  and  O1_11 
REMARK    3  A    between atoms: C13_15  and  O5_27 
REMARK    4  A    between atoms: C14_16  and  O4_25 
REMARK    5  A    between atoms: C15_17  and  O3_23 
ROOT
HETATM    1  C1  UNL     1      -1.640  -0.864  -0.264  1.00  0.00    -0.018 A 
HETATM    2  C2  UNL     1      -0.864  -1.961  -0.936  1.00  0.00     0.064 C 
HETATM    3  C3  UNL     1       0.410  -2.137  -0.114  1.00  0.00     0.246 C 
HETATM    4  C4  UNL     1       1.106  -0.788  -0.006  1.00  0.00     0.009 C 
HETATM    5  C5  UNL     1       0.365   0.343   0.093  1.00  0.00     0.022 C 
HETATM    6  C6  UNL     1      -0.990   0.224   0.193  1.00  0.00    -0.000 A 
HETATM    7  C7  UNL     1      -1.800   1.122   0.790  1.00  0.00     0.026 A 
HETATM    8  C8  UNL     1      -3.142   1.044   0.903  1.00  0.00     0.116 A 
HETATM    9  C9  UNL     1      -3.768  -0.034   0.378  1.00  0.00     0.116 A 
HETATM   10  C10 UNL     1      -2.976  -0.972  -0.172  1.00  0.00     0.022 A 
HETATM   11  C13 UNL     1       1.024   1.534   0.086  1.00  0.00     0.118 C 
HETATM   12  C14 UNL     1       2.377   1.568   0.141  1.00  0.00     0.138 C 
HETATM   13  C15 UNL     1       3.091   0.429   0.245  1.00  0.00     0.114 C 
HETATM   14  C16 UNL     1       2.450  -0.744   0.086  1.00  0.00     0.002 C 
HETATM   15  C17 UNL     1       3.286  -2.009   0.048  1.00  0.00     0.064 C 
HETATM   16  C18 UNL     1       2.459  -3.288   0.171  1.00  0.00     0.255 C 
HETATM   17  N1  UNL     1       1.256  -3.209  -0.631  1.00  0.00     0.142 N 
HETATM   18  C19 UNL     1       1.552  -3.102  -2.053  1.00  0.00     0.286 C 
ENDROOT
BRANCH   8  19
HETATM   19  O2  UNL     1      -3.789   2.086   1.532  1.00  0.00    -0.326 OA
HETATM   20  C12 UNL     1      -4.987   2.571   0.966  1.00  0.00     0.181 C 
ENDBRANCH   8  19
BRANCH   9  21
HETATM   21  O1  UNL     1      -5.131  -0.168   0.498  1.00  0.00    -0.326 OA
HETATM   22  C11 UNL     1      -5.726  -1.427   0.286  1.00  0.00     0.181 C 
ENDBRANCH   9  21
BRANCH  11  23
HETATM   23  O5  UNL     1       0.394   2.760   0.048  1.00  0.00    -0.326 OA
HETATM   24  C22 UNL     1      -0.255   3.056  -1.172  1.00  0.00     0.181 C 
ENDBRANCH  11  23
BRANCH  12  25
HETATM   25  O4  UNL     1       3.041   2.772   0.247  1.00  0.00    -0.324 OA
HETATM   26  C21 UNL     1       3.497   3.303  -0.977  1.00  0.00     0.182 C 
ENDBRANCH  12  25
BRANCH  13  27
HETATM   27  O3  UNL     1       4.464   0.478   0.314  1.00  0.00    -0.326 OA
HETATM   28  C20 UNL     1       4.974   0.634   1.620  1.00  0.00     0.181 C 
ENDBRANCH  13  27
TORSDOF 5
