REMARK  5 active torsions:
REMARK  status: ('A' for Active; 'I' for Inactive)
REMARK    1  A    between atoms: C7_7  and  O2_18 
REMARK    2  A    between atoms: C8_8  and  O1_16 
REMARK    3  A    between atoms: C10_10  and  C11_11 
REMARK    4  A    between atoms: C11_11  and  C12_12 
REMARK    5  A    between atoms: C12_12  and  N1_13 
ROOT
HETATM    1  C1  UNL     1      -2.224  -0.554  -0.156  1.00  0.00    -0.000 A 
HETATM    2  C2  UNL     1      -2.269  -1.887   0.093  1.00  0.00    -0.020 A 
HETATM    3  C3  UNL     1      -1.045  -2.584   0.619  1.00  0.00     0.031 C 
HETATM    4  C4  UNL     1       0.128  -2.001  -0.158  1.00  0.00     0.031 C 
HETATM    5  C5  UNL     1       0.111  -0.495   0.019  1.00  0.00    -0.024 C 
HETATM    6  C6  UNL     1      -1.079   0.158   0.048  1.00  0.00     0.020 C 
HETATM    7  C7  UNL     1      -1.072   1.496   0.303  1.00  0.00     0.116 C 
HETATM    8  C8  UNL     1       0.094   2.181   0.292  1.00  0.00     0.116 C 
HETATM    9  C9  UNL     1       1.243   1.493   0.248  1.00  0.00     0.022 C 
HETATM   10  C10 UNL     1       1.288   0.161   0.114  1.00  0.00    -0.022 C 
HETATM   11  C17 UNL     1      -3.379  -2.630  -0.085  1.00  0.00     0.022 A 
HETATM   12  C18 UNL     1      -4.482  -2.043  -0.554  1.00  0.00     0.119 A 
HETATM   13  C19 UNL     1      -4.464  -0.743  -0.846  1.00  0.00     0.119 A 
HETATM   14  C20 UNL     1      -3.357  -0.013  -0.663  1.00  0.00     0.026 A 
HETATM   15  O3  UNL     1      -5.546  -0.378  -1.299  1.00  0.00    -0.300 OA
HETATM   16  C21 UNL     1      -6.413  -1.514  -1.309  1.00  0.00     0.304 A 
HETATM   17  O4  UNL     1      -5.575  -2.549  -0.792  1.00  0.00    -0.300 OA
ENDROOT
BRANCH  10  18
HETATM   18  C11 UNL     1       2.627  -0.566   0.057  1.00  0.00     0.061 C 
BRANCH  18  19
HETATM   19  C12 UNL     1       3.910   0.274  -0.105  1.00  0.00     0.255 C 
BRANCH  19  20
HETATM   20  N1  UNL     1       5.107  -0.521  -0.377  1.00  0.00     0.142 N 
HETATM   21  C13 UNL     1       6.253   0.349  -0.609  1.00  0.00     0.285 C 
HETATM   22  C14 UNL     1       5.407  -1.467   0.689  1.00  0.00     0.285 C 
ENDBRANCH  19  20
ENDBRANCH  18  19
ENDBRANCH  10  18
BRANCH   8  23
HETATM   23  O1  UNL     1       0.136   3.539   0.510  1.00  0.00    -0.326 OA
HETATM   24  C15 UNL     1      -0.019   4.310  -0.660  1.00  0.00     0.181 C 
ENDBRANCH   8  23
BRANCH   7  25
HETATM   25  O2  UNL     1      -2.217   2.242   0.464  1.00  0.00    -0.326 OA
HETATM   26  C16 UNL     1      -2.571   2.458   1.812  1.00  0.00     0.181 C 
ENDBRANCH   7  25
TORSDOF 5
