REMARK  4 active torsions:
REMARK  status: ('A' for Active; 'I' for Inactive)
REMARK    1  A    between atoms: C13_15  and  O3_23 
REMARK    2  A    between atoms: C15_17  and  C16_18 
REMARK    3  A    between atoms: C16_18  and  C17_19 
REMARK    4  A    between atoms: C17_19  and  N1_20 
ROOT
HETATM    1  O1  UNL     1      -2.905  -5.253   0.046  1.00  0.00    -0.299 OA
HETATM    2  C1  UNL     1      -2.354  -6.572   0.046  1.00  0.00     0.304 A 
HETATM    3  O2  UNL     1      -0.953  -6.331  -0.041  1.00  0.00    -0.300 OA
HETATM    4  C2  UNL     1      -0.799  -5.114  -0.053  1.00  0.00     0.119 A 
HETATM    5  C3  UNL     1      -1.964  -4.460   0.005  1.00  0.00     0.124 A 
HETATM    6  C4  UNL     1      -1.996  -3.114   0.014  1.00  0.00     0.088 A 
HETATM    7  C5  UNL     1      -0.834  -2.426  -0.051  1.00  0.00     0.009 A 
HETATM    8  C6  UNL     1       0.331  -3.108  -0.118  1.00  0.00     0.002 A 
HETATM    9  C7  UNL     1       0.361  -4.454  -0.118  1.00  0.00     0.026 A 
HETATM   10  C8  UNL     1       1.487  -2.431  -0.182  1.00  0.00     0.000 A 
HETATM   11  C9  UNL     1       1.487  -1.093  -0.176  1.00  0.00    -0.000 A 
HETATM   12  C10 UNL     1       0.341  -0.390  -0.105  1.00  0.00    -0.002 A 
HETATM   13  C11 UNL     1      -0.822  -1.075  -0.043  1.00  0.00     0.025 A 
HETATM   14  C12 UNL     1      -1.995  -0.413   0.028  1.00  0.00     0.125 A 
HETATM   15  C13 UNL     1      -2.020   0.937   0.045  1.00  0.00     0.117 A 
HETATM   16  C14 UNL     1      -0.843   1.584  -0.015  1.00  0.00     0.022 A 
HETATM   17  C15 UNL     1       0.346   0.962  -0.093  1.00  0.00    -0.018 A 
HETATM   18  O4  UNL     1      -3.196  -1.062   0.088  1.00  0.00    -0.271 OA
HETATM   19  C21 UNL     1      -3.164  -2.420   0.088  1.00  0.00     0.302 A 
HETATM   20  O5  UNL     1      -4.223  -3.008   0.171  1.00  0.00    -0.259 OA
ENDROOT
BRANCH  17  21
HETATM   21  C16 UNL     1       1.646   1.759  -0.157  1.00  0.00     0.062 C 
BRANCH  21  22
HETATM   22  C17 UNL     1       1.579   3.299  -0.116  1.00  0.00     0.255 C 
BRANCH  22  23
HETATM   23  N1  UNL     1       2.861   3.965  -0.346  1.00  0.00     0.142 N 
HETATM   24  C18 UNL     1       2.689   5.412  -0.310  1.00  0.00     0.285 C 
HETATM   25  C19 UNL     1       3.891   3.561   0.599  1.00  0.00     0.285 C 
ENDBRANCH  22  23
ENDBRANCH  21  22
ENDBRANCH  17  21
BRANCH  15  26
HETATM   26  O3  UNL     1      -3.249   1.553   0.114  1.00  0.00    -0.326 OA
HETATM   27  C20 UNL     1      -3.328   2.958   0.053  1.00  0.00     0.181 C 
ENDBRANCH  15  26
TORSDOF 4
