REMARK  3 active torsions:
REMARK  status: ('A' for Active; 'I' for Inactive)
REMARK    1  A    between atoms: C1_1  and  O6_44 
REMARK    2  A    between atoms: C14_15  and  O5_41 
REMARK    3  A    between atoms: C29_33  and  O4_35 
ROOT
HETATM    1  C1  UNL     1       1.093   2.773   0.445  1.00  0.00     0.113 C 
HETATM    2  C2  UNL     1       0.416   2.478  -0.704  1.00  0.00     0.121 C 
HETATM    3  C3  UNL     1      -0.910   2.212  -0.618  1.00  0.00     0.020 C 
HETATM    4  C4  UNL     1      -1.558   2.058   0.551  1.00  0.00    -0.007 C 
HETATM    5  C5  UNL     1      -0.694   1.931   1.566  1.00  0.00     0.046 C 
HETATM    6  C6  UNL     1       0.510   2.516   1.644  1.00  0.00     0.004 C 
HETATM    7  C7  UNL     1      -1.129   3.632   1.557  1.00  0.00     0.044 C 
HETATM    8  C8  UNL     1      -2.590   3.689   2.149  1.00  0.00     0.251 C 
HETATM    9  N1  UNL     1      -3.340   2.436   2.004  1.00  0.00     0.141 N 
HETATM   10  C9  UNL     1      -3.042   1.898   0.693  1.00  0.00     0.242 C 
HETATM   11  C10 UNL     1      -3.579   0.496   0.359  1.00  0.00     0.064 C 
HETATM   12  C11 UNL     1      -3.341  -0.596   1.379  1.00  0.00    -0.018 A 
HETATM   13  C12 UNL     1      -4.355  -1.148   2.059  1.00  0.00    -0.002 A 
HETATM   14  C13 UNL     1      -4.113  -2.136   2.929  1.00  0.00     0.026 A 
HETATM   15  C14 UNL     1      -2.883  -2.634   3.169  1.00  0.00     0.117 A 
HETATM   16  C15 UNL     1      -1.845  -2.082   2.489  1.00  0.00     0.122 A 
HETATM   17  C16 UNL     1      -2.115  -1.088   1.615  1.00  0.00     0.022 A 
HETATM   18  O1  UNL     1      -0.554  -2.498   2.689  1.00  0.00    -0.305 OA
HETATM   19  C17 UNL     1       0.279  -2.597   1.608  1.00  0.00     0.100 A 
HETATM   20  C18 UNL     1       0.381  -3.719   0.872  1.00  0.00     0.024 A 
HETATM   21  C19 UNL     1       1.235  -3.816  -0.162  1.00  0.00    -0.002 A 
HETATM   22  C20 UNL     1       2.032  -2.793  -0.524  1.00  0.00    -0.017 A 
HETATM   23  C21 UNL     1       1.907  -1.671   0.202  1.00  0.00    -0.002 A 
HETATM   24  C22 UNL     1       1.076  -1.577   1.249  1.00  0.00     0.024 A 
HETATM   25  C23 UNL     1       2.997  -2.940  -1.694  1.00  0.00     0.064 C 
HETATM   26  C24 UNL     1       3.497  -1.667  -2.429  1.00  0.00     0.018 C 
HETATM   27  C25 UNL     1       2.337  -0.725  -2.745  1.00  0.00     0.007 C 
HETATM   28  C26 UNL     1       2.264   0.544  -2.301  1.00  0.00     0.005 C 
HETATM   29  C27 UNL     1       1.159   1.299  -2.505  1.00  0.00     0.123 C 
HETATM   30  O2  UNL     1       1.020   2.554  -1.947  1.00  0.00    -0.303 OA
HETATM   31  C28 UNL     1       0.188   0.804  -3.308  1.00  0.00     0.175 C 
HETATM   32  O3  UNL     1      -0.885   1.559  -3.677  1.00  0.00    -0.186 OA
HETATM   33  C29 UNL     1       0.239  -0.457  -3.775  1.00  0.00     0.121 C 
HETATM   34  C30 UNL     1       1.323  -1.191  -3.491  1.00  0.00     0.027 C 
HETATM   35  C32 UNL     1       3.499   1.109  -1.638  1.00  0.00     0.046 C 
HETATM   36  C33 UNL     1       4.726   0.406  -2.235  1.00  0.00     0.081 C 
HETATM   37  N2  UNL     1       4.732  -1.022  -1.960  1.00  0.00    -0.254 NA
HETATM   38  C34 UNL     1       5.171  -1.299  -0.600  1.00  0.00     0.094 C 
HETATM   39  C36 UNL     1      -4.758   2.622   2.258  1.00  0.00     0.286 C 
ENDROOT
BRANCH   1  40
HETATM   40  O6  UNL     1       2.423   3.106   0.416  1.00  0.00    -0.326 OA
HETATM   41  C37 UNL     1       2.650   4.489   0.276  1.00  0.00     0.181 C 
ENDBRANCH   1  40
BRANCH  33  42
HETATM   42  O4  UNL     1      -0.747  -0.941  -4.596  1.00  0.00    -0.326 OA
HETATM   43  C31 UNL     1      -1.721  -1.695  -3.908  1.00  0.00     0.181 C 
ENDBRANCH  33  42
BRANCH  15  44
HETATM   44  O5  UNL     1      -2.828  -3.639   4.113  1.00  0.00    -0.326 OA
HETATM   45  C35 UNL     1      -1.605  -4.126   4.608  1.00  0.00     0.181 C 
ENDBRANCH  15  44
TORSDOF 3
