REMARK  4 active torsions:
REMARK  status: ('A' for Active; 'I' for Inactive)
REMARK    1  A    between atoms: C6_6  and  O1_7 
REMARK    2  A    between atoms: C24_28  and  O5_33 
REMARK    3  A    between atoms: C25_29  and  O4_31 
REMARK    4  A    between atoms: C34_41  and  O6_42 
ROOT
HETATM    1  C1  UNL     1       0.159   3.133  -2.865  1.00  0.00     0.143 A 
HETATM    2  C2  UNL     1       0.159   1.832  -2.559  1.00  0.00     0.144 A 
HETATM    3  C3  UNL     1       1.215   1.206  -2.014  1.00  0.00     0.125 A 
HETATM    4  C4  UNL     1       2.344   1.938  -1.857  1.00  0.00     0.041 A 
HETATM    5  C5  UNL     1       2.319   3.261  -2.163  1.00  0.00     0.029 A 
HETATM    6  C6  UNL     1       1.241   3.907  -2.675  1.00  0.00     0.118 A 
HETATM    7  C8  UNL     1       3.444   3.966  -1.937  1.00  0.00     0.023 A 
HETATM    8  C9  UNL     1       4.524   3.341  -1.458  1.00  0.00     0.099 A 
HETATM    9  N1  UNL     1       4.548   2.106  -1.211  1.00  0.00    -0.248 NA
HETATM   10  C10 UNL     1       3.507   1.405  -1.396  1.00  0.00     0.066 A 
HETATM   11  C11 UNL     1       3.813  -0.068  -1.139  1.00  0.00     0.072 C 
HETATM   12  C12 UNL     1       3.242  -0.684   0.120  1.00  0.00    -0.016 A 
HETATM   13  C13 UNL     1       3.207  -0.014   1.283  1.00  0.00    -0.002 A 
HETATM   14  C14 UNL     1       2.671  -0.572   2.379  1.00  0.00     0.024 A 
HETATM   15  C15 UNL     1       2.144  -1.812   2.367  1.00  0.00     0.100 A 
HETATM   16  O2  UNL     1       1.546  -2.355   3.476  1.00  0.00    -0.305 OA
HETATM   17  C16 UNL     1       0.176  -2.356   3.378  1.00  0.00     0.122 A 
HETATM   18  C17 UNL     1      -0.483  -1.196   3.209  1.00  0.00     0.022 A 
HETATM   19  C18 UNL     1      -1.811  -1.113   3.035  1.00  0.00    -0.018 A 
HETATM   20  C19 UNL     1      -2.462   0.220   2.735  1.00  0.00     0.064 C 
HETATM   21  C20 UNL     1      -2.830   0.343   1.239  1.00  0.00     0.246 C 
HETATM   22  C21 UNL     1      -1.939  -0.451   0.296  1.00  0.00     0.009 C 
HETATM   23  C22 UNL     1      -0.776   0.074  -0.130  1.00  0.00     0.003 C 
HETATM   24  C23 UNL     1      -0.049  -0.570  -1.074  1.00  0.00     0.120 C 
HETATM   25  O3  UNL     1       1.130  -0.091  -1.596  1.00  0.00    -0.303 OA
HETATM   26  C24 UNL     1      -0.477  -1.768  -1.539  1.00  0.00     0.139 C 
HETATM   27  C25 UNL     1      -1.562  -2.366  -1.002  1.00  0.00     0.118 C 
HETATM   28  C26 UNL     1      -2.318  -1.654  -0.154  1.00  0.00     0.024 C 
HETATM   29  C29 UNL     1      -0.391   1.385   0.526  1.00  0.00     0.064 C 
HETATM   30  C30 UNL     1      -1.575   2.351   0.725  1.00  0.00     0.255 C 
HETATM   31  N2  UNL     1      -2.880   1.703   0.721  1.00  0.00     0.142 N 
HETATM   32  C31 UNL     1      -3.889   2.529   1.361  1.00  0.00     0.286 C 
HETATM   33  C32 UNL     1      -2.511  -2.256   3.069  1.00  0.00    -0.002 A 
HETATM   34  C33 UNL     1      -1.877  -3.421   3.266  1.00  0.00     0.026 A 
HETATM   35  C34 UNL     1      -0.545  -3.496   3.460  1.00  0.00     0.117 A 
HETATM   36  C36 UNL     1       2.210  -2.484   1.203  1.00  0.00     0.024 A 
HETATM   37  C37 UNL     1       2.756  -1.938   0.107  1.00  0.00    -0.002 A 
HETATM   38  O7  UNL     1      -0.922   1.310  -2.824  1.00  0.00    -0.297 OA
HETATM   39  C38 UNL     1      -1.778   2.316  -3.351  1.00  0.00     0.304 A 
HETATM   40  O8  UNL     1      -0.932   3.461  -3.328  1.00  0.00    -0.297 OA
ENDROOT
BRANCH   6  41
HETATM   41  O1  UNL     1       1.298   5.265  -2.906  1.00  0.00    -0.326 OA
HETATM   42  C7  UNL     1       0.116   6.006  -3.091  1.00  0.00     0.181 C 
ENDBRANCH   6  41
BRANCH  26  43
HETATM   43  O5  UNL     1       0.287  -2.467  -2.444  1.00  0.00    -0.324 OA
HETATM   44  C28 UNL     1       0.013  -2.152  -3.790  1.00  0.00     0.182 C 
ENDBRANCH  26  43
BRANCH  27  45
HETATM   45  O4  UNL     1      -1.995  -3.592  -1.444  1.00  0.00    -0.326 OA
HETATM   46  C27 UNL     1      -1.465  -4.667  -0.700  1.00  0.00     0.181 C 
ENDBRANCH  27  45
BRANCH  35  47
HETATM   47  O6  UNL     1       0.067  -4.718   3.583  1.00  0.00    -0.326 OA
HETATM   48  C35 UNL     1       0.254  -5.120   4.920  1.00  0.00     0.181 C 
ENDBRANCH  35  47
TORSDOF 4
