REMARK  7 active torsions:
REMARK  status: ('A' for Active; 'I' for Inactive)
REMARK    1  A    between atoms: C2_2  and  O11_29 
REMARK    2  A    between atoms: C3_3  and  C18_26 
REMARK    3  A    between atoms: C5_5  and  C8_8 
REMARK    4  A    between atoms: C8_8  and  O2_10 
REMARK    5  A    between atoms: O2_10  and  C9_11 
REMARK    6  A    between atoms: C12_14  and  C17_22 
REMARK    7  A    between atoms: C14_16  and  C16_19 
ROOT
HETATM    1  C8  UNL     1       0.279   0.445  -0.600  1.00  0.00     0.302 C 
HETATM    2  O1  UNL     1      -0.175   1.328  -1.294  1.00  0.00    -0.259 OA
ENDROOT
BRANCH   1   3
HETATM    3  C5  UNL     1       1.596   0.443  -0.217  1.00  0.00     0.085 A 
HETATM    4  C4  UNL     1       2.082  -0.540   0.587  1.00  0.00     0.143 A 
HETATM    5  C3  UNL     1       3.396  -0.582   0.928  1.00  0.00     0.112 A 
HETATM    6  O8  UNL     1       1.234  -1.489   1.079  1.00  0.00    -0.190 OA
HETATM    7  C2  UNL     1       4.249   0.359   0.459  1.00  0.00     0.102 A 
HETATM    8  C1  UNL     1       3.716   1.357  -0.264  1.00  0.00     0.021 A 
HETATM    9  C6  UNL     1       2.429   1.423  -0.635  1.00  0.00    -0.013 A 
HETATM   10  C7  UNL     1       2.035   2.615  -1.492  1.00  0.00     0.031 C 
BRANCH   5  11
HETATM   11  C18 UNL     1       3.873  -1.587   1.733  1.00  0.00     0.215 C 
HETATM   12  O9  UNL     1       3.138  -2.594   2.262  1.00  0.00    -0.644 OA
HETATM   13  O10 UNL     1       5.041  -1.679   2.038  1.00  0.00    -0.644 OA
ENDBRANCH   5  11
BRANCH   7  14
HETATM   14  O11 UNL     1       5.581   0.462   0.791  1.00  0.00    -0.328 OA
HETATM   15  C19 UNL     1       6.452  -0.118  -0.156  1.00  0.00     0.181 C 
ENDBRANCH   7  14
ENDBRANCH   1   3
BRANCH   1  16
HETATM   16  O2  UNL     1      -0.629  -0.507  -0.225  1.00  0.00    -0.271 OA
BRANCH  16  17
HETATM   17  C9  UNL     1      -1.969  -0.203  -0.160  1.00  0.00     0.125 A 
HETATM   18  C10 UNL     1      -2.883  -1.038  -0.706  1.00  0.00     0.011 A 
HETATM   19  C11 UNL     1      -2.351  -2.301  -1.377  1.00  0.00     0.033 C 
HETATM   20  C12 UNL     1      -4.205  -0.742  -0.644  1.00  0.00     0.088 A 
HETATM   21  C13 UNL     1      -4.620   0.383  -0.006  1.00  0.00     0.142 A 
HETATM   22  C14 UNL     1      -3.702   1.189   0.577  1.00  0.00     0.095 A 
HETATM   23  O5  UNL     1      -5.950   0.700   0.025  1.00  0.00    -0.190 OA
HETATM   24  C15 UNL     1      -2.388   0.893   0.507  1.00  0.00     0.159 A 
HETATM   25  O3  UNL     1      -1.452   1.699   1.088  1.00  0.00    -0.188 OA
BRANCH  20  26
HETATM   26  C17 UNL     1      -5.146  -1.565  -1.215  1.00  0.00     0.213 C 
HETATM   27  O6  UNL     1      -6.335  -1.344  -1.166  1.00  0.00    -0.644 OA
HETATM   28  O7  UNL     1      -4.900  -2.710  -1.891  1.00  0.00    -0.644 OA
ENDBRANCH  20  26
BRANCH  22  29
HETATM   29  C16 UNL     1      -4.058   2.314   1.265  1.00  0.00     0.238 C 
HETATM   30  O4  UNL     1      -5.171   2.737   1.460  1.00  0.00    -0.283 OA
ENDBRANCH  22  29
ENDBRANCH  16  17
ENDBRANCH   1  16
TORSDOF 7
