REMARK  17 active torsions:
REMARK  status: ('A' for Active; 'I' for Inactive)
REMARK    1  A    between atoms: C5_5  and  O3_13 
REMARK    2  A    between atoms: C7_7  and  O1_8 
REMARK    3  A    between atoms: O1_8  and  C8_9 
REMARK    4  A    between atoms: O3_13  and  C11_14 
REMARK    5  A    between atoms: C11_14  and  C12_16 
REMARK    6  A    between atoms: C12_16  and  C13_17 
REMARK    7  A    between atoms: C19_27  and  O11_39 
REMARK    8  A    between atoms: C20_28  and  O9_29 
REMARK    9  A    between atoms: O9_29  and  C21_30 
REMARK   10  A    between atoms: C21_30  and  C22_31 
REMARK   11  A    between atoms: C22_31  and  C23_32 
REMARK   12  A    between atoms: C23_32  and  C24_33 
REMARK   13  A    between atoms: C24_33  and  C25_34 
REMARK   14  A    between atoms: C25_34  and  C26_35 
REMARK   15  A    between atoms: C26_35  and  C27_36 
REMARK   16  A    between atoms: O11_39  and  C29_40 
REMARK   17  A    between atoms: C29_40  and  C30_42 
ROOT
HETATM    1  C1  UNL     1      -0.352  -0.528  -0.266  1.00  0.00     0.076 C 
HETATM    2  C2  UNL     1      -0.392  -2.041  -0.128  1.00  0.00    -0.015 C 
HETATM    3  C3  UNL     1       0.849  -2.879   0.086  1.00  0.00     0.175 C 
HETATM    4  C4  UNL     1       2.022  -2.211   0.796  1.00  0.00     0.215 C 
HETATM    5  C5  UNL     1       2.811  -1.165   0.010  1.00  0.00     0.160 C 
HETATM    6  C6  UNL     1       2.074   0.154  -0.275  1.00  0.00     0.061 C 
HETATM    7  C7  UNL     1       0.770   0.126  -1.105  1.00  0.00     0.110 C 
HETATM    8  C10 UNL     1       0.915  -0.557  -2.473  1.00  0.00     0.031 C 
HETATM    9  C15 UNL     1       2.799  -3.434   1.293  1.00  0.00     0.234 C 
HETATM   10  C16 UNL     1       1.653  -4.383   1.615  1.00  0.00     0.302 C 
HETATM   11  O5  UNL     1       0.588  -4.033   0.853  1.00  0.00    -0.295 OA
HETATM   12  O6  UNL     1       1.675  -5.303   2.402  1.00  0.00    -0.261 OA
HETATM   13  C17 UNL     1       3.712  -3.219   2.495  1.00  0.00     0.046 C 
HETATM   14  O7  UNL     1       3.554  -4.009   0.251  1.00  0.00    -0.213 OA
HETATM   15  O8  UNL     1       1.513  -1.580   1.946  1.00  0.00    -0.217 OA
HETATM   16  C18 UNL     1      -1.663  -2.486  -0.093  1.00  0.00    -0.020 C 
HETATM   17  C19 UNL     1      -2.616  -1.329  -0.166  1.00  0.00     0.170 C 
HETATM   18  C20 UNL     1      -1.794  -0.154  -0.688  1.00  0.00     0.162 C 
HETATM   19  C34 UNL     1      -2.172  -3.870   0.198  1.00  0.00     0.028 C 
ENDROOT
BRANCH  18  20
HETATM   20  O9  UNL     1      -2.188   1.032  -0.060  1.00  0.00    -0.301 OA
BRANCH  20  21
HETATM   21  C21 UNL     1      -2.683   2.064  -0.789  1.00  0.00     0.272 C 
HETATM   22  O10 UNL     1      -2.881   2.039  -1.983  1.00  0.00    -0.264 OA
BRANCH  21  23
HETATM   23  C22 UNL     1      -2.913   3.288   0.086  1.00  0.00     0.096 C 
BRANCH  23  24
HETATM   24  C23 UNL     1      -2.520   3.129   1.565  1.00  0.00     0.010 C 
BRANCH  24  25
HETATM   25  C24 UNL     1      -2.725   4.413   2.386  1.00  0.00     0.001 C 
BRANCH  25  26
HETATM   26  C25 UNL     1      -2.377   4.179   3.866  1.00  0.00     0.000 C 
BRANCH  26  27
HETATM   27  C26 UNL     1      -2.522   5.451   4.717  1.00  0.00     0.000 C 
BRANCH  27  28
HETATM   28  C27 UNL     1      -2.206   5.181   6.197  1.00  0.00     0.000 C 
HETATM   29  C28 UNL     1      -2.324   6.450   7.051  1.00  0.00     0.000 C 
ENDBRANCH  27  28
ENDBRANCH  26  27
ENDBRANCH  25  26
ENDBRANCH  24  25
ENDBRANCH  23  24
ENDBRANCH  21  23
ENDBRANCH  20  21
ENDBRANCH  18  20
BRANCH  17  30
HETATM   30  O11 UNL     1      -3.874  -1.480  -0.761  1.00  0.00    -0.294 OA
BRANCH  30  31
HETATM   31  C29 UNL     1      -4.265  -2.152  -1.895  1.00  0.00     0.292 C 
HETATM   32  O12 UNL     1      -5.475  -2.157  -2.034  1.00  0.00    -0.260 OA
BRANCH  31  33
HETATM   33  C30 UNL     1      -3.556  -2.807  -2.871  1.00  0.00     0.037 C 
HETATM   34  C31 UNL     1      -4.255  -3.448  -3.838  1.00  0.00    -0.025 C 
HETATM   35  C32 UNL     1      -3.698  -4.283  -4.967  1.00  0.00     0.030 C 
HETATM   36  C33 UNL     1      -2.052  -2.861  -2.966  1.00  0.00     0.036 C 
ENDBRANCH  31  33
ENDBRANCH  30  31
ENDBRANCH  17  30
BRANCH   7  37
HETATM   37  O1  UNL     1       0.362   1.454  -1.298  1.00  0.00    -0.306 OA
BRANCH  37  38
HETATM   38  C8  UNL     1       1.042   2.307  -2.116  1.00  0.00     0.272 C 
HETATM   39  C9  UNL     1       0.310   3.630  -2.211  1.00  0.00     0.106 C 
HETATM   40  O2  UNL     1       2.075   2.068  -2.697  1.00  0.00    -0.264 OA
ENDBRANCH  37  38
ENDBRANCH   7  37
BRANCH   5  41
HETATM   41  O3  UNL     1       3.325  -1.619  -1.211  1.00  0.00    -0.301 OA
BRANCH  41  42
HETATM   42  C11 UNL     1       4.656  -1.896  -1.281  1.00  0.00     0.272 C 
HETATM   43  O4  UNL     1       5.339  -2.214  -0.333  1.00  0.00    -0.264 OA
BRANCH  42  44
HETATM   44  C12 UNL     1       5.212  -1.536  -2.648  1.00  0.00     0.096 C 
BRANCH  44  45
HETATM   45  C13 UNL     1       5.828  -0.128  -2.588  1.00  0.00     0.010 C 
HETATM   46  C14 UNL     1       6.367   0.335  -3.947  1.00  0.00     0.001 C 
ENDBRANCH  44  45
ENDBRANCH  42  44
ENDBRANCH  41  42
ENDBRANCH   5  41
TORSDOF 17
