REMARK  5 active torsions:
REMARK  status: ('A' for Active; 'I' for Inactive)
REMARK       I    between atoms: C2_2  and  N1_3 
REMARK    1  A    between atoms: N1_3  and  C3_4 
REMARK    2  A    between atoms: C3_4  and  C4_5 
REMARK    3  A    between atoms: C4_5  and  C5_6 
REMARK    4  A    between atoms: C5_6  and  C6_7 
REMARK    5  A    between atoms: C6_7  and  C7_8 
ROOT
HETATM    1  C4  UNL     1       0.096  -0.077   0.260  1.00  0.00     0.029 C 
ENDROOT
BRANCH   1   2
HETATM    2  C3  UNL     1      -1.052   0.942   0.290  1.00  0.00     0.129 C 
BRANCH   2   3
HETATM    3  N1  UNL     1      -2.339   0.241   0.285  1.00  0.00    -0.238 NA
HETATM    4  C2  UNL     1      -3.532   0.909   0.276  1.00  0.00     0.252 C 
HETATM    5  C1  UNL     1      -4.750   0.007   0.256  1.00  0.00     0.100 C 
HETATM    6  O3  UNL     1      -3.609   2.115   0.282  1.00  0.00    -0.271 OA
ENDBRANCH   2   3
ENDBRANCH   1   2
BRANCH   1   7
HETATM    7  C5  UNL     1       1.470   0.612   0.201  1.00  0.00     0.053 C 
BRANCH   7   8
HETATM    8  C6  UNL     1       2.646  -0.376   0.127  1.00  0.00     0.387 C 
HETATM    9  N2  UNL     1       3.915   0.360   0.267  1.00  0.00     0.628 N 
BRANCH   8  10
HETATM   10  C7  UNL     1       2.693  -1.175  -1.160  1.00  0.00     0.224 C 
HETATM   11  O1  UNL     1       3.642  -2.127  -1.105  1.00  0.00    -0.646 OA
HETATM   12  O2  UNL     1       2.016  -1.019  -2.147  1.00  0.00    -0.646 OA
ENDBRANCH   8  10
ENDBRANCH   7   8
ENDBRANCH   1   7
TORSDOF 5
