REMARK  3 active torsions:
REMARK  status: ('A' for Active; 'I' for Inactive)
REMARK    1  A    between atoms: C6_6  and  C7_7 
REMARK    2  A    between atoms: C7_7  and  C8_8 
REMARK    3  A    between atoms: C8_8  and  C9_9 
ROOT
HETATM    1  C1  UNL     1       0.176   1.327   1.055  1.00  0.00     0.066 C 
HETATM    2  C2  UNL     1      -1.024   2.256   1.240  1.00  0.00     0.187 C 
HETATM    3  C3  UNL     1      -1.532   2.817  -0.081  1.00  0.00     0.213 C 
HETATM    4  C4  UNL     1      -1.741   1.747  -1.140  1.00  0.00     0.187 C 
HETATM    5  C5  UNL     1      -0.516   0.852  -1.306  1.00  0.00     0.066 C 
HETATM    6  C6  UNL     1      -0.051   0.224   0.013  1.00  0.00     0.132 C 
HETATM    7  O1  UNL     1      -1.086  -0.611   0.467  1.00  0.00    -0.226 OA
HETATM    8  O2  UNL     1      -2.859   0.964  -0.795  1.00  0.00    -0.221 OA
HETATM    9  O3  UNL     1      -0.603   3.761  -0.563  1.00  0.00    -0.218 OA
HETATM   10  O4  UNL     1      -2.058   1.560   1.895  1.00  0.00    -0.221 OA
ENDROOT
BRANCH   6  11
HETATM   11  C7  UNL     1       1.231  -0.612  -0.199  1.00  0.00     0.031 C 
BRANCH  11  12
HETATM   12  C8  UNL     1       1.123  -2.105   0.157  1.00  0.00     0.003 C 
BRANCH  12  13
HETATM   13  C9  UNL     1       2.441  -2.858  -0.089  1.00  0.00     0.000 C 
HETATM   14  C10 UNL     1       2.318  -4.346   0.266  1.00  0.00     0.000 C 
ENDBRANCH  12  13
ENDBRANCH  11  12
ENDBRANCH   6  11
TORSDOF 3
