REMARK  5 active torsions:
REMARK  status: ('A' for Active; 'I' for Inactive)
REMARK    1  A    between atoms: C3_3  and  O4_10 
REMARK    2  A    between atoms: C5_6  and  C6_7 
REMARK    3  A    between atoms: O4_10  and  C7_11 
REMARK    4  A    between atoms: C8_13  and  C12_20 
REMARK    5  A    between atoms: C13_22  and  C16_25 
ROOT
HETATM    1  C1  UNL     1      -2.127   1.404  -1.219  1.00  0.00     0.165 C 
HETATM    2  C2  UNL     1      -2.067  -0.135  -1.232  1.00  0.00     0.110 C 
HETATM    3  C3  UNL     1      -0.720  -0.669  -0.801  1.00  0.00     0.248 C 
HETATM    4  O1  UNL     1       0.322  -0.097  -1.551  1.00  0.00    -0.303 OA
HETATM    5  C4  UNL     1       0.329   1.264  -1.616  1.00  0.00     0.123 C 
HETATM    6  C5  UNL     1      -0.754   2.030  -1.395  1.00  0.00     0.095 C 
HETATM    7  C13 UNL     1      -2.447  -0.481  -2.647  1.00  0.00    -0.008 C 
HETATM    8  C14 UNL     1      -2.999   0.564  -3.271  1.00  0.00    -0.029 C 
HETATM    9  C15 UNL     1      -3.056   1.781  -2.394  1.00  0.00     0.061 C 
HETATM   10  O11 UNL     1      -2.690   1.849  -0.006  1.00  0.00    -0.220 OA
ENDROOT
BRANCH   3  11
HETATM   11  O4  UNL     1      -0.520  -0.351   0.561  1.00  0.00    -0.303 OA
BRANCH  11  12
HETATM   12  C7  UNL     1       0.717  -0.780   1.096  1.00  0.00     0.272 C 
HETATM   13  O5  UNL     1       1.509   0.387   1.077  1.00  0.00    -0.326 OA
HETATM   14  C8  UNL     1       2.808   0.188   1.555  1.00  0.00     0.184 C 
HETATM   15  C9  UNL     1       2.778  -0.329   2.989  1.00  0.00     0.215 C 
HETATM   16  C10 UNL     1       1.824  -1.494   3.206  1.00  0.00     0.220 C 
HETATM   17  O8  UNL     1       2.364   0.724   3.833  1.00  0.00    -0.218 OA
HETATM   18  C11 UNL     1       0.496  -1.229   2.520  1.00  0.00     0.241 C 
HETATM   19  O7  UNL     1       2.380  -2.678   2.683  1.00  0.00    -0.218 OA
HETATM   20  O6  UNL     1      -0.203  -0.208   3.193  1.00  0.00    -0.215 OA
BRANCH  14  21
HETATM   21  C12 UNL     1       3.644  -0.624   0.574  1.00  0.00     0.214 C 
HETATM   22  O9  UNL     1       5.018  -0.450   0.858  1.00  0.00    -0.218 OA
ENDBRANCH  14  21
ENDBRANCH  11  12
ENDBRANCH   3  11
BRANCH   7  23
HETATM   23  C16 UNL     1      -2.292  -1.857  -3.224  1.00  0.00     0.205 C 
HETATM   24  O10 UNL     1      -2.826  -2.839  -2.346  1.00  0.00    -0.216 OA
ENDBRANCH   7  23
BRANCH   6  25
HETATM   25  C6  UNL     1      -0.620   3.385  -1.357  1.00  0.00     0.211 C 
HETATM   26  O2  UNL     1      -1.666   4.200  -1.098  1.00  0.00    -0.644 OA
HETATM   27  O3  UNL     1       0.443   3.939  -1.529  1.00  0.00    -0.644 OA
ENDBRANCH   6  25
TORSDOF 5
