REMARK  2 active torsions:
REMARK  status: ('A' for Active; 'I' for Inactive)
REMARK    1  A    between atoms: C5_6  and  C6_7 
REMARK    2  A    between atoms: C21_25  and  C26_30 
ROOT
HETATM    1  C1  UNL     1      -3.109  -0.846  -4.925  1.00  0.00     0.038 C 
HETATM    2  C2  UNL     1      -3.754  -1.654  -3.798  1.00  0.00     0.004 C 
HETATM    3  C3  UNL     1      -2.691  -2.539  -3.115  1.00  0.00     0.031 C 
HETATM    4  C4  UNL     1      -1.274  -1.925  -3.232  1.00  0.00     0.220 C 
HETATM    5  N1  UNL     1      -1.359  -0.470  -3.179  1.00  0.00     0.138 N 
HETATM    6  C5  UNL     1      -2.018   0.086  -4.361  1.00  0.00     0.243 C 
HETATM    7  C10 UNL     1      -0.049   0.130  -2.965  1.00  0.00     0.260 C 
HETATM    8  C11 UNL     1       0.481  -0.148  -1.534  1.00  0.00     0.071 C 
HETATM    9  C12 UNL     1      -0.143  -1.460  -1.009  1.00  0.00     0.014 C 
HETATM   10  C13 UNL     1      -0.319  -2.471  -2.149  1.00  0.00     0.034 C 
HETATM   11  C14 UNL     1       0.225   1.030  -0.566  1.00  0.00     0.015 C 
HETATM   12  C15 UNL     1       1.360   1.135   0.483  1.00  0.00     0.042 C 
HETATM   13  C16 UNL     1       2.638   0.990  -0.370  1.00  0.00     0.059 C 
HETATM   14  S1  UNL     1       2.308  -0.324  -1.582  1.00  0.00    -0.140 SA
HETATM   15  C17 UNL     1       1.331   2.508   1.183  1.00  0.00     0.005 C 
HETATM   16  C18 UNL     1       2.449   2.637   2.234  1.00  0.00     0.033 C 
HETATM   17  C19 UNL     1       2.751   1.302   2.943  1.00  0.00     0.220 C 
HETATM   18  N2  UNL     1       1.514   0.527   2.940  1.00  0.00     0.137 N 
HETATM   19  C20 UNL     1       1.224   0.053   1.587  1.00  0.00     0.251 C 
HETATM   20  C21 UNL     1       1.527  -0.535   3.937  1.00  0.00     0.243 C 
HETATM   21  C22 UNL     1       1.551   0.077   5.356  1.00  0.00     0.038 C 
HETATM   22  C23 UNL     1       2.294   1.422   5.411  1.00  0.00     0.004 C 
HETATM   23  C24 UNL     1       3.393   1.434   4.345  1.00  0.00     0.031 C 
HETATM   24  C25 UNL     1       4.357   2.620   4.497  1.00  0.00     0.002 C 
HETATM   25  C30 UNL     1      -2.725  -3.969  -3.687  1.00  0.00     0.002 C 
ENDROOT
BRANCH   6  26
HETATM   26  C6  UNL     1      -2.647   1.409  -4.004  1.00  0.00     0.035 A 
HETATM   27  C7  UNL     1      -3.217   1.769  -2.846  1.00  0.00     0.120 A 
HETATM   28  O1  UNL     1      -3.644   2.922  -2.885  1.00  0.00    -0.303 OA
HETATM   29  C8  UNL     1      -3.404   3.381  -4.001  1.00  0.00     0.122 A 
HETATM   30  C9  UNL     1      -2.772   2.494  -4.779  1.00  0.00     0.026 A 
ENDBRANCH   6  26
BRANCH  20  31
HETATM   31  C26 UNL     1       0.347  -1.460   3.788  1.00  0.00     0.035 A 
HETATM   32  C27 UNL     1      -0.952  -1.175   3.951  1.00  0.00     0.120 A 
HETATM   33  O2  UNL     1      -1.666  -2.154   3.741  1.00  0.00    -0.303 OA
HETATM   34  C28 UNL     1      -0.939  -3.099   3.439  1.00  0.00     0.122 A 
HETATM   35  C29 UNL     1       0.354  -2.755   3.443  1.00  0.00     0.026 A 
ENDBRANCH  20  31
TORSDOF 2
