REMARK  1 active torsions:
REMARK  status: ('A' for Active; 'I' for Inactive)
REMARK    1  A    between atoms: C1_1  and  C8_10 
ROOT
HETATM    1  C1  UNL     1      -0.026  -0.156   0.039  1.00  0.00     0.006 A 
HETATM    2  C2  UNL     1       0.467   1.059  -0.259  1.00  0.00    -0.002 A 
HETATM    3  C3  UNL     1       1.669   1.451  -0.692  1.00  0.00    -0.000 A 
HETATM    4  C4  UNL     1       2.732   0.686  -0.947  1.00  0.00     0.003 A 
HETATM    5  C5  UNL     1       2.833  -0.641  -0.834  1.00  0.00     0.044 A 
HETATM    6  C6  UNL     1       1.916  -1.560  -0.440  1.00  0.00     0.221 A 
HETATM    7  C7  UNL     1       0.626  -1.338  -0.048  1.00  0.00     0.166 A 
HETATM    8  O1  UNL     1      -0.010  -2.512   0.265  1.00  0.00    -0.187 OA
HETATM    9  O2  UNL     1       2.320  -2.706  -0.448  1.00  0.00    -0.284 OA
ENDROOT
BRANCH   1  10
HETATM   10  C8  UNL     1      -1.488  -0.139   0.525  1.00  0.00     0.025 C 
HETATM   11  C9  UNL     1      -1.680   0.716   1.794  1.00  0.00     0.005 C 
HETATM   12  C10 UNL     1      -2.454   0.286  -0.596  1.00  0.00     0.005 C 
ENDBRANCH   1  10
TORSDOF 1
