REMARK  0 active torsions:
REMARK  status: ('A' for Active; 'I' for Inactive)
ROOT
HETATM    1  C1  UNL     1       0.086   1.272  -0.015  1.00  0.00     0.019 C 
HETATM    2  C2  UNL     1       0.190  -0.257  -0.075  1.00  0.00     0.007 A 
HETATM    3  C3  UNL     1       1.396  -0.901   0.565  1.00  0.00     0.022 A 
HETATM    4  C4  UNL     1       2.516   0.004   0.946  1.00  0.00    -0.023 C 
HETATM    5  C5  UNL     1       2.503   1.321   0.676  1.00  0.00    -0.008 C 
HETATM    6  C6  UNL     1       1.442   1.938   0.140  1.00  0.00    -0.026 C 
HETATM    7  C7  UNL     1       3.593  -0.538   1.543  1.00  0.00    -0.004 C 
HETATM    8  C8  UNL     1       1.300  -0.814  -0.945  1.00  0.00     0.004 A 
HETATM    9  C9  UNL     1      -1.158  -1.028  -0.105  1.00  0.00     0.001 C 
HETATM   10  C10 UNL     1      -2.227  -0.160  -0.827  1.00  0.00     0.000 C 
HETATM   11  C11 UNL     1      -1.586   0.738  -1.895  1.00  0.00     0.000 C 
HETATM   12  C12 UNL     1      -0.612   1.773  -1.299  1.00  0.00     0.004 C 
HETATM   13  C13 UNL     1      -1.655  -1.371   1.321  1.00  0.00     0.000 C 
HETATM   14  C14 UNL     1      -1.121  -2.392  -0.846  1.00  0.00     0.000 C 
HETATM   15  C15 UNL     1      -0.642   1.804   1.246  1.00  0.00     0.004 C 
ENDROOT
TORSDOF 0
