REMARK  1 active torsions:
REMARK  status: ('A' for Active; 'I' for Inactive)
REMARK    1  A    between atoms: C3_3  and  C8_9 
ROOT
HETATM    1  C1  UNL     1       0.632   1.779  -0.617  1.00  0.00     0.025 A 
HETATM    2  C2  UNL     1       1.169   0.589  -0.298  1.00  0.00     0.127 A 
HETATM    3  C3  UNL     1       0.342  -0.441  -0.021  1.00  0.00     0.005 A 
HETATM    4  C4  UNL     1      -0.984  -0.218  -0.070  1.00  0.00     0.025 A 
HETATM    5  C5  UNL     1      -1.522   0.970  -0.392  1.00  0.00     0.127 A 
HETATM    6  C6  UNL     1      -0.692   1.991  -0.673  1.00  0.00     0.006 A 
HETATM    7  C7  UNL     1      -1.240   3.353  -1.039  1.00  0.00     0.033 C 
HETATM    8  O1  UNL     1      -2.873   1.129  -0.428  1.00  0.00    -0.191 OA
HETATM    9  O2  UNL     1       2.523   0.455  -0.256  1.00  0.00    -0.191 OA
ENDROOT
BRANCH   3  10
HETATM   10  C8  UNL     1       0.906  -1.808   0.351  1.00  0.00     0.024 C 
HETATM   11  C9  UNL     1      -0.021  -3.005   0.071  1.00  0.00     0.005 C 
HETATM   12  C10 UNL     1       1.333  -1.806   1.829  1.00  0.00     0.005 C 
ENDBRANCH   3  10
TORSDOF 1
