REMARK  4 active torsions:
REMARK  status: ('A' for Active; 'I' for Inactive)
REMARK    1  A    between atoms: C1_1  and  O8_25 
REMARK    2  A    between atoms: C6_6  and  O1_7 
REMARK    3  A    between atoms: C8_10  and  C11_14 
REMARK    4  A    between atoms: C13_16  and  O5_21 
ROOT
HETATM    1  C1  UNL     1      -3.076   2.308  -0.021  1.00  0.00     0.145 A 
HETATM    2  C2  UNL     1      -2.553   3.549   0.011  1.00  0.00     0.180 A 
HETATM    3  C3  UNL     1      -1.229   3.761   0.033  1.00  0.00     0.163 A 
HETATM    4  C4  UNL     1      -0.404   2.697   0.022  1.00  0.00     0.091 A 
HETATM    5  C5  UNL     1      -0.895   1.440  -0.011  1.00  0.00     0.129 A 
HETATM    6  C6  UNL     1      -2.241   1.236  -0.032  1.00  0.00     0.141 A 
HETATM    7  O2  UNL     1      -0.045   0.368  -0.022  1.00  0.00    -0.305 OA
HETATM    8  C8  UNL     1       1.308   0.562   0.001  1.00  0.00     0.103 A 
HETATM    9  C9  UNL     1       1.770   1.823   0.035  1.00  0.00     0.067 A 
HETATM   10  C10 UNL     1       0.944   2.900   0.045  1.00  0.00     0.202 A 
HETATM   11  O3  UNL     1       1.472   3.991   0.075  1.00  0.00    -0.286 OA
HETATM   12  O6  UNL     1      -0.796   5.054   0.065  1.00  0.00    -0.188 OA
HETATM   13  O7  UNL     1      -3.383   4.631   0.022  1.00  0.00    -0.186 OA
ENDROOT
BRANCH   8  14
HETATM   14  C11 UNL     1       2.142  -0.511  -0.011  1.00  0.00     0.025 A 
HETATM   15  C12 UNL     1       1.627  -1.757  -0.046  1.00  0.00     0.028 A 
HETATM   16  C13 UNL     1       2.324  -2.912  -0.068  1.00  0.00     0.119 A 
HETATM   17  C14 UNL     1       3.671  -2.814  -0.028  1.00  0.00     0.153 A 
HETATM   18  C15 UNL     1       4.219  -1.588   0.004  1.00  0.00     0.029 A 
HETATM   19  O4  UNL     1       4.507  -3.887  -0.035  1.00  0.00    -0.188 OA
HETATM   20  C16 UNL     1       3.487  -0.465   0.012  1.00  0.00     0.004 A 
BRANCH  16  21
HETATM   21  O5  UNL     1       1.581  -4.072  -0.091  1.00  0.00    -0.326 OA
HETATM   22  C17 UNL     1       2.185  -5.323   0.127  1.00  0.00     0.181 C 
ENDBRANCH  16  21
ENDBRANCH   8  14
BRANCH   6  23
HETATM   23  O1  UNL     1      -2.844  -0.003  -0.065  1.00  0.00    -0.324 OA
HETATM   24  C7  UNL     1      -2.148  -1.222  -0.079  1.00  0.00     0.182 C 
ENDBRANCH   6  23
BRANCH   1  25
HETATM   25  O8  UNL     1      -4.457   2.286  -0.040  1.00  0.00    -0.324 OA
HETATM   26  C18 UNL     1      -5.222   1.107  -0.077  1.00  0.00     0.182 C 
ENDBRANCH   1  25
TORSDOF 4
