REMARK  3 active torsions:
REMARK  status: ('A' for Active; 'I' for Inactive)
REMARK    1  A    between atoms: C1_1  and  O1_2 
REMARK    2  A    between atoms: O1_2  and  C2_3 
REMARK    3  A    between atoms: C2_3  and  C3_4 
ROOT
HETATM    1  C1  UNL     1      -0.278  -0.196  -0.118  1.00  0.00     0.129 C 
HETATM    2  C7  UNL     1      -1.350   0.870  -0.362  1.00  0.00     0.064 C 
HETATM    3  C8  UNL     1      -2.774   0.353  -0.071  1.00  0.00     0.222 C 
HETATM    4  N1  UNL     1      -2.826  -0.053   1.325  1.00  0.00     0.135 N 
HETATM    5  C9  UNL     1      -2.088  -1.308   1.305  1.00  0.00     0.222 C 
HETATM    6  C10 UNL     1      -0.589  -0.975   1.164  1.00  0.00     0.064 C 
HETATM    7  C11 UNL     1      -2.623  -2.059   0.070  1.00  0.00     0.035 C 
HETATM    8  C12 UNL     1      -3.090  -0.928  -0.866  1.00  0.00     0.035 C 
HETATM    9  C13 UNL     1      -4.182  -0.198   1.827  1.00  0.00     0.285 C 
ENDROOT
BRANCH   1  10
HETATM   10  O1  UNL     1       0.972   0.424   0.009  1.00  0.00    -0.301 OA
BRANCH  10  11
HETATM   11  C2  UNL     1       2.002   0.135  -0.844  1.00  0.00     0.291 C 
HETATM   12  O2  UNL     1       1.836  -0.664  -1.742  1.00  0.00    -0.260 OA
BRANCH  11  13
HETATM   13  C3  UNL     1       3.216   0.741  -0.680  1.00  0.00     0.037 C 
HETATM   14  C4  UNL     1       4.232   0.455  -1.519  1.00  0.00    -0.025 C 
HETATM   15  C5  UNL     1       5.633   1.016  -1.499  1.00  0.00     0.030 C 
HETATM   16  C6  UNL     1       3.327   1.720   0.471  1.00  0.00     0.036 C 
ENDBRANCH  11  13
ENDBRANCH  10  11
ENDBRANCH   1  10
TORSDOF 3
