REMARK  4 active torsions:
REMARK  status: ('A' for Active; 'I' for Inactive)
REMARK    1  A    between atoms: C6_8  and  O4_19 
REMARK    2  A    between atoms: C7_9  and  C11_14 
REMARK    3  A    between atoms: C8_10  and  O3_12 
REMARK    4  A    between atoms: C11_14  and  C12_15 
ROOT
HETATM    1  C1  UNL     1      -2.318   1.600  -0.753  1.00  0.00     0.107 A 
HETATM    2  C2  UNL     1      -1.283   2.261  -0.196  1.00  0.00     0.045 A 
HETATM    3  C3  UNL     1      -1.474   3.562   0.102  1.00  0.00     0.009 A 
HETATM    4  C4  UNL     1      -2.638   4.182  -0.136  1.00  0.00     0.069 A 
HETATM    5  C5  UNL     1      -3.664   3.488  -0.686  1.00  0.00     0.300 A 
HETATM    6  O1  UNL     1      -3.539   2.170  -1.000  1.00  0.00    -0.273 OA
HETATM    7  O2  UNL     1      -4.712   4.066  -0.893  1.00  0.00    -0.259 OA
HETATM    8  C6  UNL     1      -0.110   1.640   0.071  1.00  0.00     0.094 A 
HETATM    9  C7  UNL     1       0.052   0.358  -0.335  1.00  0.00     0.027 A 
HETATM   10  C8  UNL     1      -0.949  -0.319  -0.937  1.00  0.00     0.094 A 
HETATM   11  C9  UNL     1      -2.124   0.314  -1.084  1.00  0.00     0.049 A 
ENDROOT
BRANCH   9  12
HETATM   12  C11 UNL     1       1.373  -0.375  -0.130  1.00  0.00     0.056 C 
BRANCH  12  13
HETATM   13  C12 UNL     1       1.212  -1.498   0.865  1.00  0.00    -0.030 C 
HETATM   14  C13 UNL     1       1.770  -2.720   0.800  1.00  0.00    -0.048 C 
HETATM   15  C14 UNL     1       1.497  -3.758   1.865  1.00  0.00     0.026 C 
HETATM   16  C15 UNL     1       2.694  -3.188  -0.300  1.00  0.00     0.026 C 
ENDBRANCH  12  13
ENDBRANCH   9  12
BRANCH   8  17
HETATM   17  O4  UNL     1       0.946   2.334   0.617  1.00  0.00    -0.328 OA
HETATM   18  C16 UNL     1       1.009   2.267   2.026  1.00  0.00     0.181 C 
ENDBRANCH   8  17
BRANCH  10  19
HETATM   19  O3  UNL     1      -0.826  -1.641  -1.288  1.00  0.00    -0.328 OA
HETATM   20  C10 UNL     1      -0.697  -1.862  -2.675  1.00  0.00     0.181 C 
ENDBRANCH  10  19
TORSDOF 4
