REMARK  5 active torsions:
REMARK  status: ('A' for Active; 'I' for Inactive)
REMARK    1  A    between atoms: C6_8  and  O6_21 
REMARK    2  A    between atoms: C7_9  and  C11_14 
REMARK    3  A    between atoms: C8_10  and  O3_12 
REMARK    4  A    between atoms: C11_14  and  C12_15 
REMARK    5  A    between atoms: C12_15  and  C13_16 
ROOT
HETATM    1  C1  UNL     1      -2.844   0.847  -0.380  1.00  0.00     0.107 A 
HETATM    2  C2  UNL     1      -1.849   1.755  -0.433  1.00  0.00     0.045 A 
HETATM    3  C3  UNL     1      -2.192   3.043  -0.232  1.00  0.00     0.009 A 
HETATM    4  C4  UNL     1      -3.451   3.414   0.041  1.00  0.00     0.069 A 
HETATM    5  C5  UNL     1      -4.421   2.473   0.118  1.00  0.00     0.300 A 
HETATM    6  O1  UNL     1      -4.145   1.157  -0.086  1.00  0.00    -0.273 OA
HETATM    7  O2  UNL     1      -5.556   2.823   0.374  1.00  0.00    -0.259 OA
HETATM    8  C6  UNL     1      -0.571   1.381  -0.678  1.00  0.00     0.094 A 
HETATM    9  C7  UNL     1      -0.326   0.090  -1.015  1.00  0.00     0.025 A 
HETATM   10  C8  UNL     1      -1.310  -0.840  -1.024  1.00  0.00     0.094 A 
HETATM   11  C9  UNL     1      -2.538  -0.428  -0.666  1.00  0.00     0.049 A 
ENDROOT
BRANCH   9  12
HETATM   12  C11 UNL     1       1.079  -0.341  -1.433  1.00  0.00     0.066 C 
BRANCH  12  13
HETATM   13  C12 UNL     1       2.154  -0.481  -0.346  1.00  0.00     0.184 C 
HETATM   14  O5  UNL     1       3.380  -0.709  -1.012  1.00  0.00    -0.221 OA
BRANCH  13  15
HETATM   15  C13 UNL     1       1.961  -1.552   0.734  1.00  0.00     0.155 C 
HETATM   16  C14 UNL     1       0.851  -1.199   1.730  1.00  0.00     0.036 C 
HETATM   17  C15 UNL     1       3.252  -1.782   1.533  1.00  0.00     0.036 C 
HETATM   18  O4  UNL     1       1.628  -2.773   0.127  1.00  0.00    -0.223 OA
ENDBRANCH  13  15
ENDBRANCH  12  13
ENDBRANCH   9  12
BRANCH   8  19
HETATM   19  O6  UNL     1       0.450   2.305  -0.733  1.00  0.00    -0.328 OA
HETATM   20  C16 UNL     1       0.929   2.740   0.525  1.00  0.00     0.181 C 
ENDBRANCH   8  19
BRANCH  10  21
HETATM   21  O3  UNL     1      -1.014  -2.145  -1.339  1.00  0.00    -0.328 OA
HETATM   22  C10 UNL     1      -1.929  -3.164  -1.007  1.00  0.00     0.181 C 
ENDBRANCH  10  21
TORSDOF 5
