REMARK  11 active torsions:
REMARK  status: ('A' for Active; 'I' for Inactive)
REMARK    1  A    between atoms: C4_4  and  C7_7 
REMARK    2  A    between atoms: C7_7  and  C8_8 
REMARK    3  A    between atoms: C8_8  and  C9_9 
REMARK    4  A    between atoms: C9_9  and  C10_10 
REMARK    5  A    between atoms: C9_9  and  C20_23 
REMARK    6  A    between atoms: C10_10  and  C11_11 
REMARK    7  A    between atoms: C12_12  and  C13_13 
REMARK    8  A    between atoms: C17_17  and  O1_19 
REMARK    9  A    between atoms: C20_23  and  C21_24 
REMARK   10  A    between atoms: C22_25  and  C23_26 
REMARK   11  A    between atoms: C25_28  and  O5_33 
ROOT
HETATM    1  C9  UNL     1       0.634  -1.379  -0.422  1.00  0.00     0.154 C 
ENDROOT
BRANCH   1   2
HETATM    2  C8  UNL     1       1.702  -0.957   0.616  1.00  0.00     0.171 C 
HETATM    3  O7  UNL     1       1.558  -1.812   1.732  1.00  0.00    -0.222 OA
BRANCH   2   4
HETATM    4  C7  UNL     1       3.154  -1.007   0.121  1.00  0.00     0.060 C 
BRANCH   4   5
HETATM    5  C4  UNL     1       3.958   0.276  -0.033  1.00  0.00    -0.020 A 
HETATM    6  C3  UNL     1       5.132   0.216  -0.691  1.00  0.00    -0.004 A 
HETATM    7  C2  UNL     1       5.912   1.296  -0.850  1.00  0.00    -0.005 A 
HETATM    8  C1  UNL     1       5.544   2.490  -0.357  1.00  0.00    -0.022 A 
HETATM    9  C6  UNL     1       4.374   2.561   0.301  1.00  0.00    -0.005 A 
HETATM   10  C30 UNL     1       6.431   3.702  -0.518  1.00  0.00     0.031 C 
HETATM   11  C5  UNL     1       3.601   1.476   0.462  1.00  0.00    -0.004 A 
ENDBRANCH   4   5
ENDBRANCH   2   4
ENDBRANCH   1   2
BRANCH   1  12
HETATM   12  C10 UNL     1       0.362  -0.265  -1.443  1.00  0.00     0.182 C 
HETATM   13  O3  UNL     1       1.092   0.699  -1.423  1.00  0.00    -0.291 OA
BRANCH  12  14
HETATM   14  C11 UNL     1      -0.623  -0.459  -2.359  1.00  0.00     0.038 C 
HETATM   15  C12 UNL     1      -1.116   0.384  -3.289  1.00  0.00     0.003 C 
BRANCH  15  16
HETATM   16  C13 UNL     1      -0.978   1.709  -3.509  1.00  0.00     0.002 A 
HETATM   17  C14 UNL     1      -1.381   2.221  -4.687  1.00  0.00     0.002 A 
HETATM   18  C15 UNL     1      -1.261   3.530  -4.950  1.00  0.00     0.029 A 
HETATM   19  C16 UNL     1      -0.770   4.386  -4.041  1.00  0.00     0.153 A 
HETATM   20  C17 UNL     1      -0.423   3.927  -2.822  1.00  0.00     0.119 A 
HETATM   21  O2  UNL     1      -0.654   5.713  -4.322  1.00  0.00    -0.188 OA
HETATM   22  C18 UNL     1      -0.545   2.603  -2.600  1.00  0.00     0.026 A 
BRANCH  20  23
HETATM   23  O1  UNL     1       0.052   4.833  -1.903  1.00  0.00    -0.326 OA
HETATM   24  C19 UNL     1       0.734   4.359  -0.764  1.00  0.00     0.181 C 
ENDBRANCH  20  23
ENDBRANCH  15  16
ENDBRANCH  12  14
ENDBRANCH   1  12
BRANCH   1  25
HETATM   25  C20 UNL     1      -0.615  -1.776   0.384  1.00  0.00     0.182 C 
HETATM   26  O6  UNL     1      -0.878  -1.033   1.300  1.00  0.00    -0.291 OA
BRANCH  25  27
HETATM   27  C21 UNL     1      -1.307  -2.899   0.060  1.00  0.00     0.038 C 
HETATM   28  C22 UNL     1      -2.320  -3.503   0.712  1.00  0.00     0.003 C 
BRANCH  28  29
HETATM   29  C23 UNL     1      -2.862  -3.357   1.941  1.00  0.00     0.002 A 
HETATM   30  C24 UNL     1      -4.040  -3.954   2.218  1.00  0.00     0.026 A 
HETATM   31  C25 UNL     1      -4.691  -3.900   3.400  1.00  0.00     0.119 A 
HETATM   32  C26 UNL     1      -4.089  -3.225   4.405  1.00  0.00     0.153 A 
HETATM   33  C27 UNL     1      -2.893  -2.662   4.171  1.00  0.00     0.029 A 
HETATM   34  O4  UNL     1      -4.613  -3.092   5.654  1.00  0.00    -0.188 OA
HETATM   35  C28 UNL     1      -2.284  -2.735   2.981  1.00  0.00     0.002 A 
BRANCH  31  36
HETATM   36  O5  UNL     1      -5.890  -4.575   3.474  1.00  0.00    -0.326 OA
HETATM   37  C29 UNL     1      -6.512  -4.806   4.714  1.00  0.00     0.181 C 
ENDBRANCH  31  36
ENDBRANCH  28  29
ENDBRANCH  25  27
ENDBRANCH   1  25
TORSDOF 11
