REMARK  11 active torsions:
REMARK  status: ('A' for Active; 'I' for Inactive)
REMARK    1  A    between atoms: C2_2  and  O2_30 
REMARK    2  A    between atoms: O2_30  and  C28_31 
REMARK    3  A    between atoms: C29_33  and  C51_71 
REMARK    4  A    between atoms: C30_34  and  O6_39 
REMARK    5  A    between atoms: O6_39  and  C33_40 
REMARK    6  A    between atoms: C34_42  and  C50_69 
REMARK    7  A    between atoms: C36_44  and  O13_58 
REMARK    8  A    between atoms: C37_45  and  O8_46 
REMARK    9  A    between atoms: O8_46  and  C38_47 
REMARK   10  A    between atoms: C40_49  and  C44_56 
REMARK   11  A    between atoms: O13_58  and  C45_59 
ROOT
HETATM    1  C28 UNL     1      -3.920  -2.085  -1.071  1.00  0.00     0.270 C 
HETATM    2  O3  UNL     1      -5.090  -1.411  -1.461  1.00  0.00    -0.326 OA
HETATM    3  C29 UNL     1      -5.159  -0.037  -1.153  1.00  0.00     0.181 C 
HETATM    4  C30 UNL     1      -4.273   0.436   0.026  1.00  0.00     0.181 C 
HETATM    5  C31 UNL     1      -4.319  -0.728   1.014  1.00  0.00     0.217 C 
HETATM    6  C32 UNL     1      -3.692  -1.973   0.424  1.00  0.00     0.241 C 
HETATM    7  O4  UNL     1      -4.237  -3.090   1.088  1.00  0.00    -0.215 OA
HETATM    8  O5  UNL     1      -3.730  -0.457   2.259  1.00  0.00    -0.218 OA
ENDROOT
BRANCH   4   9
HETATM    9  O6  UNL     1      -2.976   0.777  -0.408  1.00  0.00    -0.326 OA
BRANCH   9  10
HETATM   10  C33 UNL     1      -2.190   1.557   0.481  1.00  0.00     0.266 C 
HETATM   11  O7  UNL     1      -0.870   1.331   0.035  1.00  0.00    -0.326 OA
HETATM   12  C34 UNL     1       0.117   1.823   0.903  1.00  0.00     0.184 C 
HETATM   13  C35 UNL     1      -0.079   3.312   1.182  1.00  0.00     0.211 C 
HETATM   14  C36 UNL     1      -1.518   3.684   1.545  1.00  0.00     0.183 C 
HETATM   15  O18 UNL     1       0.315   4.038   0.039  1.00  0.00    -0.218 OA
HETATM   16  C37 UNL     1      -2.467   3.059   0.512  1.00  0.00     0.201 C 
BRANCH  12  17
HETATM   17  C50 UNL     1       0.285   0.939   2.135  1.00  0.00     0.214 C 
HETATM   18  O19 UNL     1       1.430   1.343   2.861  1.00  0.00    -0.218 OA
ENDBRANCH  12  17
BRANCH  14  19
HETATM   19  O13 UNL     1      -1.716   3.247   2.861  1.00  0.00    -0.326 OA
BRANCH  19  20
HETATM   20  C45 UNL     1      -2.973   3.511   3.447  1.00  0.00     0.270 C 
HETATM   21  O14 UNL     1      -3.736   2.363   3.150  1.00  0.00    -0.326 OA
HETATM   22  C46 UNL     1      -5.004   2.378   3.746  1.00  0.00     0.181 C 
HETATM   23  C47 UNL     1      -4.857   2.340   5.255  1.00  0.00     0.215 C 
HETATM   24  C48 UNL     1      -4.022   3.511   5.741  1.00  0.00     0.220 C 
HETATM   25  O17 UNL     1      -4.229   1.130   5.616  1.00  0.00    -0.218 OA
HETATM   26  C49 UNL     1      -2.736   3.613   4.940  1.00  0.00     0.241 C 
HETATM   27  O16 UNL     1      -4.759   4.698   5.569  1.00  0.00    -0.218 OA
HETATM   28  O15 UNL     1      -1.872   2.562   5.308  1.00  0.00    -0.215 OA
ENDBRANCH  19  20
ENDBRANCH  14  19
BRANCH  16  29
HETATM   29  O8  UNL     1      -2.170   3.687  -0.713  1.00  0.00    -0.349 OA
BRANCH  29  30
HETATM   30  C38 UNL     1      -3.192   3.679  -1.662  1.00  0.00     0.149 C 
HETATM   31  C39 UNL     1      -2.598   3.628  -3.072  1.00  0.00     0.038 C 
HETATM   32  C40 UNL     1      -2.018   4.967  -3.559  1.00  0.00     0.069 C 
HETATM   33  C41 UNL     1      -3.036   6.096  -3.362  1.00  0.00     0.188 C 
HETATM   34  C42 UNL     1      -3.641   6.171  -1.969  1.00  0.00     0.215 C 
HETATM   35  O11 UNL     1      -4.099   5.918  -4.275  1.00  0.00    -0.221 OA
HETATM   36  C43 UNL     1      -4.176   4.829  -1.496  1.00  0.00     0.212 C 
HETATM   37  O10 UNL     1      -2.709   6.667  -1.040  1.00  0.00    -0.218 OA
HETATM   38  O9  UNL     1      -5.327   4.522  -2.253  1.00  0.00    -0.218 OA
BRANCH  32  39
HETATM   39  C44 UNL     1      -0.639   5.251  -2.958  1.00  0.00     0.185 C 
HETATM   40  O12 UNL     1      -0.062   6.389  -3.565  1.00  0.00    -0.221 OA
ENDBRANCH  32  39
ENDBRANCH  29  30
ENDBRANCH  16  29
ENDBRANCH   9  10
ENDBRANCH   4   9
BRANCH   3  41
HETATM   41  C51 UNL     1      -5.113   0.750  -2.456  1.00  0.00     0.214 C 
HETATM   42  O20 UNL     1      -5.793   1.982  -2.311  1.00  0.00    -0.218 OA
ENDBRANCH   3  41
BRANCH   1  43
HETATM   43  O2  UNL     1      -2.853  -1.534  -1.815  1.00  0.00    -0.332 OA
BRANCH  43  44
HETATM   44  C2  UNL     1      -2.507  -2.206  -2.992  1.00  0.00     0.118 C 
HETATM   45  C1  UNL     1      -1.579  -1.314  -3.812  1.00  0.00     0.030 C 
HETATM   46  C6  UNL     1      -0.329  -0.895  -3.025  1.00  0.00     0.003 C 
HETATM   47  C5  UNL     1       0.371  -2.013  -2.207  1.00  0.00     0.000 C 
HETATM   48  C4  UNL     1      -0.236  -3.428  -2.471  1.00  0.00     0.002 C 
HETATM   49  C7  UNL     1       1.911  -2.004  -2.516  1.00  0.00     0.000 C 
HETATM   50  C27 UNL     1       0.161  -1.744  -0.694  1.00  0.00     0.000 C 
HETATM   51  C3  UNL     1      -1.758  -3.517  -2.739  1.00  0.00     0.030 C 
HETATM   52  C10 UNL     1       0.589  -4.210  -3.511  1.00  0.00     0.000 C 
HETATM   53  C9  UNL     1       2.027  -4.463  -3.015  1.00  0.00     0.000 C 
HETATM   54  C8  UNL     1       2.512  -3.354  -2.060  1.00  0.00     0.000 C 
HETATM   55  C11 UNL     1       4.033  -3.288  -1.954  1.00  0.00     0.003 C 
HETATM   56  C12 UNL     1       4.510  -2.136  -1.040  1.00  0.00     0.003 C 
HETATM   57  C17 UNL     1       4.787  -4.526  -1.459  1.00  0.00     0.030 C 
HETATM   58  C13 UNL     1       4.205  -0.871  -1.873  1.00  0.00     0.000 C 
HETATM   59  C15 UNL     1       6.013  -2.482  -0.866  1.00  0.00     0.032 C 
HETATM   60  C26 UNL     1       3.786  -1.981   0.312  1.00  0.00     0.000 C 
HETATM   61  C14 UNL     1       2.687  -0.717  -2.114  1.00  0.00     0.000 C 
HETATM   62  C16 UNL     1       6.192  -3.950  -1.260  1.00  0.00     0.117 C 
HETATM   63  C19 UNL     1       6.712  -2.426   0.510  1.00  0.00     0.049 C 
HETATM   64  O1  UNL     1       6.951  -4.618  -0.297  1.00  0.00    -0.342 OA
HETATM   65  C18 UNL     1       6.931  -3.900   0.910  1.00  0.00     0.172 C 
HETATM   66  N1  UNL     1       8.240  -4.141   1.538  1.00  0.00    -0.273 NA
HETATM   67  C24 UNL     1       5.882  -4.560   1.821  1.00  0.00     0.051 C 
HETATM   68  C21 UNL     1       8.360  -3.702   2.932  1.00  0.00     0.122 C 
HETATM   69  C22 UNL     1       7.310  -4.343   3.850  1.00  0.00     0.024 C 
HETATM   70  C23 UNL     1       5.919  -4.062   3.269  1.00  0.00     0.006 C 
HETATM   71  C25 UNL     1       7.418  -3.825   5.293  1.00  0.00     0.002 C 
HETATM   72  C20 UNL     1       8.013  -1.615   0.320  1.00  0.00     0.004 C 
ENDBRANCH  43  44
ENDBRANCH   1  43
TORSDOF 11
