REMARK  1 active torsions:
REMARK  status: ('A' for Active; 'I' for Inactive)
REMARK    1  A    between atoms: C15_16  and  C18_19 
ROOT
HETATM    1  C1  UNL     1      -3.489  -0.488  -1.954  1.00  0.00     0.033 C 
HETATM    2  C2  UNL     1      -4.409  -1.257  -1.013  1.00  0.00     0.152 C 
HETATM    3  C3  UNL     1      -3.664  -1.809   0.204  1.00  0.00     0.033 C 
HETATM    4  C4  UNL     1      -2.212  -1.305   0.302  1.00  0.00     0.003 C 
HETATM    5  C5  UNL     1      -2.102   0.233   0.144  1.00  0.00     0.000 C 
HETATM    6  C6  UNL     1      -2.714   0.629  -1.233  1.00  0.00     0.003 C 
HETATM    7  C7  UNL     1      -0.589   0.584   0.186  1.00  0.00     0.005 C 
HETATM    8  C8  UNL     1       0.172   0.071   1.427  1.00  0.00     0.028 C 
HETATM    9  C9  UNL     1      -0.039  -1.440   1.627  1.00  0.00     0.002 C 
HETATM   10  C10 UNL     1      -1.524  -1.832   1.572  1.00  0.00     0.000 C 
HETATM   11  C11 UNL     1       1.619   0.632   1.547  1.00  0.00     0.131 C 
HETATM   12  C12 UNL     1       2.235   1.256   0.259  1.00  0.00     0.082 C 
HETATM   13  C13 UNL     1       1.224   2.166  -0.488  1.00  0.00     0.157 C 
HETATM   14  C14 UNL     1      -0.226   2.057  -0.012  1.00  0.00     0.033 C 
HETATM   15  O1  UNL     1       1.549   3.538  -0.408  1.00  0.00    -0.223 OA
HETATM   16  C15 UNL     1       2.845   0.008  -0.493  1.00  0.00     0.159 C 
HETATM   17  C16 UNL     1       3.316  -0.898   0.665  1.00  0.00     0.036 C 
HETATM   18  C17 UNL     1       2.698  -0.371   1.968  1.00  0.00     0.033 C 
HETATM   19  O3  UNL     1       3.960   0.426  -1.242  1.00  0.00    -0.223 OA
HETATM   20  C20 UNL     1       3.448   2.168   0.652  1.00  0.00     0.008 C 
HETATM   21  O4  UNL     1       1.565   1.613   2.558  1.00  0.00    -0.226 OA
HETATM   22  C21 UNL     1      -2.865   0.987   1.257  1.00  0.00     0.000 C 
HETATM   23  O5  UNL     1      -5.457  -0.413  -0.598  1.00  0.00    -0.224 OA
ENDROOT
BRANCH  16  24
HETATM   24  C18 UNL     1       2.066  -0.848  -1.508  1.00  0.00     0.180 C 
HETATM   25  C19 UNL     1       2.849  -2.002  -2.153  1.00  0.00     0.038 C 
HETATM   26  O2  UNL     1       1.631  -0.045  -2.578  1.00  0.00    -0.221 OA
ENDBRANCH  16  24
TORSDOF 1
