REMARK  0 active torsions:
REMARK  status: ('A' for Active; 'I' for Inactive)
ROOT
HETATM    1  C1  UNL     1      -4.499  -1.544  -4.330  1.00  0.00     0.065 C 
HETATM    2  C2  UNL     1      -5.295  -2.291  -3.269  1.00  0.00     0.151 C 
HETATM    3  C3  UNL     1      -4.527  -2.906  -2.108  1.00  0.00     0.065 C 
HETATM    4  C4  UNL     1      -3.086  -2.382  -2.073  1.00  0.00     0.007 C 
HETATM    5  C5  UNL     1      -3.055  -0.848  -2.297  1.00  0.00     0.001 C 
HETATM    6  C6  UNL     1      -3.369  -0.635  -3.798  1.00  0.00     0.008 C 
HETATM    7  C7  UNL     1      -1.628  -0.383  -1.903  1.00  0.00     0.003 C 
HETATM    8  C8  UNL     1      -1.418  -0.510  -0.384  1.00  0.00     0.000 C 
HETATM    9  C9  UNL     1      -1.957  -1.837   0.192  1.00  0.00     0.000 C 
HETATM   10  C10 UNL     1      -2.242  -2.890  -0.885  1.00  0.00     0.000 C 
HETATM   11  C11 UNL     1       0.017  -0.171   0.053  1.00  0.00     0.005 C 
HETATM   12  C12 UNL     1       0.559   1.175  -0.490  1.00  0.00     0.031 C 
HETATM   13  C13 UNL     1       0.230   1.337  -1.996  1.00  0.00     0.152 C 
HETATM   14  C14 UNL     1      -1.224   1.029  -2.363  1.00  0.00     0.033 C 
HETATM   15  O1  UNL     1       1.046   0.526  -2.815  1.00  0.00    -0.224 OA
HETATM   16  C15 UNL     1       2.097   1.069  -0.263  1.00  0.00     0.034 C 
HETATM   17  C16 UNL     1       2.391  -0.393   0.073  1.00  0.00     0.118 C 
HETATM   18  C17 UNL     1       1.126  -1.185  -0.265  1.00  0.00     0.030 C 
HETATM   19  O2  UNL     1       2.622  -0.487   1.448  1.00  0.00    -0.337 OA
HETATM   20  C18 UNL     1       2.971   0.760   1.992  1.00  0.00     0.187 C 
HETATM   21  C19 UNL     1       2.782   1.812   0.894  1.00  0.00     0.054 C 
HETATM   22  C20 UNL     1       4.092   2.470   0.413  1.00  0.00     0.005 C 
HETATM   23  O3  UNL     1       4.326   0.713   2.369  1.00  0.00    -0.335 OA
HETATM   24  C21 UNL     1       4.634  -0.190   3.401  1.00  0.00     0.145 C 
HETATM   25  C22 UNL     1       3.871   0.126   4.686  1.00  0.00     0.030 C 
HETATM   26  C23 UNL     1       2.371   0.103   4.369  1.00  0.00     0.007 C 
HETATM   27  C24 UNL     1       2.081   1.048   3.200  1.00  0.00     0.056 C 
HETATM   28  C25 UNL     1       4.321   1.456   5.314  1.00  0.00     0.003 C 
HETATM   29  C26 UNL     1      -0.089   2.364   0.253  1.00  0.00     0.003 C 
HETATM   30  C27 UNL     1      -4.133  -0.072  -1.499  1.00  0.00     0.000 C 
HETATM   31  O4  UNL     1      -6.495  -2.424  -3.359  1.00  0.00    -0.296 OA
ENDROOT
TORSDOF 0
