REMARK  5 active torsions:
REMARK  status: ('A' for Active; 'I' for Inactive)
REMARK    1  A    between atoms: C1_1  and  C17_20 
REMARK    2  A    between atoms: C7_7  and  O2_13 
REMARK    3  A    between atoms: C8_8  and  C9_10 
REMARK    4  A    between atoms: O2_13  and  C12_14 
REMARK    5  A    between atoms: C12_14  and  C13_15 
ROOT
HETATM    1  C1  UNL     1      -3.327  -0.691  -0.154  1.00  0.00     0.035 A 
HETATM    2  C2  UNL     1      -3.420  -2.000  -0.474  1.00  0.00     0.005 A 
HETATM    3  C3  UNL     1      -2.345  -2.717  -0.844  1.00  0.00     0.024 A 
HETATM    4  C4  UNL     1      -1.153  -2.109  -0.893  1.00  0.00     0.093 A 
HETATM    5  C5  UNL     1      -1.047  -0.818  -0.571  1.00  0.00     0.030 A 
HETATM    6  C6  UNL     1      -2.116  -0.100  -0.204  1.00  0.00     0.003 A 
HETATM    7  C7  UNL     1       0.374  -0.343  -0.688  1.00  0.00     0.180 A 
HETATM    8  C8  UNL     1       0.978  -1.673  -1.184  1.00  0.00     0.172 A 
HETATM    9  O1  UNL     1      -0.088  -2.626  -1.219  1.00  0.00    -0.327 OA
ENDROOT
BRANCH   7  10
HETATM   10  O2  UNL     1       0.881   0.011   0.577  1.00  0.00    -0.294 OA
BRANCH  10  11
HETATM   11  C12 UNL     1       1.621   1.154   0.726  1.00  0.00     0.292 C 
HETATM   12  O3  UNL     1       1.825   1.861  -0.237  1.00  0.00    -0.260 OA
BRANCH  11  13
HETATM   13  C13 UNL     1       2.118   1.498   1.952  1.00  0.00     0.037 C 
HETATM   14  C14 UNL     1       2.826   2.637   2.094  1.00  0.00    -0.025 C 
HETATM   15  C15 UNL     1       3.430   3.194   3.358  1.00  0.00     0.030 C 
HETATM   16  C16 UNL     1       1.829   0.545   3.093  1.00  0.00     0.036 C 
ENDBRANCH  11  13
ENDBRANCH  10  11
ENDBRANCH   7  10
BRANCH   8  17
HETATM   17  C9  UNL     1       1.626  -1.517  -2.542  1.00  0.00    -0.014 C 
HETATM   18  C10 UNL     1       2.955  -1.381  -2.671  1.00  0.00    -0.007 C 
HETATM   19  C11 UNL     1       0.707  -1.489  -3.739  1.00  0.00     0.029 C 
ENDBRANCH   8  17
BRANCH   1  20
HETATM   20  C17 UNL     1      -4.446  -0.001   0.209  1.00  0.00     0.173 C 
HETATM   21  C18 UNL     1      -4.373   1.479   0.563  1.00  0.00     0.077 C 
HETATM   22  O4  UNL     1      -5.536  -0.530   0.259  1.00  0.00    -0.291 OA
ENDBRANCH   1  20
TORSDOF 5
