REMARK  2 active torsions:
REMARK  status: ('A' for Active; 'I' for Inactive)
REMARK    1  A    between atoms: C1_1  and  C12_13 
REMARK    2  A    between atoms: C8_8  and  C9_10 
ROOT
HETATM    1  C1  UNL     1      -2.143   0.448   1.079  1.00  0.00     0.035 A 
HETATM    2  C2  UNL     1      -2.155  -0.894   0.928  1.00  0.00     0.005 A 
HETATM    3  C3  UNL     1      -1.058  -1.569   0.541  1.00  0.00     0.024 A 
HETATM    4  C4  UNL     1       0.069  -0.887   0.304  1.00  0.00     0.090 A 
HETATM    5  C5  UNL     1       0.095   0.440   0.452  1.00  0.00     0.003 A 
HETATM    6  C6  UNL     1      -0.996   1.115   0.836  1.00  0.00     0.001 A 
HETATM    7  C7  UNL     1       1.448   0.992   0.119  1.00  0.00     0.063 A 
HETATM    8  C8  UNL     1       2.139  -0.353  -0.191  1.00  0.00     0.144 A 
HETATM    9  O1  UNL     1       1.141  -1.369  -0.057  1.00  0.00    -0.329 OA
ENDROOT
BRANCH   1  10
HETATM   10  C12 UNL     1      -3.252   1.141   1.466  1.00  0.00     0.173 C 
HETATM   11  O2  UNL     1      -3.236   2.346   1.601  1.00  0.00    -0.291 OA
HETATM   12  C13 UNL     1      -4.568   0.428   1.743  1.00  0.00     0.077 C 
ENDBRANCH   1  10
BRANCH   8  13
HETATM   13  C9  UNL     1       2.777  -0.385  -1.560  1.00  0.00    -0.017 C 
HETATM   14  C10 UNL     1       4.284  -0.412  -1.608  1.00  0.00     0.029 C 
HETATM   15  C11 UNL     1       2.031  -0.371  -2.675  1.00  0.00    -0.007 C 
ENDBRANCH   8  13
TORSDOF 2
