REMARK  13 active torsions:
REMARK  status: ('A' for Active; 'I' for Inactive)
REMARK    1  A    between atoms: C1_1  and  C25_36 
REMARK    2  A    between atoms: C5_5  and  O3_11 
REMARK    3  A    between atoms: C6_6  and  O1_7 
REMARK    4  A    between atoms: O1_7  and  C7_8 
REMARK    5  A    between atoms: O3_11  and  C9_12 
REMARK    6  A    between atoms: C9_12  and  C10_13 
REMARK    7  A    between atoms: C18_24  and  O9_30 
REMARK    8  A    between atoms: C19_25  and  C20_26 
REMARK    9  A    between atoms: C20_26  and  O8_28 
REMARK   10  A    between atoms: O9_30  and  C22_31 
REMARK   11  A    between atoms: C25_36  and  O12_37 
REMARK   12  A    between atoms: O12_37  and  C26_38 
REMARK   13  A    between atoms: C26_38  and  C27_40 
ROOT
HETATM    1  C1  UNL     1       0.110  -0.338  -0.768  1.00  0.00     0.092 C 
HETATM    2  C2  UNL     1      -0.846  -1.595  -0.728  1.00  0.00     0.123 C 
HETATM    3  C3  UNL     1      -1.661  -1.627   0.570  1.00  0.00     0.035 C 
HETATM    4  C4  UNL     1      -2.685  -0.546   0.230  1.00  0.00     0.058 C 
HETATM    5  C5  UNL     1      -1.982   0.817   0.335  1.00  0.00     0.154 C 
HETATM    6  C6  UNL     1      -0.788   0.943  -0.630  1.00  0.00     0.157 C 
HETATM    7  C13 UNL     1      -3.034  -1.004  -1.190  1.00  0.00     0.095 C 
HETATM    8  O6  UNL     1      -1.808  -1.382  -1.742  1.00  0.00    -0.361 OA
HETATM    9  C14 UNL     1      -3.982  -2.221  -1.204  1.00  0.00     0.030 C 
HETATM   10  C15 UNL     1      -3.729   0.054  -2.060  1.00  0.00     0.030 C 
HETATM   11  C16 UNL     1      -0.150  -2.957  -0.991  1.00  0.00     0.152 C 
HETATM   12  C17 UNL     1       1.073  -2.824  -1.908  1.00  0.00     0.064 C 
HETATM   13  C18 UNL     1       0.900  -1.666  -2.882  1.00  0.00     0.136 C 
HETATM   14  C19 UNL     1       0.933  -0.323  -2.119  1.00  0.00     0.121 C 
HETATM   15  C24 UNL     1       0.252  -3.770   0.253  1.00  0.00     0.035 C 
HETATM   16  O11 UNL     1      -1.075  -3.786  -1.659  1.00  0.00    -0.224 OA
ENDROOT
BRANCH   1  17
HETATM   17  C25 UNL     1       1.111  -0.397   0.431  1.00  0.00     0.157 C 
BRANCH  17  18
HETATM   18  O12 UNL     1       2.107   0.581   0.353  1.00  0.00    -0.298 OA
BRANCH  18  19
HETATM   19  C26 UNL     1       2.916   1.004   1.380  1.00  0.00     0.296 C 
HETATM   20  O13 UNL     1       3.597   1.969   1.085  1.00  0.00    -0.259 OA
BRANCH  19  21
HETATM   21  C27 UNL     1       3.094   0.525   2.654  1.00  0.00     0.063 A 
HETATM   22  C28 UNL     1       3.926   1.187   3.489  1.00  0.00     0.005 A 
HETATM   23  C29 UNL     1       4.152   0.786   4.750  1.00  0.00     0.000 A 
HETATM   24  C30 UNL     1       3.547  -0.311   5.225  1.00  0.00     0.000 A 
HETATM   25  C31 UNL     1       2.727  -0.994   4.417  1.00  0.00     0.000 A 
HETATM   26  C32 UNL     1       2.511  -0.582   3.156  1.00  0.00     0.005 A 
ENDBRANCH  19  21
ENDBRANCH  18  19
ENDBRANCH  17  18
ENDBRANCH   1  17
BRANCH   6  27
HETATM   27  O1  UNL     1      -0.011   2.066  -0.333  1.00  0.00    -0.302 OA
BRANCH  27  28
HETATM   28  C7  UNL     1      -0.271   3.345  -0.731  1.00  0.00     0.272 C 
HETATM   29  O2  UNL     1       0.415   4.273  -0.356  1.00  0.00    -0.264 OA
HETATM   30  C8  UNL     1      -1.409   3.558  -1.713  1.00  0.00     0.106 C 
ENDBRANCH  27  28
ENDBRANCH   6  27
BRANCH  14  31
HETATM   31  C20 UNL     1       0.569   0.758  -3.151  1.00  0.00     0.274 C 
HETATM   32  O7  UNL     1      -0.439   0.635  -3.817  1.00  0.00    -0.264 OA
BRANCH  31  33
HETATM   33  O8  UNL     1       1.374   1.847  -3.297  1.00  0.00    -0.299 OA
HETATM   34  C21 UNL     1       2.623   1.981  -2.669  1.00  0.00     0.184 C 
ENDBRANCH  31  33
ENDBRANCH  14  31
BRANCH   5  35
HETATM   35  O3  UNL     1      -1.557   0.982   1.659  1.00  0.00    -0.300 OA
BRANCH  35  36
HETATM   36  C9  UNL     1      -1.687   2.192   2.260  1.00  0.00     0.300 C 
HETATM   37  O5  UNL     1      -2.225   3.155   1.761  1.00  0.00    -0.262 OA
BRANCH  36  38
HETATM   38  C10 UNL     1      -1.010   2.193   3.632  1.00  0.00     0.204 C 
HETATM   39  C11 UNL     1       0.262   3.035   3.545  1.00  0.00     0.043 C 
HETATM   40  O4  UNL     1      -0.635   0.890   4.032  1.00  0.00    -0.216 OA
HETATM   41  C12 UNL     1      -1.982   2.749   4.671  1.00  0.00     0.043 C 
ENDBRANCH  36  38
ENDBRANCH  35  36
ENDBRANCH   5  35
BRANCH  13  42
HETATM   42  O9  UNL     1       1.945  -1.672  -3.818  1.00  0.00    -0.304 OA
BRANCH  42  43
HETATM   43  C22 UNL     1       1.827  -2.130  -5.098  1.00  0.00     0.272 C 
HETATM   44  O10 UNL     1       2.762  -2.104  -5.870  1.00  0.00    -0.264 OA
HETATM   45  C23 UNL     1       0.479  -2.689  -5.517  1.00  0.00     0.106 C 
ENDBRANCH  42  43
ENDBRANCH  13  42
TORSDOF 13
