REMARK  7 active torsions:
REMARK  status: ('A' for Active; 'I' for Inactive)
REMARK    1  A    between atoms: C1_1  and  C20_28 
REMARK    2  A    between atoms: C5_5  and  O2_7 
REMARK    3  A    between atoms: O2_7  and  C6_8 
REMARK    4  A    between atoms: C11_13  and  C12_14 
REMARK    5  A    between atoms: C12_14  and  O4_16 
REMARK    6  A    between atoms: O4_16  and  C13_17 
REMARK    7  A    between atoms: C13_17  and  C14_18 
ROOT
HETATM    1  C6  UNL     1       1.907  -1.196   0.954  1.00  0.00     0.102 A 
HETATM    2  C7  UNL     1       3.055  -1.779   0.550  1.00  0.00     0.027 A 
HETATM    3  C8  UNL     1       4.008  -1.133  -0.128  1.00  0.00     0.029 A 
HETATM    4  C9  UNL     1       3.856   0.166  -0.408  1.00  0.00     0.131 A 
HETATM    5  C10 UNL     1       2.738   0.760   0.041  1.00  0.00     0.035 A 
HETATM    6  C11 UNL     1       1.752   0.139   0.720  1.00  0.00     0.088 A 
HETATM    7  O5  UNL     1       4.817   0.866  -1.070  1.00  0.00    -0.190 OA
ENDROOT
BRANCH   1   8
HETATM    8  O2  UNL     1       1.038  -1.997   1.661  1.00  0.00    -0.303 OA
BRANCH   8   9
HETATM    9  C5  UNL     1      -0.181  -2.382   1.050  1.00  0.00     0.274 C 
HETATM   10  C4  UNL     1      -0.213  -3.881   0.865  1.00  0.00     0.241 C 
HETATM   11  C3  UNL     1      -1.498  -4.304   0.173  1.00  0.00     0.220 C 
HETATM   12  O6  UNL     1       0.893  -4.238   0.072  1.00  0.00    -0.215 OA
HETATM   13  C2  UNL     1      -1.742  -3.453  -1.063  1.00  0.00     0.215 C 
HETATM   14  O7  UNL     1      -2.573  -4.162   1.071  1.00  0.00    -0.218 OA
HETATM   15  C1  UNL     1      -1.504  -1.963  -0.846  1.00  0.00     0.184 C 
HETATM   16  O8  UNL     1      -0.870  -3.905  -2.077  1.00  0.00    -0.218 OA
HETATM   17  O1  UNL     1      -0.285  -1.742  -0.200  1.00  0.00    -0.326 OA
BRANCH  15  18
HETATM   18  C20 UNL     1      -2.643  -1.217  -0.164  1.00  0.00     0.214 C 
HETATM   19  O9  UNL     1      -2.240   0.119   0.073  1.00  0.00    -0.218 OA
ENDBRANCH  15  18
ENDBRANCH   8   9
ENDBRANCH   1   8
BRANCH   6  20
HETATM   20  C12 UNL     1       0.646   0.826   1.164  1.00  0.00     0.298 C 
HETATM   21  O3  UNL     1      -0.116   0.220   1.891  1.00  0.00    -0.259 OA
BRANCH  20  22
HETATM   22  O4  UNL     1       0.226   2.121   0.949  1.00  0.00    -0.293 OA
BRANCH  22  23
HETATM   23  C13 UNL     1       0.690   2.989  -0.058  1.00  0.00     0.179 C 
BRANCH  23  24
HETATM   24  C14 UNL     1      -0.351   4.049  -0.377  1.00  0.00     0.008 A 
HETATM   25  C15 UNL     1      -0.042   5.359  -0.383  1.00  0.00    -0.002 A 
HETATM   26  C16 UNL     1      -0.966   6.287  -0.679  1.00  0.00    -0.000 A 
HETATM   27  C17 UNL     1      -2.221   5.916  -0.973  1.00  0.00    -0.000 A 
HETATM   28  C18 UNL     1      -2.544   4.614  -0.972  1.00  0.00    -0.000 A 
HETATM   29  C19 UNL     1      -1.613   3.693  -0.680  1.00  0.00    -0.002 A 
ENDBRANCH  23  24
ENDBRANCH  22  23
ENDBRANCH  20  22
ENDBRANCH   6  20
TORSDOF 7
