REMARK  3 active torsions:
REMARK  status: ('A' for Active; 'I' for Inactive)
REMARK    1  A    between atoms: C11_12  and  O2_14 
REMARK    2  A    between atoms: O2_14  and  C13_15 
REMARK    3  A    between atoms: C13_15  and  C14_16 
ROOT
HETATM    1  C1  UNL     1      -0.942   2.445   2.700  1.00  0.00     0.011 C 
HETATM    2  C2  UNL     1      -1.549   1.236   2.797  1.00  0.00     0.169 C 
HETATM    3  C3  UNL     1      -2.191   0.638   1.558  1.00  0.00     0.072 C 
HETATM    4  C4  UNL     1      -1.494   0.935   0.205  1.00  0.00     0.041 C 
HETATM    5  C5  UNL     1      -1.308   2.469   0.188  1.00  0.00     0.138 C 
HETATM    6  C6  UNL     1      -0.846   3.048   1.504  1.00  0.00     0.002 C 
HETATM    7  O1  UNL     1      -0.483   2.900  -0.870  1.00  0.00    -0.352 OA
HETATM    8  C7  UNL     1       0.746   2.212  -0.952  1.00  0.00     0.145 C 
HETATM    9  C8  UNL     1       0.974   1.218   0.161  1.00  0.00     0.147 A 
HETATM   10  C9  UNL     1      -0.119   0.180  -0.008  1.00  0.00     0.056 C 
HETATM   11  C10 UNL     1      -0.010  -1.087   0.862  1.00  0.00     0.005 C 
HETATM   12  C11 UNL     1       0.202  -0.116  -1.511  1.00  0.00     0.129 C 
HETATM   13  C12 UNL     1       0.652   1.230  -2.130  1.00  0.00     0.062 C 
HETATM   14  C17 UNL     1       2.290   0.937   0.641  1.00  0.00     0.172 A 
HETATM   15  O4  UNL     1       1.522   1.653   1.579  1.00  0.00    -0.351 OA
HETATM   16  C18 UNL     1      -2.538   0.556  -0.878  1.00  0.00     0.003 C 
HETATM   17  O5  UNL     1      -1.644   0.654   3.855  1.00  0.00    -0.292 OA
HETATM   18  C19 UNL     1      -0.374   3.088   3.945  1.00  0.00     0.034 C 
ENDROOT
BRANCH  12  19
HETATM   19  O2  UNL     1       1.275  -1.014  -1.642  1.00  0.00    -0.301 OA
BRANCH  19  20
HETATM   20  C13 UNL     1       1.032  -2.343  -1.883  1.00  0.00     0.295 C 
HETATM   21  O3  UNL     1      -0.095  -2.723  -2.112  1.00  0.00    -0.259 OA
BRANCH  20  22
HETATM   22  C14 UNL     1       2.050  -3.242  -1.790  1.00  0.00     0.064 C 
HETATM   23  C15 UNL     1       1.972  -4.569  -1.984  1.00  0.00    -0.020 C 
HETATM   24  C16 UNL     1       0.753  -5.365  -2.371  1.00  0.00     0.031 C 
ENDBRANCH  20  22
ENDBRANCH  19  20
ENDBRANCH  12  19
TORSDOF 3
