REMARK  3 active torsions:
REMARK  status: ('A' for Active; 'I' for Inactive)
REMARK    1  A    between atoms: C10_12  and  C12_14 
REMARK    2  A    between atoms: C14_18  and  C16_20 
REMARK    3  A    between atoms: C23_28  and  C24_29 
ROOT
HETATM    1  C1  UNL     1      -8.072  -1.730  -0.545  1.00  0.00     0.000 A 
HETATM    2  C2  UNL     1      -7.513  -2.862  -0.078  1.00  0.00     0.002 A 
HETATM    3  C3  UNL     1      -6.185  -2.954   0.108  1.00  0.00     0.019 A 
HETATM    4  C4  UNL     1      -5.439  -1.885  -0.191  1.00  0.00     0.081 A 
HETATM    5  C5  UNL     1      -5.996  -0.759  -0.663  1.00  0.00     0.015 A 
HETATM    6  C6  UNL     1      -7.318  -0.657  -0.844  1.00  0.00     0.001 A 
HETATM    7  C7  UNL     1      -4.990   0.105  -0.846  1.00  0.00     0.001 A 
HETATM    8  C8  UNL     1      -3.873  -0.538  -0.485  1.00  0.00     0.093 A 
HETATM    9  N1  UNL     1      -4.186  -1.705  -0.098  1.00  0.00    -0.244 NA
HETATM   10  C9  UNL     1      -2.686   0.069  -0.532  1.00  0.00     0.081 A 
HETATM   11  N2  UNL     1      -2.490   1.227  -1.009  1.00  0.00    -0.286 N 
HETATM   12  C10 UNL     1      -3.574   1.980  -1.680  1.00  0.00     0.180 C 
HETATM   13  C11 UNL     1      -4.998   1.540  -1.273  1.00  0.00     0.062 C 
HETATM   14  C13 UNL     1      -1.289   1.611  -0.938  1.00  0.00     0.261 A 
HETATM   15  C14 UNL     1      -0.584   0.600  -0.360  1.00  0.00     0.062 A 
HETATM   16  C15 UNL     1      -1.487  -0.371  -0.119  1.00  0.00     0.024 A 
HETATM   17  O6  UNL     1      -0.900   2.675  -1.351  1.00  0.00    -0.267 OA
ENDROOT
BRANCH  15  18
HETATM   18  C16 UNL     1       0.728   0.546  -0.074  1.00  0.00     0.062 A 
HETATM   19  C17 UNL     1       1.676   1.509  -0.241  1.00  0.00     0.261 A 
HETATM   20  N3  UNL     1       2.769   1.020   0.160  1.00  0.00    -0.286 N 
HETATM   21  O5  UNL     1       1.557   2.634  -0.656  1.00  0.00    -0.267 OA
HETATM   22  C18 UNL     1       2.675  -0.174   0.573  1.00  0.00     0.081 A 
HETATM   23  C23 UNL     1       4.040   1.776   0.261  1.00  0.00     0.180 C 
HETATM   24  C19 UNL     1       1.381  -0.508   0.452  1.00  0.00     0.024 A 
HETATM   25  C20 UNL     1       3.697  -0.899   1.029  1.00  0.00     0.093 A 
HETATM   26  C21 UNL     1       4.952  -0.434   0.972  1.00  0.00     0.001 A 
HETATM   27  N4  UNL     1       3.722  -2.066   1.526  1.00  0.00    -0.244 NA
HETATM   28  C22 UNL     1       5.299   0.886   0.357  1.00  0.00     0.062 C 
HETATM   29  C25 UNL     1       5.732  -1.396   1.480  1.00  0.00     0.015 A 
HETATM   30  C26 UNL     1       4.912  -2.403   1.814  1.00  0.00     0.081 A 
HETATM   31  C30 UNL     1       7.055  -1.485   1.656  1.00  0.00     0.001 A 
HETATM   32  C27 UNL     1       5.386  -3.534   2.348  1.00  0.00     0.019 A 
HETATM   33  C28 UNL     1       6.714  -3.629   2.536  1.00  0.00     0.002 A 
HETATM   34  C29 UNL     1       7.537  -2.620   2.193  1.00  0.00     0.000 A 
BRANCH  23  35
HETATM   35  C24 UNL     1       4.214   2.811  -0.848  1.00  0.00     0.207 C 
HETATM   36  O3  UNL     1       4.085   4.070  -0.389  1.00  0.00    -0.646 OA
HETATM   37  O4  UNL     1       4.461   2.579  -2.008  1.00  0.00    -0.646 OA
ENDBRANCH  23  35
ENDBRANCH  15  18
BRANCH  12  38
HETATM   38  C12 UNL     1      -3.433   3.494  -1.537  1.00  0.00     0.207 C 
HETATM   39  O1  UNL     1      -3.077   4.079  -2.695  1.00  0.00    -0.646 OA
HETATM   40  O2  UNL     1      -3.631   4.136  -0.532  1.00  0.00    -0.646 OA
ENDBRANCH  12  38
TORSDOF 3
