REMARK  5 active torsions:
REMARK  status: ('A' for Active; 'I' for Inactive)
REMARK    1  A    between atoms: C2_2  and  C3_3 
REMARK    2  A    between atoms: C4_4  and  C5_5 
REMARK    3  A    between atoms: C6_6  and  C7_7 
REMARK    4  A    between atoms: C8_8  and  C9_9 
REMARK    5  A    between atoms: C10_10  and  C11_11 
ROOT
HETATM    1  C11 UNL     1       1.055  -4.939   0.000  1.00  0.00    -0.013 C 
HETATM    2  C12 UNL     1       1.053  -6.151   0.000  1.00  0.00    -0.077 C 
HETATM    3  C13 UNL     1       1.056  -7.621   0.000  1.00  0.00     0.091 C 
ENDROOT
BRANCH   1   4
HETATM    4  C10 UNL     1       1.061  -3.727  -0.000  1.00  0.00    -0.001 C 
HETATM    5  C9  UNL     1       1.070  -2.515   0.000  1.00  0.00    -0.001 C 
BRANCH   5   6
HETATM    6  C8  UNL     1       1.082  -1.303   0.000  1.00  0.00    -0.009 C 
HETATM    7  C7  UNL     1       1.091  -0.091   0.000  1.00  0.00    -0.050 C 
BRANCH   7   8
HETATM    8  C6  UNL     1       1.094   1.224   0.000  1.00  0.00     0.050 C 
HETATM    9  C5  UNL     1      -0.059   1.914   0.000  1.00  0.00     0.009 C 
BRANCH   9  10
HETATM   10  C4  UNL     1      -0.104   3.258   0.000  1.00  0.00     0.001 C 
HETATM   11  C3  UNL     1      -1.260   3.947   0.000  1.00  0.00     0.000 C 
BRANCH  11  12
HETATM   12  C2  UNL     1      -1.304   5.290   0.000  1.00  0.00     0.000 C 
HETATM   13  C1  UNL     1      -2.454   5.982   0.000  1.00  0.00     0.000 C 
ENDBRANCH  11  12
ENDBRANCH   9  10
ENDBRANCH   7   8
ENDBRANCH   5   6
ENDBRANCH   1   4
TORSDOF 5
