REMARK  5 active torsions:
REMARK  status: ('A' for Active; 'I' for Inactive)
REMARK    1  A    between atoms: C3_3  and  C4_4 
REMARK    2  A    between atoms: C5_5  and  C6_6 
REMARK    3  A    between atoms: C7_7  and  C8_8 
REMARK    4  A    between atoms: C9_9  and  C10_10 
REMARK    5  A    between atoms: C11_11  and  C12_12 
ROOT
HETATM    1  C1  UNL     1      -7.355   0.183  -0.000  1.00  0.00     0.091 C 
HETATM    2  C2  UNL     1      -5.885   0.184   0.000  1.00  0.00    -0.077 C 
HETATM    3  C3  UNL     1      -4.672   0.182   0.000  1.00  0.00    -0.013 C 
ENDROOT
BRANCH   3   4
HETATM    4  C4  UNL     1      -3.460   0.181   0.000  1.00  0.00    -0.001 C 
HETATM    5  C5  UNL     1      -2.248   0.181   0.000  1.00  0.00    -0.000 C 
BRANCH   5   6
HETATM    6  C6  UNL     1      -1.036   0.182   0.000  1.00  0.00    -0.000 C 
HETATM    7  C7  UNL     1       0.176   0.185   0.000  1.00  0.00    -0.000 C 
BRANCH   7   8
HETATM    8  C8  UNL     1       1.388   0.190   0.000  1.00  0.00    -0.000 C 
HETATM    9  C9  UNL     1       2.600   0.194   0.000  1.00  0.00    -0.001 C 
BRANCH   9  10
HETATM   10  C10 UNL     1       3.812   0.196   0.000  1.00  0.00    -0.009 C 
HETATM   11  C11 UNL     1       5.024   0.192   0.000  1.00  0.00    -0.050 C 
BRANCH  11  12
HETATM   12  C12 UNL     1       6.338   0.179   0.000  1.00  0.00     0.050 C 
HETATM   13  C13 UNL     1       7.017  -0.977   0.000  1.00  0.00     0.009 C 
ENDBRANCH  11  12
ENDBRANCH   9  10
ENDBRANCH   7   8
ENDBRANCH   5   6
ENDBRANCH   3   4
TORSDOF 5
