REMARK  7 active torsions:
REMARK  status: ('A' for Active; 'I' for Inactive)
REMARK    1  A    between atoms: C1_1  and  C14_24 
REMARK    2  A    between atoms: C5_5  and  O2_7 
REMARK    3  A    between atoms: O2_7  and  C6_8 
REMARK    4  A    between atoms: C7_9  and  C8_10 
REMARK    5  A    between atoms: C9_11  and  C10_12 
REMARK    6  A    between atoms: C9_11  and  C11_15 
REMARK    7  A    between atoms: C11_15  and  C12_16 
ROOT
HETATM    1  C6  UNL     1       1.141  -0.827   0.597  1.00  0.00     0.165 C 
HETATM    2  C7  UNL     1       0.492   0.091   1.342  1.00  0.00     0.035 C 
HETATM    3  C13 UNL     1       2.454  -0.917   0.675  1.00  0.00     0.126 C 
HETATM    4  N1  UNL     1       3.607  -1.016   0.739  1.00  0.00    -0.189 NA
ENDROOT
BRANCH   1   5
HETATM    5  O2  UNL     1       0.464  -1.742  -0.176  1.00  0.00    -0.293 OA
BRANCH   5   6
HETATM    6  C5  UNL     1       0.901  -1.927  -1.503  1.00  0.00     0.275 C 
HETATM    7  C4  UNL     1       0.280  -3.159  -2.127  1.00  0.00     0.241 C 
HETATM    8  C3  UNL     1      -1.167  -2.954  -2.530  1.00  0.00     0.220 C 
HETATM    9  O7  UNL     1       1.019  -3.492  -3.281  1.00  0.00    -0.215 OA
HETATM   10  C2  UNL     1      -1.285  -1.674  -3.330  1.00  0.00     0.215 C 
HETATM   11  O8  UNL     1      -1.980  -2.899  -1.385  1.00  0.00    -0.218 OA
HETATM   12  C1  UNL     1      -0.618  -0.477  -2.667  1.00  0.00     0.184 C 
HETATM   13  O9  UNL     1      -0.694  -1.892  -4.595  1.00  0.00    -0.218 OA
HETATM   14  O1  UNL     1       0.692  -0.744  -2.242  1.00  0.00    -0.326 OA
BRANCH  12  15
HETATM   15  C14 UNL     1      -1.442   0.218  -1.590  1.00  0.00     0.214 C 
HETATM   16  O10 UNL     1      -2.640   0.723  -2.146  1.00  0.00    -0.218 OA
ENDBRANCH  12  15
ENDBRANCH   5   6
ENDBRANCH   1   5
BRANCH   2  17
HETATM   17  C8  UNL     1       1.061   0.989   2.168  1.00  0.00     0.005 C 
HETATM   18  C9  UNL     1       0.496   1.917   2.971  1.00  0.00     0.053 C 
BRANCH  18  19
HETATM   19  C10 UNL     1      -0.846   2.137   3.074  1.00  0.00     0.207 C 
HETATM   20  O3  UNL     1      -1.339   3.071   3.919  1.00  0.00    -0.644 OA
HETATM   21  O4  UNL     1      -1.688   1.544   2.441  1.00  0.00    -0.644 OA
ENDBRANCH  18  19
BRANCH  18  22
HETATM   22  C11 UNL     1       1.394   2.781   3.848  1.00  0.00     0.130 C 
BRANCH  22  23
HETATM   23  C12 UNL     1       1.429   4.228   3.383  1.00  0.00     0.190 C 
HETATM   24  O5  UNL     1       2.108   4.633   2.466  1.00  0.00    -0.647 OA
HETATM   25  O6  UNL     1       0.643   5.012   4.151  1.00  0.00    -0.647 OA
ENDBRANCH  22  23
ENDBRANCH  18  22
ENDBRANCH   2  17
TORSDOF 7
