REMARK  1 active torsions:
REMARK  status: ('A' for Active; 'I' for Inactive)
REMARK    1  A    between atoms: C9_11  and  C10_12 
ROOT
HETATM    1  C1  UNL     1       4.151  -0.992  -0.324  1.00  0.00     0.160 A 
HETATM    2  C2  UNL     1       4.088   0.309   0.044  1.00  0.00     0.182 A 
HETATM    3  C3  UNL     1       2.905   0.927   0.238  1.00  0.00     0.163 A 
HETATM    4  C4  UNL     1       1.810   0.183   0.046  1.00  0.00     0.091 A 
HETATM    5  C5  UNL     1       1.845  -1.094  -0.314  1.00  0.00     0.107 A 
HETATM    6  C6  UNL     1       3.020  -1.701  -0.506  1.00  0.00     0.054 A 
HETATM    7  O1  UNL     1       0.707  -1.541  -0.432  1.00  0.00    -0.304 OA
HETATM    8  C7  UNL     1      -0.127  -0.653  -0.181  1.00  0.00     0.139 A 
HETATM    9  C8  UNL     1       0.505   0.512   0.148  1.00  0.00     0.222 A 
HETATM   10  O2  UNL     1       0.135   1.625   0.428  1.00  0.00    -0.284 OA
HETATM   11  C9  UNL     1      -1.441  -0.938  -0.295  1.00  0.00     0.028 C 
HETATM   12  O3  UNL     1       2.844   2.235   0.604  1.00  0.00    -0.188 OA
HETATM   13  O4  UNL     1       5.228   1.031   0.225  1.00  0.00    -0.186 OA
HETATM   14  O5  UNL     1       5.356  -1.595  -0.518  1.00  0.00    -0.188 OA
ENDROOT
BRANCH  11  15
HETATM   15  C10 UNL     1      -2.610  -0.286  -0.107  1.00  0.00     0.002 A 
HETATM   16  C11 UNL     1      -3.748  -0.926  -0.463  1.00  0.00     0.000 A 
HETATM   17  C12 UNL     1      -4.964  -0.373  -0.331  1.00  0.00     0.000 A 
HETATM   18  C13 UNL     1      -5.089   0.858   0.183  1.00  0.00     0.000 A 
HETATM   19  C14 UNL     1      -3.984   1.509   0.568  1.00  0.00     0.000 A 
HETATM   20  C15 UNL     1      -2.776   0.940   0.424  1.00  0.00     0.000 A 
ENDBRANCH  11  15
TORSDOF 1
