REMARK  5 active torsions:
REMARK  status: ('A' for Active; 'I' for Inactive)
REMARK    1  A    between atoms: C15_17  and  C18_20 
REMARK    2  A    between atoms: C18_20  and  C19_21 
REMARK    3  A    between atoms: C19_21  and  C20_22 
REMARK    4  A    between atoms: C21_23  and  C22_24 
REMARK    5  A    between atoms: C21_23  and  C25_27 
ROOT
HETATM    1  C1  UNL     1      -5.776  -0.741  -3.247  1.00  0.00     0.033 C 
HETATM    2  C2  UNL     1      -6.493  -1.937  -2.648  1.00  0.00     0.152 C 
HETATM    3  C3  UNL     1      -5.492  -3.020  -2.255  1.00  0.00     0.033 C 
HETATM    4  C4  UNL     1      -4.107  -2.505  -1.797  1.00  0.00     0.005 C 
HETATM    5  C5  UNL     1      -4.086  -1.042  -1.269  1.00  0.00     0.000 C 
HETATM    6  C6  UNL     1      -4.899  -0.073  -2.179  1.00  0.00     0.003 C 
HETATM    7  C7  UNL     1      -2.612  -0.509  -1.171  1.00  0.00     0.005 C 
HETATM    8  C8  UNL     1      -1.569  -1.635  -1.014  1.00  0.00     0.031 C 
HETATM    9  C9  UNL     1      -1.611  -2.567  -2.241  1.00  0.00     0.152 C 
HETATM   10  C10 UNL     1      -3.009  -2.712  -2.849  1.00  0.00     0.033 C 
HETATM   11  O1  UNL     1      -0.763  -2.114  -3.274  1.00  0.00    -0.224 OA
HETATM   12  C11 UNL     1      -0.165  -1.054  -0.770  1.00  0.00     0.005 C 
HETATM   13  C12 UNL     1      -0.041  -0.039   0.394  1.00  0.00     0.028 C 
HETATM   14  C13 UNL     1      -1.001   1.115   0.056  1.00  0.00     0.152 C 
HETATM   15  C14 UNL     1      -2.438   0.625  -0.140  1.00  0.00     0.033 C 
HETATM   16  O2  UNL     1      -0.595   1.812  -1.099  1.00  0.00    -0.224 OA
HETATM   17  C15 UNL     1       1.488   0.249   0.325  1.00  0.00     0.003 C 
HETATM   18  C16 UNL     1       2.102  -1.146   0.030  1.00  0.00     0.000 C 
HETATM   19  C17 UNL     1       0.978  -2.042  -0.523  1.00  0.00     0.000 C 
HETATM   20  C27 UNL     1      -0.390  -0.653   1.769  1.00  0.00     0.003 C 
HETATM   21  C28 UNL     1      -4.762  -1.103   0.127  1.00  0.00     0.000 C 
HETATM   22  O5  UNL     1      -7.414  -2.457  -3.578  1.00  0.00    -0.224 OA
ENDROOT
BRANCH  17  23
HETATM   23  C18 UNL     1       2.237   1.000   1.462  1.00  0.00     0.004 C 
HETATM   24  C26 UNL     1       1.550   2.324   1.832  1.00  0.00     0.000 C 
BRANCH  23  25
HETATM   25  C19 UNL     1       3.720   1.196   1.035  1.00  0.00     0.026 C 
BRANCH  25  26
HETATM   26  C20 UNL     1       4.585   2.127   1.856  1.00  0.00    -0.024 C 
HETATM   27  C21 UNL     1       5.913   2.113   2.100  1.00  0.00     0.038 C 
BRANCH  27  28
HETATM   28  C22 UNL     1       6.550   3.228   2.935  1.00  0.00     0.028 C 
HETATM   29  C23 UNL     1       5.865   4.606   2.842  1.00  0.00     0.005 C 
HETATM   30  C24 UNL     1       6.650   2.789   4.405  1.00  0.00     0.005 C 
ENDBRANCH  27  28
BRANCH  27  31
HETATM   31  C25 UNL     1       6.744   1.136   1.637  1.00  0.00     0.206 C 
HETATM   32  O3  UNL     1       8.072   1.128   1.905  1.00  0.00    -0.644 OA
HETATM   33  O4  UNL     1       6.380   0.211   0.951  1.00  0.00    -0.644 OA
ENDBRANCH  27  31
ENDBRANCH  25  26
ENDBRANCH  23  25
ENDBRANCH  17  23
TORSDOF 5
