REMARK  6 active torsions:
REMARK  status: ('A' for Active; 'I' for Inactive)
REMARK    1  A    between atoms: C15_17  and  C18_20 
REMARK    2  A    between atoms: C18_20  and  C19_21 
REMARK    3  A    between atoms: C19_21  and  C20_22 
REMARK    4  A    between atoms: C20_22  and  C21_23 
REMARK    5  A    between atoms: C21_23  and  C22_24 
REMARK    6  A    between atoms: C22_24  and  C23_25 
ROOT
HETATM    1  C1  UNL     1      -4.490  -1.950  -3.059  1.00  0.00     0.033 C 
HETATM    2  C2  UNL     1      -5.232  -2.899  -2.131  1.00  0.00     0.152 C 
HETATM    3  C3  UNL     1      -4.281  -3.749  -1.287  1.00  0.00     0.033 C 
HETATM    4  C4  UNL     1      -2.870  -3.142  -1.097  1.00  0.00     0.005 C 
HETATM    5  C5  UNL     1      -2.860  -1.596  -1.019  1.00  0.00     0.000 C 
HETATM    6  C6  UNL     1      -3.486  -1.037  -2.331  1.00  0.00     0.003 C 
HETATM    7  C7  UNL     1      -1.402  -1.039  -0.830  1.00  0.00     0.005 C 
HETATM    8  C8  UNL     1      -0.299  -2.094  -1.066  1.00  0.00     0.031 C 
HETATM    9  C9  UNL     1      -0.617  -2.894  -2.325  1.00  0.00     0.152 C 
HETATM   10  C10 UNL     1      -1.888  -3.718  -2.140  1.00  0.00     0.033 C 
HETATM   11  O1  UNL     1       0.443  -3.764  -2.646  1.00  0.00    -0.224 OA
HETATM   12  C11 UNL     1       1.123  -1.503  -1.058  1.00  0.00     0.005 C 
HETATM   13  C12 UNL     1       1.424  -0.603   0.154  1.00  0.00     0.031 C 
HETATM   14  C13 UNL     1       0.288   0.377   0.458  1.00  0.00     0.152 C 
HETATM   15  C14 UNL     1      -1.075  -0.316   0.495  1.00  0.00     0.033 C 
HETATM   16  O2  UNL     1       0.233   1.428  -0.478  1.00  0.00    -0.224 OA
HETATM   17  C15 UNL     1       2.789   0.017  -0.222  1.00  0.00     0.002 C 
HETATM   18  C16 UNL     1       2.686   0.244  -1.747  1.00  0.00     0.000 C 
HETATM   19  C17 UNL     1       1.559  -0.667  -2.270  1.00  0.00     0.000 C 
HETATM   20  C26 UNL     1      -3.754  -1.164   0.173  1.00  0.00     0.000 C 
HETATM   21  O5  UNL     1      -6.068  -3.739  -2.895  1.00  0.00    -0.224 OA
ENDROOT
BRANCH  17  22
HETATM   22  C18 UNL     1       3.272   1.246   0.580  1.00  0.00     0.000 C 
HETATM   23  C25 UNL     1       4.638   1.735   0.058  1.00  0.00     0.000 C 
BRANCH  22  24
HETATM   24  C19 UNL     1       3.351   0.968   2.097  1.00  0.00     0.000 C 
BRANCH  24  25
HETATM   25  C20 UNL     1       3.374   2.226   2.989  1.00  0.00     0.001 C 
BRANCH  25  26
HETATM   26  C21 UNL     1       2.038   2.993   2.996  1.00  0.00     0.011 C 
BRANCH  26  27
HETATM   27  C22 UNL     1       2.060   4.261   3.870  1.00  0.00     0.087 C 
HETATM   28  C24 UNL     1       0.656   4.886   3.939  1.00  0.00     0.011 C 
BRANCH  27  29
HETATM   29  C23 UNL     1       3.046   5.301   3.358  1.00  0.00     0.185 C 
HETATM   30  O3  UNL     1       3.456   6.125   4.339  1.00  0.00    -0.647 OA
HETATM   31  O4  UNL     1       3.450   5.423   2.226  1.00  0.00    -0.647 OA
ENDBRANCH  27  29
ENDBRANCH  26  27
ENDBRANCH  25  26
ENDBRANCH  24  25
ENDBRANCH  22  24
ENDBRANCH  17  22
TORSDOF 6
