REMARK  3 active torsions:
REMARK  status: ('A' for Active; 'I' for Inactive)
REMARK    1  A    between atoms: O1_2  and  C2_3 
REMARK    2  A    between atoms: C8_11  and  C11_16 
REMARK    3  A    between atoms: C14_19  and  O6_22 
ROOT
HETATM    1  C2  UNL     1      -3.364   2.037  -0.052  1.00  0.00     0.123 A 
HETATM    2  C3  UNL     1      -2.873   3.279   0.119  1.00  0.00     0.178 A 
HETATM    3  O2  UNL     1      -3.743   4.324   0.197  1.00  0.00    -0.186 OA
HETATM    4  C4  UNL     1      -1.549   3.511   0.214  1.00  0.00     0.163 A 
HETATM    5  C5  UNL     1      -0.684   2.476   0.146  1.00  0.00     0.091 A 
HETATM    6  C6  UNL     1      -1.140   1.225  -0.025  1.00  0.00     0.107 A 
HETATM    7  C7  UNL     1      -2.468   1.037  -0.114  1.00  0.00     0.051 A 
HETATM    8  O3  UNL     1      -0.314   0.148  -0.126  1.00  0.00    -0.305 OA
HETATM    9  C8  UNL     1       1.026   0.324   0.094  1.00  0.00     0.128 C 
HETATM   10  C9  UNL     1       1.504   1.583   0.229  1.00  0.00     0.192 C 
HETATM   11  C10 UNL     1       0.661   2.657   0.249  1.00  0.00     0.227 C 
HETATM   12  O4  UNL     1       1.148   3.761   0.371  1.00  0.00    -0.284 OA
HETATM   13  O5  UNL     1       2.827   1.909   0.278  1.00  0.00    -0.185 OA
HETATM   14  O7  UNL     1      -1.152   4.805   0.386  1.00  0.00    -0.188 OA
ENDROOT
BRANCH   9  15
HETATM   15  C11 UNL     1       1.795  -0.801   0.107  1.00  0.00     0.025 A 
HETATM   16  C12 UNL     1       1.229  -1.980  -0.237  1.00  0.00     0.004 A 
HETATM   17  C13 UNL     1       1.899  -3.143  -0.272  1.00  0.00     0.024 A 
HETATM   18  C14 UNL     1       3.195  -3.235   0.077  1.00  0.00     0.094 A 
HETATM   19  C15 UNL     1       3.760  -2.071   0.441  1.00  0.00     0.024 A 
HETATM   20  C16 UNL     1       3.090  -0.909   0.466  1.00  0.00     0.004 A 
BRANCH  18  21
HETATM   21  O6  UNL     1       3.955  -4.378   0.052  1.00  0.00    -0.328 OA
HETATM   22  C17 UNL     1       3.445  -5.510  -0.615  1.00  0.00     0.181 C 
ENDBRANCH  18  21
ENDBRANCH   9  15
BRANCH   1  23
HETATM   23  O1  UNL     1      -4.728   1.884  -0.120  1.00  0.00    -0.326 OA
HETATM   24  C1  UNL     1      -5.274   0.587  -0.076  1.00  0.00     0.181 C 
ENDBRANCH   1  23
TORSDOF 3
