REMARK  5 active torsions:
REMARK  status: ('A' for Active; 'I' for Inactive)
REMARK    1  A    between atoms: C15_17  and  C18_20 
REMARK    2  A    between atoms: C18_20  and  C20_22 
REMARK    3  A    between atoms: C21_23  and  C22_24 
REMARK    4  A    between atoms: C22_24  and  C23_25 
REMARK    5  A    between atoms: C23_25  and  C24_26 
ROOT
HETATM    1  C1  UNL     1      -3.804  -2.399   2.959  1.00  0.00     0.033 C 
HETATM    2  C2  UNL     1      -3.871  -3.847   2.477  1.00  0.00     0.152 C 
HETATM    3  C3  UNL     1      -3.457  -4.006   1.012  1.00  0.00     0.033 C 
HETATM    4  C4  UNL     1      -2.078  -3.360   0.813  1.00  0.00     0.005 C 
HETATM    5  C5  UNL     1      -2.083  -1.839   1.122  1.00  0.00     0.000 C 
HETATM    6  C6  UNL     1      -2.466  -1.716   2.617  1.00  0.00     0.003 C 
HETATM    7  C7  UNL     1      -0.691  -1.232   0.762  1.00  0.00     0.005 C 
HETATM    8  C8  UNL     1       0.433  -2.273   0.625  1.00  0.00     0.031 C 
HETATM    9  C9  UNL     1       0.074  -3.230  -0.527  1.00  0.00     0.152 C 
HETATM   10  C10 UNL     1      -1.407  -3.651  -0.535  1.00  0.00     0.033 C 
HETATM   11  O1  UNL     1       0.366  -2.647  -1.775  1.00  0.00    -0.224 OA
HETATM   12  C11 UNL     1       1.859  -1.659   0.715  1.00  0.00     0.005 C 
HETATM   13  C12 UNL     1       2.017  -0.153   0.396  1.00  0.00     0.031 C 
HETATM   14  C13 UNL     1       0.863   0.716   0.898  1.00  0.00     0.152 C 
HETATM   15  C14 UNL     1      -0.223  -0.062   1.637  1.00  0.00     0.033 C 
HETATM   16  O2  UNL     1       0.250   1.407  -0.162  1.00  0.00    -0.224 OA
HETATM   17  C15 UNL     1       2.452  -0.088  -1.085  1.00  0.00     0.006 C 
HETATM   18  C16 UNL     1       3.390  -1.315  -1.179  1.00  0.00     0.000 C 
HETATM   19  C17 UNL     1       2.966  -2.335  -0.110  1.00  0.00     0.000 C 
HETATM   20  C27 UNL     1      -3.126  -1.054   0.280  1.00  0.00     0.000 C 
HETATM   21  O5  UNL     1      -5.179  -4.340   2.647  1.00  0.00    -0.224 OA
ENDROOT
BRANCH  17  22
HETATM   22  C18 UNL     1       3.168   1.205  -1.552  1.00  0.00     0.022 C 
HETATM   23  C19 UNL     1       3.921   1.009  -2.886  1.00  0.00     0.005 C 
BRANCH  22  24
HETATM   24  C20 UNL     1       2.265   2.404  -1.776  1.00  0.00    -0.031 C 
HETATM   25  C21 UNL     1       2.242   3.501  -1.002  1.00  0.00    -0.030 C 
BRANCH  25  26
HETATM   26  C22 UNL     1       1.504   4.784  -1.335  1.00  0.00     0.032 C 
HETATM   27  C26 UNL     1       2.022   5.928  -0.438  1.00  0.00     0.005 C 
BRANCH  26  28
HETATM   28  C23 UNL     1      -0.044   4.722  -1.306  1.00  0.00     0.091 C 
HETATM   29  C25 UNL     1      -0.648   3.915  -2.469  1.00  0.00     0.012 C 
BRANCH  28  30
HETATM   30  C24 UNL     1      -0.604   4.253   0.026  1.00  0.00     0.185 C 
HETATM   31  O3  UNL     1      -1.938   4.404   0.103  1.00  0.00    -0.647 OA
HETATM   32  O4  UNL     1       0.030   3.778   0.937  1.00  0.00    -0.647 OA
ENDBRANCH  28  30
ENDBRANCH  26  28
ENDBRANCH  25  26
ENDBRANCH  22  24
ENDBRANCH  17  22
TORSDOF 5
