REMARK  3 active torsions:
REMARK  status: ('A' for Active; 'I' for Inactive)
REMARK    1  A    between atoms: C5_5  and  C7_7 
REMARK    2  A    between atoms: C7_7  and  O1_8 
REMARK    3  A    between atoms: O1_8  and  C8_9 
ROOT
HETATM    1  C1  UNL     1      -2.181  -1.246   0.229  1.00  0.00    -0.000 A 
HETATM    2  C2  UNL     1      -1.435  -2.437   0.229  1.00  0.00    -0.000 A 
HETATM    3  C3  UNL     1      -0.031  -2.387   0.229  1.00  0.00    -0.000 A 
HETATM    4  C4  UNL     1       0.627  -1.144   0.229  1.00  0.00    -0.002 A 
HETATM    5  C5  UNL     1      -0.119   0.047   0.229  1.00  0.00     0.008 A 
HETATM    6  C6  UNL     1      -1.523  -0.004   0.229  1.00  0.00    -0.002 A 
ENDROOT
BRANCH   5   7
HETATM    7  C7  UNL     1       0.578   1.361   0.229  1.00  0.00     0.179 C 
BRANCH   7   8
HETATM    8  O1  UNL     1       1.373   1.475  -0.943  1.00  0.00    -0.289 OA
BRANCH   8   9
HETATM    9  C8  UNL     1       2.024   2.633  -1.002  1.00  0.00     0.360 C 
HETATM   10  O2  UNL     1       2.758   2.947  -1.908  1.00  0.00    -0.253 OA
ENDBRANCH   8   9
ENDBRANCH   7   8
ENDBRANCH   5   7
TORSDOF 3
