REMARK  2 active torsions:
REMARK  status: ('A' for Active; 'I' for Inactive)
REMARK    1  A    between atoms: O1_2  and  C2_3 
REMARK    2  A    between atoms: C10_13  and  C11_15 
ROOT
HETATM    1  C2  UNL     1      -2.529   2.280  -0.004  1.00  0.00     0.145 A 
HETATM    2  C3  UNL     1      -2.980   1.008  -0.057  1.00  0.00     0.157 A 
HETATM    3  O2  UNL     1      -4.298   0.672  -0.113  1.00  0.00    -0.188 OA
HETATM    4  C4  UNL     1      -2.090   0.005  -0.064  1.00  0.00     0.054 A 
HETATM    5  C5  UNL     1      -0.762   0.184  -0.010  1.00  0.00     0.107 A 
HETATM    6  C6  UNL     1      -0.321   1.451   0.059  1.00  0.00     0.089 A 
HETATM    7  C7  UNL     1      -1.191   2.486   0.060  1.00  0.00     0.160 A 
HETATM    8  O3  UNL     1      -0.752   3.778   0.123  1.00  0.00    -0.188 OA
HETATM    9  C8  UNL     1       1.025   1.645   0.132  1.00  0.00     0.202 A 
HETATM   10  C9  UNL     1       1.844   0.558   0.117  1.00  0.00     0.067 A 
HETATM   11  C10 UNL     1       1.411  -0.714   0.022  1.00  0.00     0.105 A 
HETATM   12  O4  UNL     1       0.055  -0.907  -0.019  1.00  0.00    -0.307 OA
HETATM   13  O6  UNL     1       1.549   2.736   0.210  1.00  0.00    -0.286 OA
ENDROOT
BRANCH  11  14
HETATM   14  C11 UNL     1       2.220  -1.813   0.005  1.00  0.00     0.048 A 
HETATM   15  C12 UNL     1       1.597  -3.016   0.014  1.00  0.00     0.004 A 
HETATM   16  C13 UNL     1       2.240  -4.193   0.022  1.00  0.00     0.000 A 
HETATM   17  C14 UNL     1       3.575  -4.210   0.015  1.00  0.00     0.002 A 
HETATM   18  C15 UNL     1       4.218  -3.037  -0.012  1.00  0.00     0.028 A 
HETATM   19  C16 UNL     1       3.578  -1.851  -0.013  1.00  0.00     0.133 A 
HETATM   20  O5  UNL     1       4.375  -0.753  -0.098  1.00  0.00    -0.190 OA
ENDBRANCH  11  14
BRANCH   1  21
HETATM   21  O1  UNL     1      -3.317   3.411   0.010  1.00  0.00    -0.324 OA
HETATM   22  C1  UNL     1      -4.721   3.340   0.056  1.00  0.00     0.182 C 
ENDBRANCH   1  21
TORSDOF 2
