REMARK  2 active torsions:
REMARK  status: ('A' for Active; 'I' for Inactive)
REMARK    1  A    between atoms: O1_2  and  C2_3 
REMARK    2  A    between atoms: C8_11  and  C11_15 
ROOT
HETATM    1  C2  UNL     1      -2.912   1.649  -0.020  1.00  0.00     0.123 A 
HETATM    2  C3  UNL     1      -2.370   2.881   0.015  1.00  0.00     0.054 A 
HETATM    3  C4  UNL     1      -1.053   3.142   0.043  1.00  0.00     0.138 A 
HETATM    4  C5  UNL     1      -0.213   2.089   0.034  1.00  0.00     0.089 A 
HETATM    5  C6  UNL     1      -0.714   0.842   0.004  1.00  0.00     0.132 A 
HETATM    6  C7  UNL     1      -2.045   0.613  -0.020  1.00  0.00     0.176 A 
HETATM    7  O2  UNL     1      -2.443  -0.693  -0.050  1.00  0.00    -0.186 OA
HETATM    8  O3  UNL     1       0.084  -0.255  -0.002  1.00  0.00    -0.305 OA
HETATM    9  C8  UNL     1       1.435  -0.113   0.011  1.00  0.00     0.105 A 
HETATM   10  C9  UNL     1       1.929   1.141   0.041  1.00  0.00     0.067 A 
HETATM   11  C10 UNL     1       1.139   2.250   0.055  1.00  0.00     0.202 A 
HETATM   12  O4  UNL     1       1.681   3.333   0.083  1.00  0.00    -0.286 OA
HETATM   13  O6  UNL     1      -0.643   4.440   0.075  1.00  0.00    -0.190 OA
ENDROOT
BRANCH   9  14
HETATM   14  C11 UNL     1       2.196  -1.240  -0.005  1.00  0.00     0.048 A 
HETATM   15  C12 UNL     1       1.598  -2.462  -0.030  1.00  0.00     0.133 A 
HETATM   16  O5  UNL     1       0.242  -2.651  -0.042  1.00  0.00    -0.190 OA
HETATM   17  C13 UNL     1       2.358  -3.572  -0.041  1.00  0.00     0.028 A 
HETATM   18  C14 UNL     1       3.696  -3.527  -0.031  1.00  0.00     0.002 A 
HETATM   19  C15 UNL     1       4.293  -2.330  -0.009  1.00  0.00     0.000 A 
HETATM   20  C16 UNL     1       3.546  -1.216   0.004  1.00  0.00     0.004 A 
ENDBRANCH   9  14
BRANCH   1  21
HETATM   21  O1  UNL     1      -4.288   1.583  -0.041  1.00  0.00    -0.326 OA
HETATM   22  C1  UNL     1      -4.957   0.347  -0.011  1.00  0.00     0.181 C 
ENDBRANCH   1  21
TORSDOF 2
