REMARK  5 active torsions:
REMARK  status: ('A' for Active; 'I' for Inactive)
REMARK    1  A    between atoms: C5_5  and  O1_7 
REMARK    2  A    between atoms: O1_7  and  C7_8 
REMARK    3  A    between atoms: C10_12  and  C13_16 
REMARK    4  A    between atoms: C13_16  and  C14_17 
REMARK    5  A    between atoms: C14_17  and  C15_19 
ROOT
HETATM    1  C7  UNL     1       0.383  -0.670  -0.754  1.00  0.00     0.111 A 
HETATM    2  C8  UNL     1      -0.881  -1.029  -0.444  1.00  0.00     0.053 A 
HETATM    3  I1  UNL     1      -1.593  -3.059  -0.739  1.00  0.00    -0.041 I 
HETATM    4  C9  UNL     1      -1.764  -0.154   0.063  1.00  0.00     0.004 A 
HETATM    5  C10 UNL     1      -1.426   1.129   0.273  1.00  0.00    -0.018 A 
HETATM    6  C11 UNL     1      -0.177   1.504  -0.047  1.00  0.00     0.004 A 
HETATM    7  C12 UNL     1       0.705   0.625  -0.550  1.00  0.00     0.053 A 
HETATM    8  I2  UNL     1       2.673   1.409  -1.019  1.00  0.00    -0.041 I 
ENDROOT
BRANCH   1   9
HETATM    9  O1  UNL     1       1.278  -1.579  -1.261  1.00  0.00    -0.306 OA
BRANCH   9  10
HETATM   10  C5  UNL     1       2.245  -2.023  -0.395  1.00  0.00     0.101 A 
HETATM   11  C4  UNL     1       2.004  -2.312   0.898  1.00  0.00     0.027 A 
HETATM   12  C3  UNL     1       2.975  -2.744   1.717  1.00  0.00     0.030 A 
HETATM   13  C2  UNL     1       4.236  -2.916   1.287  1.00  0.00     0.136 A 
HETATM   14  C1  UNL     1       4.483  -2.640  -0.006  1.00  0.00     0.058 A 
HETATM   15  O4  UNL     1       5.195  -3.355   2.145  1.00  0.00    -0.190 OA
HETATM   16  C6  UNL     1       3.508  -2.209  -0.822  1.00  0.00     0.033 A 
HETATM   17  I3  UNL     1       6.472  -2.880  -0.825  1.00  0.00    -0.041 I 
ENDBRANCH   9  10
ENDBRANCH   1   9
BRANCH   5  18
HETATM   18  C13 UNL     1      -2.434   2.112   0.829  1.00  0.00     0.077 C 
BRANCH  18  19
HETATM   19  C14 UNL     1      -3.566   2.408  -0.168  1.00  0.00     0.391 C 
HETATM   20  N1  UNL     1      -4.533   3.330   0.454  1.00  0.00     0.628 N 
BRANCH  19  21
HETATM   21  C15 UNL     1      -3.050   3.034  -1.449  1.00  0.00     0.224 C 
HETATM   22  O2  UNL     1      -3.083   4.210  -1.723  1.00  0.00    -0.646 OA
HETATM   23  O3  UNL     1      -2.544   2.120  -2.297  1.00  0.00    -0.646 OA
ENDBRANCH  19  21
ENDBRANCH  18  19
ENDBRANCH   5  18
TORSDOF 5
