REMARK  5 active torsions:
REMARK  status: ('A' for Active; 'I' for Inactive)
REMARK    1  A    between atoms: C4_4  and  O4_12 
REMARK    2  A    between atoms: C5_6  and  C6_7 
REMARK    3  A    between atoms: C6_7  and  O2_8 
REMARK    4  A    between atoms: O2_8  and  C7_9 
REMARK    5  A    between atoms: O4_12  and  C9_13 
ROOT
HETATM    1  C1  UNL     1      -2.289  -2.199  -0.947  1.00  0.00     0.215 C 
HETATM    2  C2  UNL     1      -1.262  -3.081  -0.265  1.00  0.00     0.220 C 
HETATM    3  C3  UNL     1       0.122  -2.868  -0.850  1.00  0.00     0.241 C 
HETATM    4  C4  UNL     1       0.479  -1.409  -1.047  1.00  0.00     0.274 C 
HETATM    5  O1  UNL     1      -0.545  -0.642  -1.638  1.00  0.00    -0.326 OA
HETATM    6  C5  UNL     1      -1.833  -0.755  -1.093  1.00  0.00     0.181 C 
HETATM    7  O6  UNL     1       0.221  -3.542  -2.084  1.00  0.00    -0.215 OA
HETATM    8  O7  UNL     1      -1.238  -2.797   1.113  1.00  0.00    -0.218 OA
HETATM    9  O8  UNL     1      -2.577  -2.726  -2.223  1.00  0.00    -0.218 OA
ENDROOT
BRANCH   4  10
HETATM   10  O4  UNL     1       0.863  -0.826   0.174  1.00  0.00    -0.304 OA
BRANCH  10  11
HETATM   11  C9  UNL     1       1.398   0.437   0.202  1.00  0.00     0.097 A 
HETATM   12  C10 UNL     1       1.565   1.060   1.447  1.00  0.00     0.026 A 
HETATM   13  C11 UNL     1       2.079   2.350   1.581  1.00  0.00     0.029 A 
HETATM   14  C12 UNL     1       2.451   3.096   0.460  1.00  0.00     0.131 A 
HETATM   15  C13 UNL     1       2.256   2.504  -0.789  1.00  0.00     0.029 A 
HETATM   16  O5  UNL     1       2.946   4.356   0.570  1.00  0.00    -0.190 OA
HETATM   17  C14 UNL     1       1.742   1.212  -0.916  1.00  0.00     0.026 A 
ENDBRANCH  10  11
ENDBRANCH   4  10
BRANCH   6  18
HETATM   18  C6  UNL     1      -2.034   0.099   0.160  1.00  0.00     0.184 C 
BRANCH  18  19
HETATM   19  O2  UNL     1      -1.677   1.426  -0.126  1.00  0.00    -0.299 OA
BRANCH  19  20
HETATM   20  C7  UNL     1      -1.663   2.392   0.836  1.00  0.00     0.273 C 
HETATM   21  O3  UNL     1      -1.361   3.540   0.591  1.00  0.00    -0.264 OA
HETATM   22  C8  UNL     1      -2.042   1.953   2.240  1.00  0.00     0.106 C 
ENDBRANCH  19  20
ENDBRANCH  18  19
ENDBRANCH   6  18
TORSDOF 5
