REMARK  9 active torsions:
REMARK  status: ('A' for Active; 'I' for Inactive)
REMARK    1  A    between atoms: C2_2  and  C20_31 
REMARK    2  A    between atoms: C4_4  and  O2_6 
REMARK    3  A    between atoms: O2_6  and  C5_7 
REMARK    4  A    between atoms: C5_7  and  C6_8 
REMARK    5  A    between atoms: C10_12  and  O4_14 
REMARK    6  A    between atoms: O4_14  and  C11_15 
REMARK    7  A    between atoms: C12_16  and  O5_17 
REMARK    8  A    between atoms: C15_20  and  O7_25 
REMARK    9  A    between atoms: C17_22  and  O6_23 
ROOT
HETATM    1  C6  UNL     1       1.892  -1.779   0.579  1.00  0.00     0.180 C 
HETATM    2  C7  UNL     1       2.816  -1.948   1.778  1.00  0.00     0.215 C 
HETATM    3  C8  UNL     1       2.733  -0.800   2.772  1.00  0.00     0.220 C 
HETATM    4  C9  UNL     1       2.772   0.534   2.048  1.00  0.00     0.241 C 
HETATM    5  C10 UNL     1       1.845   0.561   0.853  1.00  0.00     0.274 C 
HETATM    6  O3  UNL     1       2.103  -0.527  -0.009  1.00  0.00    -0.326 OA
HETATM    7  O8  UNL     1       4.078   0.775   1.579  1.00  0.00    -0.215 OA
HETATM    8  O9  UNL     1       1.544  -0.896   3.519  1.00  0.00    -0.218 OA
HETATM    9  O10 UNL     1       4.145  -2.021   1.309  1.00  0.00    -0.218 OA
ENDROOT
BRANCH   5  10
HETATM   10  O4  UNL     1       2.181   1.676   0.050  1.00  0.00    -0.300 OA
BRANCH  10  11
HETATM   11  C11 UNL     1       1.212   2.627  -0.149  1.00  0.00     0.141 A 
HETATM   12  C12 UNL     1       1.403   3.875   0.335  1.00  0.00     0.120 A 
HETATM   13  C14 UNL     1       0.483   4.818   0.060  1.00  0.00     0.051 A 
HETATM   14  C15 UNL     1      -0.647   4.588  -0.632  1.00  0.00     0.098 A 
HETATM   15  C16 UNL     1      -0.795   3.332  -1.084  1.00  0.00     0.051 A 
HETATM   16  C17 UNL     1       0.122   2.364  -0.906  1.00  0.00     0.120 A 
BRANCH  12  17
HETATM   17  O5  UNL     1       2.546   4.177   1.038  1.00  0.00    -0.326 OA
HETATM   18  C13 UNL     1       2.338   4.550   2.382  1.00  0.00     0.181 C 
ENDBRANCH  12  17
BRANCH  14  19
HETATM   19  O7  UNL     1      -1.526   5.623  -0.848  1.00  0.00    -0.328 OA
HETATM   20  C19 UNL     1      -2.617   5.413  -1.715  1.00  0.00     0.181 C 
ENDBRANCH  14  19
BRANCH  16  21
HETATM   21  O6  UNL     1      -0.133   1.099  -1.372  1.00  0.00    -0.326 OA
HETATM   22  C18 UNL     1       0.431   0.814  -2.630  1.00  0.00     0.181 C 
ENDBRANCH  16  21
ENDBRANCH  10  11
ENDBRANCH   5  10
BRANCH   1  23
HETATM   23  C5  UNL     1       0.418  -2.053   0.862  1.00  0.00     0.177 C 
BRANCH  23  24
HETATM   24  O2  UNL     1      -0.325  -1.868  -0.318  1.00  0.00    -0.326 OA
BRANCH  24  25
HETATM   25  C4  UNL     1      -1.705  -2.096  -0.130  1.00  0.00     0.270 C 
HETATM   26  C3  UNL     1      -2.110  -3.513  -0.474  1.00  0.00     0.241 C 
HETATM   27  C2  UNL     1      -3.169  -3.349  -1.549  1.00  0.00     0.217 C 
HETATM   28  O11 UNL     1      -1.028  -4.248  -0.996  1.00  0.00    -0.215 OA
HETATM   29  C1  UNL     1      -3.507  -1.875  -1.464  1.00  0.00     0.181 C 
HETATM   30  O13 UNL     1      -2.570  -3.612  -2.789  1.00  0.00    -0.218 OA
HETATM   31  O1  UNL     1      -2.322  -1.239  -1.067  1.00  0.00    -0.326 OA
BRANCH  27  32
HETATM   32  C20 UNL     1      -4.370  -4.261  -1.417  1.00  0.00     0.218 C 
HETATM   33  O12 UNL     1      -3.934  -5.592  -1.597  1.00  0.00    -0.218 OA
ENDBRANCH  27  32
ENDBRANCH  24  25
ENDBRANCH  23  24
ENDBRANCH   1  23
TORSDOF 9
