REMARK  3 active torsions:
REMARK  status: ('A' for Active; 'I' for Inactive)
REMARK    1  A    between atoms: C1_1  and  O3_12 
REMARK    2  A    between atoms: C2_2  and  O2_10 
REMARK    3  A    between atoms: C4_4  and  O1_8 
ROOT
HETATM    1  C1  UNL     1       0.763   0.784  -0.210  1.00  0.00     0.112 A 
HETATM    2  C2  UNL     1       1.263  -0.436   0.123  1.00  0.00     0.118 A 
HETATM    3  C3  UNL     1       0.422  -1.451   0.396  1.00  0.00     0.050 A 
HETATM    4  C4  UNL     1      -0.915  -1.347   0.367  1.00  0.00     0.096 A 
HETATM    5  C5  UNL     1      -1.373  -0.130   0.037  1.00  0.00     0.022 A 
HETATM    6  C6  UNL     1      -0.587   0.928  -0.249  1.00  0.00     0.004 A 
HETATM    7  C7  UNL     1      -1.395   2.171  -0.586  1.00  0.00     0.033 C 
ENDROOT
BRANCH   1   8
HETATM    8  O3  UNL     1       1.747   1.719  -0.462  1.00  0.00    -0.326 OA
HETATM    9  C10 UNL     1       1.495   3.053  -0.810  1.00  0.00     0.181 C 
ENDBRANCH   1   8
BRANCH   2  10
HETATM   10  O2  UNL     1       2.637  -0.572   0.161  1.00  0.00    -0.326 OA
HETATM   11  C9  UNL     1       3.209  -1.818   0.487  1.00  0.00     0.181 C 
ENDBRANCH   2  10
BRANCH   4  12
HETATM   12  O1  UNL     1      -1.684  -2.448   0.662  1.00  0.00    -0.328 OA
HETATM   13  C8  UNL     1      -3.087  -2.329   0.617  1.00  0.00     0.181 C 
ENDBRANCH   4  12
TORSDOF 3
