REMARK  7 active torsions:
REMARK  status: ('A' for Active; 'I' for Inactive)
REMARK    1  A    between atoms: C3_3  and  C4_4 
REMARK    2  A    between atoms: C4_4  and  C5_5 
REMARK    3  A    between atoms: C6_6  and  C7_7 
REMARK    4  A    between atoms: C7_7  and  C8_8 
REMARK    5  A    between atoms: C8_8  and  C9_9 
REMARK    6  A    between atoms: C9_9  and  C10_10 
REMARK    7  A    between atoms: C10_10  and  C11_11 
ROOT
HETATM    1  C5  UNL     1      -0.788   1.504  -0.146  1.00  0.00     0.034 C 
HETATM    2  C6  UNL     1       0.480   1.964  -0.154  1.00  0.00    -0.041 C 
HETATM    3  C14 UNL     1       0.911   3.418  -0.149  1.00  0.00     0.026 C 
ENDROOT
BRANCH   2   4
HETATM    4  C7  UNL     1       1.687   1.034  -0.165  1.00  0.00     0.022 C 
BRANCH   4   5
HETATM    5  C8  UNL     1       1.444  -0.480  -0.044  1.00  0.00     0.007 C 
BRANCH   5   6
HETATM    6  C9  UNL     1       2.767  -1.266   0.005  1.00  0.00     0.035 C 
BRANCH   6   7
HETATM    7  C10 UNL     1       2.620  -2.796   0.004  1.00  0.00     0.145 C 
HETATM    8  C13 UNL     1       1.865  -3.308   1.232  1.00  0.00     0.038 C 
HETATM    9  O1  UNL     1       1.899  -3.171  -1.151  1.00  0.00    -0.222 OA
BRANCH   7  10
HETATM   10  C11 UNL     1       3.984  -3.456  -0.053  1.00  0.00     0.003 C 
HETATM   11  C12 UNL     1       4.175  -4.759  -0.305  1.00  0.00    -0.002 C 
ENDBRANCH   7  10
ENDBRANCH   6   7
ENDBRANCH   5   6
ENDBRANCH   4   5
ENDBRANCH   2   4
BRANCH   1  12
HETATM   12  C4  UNL     1      -1.945   2.225  -0.103  1.00  0.00     0.195 C 
HETATM   13  O2  UNL     1      -1.953   3.432  -0.042  1.00  0.00    -0.287 OA
BRANCH  12  14
HETATM   14  C3  UNL     1      -3.112   1.520  -0.123  1.00  0.00     0.034 C 
HETATM   15  C2  UNL     1      -4.355   2.038  -0.072  1.00  0.00    -0.040 C 
HETATM   16  C1  UNL     1      -5.572   1.140  -0.116  1.00  0.00     0.026 C 
HETATM   17  C15 UNL     1      -4.675   3.512   0.033  1.00  0.00     0.026 C 
ENDBRANCH  12  14
ENDBRANCH   1  12
TORSDOF 7
