REMARK  7 active torsions:
REMARK  status: ('A' for Active; 'I' for Inactive)
REMARK    1  A    between atoms: C7_8  and  C12_17 
REMARK    2  A    between atoms: C8_9  and  C10_13 
REMARK    3  A    between atoms: C10_13  and  O4_14 
REMARK    4  A    between atoms: C12_17  and  C13_18 
REMARK    5  A    between atoms: C13_18  and  O6_19 
REMARK    6  A    between atoms: C15_22  and  C16_23 
REMARK    7  A    between atoms: C16_23  and  O9_25 
ROOT
HETATM    1  C1  UNL     1      -3.201  -0.219   0.887  1.00  0.00     0.181 A 
HETATM    2  C2  UNL     1      -3.334  -1.544   1.054  1.00  0.00     0.158 A 
HETATM    3  C3  UNL     1      -2.229  -2.303   1.096  1.00  0.00     0.035 A 
HETATM    4  C4  UNL     1      -1.004  -1.768   0.951  1.00  0.00     0.064 A 
HETATM    5  C5  UNL     1      -0.880  -0.442   0.766  1.00  0.00     0.017 A 
HETATM    6  C6  UNL     1      -1.984   0.334   0.751  1.00  0.00     0.155 A 
HETATM    7  O1  UNL     1      -1.914   1.686   0.615  1.00  0.00    -0.188 OA
HETATM    8  C7  UNL     1       0.498   0.170   0.664  1.00  0.00     0.090 C 
HETATM    9  C8  UNL     1       1.629  -0.813   0.333  1.00  0.00     0.218 C 
HETATM   10  O2  UNL     1       1.386  -2.119   0.795  1.00  0.00    -0.290 OA
HETATM   11  C9  UNL     1       0.109  -2.553   1.001  1.00  0.00     0.296 C 
HETATM   12  O3  UNL     1      -0.037  -3.736   1.237  1.00  0.00    -0.259 OA
HETATM   13  O10 UNL     1      -4.570  -2.090   1.196  1.00  0.00    -0.188 OA
HETATM   14  O11 UNL     1      -4.314   0.561   0.865  1.00  0.00    -0.186 OA
ENDROOT
BRANCH   8  15
HETATM   15  C12 UNL     1       0.612   1.402  -0.239  1.00  0.00     0.053 C 
HETATM   16  C15 UNL     1       0.266   1.430  -1.548  1.00  0.00     0.070 C 
BRANCH  15  17
HETATM   17  C13 UNL     1       1.115   2.549   0.319  1.00  0.00     0.292 C 
HETATM   18  O7  UNL     1       1.237   3.549  -0.358  1.00  0.00    -0.259 OA
BRANCH  17  19
HETATM   19  O6  UNL     1       1.474   2.614   1.638  1.00  0.00    -0.296 OA
HETATM   20  C14 UNL     1       1.870   3.863   2.151  1.00  0.00     0.185 C 
ENDBRANCH  17  19
ENDBRANCH  15  17
BRANCH  16  21
HETATM   21  C16 UNL     1      -0.269   0.443  -2.325  1.00  0.00     0.296 C 
HETATM   22  O8  UNL     1      -0.454   0.707  -3.496  1.00  0.00    -0.259 OA
BRANCH  21  23
HETATM   23  O9  UNL     1      -0.559  -0.815  -1.886  1.00  0.00    -0.296 OA
HETATM   24  C17 UNL     1      -0.907  -1.787  -2.842  1.00  0.00     0.185 C 
ENDBRANCH  21  23
ENDBRANCH  16  21
ENDBRANCH   8  15
BRANCH   9  25
HETATM   25  C10 UNL     1       2.984  -0.321   0.870  1.00  0.00     0.301 C 
HETATM   26  O5  UNL     1       3.118  -0.113   2.058  1.00  0.00    -0.262 OA
BRANCH  25  27
HETATM   27  O4  UNL     1       3.994  -0.088  -0.017  1.00  0.00    -0.297 OA
HETATM   28  C11 UNL     1       3.881  -0.358  -1.393  1.00  0.00     0.185 C 
ENDBRANCH  25  27
ENDBRANCH   9  25
TORSDOF 7
