REMARK  7 active torsions:
REMARK  status: ('A' for Active; 'I' for Inactive)
REMARK    1  A    between atoms: C4_4  and  O3_9 
REMARK    2  A    between atoms: C5_6  and  C6_7 
REMARK    3  A    between atoms: O3_9  and  C7_10 
REMARK    4  A    between atoms: C7_10  and  C8_11 
REMARK    5  A    between atoms: C10_13  and  O6_21 
REMARK    6  A    between atoms: C11_14  and  O5_19 
REMARK    7  A    between atoms: C12_15  and  O4_17 
ROOT
HETATM    1  C7  UNL     1       0.424  -1.090   0.134  1.00  0.00     0.298 C 
HETATM    2  O7  UNL     1       0.159  -2.272   0.095  1.00  0.00    -0.259 OA
ENDROOT
BRANCH   1   3
HETATM    3  O3  UNL     1      -0.513  -0.232   0.638  1.00  0.00    -0.270 OA
BRANCH   3   4
HETATM    4  C4  UNL     1      -1.851  -0.676   0.749  1.00  0.00     0.277 C 
HETATM    5  C3  UNL     1      -2.102  -1.422   2.042  1.00  0.00     0.241 C 
HETATM    6  C2  UNL     1      -3.595  -1.582   2.243  1.00  0.00     0.220 C 
HETATM    7  O8  UNL     1      -1.551  -2.717   2.006  1.00  0.00    -0.215 OA
HETATM    8  C1  UNL     1      -4.264  -0.227   2.175  1.00  0.00     0.215 C 
HETATM    9  O9  UNL     1      -3.846  -2.164   3.496  1.00  0.00    -0.218 OA
HETATM   10  C5  UNL     1      -3.919   0.445   0.852  1.00  0.00     0.184 C 
HETATM   11  O10 UNL     1      -5.651  -0.424   2.296  1.00  0.00    -0.218 OA
HETATM   12  O1  UNL     1      -2.527   0.569   0.747  1.00  0.00    -0.326 OA
BRANCH  10  13
HETATM   13  C6  UNL     1      -4.537   1.832   0.753  1.00  0.00     0.214 C 
HETATM   14  O2  UNL     1      -4.255   2.395  -0.513  1.00  0.00    -0.218 OA
ENDBRANCH  10  13
ENDBRANCH   3   4
ENDBRANCH   1   3
BRANCH   1  15
HETATM   15  C8  UNL     1       1.605  -0.647  -0.389  1.00  0.00     0.067 A 
HETATM   16  C9  UNL     1       2.506  -1.501  -0.900  1.00  0.00     0.032 A 
HETATM   17  C10 UNL     1       3.667  -1.078  -1.432  1.00  0.00     0.118 A 
HETATM   18  C11 UNL     1       3.925   0.251  -1.450  1.00  0.00     0.138 A 
HETATM   19  C12 UNL     1       3.064   1.134  -0.891  1.00  0.00     0.118 A 
HETATM   20  C13 UNL     1       1.905   0.662  -0.392  1.00  0.00     0.032 A 
BRANCH  17  21
HETATM   21  O6  UNL     1       4.587  -1.966  -1.940  1.00  0.00    -0.326 OA
HETATM   22  C16 UNL     1       4.122  -2.813  -2.968  1.00  0.00     0.181 C 
ENDBRANCH  17  21
BRANCH  18  23
HETATM   23  O5  UNL     1       5.132   0.705  -1.931  1.00  0.00    -0.324 OA
HETATM   24  C15 UNL     1       5.119   1.003  -3.309  1.00  0.00     0.182 C 
ENDBRANCH  18  23
BRANCH  19  25
HETATM   25  O4  UNL     1       3.407   2.469  -0.913  1.00  0.00    -0.326 OA
HETATM   26  C14 UNL     1       2.460   3.436  -0.521  1.00  0.00     0.181 C 
ENDBRANCH  19  25
ENDBRANCH   1  15
TORSDOF 7
