REMARK  11 active torsions:
REMARK  status: ('A' for Active; 'I' for Inactive)
REMARK    1  A    between atoms: C2_2  and  C3_3 
REMARK    2  A    between atoms: C3_3  and  C4_4 
REMARK    3  A    between atoms: C4_4  and  C5_5 
REMARK    4  A    between atoms: C5_5  and  C6_6 
REMARK    5  A    between atoms: C6_6  and  C7_7 
REMARK    6  A    between atoms: C7_7  and  C8_8 
REMARK    7  A    between atoms: C8_8  and  C9_9 
REMARK    8  A    between atoms: C9_9  and  C10_10 
REMARK    9  A    between atoms: C10_10  and  C11_11 
REMARK   10  A    between atoms: C11_11  and  C12_12 
REMARK   11  A    between atoms: C12_12  and  C13_13 
ROOT
HETATM    1  C7  UNL     1      -0.966   2.136  -0.692  1.00  0.00     0.000 C 
ENDROOT
BRANCH   1   2
HETATM    2  C6  UNL     1      -0.422   2.721   0.630  1.00  0.00     0.000 C 
HETATM    3  C15 UNL     1      -0.851   4.195   0.779  1.00  0.00     0.000 C 
BRANCH   2   4
HETATM    4  C5  UNL     1      -0.871   1.940   1.883  1.00  0.00     0.000 C 
BRANCH   4   5
HETATM    5  C4  UNL     1      -0.521   0.444   1.881  1.00  0.00     0.000 C 
BRANCH   5   6
HETATM    6  C3  UNL     1      -0.819  -0.216   3.239  1.00  0.00     0.000 C 
BRANCH   6   7
HETATM    7  C2  UNL     1      -0.638  -1.747   3.238  1.00  0.00     0.000 C 
HETATM    8  C1  UNL     1      -1.796  -2.462   2.520  1.00  0.00     0.000 C 
HETATM    9  C16 UNL     1      -0.526  -2.274   4.680  1.00  0.00     0.000 C 
ENDBRANCH   6   7
ENDBRANCH   5   6
ENDBRANCH   4   5
ENDBRANCH   2   4
ENDBRANCH   1   2
BRANCH   1  10
HETATM   10  C8  UNL     1       0.043   1.226  -1.416  1.00  0.00     0.000 C 
BRANCH  10  11
HETATM   11  C9  UNL     1      -0.549   0.579  -2.676  1.00  0.00     0.000 C 
BRANCH  11  12
HETATM   12  C10 UNL     1       0.470  -0.174  -3.559  1.00  0.00     0.001 C 
HETATM   13  C14 UNL     1      -0.253  -0.721  -4.806  1.00  0.00     0.000 C 
BRANCH  12  14
HETATM   14  C11 UNL     1       1.202  -1.318  -2.823  1.00  0.00     0.011 C 
BRANCH  14  15
HETATM   15  C12 UNL     1       2.575  -0.917  -2.258  1.00  0.00     0.098 C 
BRANCH  15  16
HETATM   16  C13 UNL     1       3.277  -2.052  -1.537  1.00  0.00     0.185 C 
HETATM   17  O1  UNL     1       4.537  -1.717  -1.205  1.00  0.00    -0.647 OA
HETATM   18  O2  UNL     1       2.822  -3.137  -1.266  1.00  0.00    -0.647 OA
ENDBRANCH  15  16
ENDBRANCH  14  15
ENDBRANCH  12  14
ENDBRANCH  11  12
ENDBRANCH  10  11
ENDBRANCH   1  10
TORSDOF 11
