REMARK  2 active torsions:
REMARK  status: ('A' for Active; 'I' for Inactive)
REMARK    1  A    between atoms: C15_16  and  C18_19 
REMARK    2  A    between atoms: C20_22  and  C22_24 
ROOT
HETATM    1  C1  UNL     1      -4.572  -2.219   1.341  1.00  0.00     0.033 C 
HETATM    2  C2  UNL     1      -4.359  -3.715   1.120  1.00  0.00     0.152 C 
HETATM    3  C3  UNL     1      -3.614  -4.061  -0.188  1.00  0.00     0.028 C 
HETATM    4  C4  UNL     1      -2.358  -3.152  -0.299  1.00  0.00     0.005 C 
HETATM    5  C5  UNL     1      -2.535  -1.616  -0.127  1.00  0.00     0.001 C 
HETATM    6  C6  UNL     1      -3.274  -1.402   1.216  1.00  0.00     0.003 C 
HETATM    7  C7  UNL     1      -1.135  -0.900  -0.210  1.00  0.00     0.006 C 
HETATM    8  C8  UNL     1       0.129  -1.779  -0.074  1.00  0.00     0.043 C 
HETATM    9  C9  UNL     1       0.047  -2.937  -1.096  1.00  0.00     0.155 C 
HETATM   10  C10 UNL     1      -1.365  -3.445  -1.428  1.00  0.00     0.033 C 
HETATM   11  O1  UNL     1       0.624  -2.541  -2.323  1.00  0.00    -0.223 OA
HETATM   12  C11 UNL     1       1.381  -0.955  -0.351  1.00  0.00    -0.047 C 
HETATM   13  C12 UNL     1       1.378   0.559  -0.427  1.00  0.00     0.016 C 
HETATM   14  C13 UNL     1       0.366   1.093   0.598  1.00  0.00     0.004 C 
HETATM   15  C14 UNL     1      -1.027   0.433   0.559  1.00  0.00     0.001 C 
HETATM   16  C15 UNL     1       2.864   0.863  -0.043  1.00  0.00     0.017 C 
HETATM   17  C16 UNL     1       3.655  -0.358  -0.572  1.00  0.00     0.026 C 
HETATM   18  C17 UNL     1       2.625  -1.442  -0.451  1.00  0.00    -0.035 C 
HETATM   19  C26 UNL     1       1.081   1.039  -1.860  1.00  0.00     0.004 C 
HETATM   20  C27 UNL     1       0.351  -2.255   1.384  1.00  0.00     0.007 C 
HETATM   21  C28 UNL     1      -3.396  -0.952  -1.238  1.00  0.00     0.000 C 
HETATM   22  C29 UNL     1      -4.566  -3.967  -1.399  1.00  0.00     0.003 C 
HETATM   23  C30 UNL     1      -3.200  -5.558  -0.120  1.00  0.00     0.003 C 
HETATM   24  O4  UNL     1      -3.657  -4.213   2.238  1.00  0.00    -0.224 OA
ENDROOT
BRANCH  16  25
HETATM   25  C18 UNL     1       3.469   2.215  -0.457  1.00  0.00     0.090 C 
HETATM   26  C19 UNL     1       4.881   2.460   0.059  1.00  0.00     0.272 C 
HETATM   27  O2  UNL     1       5.018   3.770   0.399  1.00  0.00    -0.300 OA
HETATM   28  O3  UNL     1       5.763   1.637   0.161  1.00  0.00    -0.264 OA
HETATM   29  C20 UNL     1       3.835   4.487   0.146  1.00  0.00     0.146 C 
HETATM   30  C21 UNL     1       2.732   3.440   0.093  1.00  0.00     0.045 C 
BRANCH  29  31
HETATM   31  C22 UNL     1       3.567   5.534   1.201  1.00  0.00    -0.005 C 
HETATM   32  C23 UNL     1       3.126   6.792   1.018  1.00  0.00    -0.045 C 
HETATM   33  C24 UNL     1       2.890   7.707   2.198  1.00  0.00     0.026 C 
HETATM   34  C25 UNL     1       2.826   7.426  -0.320  1.00  0.00     0.026 C 
ENDBRANCH  29  31
ENDBRANCH  16  25
TORSDOF 2
