REMARK  3 active torsions:
REMARK  status: ('A' for Active; 'I' for Inactive)
REMARK    1  A    between atoms: C4_4  and  O3_9 
REMARK    2  A    between atoms: C5_6  and  C6_7 
REMARK    3  A    between atoms: O3_9  and  C7_10 
ROOT
HETATM    1  C7  UNL     1       0.143  -0.636  -0.009  1.00  0.00     0.124 A 
HETATM    2  C8  UNL     1       0.343   0.305  -0.960  1.00  0.00     0.153 A 
HETATM    3  C9  UNL     1       1.286   1.244  -0.759  1.00  0.00     0.035 A 
HETATM    4  C10 UNL     1       2.071   1.282   0.331  1.00  0.00     0.064 A 
HETATM    5  C11 UNL     1       1.905   0.344   1.276  1.00  0.00     0.105 A 
HETATM    6  C12 UNL     1       0.943  -0.572   1.073  1.00  0.00     0.051 A 
HETATM    7  O4  UNL     1       2.657   0.301   2.408  1.00  0.00    -0.307 OA
HETATM    8  C13 UNL     1       3.618   1.262   2.521  1.00  0.00     0.107 A 
HETATM    9  C14 UNL     1       3.815   2.225   1.596  1.00  0.00     0.087 A 
HETATM   10  C15 UNL     1       3.026   2.243   0.481  1.00  0.00     0.201 A 
HETATM   11  O5  UNL     1       3.155   3.081  -0.384  1.00  0.00    -0.286 OA
HETATM   12  C16 UNL     1       4.783   3.152   1.775  1.00  0.00     0.138 A 
HETATM   13  C17 UNL     1       5.542   3.086   2.883  1.00  0.00     0.055 A 
HETATM   14  C18 UNL     1       5.380   2.141   3.819  1.00  0.00     0.135 A 
HETATM   15  C19 UNL     1       4.407   1.244   3.610  1.00  0.00     0.052 A 
HETATM   16  O6  UNL     1       6.162   2.089   4.931  1.00  0.00    -0.190 OA
HETATM   17  O7  UNL     1       5.043   4.157   0.891  1.00  0.00    -0.190 OA
HETATM   18  O8  UNL     1      -0.374   0.377  -2.115  1.00  0.00    -0.188 OA
ENDROOT
BRANCH   1  19
HETATM   19  O3  UNL     1      -0.784  -1.655  -0.012  1.00  0.00    -0.301 OA
BRANCH  19  20
HETATM   20  C4  UNL     1      -1.738  -1.802  -1.033  1.00  0.00     0.274 C 
HETATM   21  C3  UNL     1      -2.472  -3.104  -0.803  1.00  0.00     0.241 C 
HETATM   22  C2  UNL     1      -3.561  -3.241  -1.844  1.00  0.00     0.220 C 
HETATM   23  O9  UNL     1      -1.574  -4.178  -0.922  1.00  0.00    -0.215 OA
HETATM   24  C1  UNL     1      -4.453  -2.015  -1.792  1.00  0.00     0.215 C 
HETATM   25  O10 UNL     1      -4.326  -4.389  -1.581  1.00  0.00    -0.218 OA
HETATM   26  C5  UNL     1      -3.615  -0.746  -1.914  1.00  0.00     0.184 C 
HETATM   27  O11 UNL     1      -5.382  -2.115  -2.843  1.00  0.00    -0.218 OA
HETATM   28  O1  UNL     1      -2.652  -0.736  -0.893  1.00  0.00    -0.326 OA
BRANCH  26  29
HETATM   29  C6  UNL     1      -4.458   0.514  -1.799  1.00  0.00     0.214 C 
HETATM   30  O2  UNL     1      -3.654   1.653  -2.038  1.00  0.00    -0.218 OA
ENDBRANCH  26  29
ENDBRANCH  19  20
ENDBRANCH   1  19
TORSDOF 3
