REMARK  10 active torsions:
REMARK  status: ('A' for Active; 'I' for Inactive)
REMARK    1  A    between atoms: C3_3  and  C7_7 
REMARK    2  A    between atoms: C7_7  and  O1_8 
REMARK    3  A    between atoms: O1_8  and  C8_9 
REMARK    4  A    between atoms: C9_10  and  O9_35 
REMARK    5  A    between atoms: C11_12  and  O7_31 
REMARK    6  A    between atoms: C14_15  and  O4_22 
REMARK    7  A    between atoms: O4_22  and  C19_23 
REMARK    8  A    between atoms: O7_31  and  C25_32 
REMARK    9  A    between atoms: O9_35  and  C27_36 
REMARK   10  A    between atoms: C27_36  and  C28_37 
ROOT
HETATM    1  C8  UNL     1      -0.282   0.250  -0.196  1.00  0.00     0.157 C 
HETATM    2  C9  UNL     1      -1.054  -0.454   0.950  1.00  0.00     0.157 C 
HETATM    3  C10 UNL     1      -1.111  -1.995   0.829  1.00  0.00     0.086 C 
HETATM    4  C11 UNL     1       0.348  -2.453   0.847  1.00  0.00     0.156 C 
HETATM    5  C12 UNL     1       0.686  -2.116  -0.617  1.00  0.00     0.149 C 
HETATM    6  C13 UNL     1       0.960  -0.556  -0.715  1.00  0.00     0.088 C 
HETATM    7  C14 UNL     1       1.311  -0.226  -2.196  1.00  0.00     0.186 C 
HETATM    8  C15 UNL     1       2.484  -1.089  -2.646  1.00  0.00     0.181 C 
HETATM    9  C16 UNL     1       2.171  -2.567  -2.656  1.00  0.00     0.100 C 
HETATM   10  C17 UNL     1       1.794  -3.017  -1.240  1.00  0.00     0.159 C 
HETATM   11  C18 UNL     1       3.080  -3.176  -0.412  1.00  0.00     0.036 C 
HETATM   12  O2  UNL     1       1.286  -4.323  -1.391  1.00  0.00    -0.223 OA
HETATM   13  O3  UNL     1       3.568  -0.638  -2.937  1.00  0.00    -0.293 OA
HETATM   14  C21 UNL     1       2.150  -0.048   0.148  1.00  0.00     0.008 C 
HETATM   15  O6  UNL     1      -0.502  -2.318  -1.361  1.00  0.00    -0.359 OA
HETATM   16  C22 UNL     1      -1.577  -2.575  -0.512  1.00  0.00     0.098 C 
HETATM   17  C23 UNL     1      -1.855  -4.094  -0.493  1.00  0.00     0.030 C 
HETATM   18  C24 UNL     1      -2.891  -1.994  -1.060  1.00  0.00     0.030 C 
ENDROOT
BRANCH   1  19
HETATM   19  O1  UNL     1      -1.149   0.564  -1.243  1.00  0.00    -0.298 OA
BRANCH  19  20
HETATM   20  C7  UNL     1      -1.522   1.788  -1.756  1.00  0.00     0.296 C 
HETATM   21  O11 UNL     1      -2.447   1.689  -2.542  1.00  0.00    -0.259 OA
BRANCH  20  22
HETATM   22  C3  UNL     1      -1.063   3.073  -1.585  1.00  0.00     0.063 A 
HETATM   23  C2  UNL     1      -1.718   4.080  -2.209  1.00  0.00     0.005 A 
HETATM   24  C1  UNL     1      -1.351   5.367  -2.106  1.00  0.00     0.000 A 
HETATM   25  C6  UNL     1      -0.288   5.706  -1.366  1.00  0.00     0.000 A 
HETATM   26  C5  UNL     1       0.394   4.734  -0.749  1.00  0.00     0.000 A 
HETATM   27  C4  UNL     1       0.012   3.451  -0.864  1.00  0.00     0.005 A 
ENDBRANCH  20  22
ENDBRANCH  19  20
ENDBRANCH   1  19
BRANCH   2  28
HETATM   28  O9  UNL     1      -2.348   0.050   1.105  1.00  0.00    -0.298 OA
BRANCH  28  29
HETATM   29  C27 UNL     1      -2.825   0.808   2.151  1.00  0.00     0.296 C 
HETATM   30  O10 UNL     1      -4.039   0.787   2.246  1.00  0.00    -0.259 OA
BRANCH  29  31
HETATM   31  C28 UNL     1      -2.187   1.599   3.075  1.00  0.00     0.063 A 
HETATM   32  C29 UNL     1      -2.911   2.164   4.067  1.00  0.00     0.005 A 
HETATM   33  C30 UNL     1      -2.358   2.943   5.011  1.00  0.00     0.000 A 
HETATM   34  C31 UNL     1      -1.044   3.199   4.989  1.00  0.00     0.000 A 
HETATM   35  C32 UNL     1      -0.304   2.675   4.003  1.00  0.00     0.000 A 
HETATM   36  C33 UNL     1      -0.872   1.896   3.068  1.00  0.00     0.005 A 
ENDBRANCH  29  31
ENDBRANCH  28  29
ENDBRANCH   2  28
BRANCH   7  37
HETATM   37  O4  UNL     1       1.567   1.150  -2.370  1.00  0.00    -0.297 OA
BRANCH  37  38
HETATM   38  C19 UNL     1       1.621   1.611  -3.652  1.00  0.00     0.273 C 
HETATM   39  C20 UNL     1       1.975   3.084  -3.683  1.00  0.00     0.106 C 
HETATM   40  O5  UNL     1       1.422   0.934  -4.635  1.00  0.00    -0.264 OA
ENDBRANCH  37  38
ENDBRANCH   7  37
BRANCH   4  41
HETATM   41  O7  UNL     1       0.455  -3.803   1.192  1.00  0.00    -0.302 OA
BRANCH  41  42
HETATM   42  C25 UNL     1       0.855  -4.255   2.416  1.00  0.00     0.272 C 
HETATM   43  O8  UNL     1       0.962  -5.438   2.659  1.00  0.00    -0.264 OA
HETATM   44  C26 UNL     1       1.150  -3.211   3.479  1.00  0.00     0.106 C 
ENDBRANCH  41  42
ENDBRANCH   4  41
TORSDOF 10
