REMARK  13 active torsions:
REMARK  status: ('A' for Active; 'I' for Inactive)
REMARK    1  A    between atoms: C1_1  and  O1_2 
REMARK    2  A    between atoms: C1_1  and  C30_43 
REMARK    3  A    between atoms: O1_2  and  C2_3 
REMARK    4  A    between atoms: C3_4  and  O11_33 
REMARK    5  A    between atoms: C7_8  and  C17_23 
REMARK    6  A    between atoms: C8_9  and  O5_19 
REMARK    7  A    between atoms: C9_10  and  O3_15 
REMARK    8  A    between atoms: O3_15  and  C13_16 
REMARK    9  A    between atoms: O5_19  and  C15_20 
REMARK   10  A    between atoms: C17_23  and  O7_24 
REMARK   11  A    between atoms: O7_24  and  C18_25 
REMARK   12  A    between atoms: O11_33  and  C23_34 
REMARK   13  A    between atoms: C23_34  and  C24_36 
ROOT
HETATM    1  C2  UNL     1      -0.616   0.198   0.258  1.00  0.00     0.159 C 
HETATM    2  C3  UNL     1      -1.402  -0.248   1.502  1.00  0.00     0.157 C 
HETATM    3  C4  UNL     1      -1.565  -1.784   1.526  1.00  0.00     0.088 C 
HETATM    4  C5  UNL     1      -0.154  -2.345   1.659  1.00  0.00     0.184 C 
HETATM    5  C6  UNL     1       0.299  -2.204   0.199  1.00  0.00     0.153 C 
HETATM    6  C7  UNL     1       0.651  -0.678  -0.055  1.00  0.00     0.111 C 
HETATM    7  C8  UNL     1       0.995  -0.512  -1.577  1.00  0.00     0.159 C 
HETATM    8  C9  UNL     1       2.006  -1.516  -2.149  1.00  0.00     0.155 C 
HETATM    9  C10 UNL     1       2.546  -2.458  -1.082  1.00  0.00     0.066 C 
HETATM   10  C11 UNL     1       1.457  -3.154  -0.251  1.00  0.00     0.154 C 
HETATM   11  O2  UNL     1       0.930  -4.159  -1.086  1.00  0.00    -0.223 OA
HETATM   12  C12 UNL     1       2.205  -3.912   0.862  1.00  0.00     0.036 C 
HETATM   13  O9  UNL     1      -0.861  -2.453  -0.577  1.00  0.00    -0.358 OA
HETATM   14  C20 UNL     1      -2.006  -2.467   0.223  1.00  0.00     0.098 C 
HETATM   15  C21 UNL     1      -2.448  -3.937   0.398  1.00  0.00     0.030 C 
HETATM   16  C22 UNL     1      -3.201  -1.808  -0.490  1.00  0.00     0.030 C 
HETATM   17  O10 UNL     1      -0.230  -3.657   2.158  1.00  0.00    -0.221 OA
ENDROOT
BRANCH   1  18
HETATM   18  O1  UNL     1      -0.299   1.566   0.264  1.00  0.00    -0.298 OA
BRANCH  18  19
HETATM   19  C1  UNL     1      -1.325   2.482   0.270  1.00  0.00     0.296 C 
HETATM   20  O13 UNL     1      -1.447   3.164   1.267  1.00  0.00    -0.259 OA
BRANCH  19  21
HETATM   21  C30 UNL     1      -2.135   2.784  -0.792  1.00  0.00     0.063 A 
HETATM   22  C31 UNL     1      -3.118   3.699  -0.664  1.00  0.00     0.005 A 
HETATM   23  C32 UNL     1      -3.930   3.998  -1.692  1.00  0.00     0.000 A 
HETATM   24  C33 UNL     1      -3.775   3.388  -2.875  1.00  0.00     0.000 A 
HETATM   25  C34 UNL     1      -2.799   2.482  -3.022  1.00  0.00     0.000 A 
HETATM   26  C35 UNL     1      -1.992   2.188  -1.990  1.00  0.00     0.005 A 
ENDBRANCH  19  21
ENDBRANCH  18  19
ENDBRANCH   1  18
BRANCH   2  27
HETATM   27  O11 UNL     1      -2.672   0.326   1.554  1.00  0.00    -0.298 OA
BRANCH  27  28
HETATM   28  C23 UNL     1      -3.228   1.074   2.572  1.00  0.00     0.296 C 
HETATM   29  O12 UNL     1      -4.440   1.148   2.483  1.00  0.00    -0.259 OA
BRANCH  28  30
HETATM   30  C24 UNL     1      -2.684   1.760   3.632  1.00  0.00     0.063 A 
HETATM   31  C25 UNL     1      -3.517   2.335   4.530  1.00  0.00     0.005 A 
HETATM   32  C26 UNL     1      -3.075   3.027   5.592  1.00  0.00     0.000 A 
HETATM   33  C27 UNL     1      -1.761   3.183   5.796  1.00  0.00     0.000 A 
HETATM   34  C28 UNL     1      -0.909   2.643   4.915  1.00  0.00     0.000 A 
HETATM   35  C29 UNL     1      -1.368   1.954   3.857  1.00  0.00     0.005 A 
ENDBRANCH  28  30
ENDBRANCH  27  28
ENDBRANCH   2  27
BRANCH   6  36
HETATM   36  C17 UNL     1       1.784  -0.214   0.904  1.00  0.00     0.159 C 
BRANCH  36  37
HETATM   37  O7  UNL     1       2.727   0.598   0.258  1.00  0.00    -0.301 OA
BRANCH  37  38
HETATM   38  C18 UNL     1       3.928   0.784   0.867  1.00  0.00     0.272 C 
HETATM   39  C19 UNL     1       4.857   1.550  -0.051  1.00  0.00     0.106 C 
HETATM   40  O8  UNL     1       4.222   0.359   1.961  1.00  0.00    -0.264 OA
ENDBRANCH  37  38
ENDBRANCH  36  37
ENDBRANCH   6  36
BRANCH   7  41
HETATM   41  O5  UNL     1       1.355   0.811  -1.868  1.00  0.00    -0.301 OA
BRANCH  41  42
HETATM   42  C15 UNL     1       1.222   1.283  -3.137  1.00  0.00     0.272 C 
HETATM   43  C16 UNL     1       1.676   2.727  -3.194  1.00  0.00     0.106 C 
HETATM   44  O6  UNL     1       0.800   0.649  -4.078  1.00  0.00    -0.264 OA
ENDBRANCH  41  42
ENDBRANCH   7  41
BRANCH   8  45
HETATM   45  O3  UNL     1       3.076  -0.850  -2.764  1.00  0.00    -0.302 OA
BRANCH  45  46
HETATM   46  C13 UNL     1       3.806  -1.509  -3.703  1.00  0.00     0.272 C 
HETATM   47  C14 UNL     1       4.833  -0.572  -4.306  1.00  0.00     0.106 C 
HETATM   48  O4  UNL     1       3.655  -2.667  -4.023  1.00  0.00    -0.264 OA
ENDBRANCH  45  46
ENDBRANCH   8  45
TORSDOF 13
