REMARK  1 active torsions:
REMARK  status: ('A' for Active; 'I' for Inactive)
REMARK    1  A    between atoms: C12_13  and  C15_16 
ROOT
HETATM    1  O1  UNL     1      -4.449  -2.048   1.829  1.00  0.00    -0.296 OA
HETATM    2  C1  UNL     1      -3.659  -1.500   1.093  1.00  0.00     0.150 C 
HETATM    3  C2  UNL     1      -2.596  -2.283   0.318  1.00  0.00     0.052 C 
HETATM    4  C3  UNL     1      -1.301  -1.431   0.205  1.00  0.00     0.011 C 
HETATM    5  C4  UNL     1      -1.411   0.075  -0.161  1.00  0.00     0.019 C 
HETATM    6  C5  UNL     1      -2.408   0.697   0.847  1.00  0.00     0.012 C 
HETATM    7  C6  UNL     1      -3.770  -0.006   0.866  1.00  0.00     0.065 C 
HETATM    8  C7  UNL     1      -0.025   0.747  -0.076  1.00  0.00    -0.025 A 
HETATM    9  C8  UNL     1       1.137   0.059  -0.115  1.00  0.00    -0.001 A 
HETATM   10  C9  UNL     1       1.155  -1.454  -0.224  1.00  0.00     0.028 C 
HETATM   11  C10 UNL     1      -0.184  -2.073  -0.629  1.00  0.00     0.005 C 
HETATM   12  C11 UNL     1       2.335   0.685  -0.055  1.00  0.00     0.123 A 
HETATM   13  C12 UNL     1       2.401   2.031   0.017  1.00  0.00     0.003 A 
HETATM   14  C13 UNL     1       1.246   2.715   0.034  1.00  0.00    -0.003 A 
HETATM   15  C14 UNL     1       0.066   2.087  -0.014  1.00  0.00    -0.005 A 
HETATM   16  O2  UNL     1       3.476  -0.058  -0.067  1.00  0.00    -0.191 OA
HETATM   17  C18 UNL     1      -1.887   0.372  -1.602  1.00  0.00     0.004 C 
HETATM   18  C19 UNL     1      -2.312  -3.586   1.112  1.00  0.00     0.007 C 
HETATM   19  C20 UNL     1      -3.215  -2.714  -1.027  1.00  0.00     0.007 C 
ENDROOT
BRANCH  13  20
HETATM   20  C15 UNL     1       3.715   2.807   0.064  1.00  0.00     0.024 C 
HETATM   21  C16 UNL     1       4.494   2.554   1.364  1.00  0.00     0.005 C 
HETATM   22  C17 UNL     1       4.576   2.590  -1.193  1.00  0.00     0.005 C 
ENDBRANCH  13  20
TORSDOF 1
