REMARK  2 active torsions:
REMARK  status: ('A' for Active; 'I' for Inactive)
REMARK    1  A    between atoms: C11_12  and  O3_20 
REMARK    2  A    between atoms: C12_13  and  C15_17 
ROOT
HETATM    1  O1  UNL     1      -4.886  -2.174   1.450  1.00  0.00    -0.296 OA
HETATM    2  C1  UNL     1      -3.965  -1.611   0.901  1.00  0.00     0.150 C 
HETATM    3  C2  UNL     1      -2.769  -2.387   0.349  1.00  0.00     0.052 C 
HETATM    4  C3  UNL     1      -1.504  -1.487   0.266  1.00  0.00     0.011 C 
HETATM    5  C4  UNL     1      -1.618  -0.004  -0.197  1.00  0.00     0.021 C 
HETATM    6  C5  UNL     1      -2.687   0.594   0.756  1.00  0.00     0.012 C 
HETATM    7  C6  UNL     1      -4.044  -0.115   0.685  1.00  0.00     0.065 C 
HETATM    8  C7  UNL     1      -0.246   0.724  -0.084  1.00  0.00     0.001 C 
HETATM    9  C8  UNL     1       0.924   0.046   0.033  1.00  0.00    -0.002 C 
HETATM   10  C9  UNL     1       0.950  -1.475   0.044  1.00  0.00     0.028 C 
HETATM   11  C10 UNL     1      -0.327  -2.148  -0.452  1.00  0.00     0.005 C 
HETATM   12  C11 UNL     1       2.132   0.661   0.140  1.00  0.00     0.086 C 
HETATM   13  C12 UNL     1       2.169   2.008   0.235  1.00  0.00     0.002 C 
HETATM   14  C13 UNL     1       1.017   2.668   0.048  1.00  0.00     0.025 C 
HETATM   15  C14 UNL     1      -0.171   2.073  -0.127  1.00  0.00     0.127 C 
HETATM   16  O2  UNL     1      -1.237   2.893  -0.332  1.00  0.00    -0.191 OA
HETATM   17  C19 UNL     1      -2.046   0.156  -1.674  1.00  0.00     0.004 C 
HETATM   18  C20 UNL     1      -2.519  -3.559   1.339  1.00  0.00     0.007 C 
HETATM   19  C21 UNL     1      -3.199  -3.027  -0.987  1.00  0.00     0.007 C 
ENDROOT
BRANCH  13  20
HETATM   20  C15 UNL     1       3.409   2.868   0.493  1.00  0.00     0.024 C 
HETATM   21  C16 UNL     1       4.508   2.289   1.400  1.00  0.00     0.005 C 
HETATM   22  C17 UNL     1       3.987   3.411  -0.824  1.00  0.00     0.005 C 
ENDBRANCH  13  20
BRANCH  12  23
HETATM   23  O3  UNL     1       3.264  -0.097   0.323  1.00  0.00    -0.329 OA
HETATM   24  C18 UNL     1       3.985  -0.389  -0.856  1.00  0.00     0.181 C 
ENDBRANCH  12  23
TORSDOF 2
