REMARK  3 active torsions:
REMARK  status: ('A' for Active; 'I' for Inactive)
REMARK    1  A    between atoms: C2_3  and  C21_24 
REMARK    2  A    between atoms: C11_12  and  O3_20 
REMARK    3  A    between atoms: C12_13  and  C15_17 
ROOT
HETATM    1  O1  UNL     1      -4.540  -1.929   1.883  1.00  0.00    -0.296 OA
HETATM    2  C1  UNL     1      -3.809  -1.470   1.034  1.00  0.00     0.152 C 
HETATM    3  C2  UNL     1      -2.699  -2.273   0.354  1.00  0.00     0.082 C 
HETATM    4  C3  UNL     1      -1.433  -1.371   0.238  1.00  0.00     0.013 C 
HETATM    5  C4  UNL     1      -1.532   0.115  -0.233  1.00  0.00     0.021 C 
HETATM    6  C5  UNL     1      -2.650   0.730   0.652  1.00  0.00     0.012 C 
HETATM    7  C6  UNL     1      -3.980  -0.032   0.598  1.00  0.00     0.065 C 
HETATM    8  C7  UNL     1      -0.155   0.826  -0.067  1.00  0.00     0.001 C 
HETATM    9  C8  UNL     1       1.006   0.130   0.034  1.00  0.00    -0.002 C 
HETATM   10  C9  UNL     1       1.017  -1.391  -0.009  1.00  0.00     0.028 C 
HETATM   11  C10 UNL     1      -0.273  -2.044  -0.496  1.00  0.00     0.005 C 
HETATM   12  C11 UNL     1       2.221   0.725   0.175  1.00  0.00     0.086 C 
HETATM   13  C12 UNL     1       2.275   2.067   0.319  1.00  0.00     0.002 C 
HETATM   14  C13 UNL     1       1.131   2.747   0.153  1.00  0.00     0.025 C 
HETATM   15  C14 UNL     1      -0.063   2.175  -0.050  1.00  0.00     0.127 C 
HETATM   16  O2  UNL     1      -1.115   3.016  -0.236  1.00  0.00    -0.191 OA
HETATM   17  C19 UNL     1      -1.884   0.303  -1.727  1.00  0.00     0.004 C 
HETATM   18  C20 UNL     1      -2.401  -3.490   1.274  1.00  0.00     0.010 C 
ENDROOT
BRANCH   3  19
HETATM   19  C21 UNL     1      -3.199  -2.815  -0.993  1.00  0.00     0.189 C 
HETATM   20  O4  UNL     1      -4.352  -3.614  -0.820  1.00  0.00    -0.220 OA
ENDBRANCH   3  19
BRANCH  12  21
HETATM   21  O3  UNL     1       3.342  -0.054   0.339  1.00  0.00    -0.329 OA
HETATM   22  C18 UNL     1       4.070  -0.316  -0.843  1.00  0.00     0.181 C 
ENDBRANCH  12  21
BRANCH  13  23
HETATM   23  C15 UNL     1       3.525   2.901   0.608  1.00  0.00     0.024 C 
HETATM   24  C16 UNL     1       4.615   2.280   1.496  1.00  0.00     0.005 C 
HETATM   25  C17 UNL     1       4.114   3.475  -0.692  1.00  0.00     0.005 C 
ENDBRANCH  13  23
TORSDOF 3
