REMARK  0 active torsions:
REMARK  status: ('A' for Active; 'I' for Inactive)
ROOT
HETATM    1  O1  UNL     1      -6.304  -2.691  -1.366  1.00  0.00    -0.224 OA
HETATM    2  C1  UNL     1      -5.007  -2.155  -1.234  1.00  0.00     0.152 C 
HETATM    3  C2  UNL     1      -4.251  -2.805  -0.056  1.00  0.00     0.028 C 
HETATM    4  C3  UNL     1      -2.884  -2.072   0.112  1.00  0.00     0.002 C 
HETATM    5  C4  UNL     1      -2.898  -0.517   0.219  1.00  0.00     0.001 C 
HETATM    6  C5  UNL     1      -3.742   0.022  -0.972  1.00  0.00     0.003 C 
HETATM    7  C6  UNL     1      -5.119  -0.639  -1.131  1.00  0.00     0.033 C 
HETATM    8  C7  UNL     1      -1.415  -0.005   0.067  1.00  0.00     0.005 C 
HETATM    9  C8  UNL     1      -0.304  -0.647   0.960  1.00  0.00     0.004 C 
HETATM   10  C9  UNL     1      -0.494  -2.188   0.948  1.00  0.00     0.000 C 
HETATM   11  C10 UNL     1      -1.935  -2.677   1.166  1.00  0.00     0.000 C 
HETATM   12  C11 UNL     1       1.147  -0.242   0.428  1.00  0.00     0.015 C 
HETATM   13  C12 UNL     1       1.258   1.233   0.057  1.00  0.00    -0.049 C 
HETATM   14  C13 UNL     1       0.164   1.988  -0.140  1.00  0.00    -0.035 C 
HETATM   15  C14 UNL     1      -1.258   1.526   0.007  1.00  0.00     0.025 C 
HETATM   16  C15 UNL     1       2.636   1.869  -0.138  1.00  0.00     0.025 C 
HETATM   17  C16 UNL     1       3.771   1.237   0.698  1.00  0.00     0.055 C 
HETATM   18  C17 UNL     1       3.683  -0.295   0.780  1.00  0.00     0.008 C 
HETATM   19  C18 UNL     1       2.306  -0.510   1.445  1.00  0.00     0.011 C 
HETATM   20  C19 UNL     1       2.477   0.481   2.629  1.00  0.00     0.065 C 
HETATM   21  C20 UNL     1       3.431   1.552   2.144  1.00  0.00     0.150 C 
HETATM   22  O2  UNL     1       3.826   2.494   2.789  1.00  0.00    -0.296 OA
HETATM   23  C21 UNL     1       5.169   1.716   0.278  1.00  0.00     0.007 C 
HETATM   24  C22 UNL     1       5.116   3.068  -0.444  1.00  0.00     0.000 C 
HETATM   25  C23 UNL     1       4.287   2.998  -1.750  1.00  0.00     0.000 C 
HETATM   26  C24 UNL     1       3.092   2.021  -1.598  1.00  0.00     0.004 C 
HETATM   27  C25 UNL     1       3.775   4.414  -2.092  1.00  0.00     0.000 C 
HETATM   28  C26 UNL     1       5.184   2.526  -2.917  1.00  0.00     0.000 C 
HETATM   29  C27 UNL     1       1.437  -1.032  -0.885  1.00  0.00     0.004 C 
HETATM   30  C28 UNL     1      -0.511  -0.212   2.428  1.00  0.00     0.000 C 
HETATM   31  C29 UNL     1      -3.575  -0.002   1.514  1.00  0.00     0.000 C 
HETATM   32  C30 UNL     1      -4.017  -4.293  -0.437  1.00  0.00     0.003 C 
HETATM   33  C31 UNL     1      -5.101  -2.824   1.232  1.00  0.00     0.003 C 
ENDROOT
TORSDOF 0
