REMARK  0 active torsions:
REMARK  status: ('A' for Active; 'I' for Inactive)
ROOT
HETATM    1  C1  UNL     1       1.595  -0.365  -0.206  1.00  0.00     0.044 A 
HETATM    2  C2  UNL     1       1.460   0.959  -0.358  1.00  0.00     0.003 A 
HETATM    3  C3  UNL     1       0.360   1.713  -0.273  1.00  0.00     0.000 A 
HETATM    4  C4  UNL     1      -0.884   1.299  -0.009  1.00  0.00     0.002 A 
HETATM    5  C5  UNL     1      -1.306   0.052   0.227  1.00  0.00     0.031 A 
HETATM    6  C6  UNL     1      -0.658  -1.122   0.272  1.00  0.00     0.170 A 
HETATM    7  C7  UNL     1       0.674  -1.323   0.074  1.00  0.00     0.221 A 
HETATM    8  O1  UNL     1       1.093  -2.459   0.154  1.00  0.00    -0.284 OA
HETATM    9  O2  UNL     1      -1.389  -2.246   0.546  1.00  0.00    -0.187 OA
ENDROOT
TORSDOF 0
