REMARK  2 active torsions:
REMARK  status: ('A' for Active; 'I' for Inactive)
REMARK    1  A    between atoms: C7_7  and  C9_10 
REMARK    2  A    between atoms: C9_10  and  C10_11 
ROOT
HETATM    1  C1  UNL     1       2.365   1.184  -0.841  1.00  0.00     0.000 A 
HETATM    2  C2  UNL     1       3.235   0.159  -0.845  1.00  0.00     0.002 A 
HETATM    3  C3  UNL     1       2.833  -1.073  -0.494  1.00  0.00     0.019 A 
HETATM    4  C4  UNL     1       1.551  -1.235  -0.148  1.00  0.00     0.081 A 
HETATM    5  C5  UNL     1       0.668  -0.223  -0.140  1.00  0.00     0.015 A 
HETATM    6  C6  UNL     1       1.079   1.004  -0.490  1.00  0.00     0.001 A 
HETATM    7  C7  UNL     1      -0.510  -0.744   0.253  1.00  0.00     0.001 A 
HETATM    8  C8  UNL     1      -0.264  -2.049   0.461  1.00  0.00     0.095 A 
HETATM    9  N1  UNL     1       0.956  -2.293   0.214  1.00  0.00    -0.244 NA
ENDROOT
BRANCH   7  10
HETATM   10  C9  UNL     1      -1.874  -0.139   0.457  1.00  0.00     0.069 C 
BRANCH  10  11
HETATM   11  C10 UNL     1      -2.057   1.364   0.223  1.00  0.00     0.343 C 
HETATM   12  N2  UNL     1      -3.452   1.757   0.484  1.00  0.00     0.618 N 
ENDBRANCH  10  11
ENDBRANCH   7  10
TORSDOF 2
