REMARK  2 active torsions:
REMARK  status: ('A' for Active; 'I' for Inactive)
REMARK    1  A    between atoms: C7_8  and  C18_21 
REMARK    2  A    between atoms: C12_13  and  C13_14 
ROOT
HETATM    1  C1  UNL     1      -0.975  -0.832   0.818  1.00  0.00     0.130 C 
HETATM    2  C2  UNL     1      -0.879  -1.295   2.281  1.00  0.00     0.172 C 
HETATM    3  C3  UNL     1       0.437  -1.675   2.924  1.00  0.00     0.067 C 
HETATM    4  C4  UNL     1       0.808  -3.099   2.493  1.00  0.00     0.010 C 
HETATM    5  C5  UNL     1       0.634  -3.292   0.978  1.00  0.00     0.024 C 
HETATM    6  C6  UNL     1       1.168  -2.062   0.230  1.00  0.00     0.098 C 
HETATM    7  N1  UNL     1       0.211  -0.995  -0.024  1.00  0.00    -0.362 N 
HETATM    8  C7  UNL     1       0.766   0.351  -0.290  1.00  0.00     0.109 C 
HETATM    9  C8  UNL     1       0.102   1.357   0.682  1.00  0.00     0.048 C 
HETATM   10  C9  UNL     1      -1.190   0.648   0.867  1.00  0.00    -0.023 C 
HETATM   11  C10 UNL     1      -2.474   0.991   0.812  1.00  0.00    -0.014 C 
HETATM   12  C11 UNL     1      -3.357  -0.199   0.711  1.00  0.00     0.145 C 
HETATM   13  C12 UNL     1      -2.356  -1.271   0.200  1.00  0.00     0.060 C 
HETATM   14  O1  UNL     1      -4.371   0.227  -0.162  1.00  0.00    -0.300 OA
HETATM   15  C15 UNL     1      -4.414   1.595  -0.237  1.00  0.00     0.275 C 
HETATM   16  C16 UNL     1      -3.261   2.225   0.550  1.00  0.00     0.106 C 
HETATM   17  C17 UNL     1      -2.549   3.337  -0.220  1.00  0.00     0.015 C 
HETATM   18  O2  UNL     1      -5.224   2.216  -0.889  1.00  0.00    -0.264 OA
HETATM   19  O5  UNL     1      -1.876  -1.379   2.964  1.00  0.00    -0.294 OA
ENDROOT
BRANCH   8  20
HETATM   20  C18 UNL     1       2.288   0.549  -0.322  1.00  0.00     0.145 C 
HETATM   21  O3  UNL     1       2.900  -0.258  -1.287  1.00  0.00    -0.302 OA
HETATM   22  C19 UNL     1       3.946   0.374  -1.881  1.00  0.00     0.271 C 
HETATM   23  C20 UNL     1       4.114   1.737  -1.241  1.00  0.00     0.089 C 
HETATM   24  O4  UNL     1       4.632  -0.095  -2.762  1.00  0.00    -0.264 OA
HETATM   25  C21 UNL     1       2.722   1.975  -0.653  1.00  0.00     0.042 C 
HETATM   26  C22 UNL     1       4.577   2.837  -2.197  1.00  0.00     0.011 C 
ENDBRANCH   8  20
BRANCH  13  27
HETATM   27  C13 UNL     1      -2.378  -1.411  -1.339  1.00  0.00     0.005 C 
HETATM   28  C14 UNL     1      -1.733  -2.694  -1.887  1.00  0.00     0.000 C 
ENDBRANCH  13  27
TORSDOF 2
