REMARK  2 active torsions:
REMARK  status: ('A' for Active; 'I' for Inactive)
REMARK    1  A    between atoms: C11_11  and  O2_20 
REMARK    2  A    between atoms: C12_12  and  O1_18 
ROOT
HETATM    1  C1  UNL     1      -3.733   0.267  -0.598  1.00  0.00     0.131 A 
HETATM    2  C2  UNL     1      -2.446  -0.121  -0.587  1.00  0.00     0.027 A 
HETATM    3  C3  UNL     1      -1.408   0.627  -0.154  1.00  0.00    -0.000 A 
HETATM    4  C4  UNL     1      -1.745   1.885   0.217  1.00  0.00    -0.020 A 
HETATM    5  C5  UNL     1      -3.022   2.308   0.219  1.00  0.00    -0.002 A 
HETATM    6  C6  UNL     1      -4.016   1.506  -0.175  1.00  0.00     0.027 A 
HETATM    7  C7  UNL     1      -0.686   2.853   0.668  1.00  0.00     0.067 C 
HETATM    8  C8  UNL     1       0.479   2.622  -0.283  1.00  0.00     0.283 C 
HETATM    9  C9  UNL     1       0.852   1.157  -0.194  1.00  0.00     0.010 C 
HETATM   10  C10 UNL     1      -0.110   0.202  -0.119  1.00  0.00     0.022 C 
HETATM   11  C11 UNL     1       0.270  -1.107  -0.003  1.00  0.00     0.116 C 
HETATM   12  C12 UNL     1       1.577  -1.458  -0.145  1.00  0.00     0.116 C 
HETATM   13  C13 UNL     1       2.476  -0.466  -0.246  1.00  0.00     0.022 C 
HETATM   14  C14 UNL     1       2.153   0.830  -0.252  1.00  0.00    -0.020 C 
HETATM   15  C15 UNL     1       3.270   1.847  -0.338  1.00  0.00     0.064 C 
HETATM   16  C16 UNL     1       2.770   3.245  -0.698  1.00  0.00     0.295 C 
HETATM   17  N1  UNL     1       1.579   3.504   0.099  1.00  0.00     0.342 N 
HETATM   18  O3  UNL     1      -4.712  -0.565  -1.048  1.00  0.00    -0.190 OA
ENDROOT
BRANCH  11  19
HETATM   19  O2  UNL     1      -0.642  -2.116   0.182  1.00  0.00    -0.326 OA
HETATM   20  C18 UNL     1      -1.217  -2.168   1.473  1.00  0.00     0.181 C 
ENDBRANCH  11  19
BRANCH  12  21
HETATM   21  O1  UNL     1       2.143  -2.719  -0.123  1.00  0.00    -0.326 OA
HETATM   22  C17 UNL     1       1.464  -3.873   0.306  1.00  0.00     0.181 C 
ENDBRANCH  12  21
TORSDOF 2
