REMARK  0 active torsions:
REMARK  status: ('A' for Active; 'I' for Inactive)
ROOT
HETATM    1  C1  UNL     1       1.462   0.355  -0.765  1.00  0.00     0.157 A 
HETATM    2  C2  UNL     1       0.835  -0.150   0.540  1.00  0.00     0.065 A 
HETATM    3  C3  UNL     1      -0.629  -0.117   0.215  1.00  0.00     0.043 A 
HETATM    4  C4  UNL     1      -0.758   0.346  -1.050  1.00  0.00     0.292 A 
HETATM    5  O1  UNL     1       0.417   0.644  -1.666  1.00  0.00    -0.298 OA
HETATM    6  O2  UNL     1      -1.828   0.490  -1.602  1.00  0.00    -0.260 OA
HETATM    7  C5  UNL     1      -1.638  -0.475   1.018  1.00  0.00     0.001 C 
ENDROOT
TORSDOF 0
