REMARK  6 active torsions:
REMARK  status: ('A' for Active; 'I' for Inactive)
REMARK    1  A    between atoms: C4_4  and  O6_13 
REMARK    2  A    between atoms: C5_6  and  C6_7 
REMARK    3  A    between atoms: C6_7  and  O2_8 
REMARK    4  A    between atoms: O2_8  and  S1_9 
REMARK    5  A    between atoms: O6_13  and  C7_14 
REMARK    6  A    between atoms: C10_17  and  C13_21 
ROOT
HETATM    1  C1  UNL     1      -2.833  -1.674  -0.974  1.00  0.00     0.215 C 
HETATM    2  C2  UNL     1      -2.022  -2.942  -0.797  1.00  0.00     0.220 C 
HETATM    3  C3  UNL     1      -0.988  -2.717   0.285  1.00  0.00     0.241 C 
HETATM    4  C4  UNL     1      -0.152  -1.512  -0.080  1.00  0.00     0.274 C 
HETATM    5  O1  UNL     1      -0.990  -0.386  -0.167  1.00  0.00    -0.326 OA
HETATM    6  C5  UNL     1      -1.905  -0.491  -1.225  1.00  0.00     0.182 C 
HETATM    7  O11 UNL     1      -0.161  -3.848   0.386  1.00  0.00    -0.215 OA
HETATM    8  O12 UNL     1      -2.864  -4.002  -0.424  1.00  0.00    -0.218 OA
HETATM    9  O13 UNL     1      -3.708  -1.867  -2.058  1.00  0.00    -0.218 OA
ENDROOT
BRANCH   4  10
HETATM   10  O6  UNL     1       0.739  -1.264   0.976  1.00  0.00    -0.299 OA
BRANCH  10  11
HETATM   11  C7  UNL     1       1.635  -0.216   0.978  1.00  0.00     0.147 A 
HETATM   12  C8  UNL     1       2.367  -0.104   2.110  1.00  0.00     0.155 A 
HETATM   13  C9  UNL     1       3.283   0.866   2.251  1.00  0.00     0.036 A 
HETATM   14  O10 UNL     1       2.196  -0.995   3.128  1.00  0.00    -0.188 OA
HETATM   15  C10 UNL     1       3.511   1.755   1.274  1.00  0.00     0.069 A 
HETATM   16  C11 UNL     1       2.782   1.641   0.154  1.00  0.00     0.036 A 
HETATM   17  C12 UNL     1       1.843   0.691  -0.008  1.00  0.00     0.155 A 
HETATM   18  O7  UNL     1       1.196   0.662  -1.206  1.00  0.00    -0.188 OA
BRANCH  15  19
HETATM   19  C13 UNL     1       4.454   2.729   1.405  1.00  0.00     0.211 C 
HETATM   20  O8  UNL     1       5.125   2.821   2.409  1.00  0.00    -0.644 OA
HETATM   21  O9  UNL     1       4.728   3.636   0.440  1.00  0.00    -0.644 OA
ENDBRANCH  15  19
ENDBRANCH  10  11
ENDBRANCH   4  10
BRANCH   6  22
HETATM   22  C6  UNL     1      -2.643   0.838  -1.321  1.00  0.00     0.198 C 
BRANCH  22  23
HETATM   23  O2  UNL     1      -1.692   1.854  -1.523  1.00  0.00    -0.235 OA
BRANCH  23  24
HETATM   24  S1  UNL     1      -2.179   3.408  -1.166  1.00  0.00     0.252 S 
HETATM   25  O3  UNL     1      -2.328   3.506   0.486  1.00  0.00    -0.572 OA
HETATM   26  O4  UNL     1      -1.132   4.334  -1.563  1.00  0.00    -0.572 OA
HETATM   27  O5  UNL     1      -3.489   3.648  -1.747  1.00  0.00    -0.572 OA
ENDBRANCH  23  24
ENDBRANCH  22  23
ENDBRANCH   6  22
TORSDOF 6
