REMARK  2 active torsions:
REMARK  status: ('A' for Active; 'I' for Inactive)
REMARK    1  A    between atoms: C14_16  and  O3_20 
REMARK    2  A    between atoms: C19_23  and  O4_26 
ROOT
HETATM    1  C1  UNL     1      -1.647  -0.396   0.377  1.00  0.00    -0.002 A 
HETATM    2  C2  UNL     1      -0.936  -1.535   0.230  1.00  0.00     0.002 A 
HETATM    3  C3  UNL     1       0.419  -1.472   0.214  1.00  0.00     0.002 A 
HETATM    4  C4  UNL     1       1.052  -0.290   0.397  1.00  0.00    -0.000 A 
HETATM    5  C5  UNL     1       0.330   0.841   0.564  1.00  0.00     0.009 A 
HETATM    6  C6  UNL     1      -1.016   0.791   0.493  1.00  0.00     0.008 A 
HETATM    7  C7  UNL     1      -1.764   2.104   0.628  1.00  0.00     0.205 C 
HETATM    8  C8  UNL     1      -1.060   3.314   0.013  1.00  0.00     0.254 C 
HETATM    9  N1  UNL     1       0.389   3.241   0.019  1.00  0.00     0.142 N 
HETATM   10  C9  UNL     1       0.922   2.212   0.881  1.00  0.00     0.277 C 
HETATM   11  C10 UNL     1       0.843   3.137  -1.355  1.00  0.00     0.251 C 
HETATM   12  C11 UNL     1      -0.149   4.022  -2.118  1.00  0.00     0.037 C 
HETATM   13  C12 UNL     1      -1.455   3.562  -1.461  1.00  0.00     0.038 C 
HETATM   14  O1  UNL     1      -2.014   2.298   2.008  1.00  0.00    -0.216 OA
HETATM   15  C13 UNL     1       2.402  -0.282   0.408  1.00  0.00     0.026 A 
HETATM   16  C14 UNL     1       3.182  -1.367   0.250  1.00  0.00     0.119 A 
HETATM   17  C15 UNL     1       2.545  -2.533   0.052  1.00  0.00     0.153 A 
HETATM   18  C16 UNL     1       1.204  -2.556   0.042  1.00  0.00     0.029 A 
HETATM   19  O2  UNL     1       3.267  -3.674  -0.130  1.00  0.00    -0.188 OA
HETATM   20  C18 UNL     1      -1.628  -2.693   0.124  1.00  0.00     0.024 A 
HETATM   21  C19 UNL     1      -2.970  -2.804   0.151  1.00  0.00     0.094 A 
HETATM   22  C20 UNL     1      -3.633  -1.653   0.334  1.00  0.00     0.024 A 
HETATM   23  C21 UNL     1      -2.990  -0.485   0.441  1.00  0.00     0.002 A 
ENDROOT
BRANCH  16  24
HETATM   24  O3  UNL     1       4.558  -1.379   0.245  1.00  0.00    -0.326 OA
HETATM   25  C17 UNL     1       5.264  -0.161   0.288  1.00  0.00     0.181 C 
ENDBRANCH  16  24
BRANCH  21  26
HETATM   26  O4  UNL     1      -3.691  -3.973   0.076  1.00  0.00    -0.328 OA
HETATM   27  C22 UNL     1      -3.017  -5.205   0.197  1.00  0.00     0.181 C 
ENDBRANCH  21  26
TORSDOF 2
