REMARK  31 active torsions:
REMARK  status: ('A' for Active; 'I' for Inactive)
REMARK    1  A    between atoms: C1_1  and  O4_62 
REMARK    2  A    between atoms: C2_2  and  O3_60 
REMARK    3  A    between atoms: C4_4  and  C8_9 
REMARK    4  A    between atoms: C8_9  and  C9_10 
REMARK    5  A    between atoms: C10_11  and  C11_12 
REMARK    6  A    between atoms: C11_12  and  C12_13 
REMARK    7  A    between atoms: C12_13  and  C13_14 
REMARK    8  A    between atoms: C14_15  and  C15_16 
REMARK    9  A    between atoms: C15_16  and  C16_17 
REMARK   10  A    between atoms: C16_17  and  C17_18 
REMARK   11  A    between atoms: C18_19  and  C19_20 
REMARK   12  A    between atoms: C19_20  and  C20_21 
REMARK   13  A    between atoms: C20_21  and  C21_22 
REMARK   14  A    between atoms: C22_23  and  C23_24 
REMARK   15  A    between atoms: C23_24  and  C24_25 
REMARK   16  A    between atoms: C24_25  and  C25_26 
REMARK   17  A    between atoms: C26_27  and  C27_28 
REMARK   18  A    between atoms: C27_28  and  C28_29 
REMARK   19  A    between atoms: C28_29  and  C29_30 
REMARK   20  A    between atoms: C30_31  and  C31_32 
REMARK   21  A    between atoms: C31_32  and  C32_33 
REMARK   22  A    between atoms: C32_33  and  C33_34 
REMARK   23  A    between atoms: C34_35  and  C35_36 
REMARK   24  A    between atoms: C35_36  and  C36_37 
REMARK   25  A    between atoms: C36_37  and  C37_38 
REMARK   26  A    between atoms: C38_39  and  C39_40 
REMARK   27  A    between atoms: C39_40  and  C40_41 
REMARK   28  A    between atoms: C40_41  and  C41_42 
REMARK   29  A    between atoms: C42_43  and  C43_44 
REMARK   30  A    between atoms: C43_44  and  C44_45 
REMARK   31  A    between atoms: C44_45  and  C45_46 
ROOT
HETATM    1  C21 UNL     1       3.548   2.530   0.814  1.00  0.00    -0.034 C 
HETATM    2  C22 UNL     1       2.684   1.959  -0.048  1.00  0.00    -0.048 C 
HETATM    3  C54 UNL     1       2.081   2.715  -1.211  1.00  0.00     0.026 C 
ENDROOT
BRANCH   2   4
HETATM    4  C23 UNL     1       2.246   0.509   0.091  1.00  0.00     0.026 C 
BRANCH   4   5
HETATM    5  C24 UNL     1       0.728   0.370   0.310  1.00  0.00     0.030 C 
BRANCH   5   6
HETATM    6  C25 UNL     1       0.234  -1.059   0.386  1.00  0.00    -0.034 C 
HETATM    7  C26 UNL     1      -1.032  -1.454   0.149  1.00  0.00    -0.048 C 
HETATM    8  C53 UNL     1      -2.140  -0.488  -0.209  1.00  0.00     0.026 C 
BRANCH   7   9
HETATM    9  C27 UNL     1      -1.461  -2.909   0.247  1.00  0.00     0.026 C 
BRANCH   9  10
HETATM   10  C28 UNL     1      -1.874  -3.514  -1.105  1.00  0.00     0.030 C 
BRANCH  10  11
HETATM   11  C29 UNL     1      -2.607  -4.828  -0.933  1.00  0.00    -0.034 C 
HETATM   12  C30 UNL     1      -3.944  -4.990  -0.904  1.00  0.00    -0.048 C 
HETATM   13  C52 UNL     1      -4.920  -3.840  -1.010  1.00  0.00     0.026 C 
BRANCH  12  14
HETATM   14  C31 UNL     1      -4.582  -6.363  -0.765  1.00  0.00     0.026 C 
BRANCH  14  15
HETATM   15  C32 UNL     1      -5.307  -6.819  -2.044  1.00  0.00     0.030 C 
BRANCH  15  16
HETATM   16  C33 UNL     1      -6.065  -8.110  -1.828  1.00  0.00    -0.034 C 
HETATM   17  C34 UNL     1      -7.378  -8.342  -2.026  1.00  0.00    -0.048 C 
HETATM   18  C51 UNL     1      -8.368  -7.308  -2.513  1.00  0.00     0.026 C 
BRANCH  17  19
HETATM   19  C35 UNL     1      -7.975  -9.718  -1.775  1.00  0.00     0.026 C 
BRANCH  19  20
HETATM   20  C36 UNL     1      -8.415 -10.431  -3.063  1.00  0.00     0.030 C 
BRANCH  20  21
HETATM   21  C37 UNL     1      -9.033 -11.778  -2.762  1.00  0.00    -0.034 C 
HETATM   22  C38 UNL     1     -10.346 -12.061  -2.671  1.00  0.00    -0.048 C 
HETATM   23  C50 UNL     1     -11.436 -11.027  -2.837  1.00  0.00     0.026 C 
BRANCH  22  24
HETATM   24  C39 UNL     1     -10.825 -13.476  -2.390  1.00  0.00     0.026 C 
BRANCH  24  25
HETATM   25  C40 UNL     1     -11.623 -14.077  -3.562  1.00  0.00     0.030 C 
BRANCH  25  26
HETATM   26  C41 UNL     1     -12.061 -15.499  -3.291  1.00  0.00    -0.034 C 
HETATM   27  C42 UNL     1     -13.197 -16.089  -3.710  1.00  0.00    -0.048 C 
HETATM   28  C49 UNL     1     -14.241 -15.396  -4.559  1.00  0.00     0.026 C 
BRANCH  27  29
HETATM   29  C43 UNL     1     -13.567 -17.526  -3.382  1.00  0.00     0.026 C 
BRANCH  29  30
HETATM   30  C44 UNL     1     -12.589 -18.343  -2.521  1.00  0.00     0.030 C 
BRANCH  30  31
HETATM   31  C45 UNL     1     -13.079 -19.752  -2.282  1.00  0.00    -0.034 C 
HETATM   32  C46 UNL     1     -12.406 -20.709  -1.617  1.00  0.00    -0.048 C 
HETATM   33  C47 UNL     1     -12.977 -22.096  -1.441  1.00  0.00     0.026 C 
HETATM   34  C48 UNL     1     -11.046 -20.500  -0.996  1.00  0.00     0.026 C 
ENDBRANCH  30  31
ENDBRANCH  29  30
ENDBRANCH  27  29
ENDBRANCH  25  26
ENDBRANCH  24  25
ENDBRANCH  22  24
ENDBRANCH  20  21
ENDBRANCH  19  20
ENDBRANCH  17  19
ENDBRANCH  15  16
ENDBRANCH  14  15
ENDBRANCH  12  14
ENDBRANCH  10  11
ENDBRANCH   9  10
ENDBRANCH   7   9
ENDBRANCH   5   6
ENDBRANCH   4   5
ENDBRANCH   2   4
BRANCH   1  35
HETATM   35  C20 UNL     1       3.971   3.982   0.776  1.00  0.00     0.030 C 
BRANCH  35  36
HETATM   36  C19 UNL     1       4.696   4.446   2.052  1.00  0.00     0.026 C 
BRANCH  36  37
HETATM   37  C18 UNL     1       4.960   5.943   2.112  1.00  0.00    -0.048 C 
HETATM   38  C17 UNL     1       6.202   6.444   2.261  1.00  0.00    -0.034 C 
HETATM   39  C55 UNL     1       3.729   6.821   2.054  1.00  0.00     0.026 C 
BRANCH  38  40
HETATM   40  C16 UNL     1       6.523   7.913   2.419  1.00  0.00     0.030 C 
BRANCH  40  41
HETATM   41  C15 UNL     1       7.992   8.205   2.772  1.00  0.00     0.026 C 
BRANCH  41  42
HETATM   42  C14 UNL     1       8.342   9.643   3.133  1.00  0.00    -0.048 C 
HETATM   43  C13 UNL     1       7.479  10.668   2.988  1.00  0.00    -0.034 C 
HETATM   44  C56 UNL     1       9.744   9.786   3.684  1.00  0.00     0.026 C 
BRANCH  43  45
HETATM   45  C12 UNL     1       7.668  12.113   3.385  1.00  0.00     0.030 C 
BRANCH  45  46
HETATM   46  C11 UNL     1       7.403  13.101   2.238  1.00  0.00     0.026 C 
BRANCH  46  47
HETATM   47  C10 UNL     1       8.536  13.189   1.237  1.00  0.00    -0.048 C 
HETATM   48  C9  UNL     1       9.509  14.117   1.300  1.00  0.00    -0.030 C 
HETATM   49  C57 UNL     1       8.512  12.162   0.129  1.00  0.00     0.026 C 
BRANCH  48  50
HETATM   50  C8  UNL     1       9.649  15.176   2.368  1.00  0.00     0.055 C 
BRANCH  50  51
HETATM   51  C4  UNL     1      11.087  15.658   2.523  1.00  0.00     0.022 A 
HETATM   52  C3  UNL     1      11.385  16.957   2.251  1.00  0.00     0.216 A 
HETATM   53  C2  UNL     1      12.659  17.430   2.393  1.00  0.00     0.158 A 
HETATM   54  O2  UNL     1      10.486  17.683   1.893  1.00  0.00    -0.285 OA
HETATM   55  C1  UNL     1      13.633  16.573   2.786  1.00  0.00     0.158 A 
HETATM   56  C6  UNL     1      13.334  15.271   3.059  1.00  0.00     0.215 A 
HETATM   57  C5  UNL     1      12.060  14.822   2.930  1.00  0.00     0.019 A 
HETATM   58  O1  UNL     1      14.198  14.501   3.421  1.00  0.00    -0.285 OA
HETATM   59  C7  UNL     1      11.822  13.362   3.266  1.00  0.00     0.034 C 
BRANCH  53  60
HETATM   60  O3  UNL     1      13.001  18.735   2.113  1.00  0.00    -0.323 OA
HETATM   61  C58 UNL     1      12.122  19.645   1.498  1.00  0.00     0.182 C 
ENDBRANCH  53  60
BRANCH  55  62
HETATM   62  O4  UNL     1      14.964  16.871   3.010  1.00  0.00    -0.323 OA
HETATM   63  C59 UNL     1      15.401  18.196   3.194  1.00  0.00     0.182 C 
ENDBRANCH  55  62
ENDBRANCH  50  51
ENDBRANCH  48  50
ENDBRANCH  46  47
ENDBRANCH  45  46
ENDBRANCH  43  45
ENDBRANCH  41  42
ENDBRANCH  40  41
ENDBRANCH  38  40
ENDBRANCH  36  37
ENDBRANCH  35  36
ENDBRANCH   1  35
TORSDOF 31
