REMARK  2 active torsions:
REMARK  status: ('A' for Active; 'I' for Inactive)
REMARK    1  A    between atoms: C12_14  and  C16_20 
REMARK    2  A    between atoms: C13_15  and  O4_18 
ROOT
HETATM    1  C1  UNL     1       3.043   1.631  -0.164  1.00  0.00     0.094 A 
HETATM    2  C2  UNL     1       2.694   2.916  -0.263  1.00  0.00     0.051 A 
HETATM    3  C3  UNL     1       1.397   3.277  -0.288  1.00  0.00     0.138 A 
HETATM    4  C4  UNL     1       0.452   2.305  -0.197  1.00  0.00     0.089 A 
HETATM    5  C5  UNL     1       0.795   1.006  -0.076  1.00  0.00     0.103 A 
HETATM    6  C6  UNL     1       2.103   0.690  -0.066  1.00  0.00     0.025 A 
HETATM    7  C7  UNL     1       2.748  -0.670   0.088  1.00  0.00     0.048 C 
HETATM    8  C8  UNL     1       4.216  -0.216  -0.141  1.00  0.00     0.125 C 
HETATM    9  O1  UNL     1       4.197   1.210  -0.143  1.00  0.00    -0.333 OA
HETATM   10  C9  UNL     1       5.279  -0.746   0.826  1.00  0.00     0.033 C 
HETATM   11  C10 UNL     1       2.320  -1.675  -0.993  1.00  0.00     0.007 C 
HETATM   12  C11 UNL     1       2.473  -1.224   1.495  1.00  0.00     0.007 C 
HETATM   13  O2  UNL     1      -0.126   0.018   0.059  1.00  0.00    -0.305 OA
HETATM   14  C12 UNL     1      -1.452   0.297  -0.138  1.00  0.00     0.125 C 
HETATM   15  C13 UNL     1      -1.830   1.600  -0.207  1.00  0.00     0.156 C 
HETATM   16  C14 UNL     1      -0.881   2.587  -0.229  1.00  0.00     0.224 C 
HETATM   17  O3  UNL     1      -1.268   3.730  -0.321  1.00  0.00    -0.284 OA
HETATM   18  O6  UNL     1       1.156   4.618  -0.389  1.00  0.00    -0.190 OA
ENDROOT
BRANCH  14  19
HETATM   19  C16 UNL     1      -2.285  -0.784  -0.206  1.00  0.00     0.025 A 
HETATM   20  C17 UNL     1      -1.754  -2.016  -0.020  1.00  0.00     0.004 A 
HETATM   21  C18 UNL     1      -2.462  -3.155  -0.073  1.00  0.00     0.028 A 
HETATM   22  C19 UNL     1      -3.778  -3.147  -0.321  1.00  0.00     0.131 A 
HETATM   23  C20 UNL     1      -4.336  -1.942  -0.503  1.00  0.00     0.028 A 
HETATM   24  O5  UNL     1      -4.511  -4.290  -0.385  1.00  0.00    -0.190 OA
HETATM   25  C21 UNL     1      -3.615  -0.810  -0.444  1.00  0.00     0.004 A 
ENDBRANCH  14  19
BRANCH  15  26
HETATM   26  O4  UNL     1      -3.112   2.047  -0.428  1.00  0.00    -0.323 OA
HETATM   27  C15 UNL     1      -3.817   2.388   0.747  1.00  0.00     0.182 C 
ENDBRANCH  15  26
TORSDOF 2
