REMARK  15 active torsions:
REMARK  status: ('A' for Active; 'I' for Inactive)
REMARK    1  A    between atoms: C2_2  and  O25_77 
REMARK    2  A    between atoms: C4_4  and  C52_74 
REMARK    3  A    between atoms: C20_21  and  O2_24 
REMARK    4  A    between atoms: O2_24  and  C23_25 
REMARK    5  A    between atoms: C24_27  and  C46_66 
REMARK    6  A    between atoms: C26_29  and  O10_43 
REMARK    7  A    between atoms: C27_30  and  O4_31 
REMARK    8  A    between atoms: O4_31  and  C28_32 
REMARK    9  A    between atoms: C32_36  and  C33_38 
REMARK   10  A    between atoms: O10_43  and  C34_44 
REMARK   11  A    between atoms: C35_46  and  C45_63 
REMARK   12  A    between atoms: C37_48  and  O13_51 
REMARK   13  A    between atoms: O13_51  and  C39_52 
REMARK   14  A    between atoms: O25_77  and  C53_78 
REMARK   15  A    between atoms: C53_78  and  C54_79 
ROOT
HETATM    1  C23 UNL     1       1.442   0.509   1.623  1.00  0.00     0.267 C 
HETATM    2  O3  UNL     1       2.360   0.191   2.660  1.00  0.00    -0.318 OA
HETATM    3  C24 UNL     1       1.731  -0.111   3.892  1.00  0.00     0.237 C 
HETATM    4  C25 UNL     1       0.856  -1.360   3.783  1.00  0.00     0.219 C 
HETATM    5  C26 UNL     1       0.576  -1.742   2.332  1.00  0.00     0.183 C 
HETATM    6  C27 UNL     1       0.249  -0.435   1.595  1.00  0.00     0.204 C 
HETATM    7  O20 UNL     1      -0.356  -1.157   4.484  1.00  0.00    -0.217 OA
ENDROOT
BRANCH   1   8
HETATM    8  O2  UNL     1       2.192   0.369   0.428  1.00  0.00    -0.332 OA
BRANCH   8   9
HETATM    9  C20 UNL     1       1.953   1.342  -0.564  1.00  0.00     0.118 C 
HETATM   10  C19 UNL     1       2.370   0.793  -1.950  1.00  0.00     0.025 C 
HETATM   11  C16 UNL     1       3.924   0.784  -2.163  1.00  0.00     0.002 C 
HETATM   12  C47 UNL     1       1.706  -0.587  -2.172  1.00  0.00     0.002 C 
HETATM   13  C48 UNL     1       1.701   1.699  -3.028  1.00  0.00     0.002 C 
HETATM   14  C15 UNL     1       4.789   1.576  -1.134  1.00  0.00     0.001 C 
HETATM   15  C17 UNL     1       4.599  -0.549  -2.540  1.00  0.00     0.000 C 
HETATM   16  C12 UNL     1       6.212   1.776  -1.756  1.00  0.00     0.005 C 
HETATM   17  C22 UNL     1       4.026   2.903  -0.911  1.00  0.00     0.003 C 
HETATM   18  C49 UNL     1       4.929   0.935   0.261  1.00  0.00     0.000 C 
HETATM   19  C11 UNL     1       6.976   0.485  -2.203  1.00  0.00     0.004 C 
HETATM   20  C13 UNL     1       7.104   2.737  -0.945  1.00  0.00     0.025 C 
HETATM   21  C8  UNL     1       8.324   0.894  -2.946  1.00  0.00     0.017 C 
HETATM   22  C18 UNL     1       6.021  -0.340  -3.107  1.00  0.00     0.000 C 
HETATM   23  C50 UNL     1       7.304  -0.432  -0.993  1.00  0.00     0.000 C 
HETATM   24  C7  UNL     1       9.176   1.689  -1.966  1.00  0.00    -0.049 C 
HETATM   25  C9  UNL     1       9.108  -0.331  -3.489  1.00  0.00     0.037 C 
HETATM   26  C51 UNL     1       8.070   1.826  -4.162  1.00  0.00     0.004 C 
HETATM   27  C5  UNL     1      10.691   1.764  -2.088  1.00  0.00     0.025 C 
HETATM   28  C14 UNL     1       8.583   2.535  -1.105  1.00  0.00    -0.035 C 
HETATM   29  C4  UNL     1      11.409   0.468  -2.516  1.00  0.00     0.093 C 
HETATM   30  C6  UNL     1      11.053   2.998  -2.933  1.00  0.00     0.007 C 
HETATM   31  C3  UNL     1      12.893   0.744  -2.909  1.00  0.00     0.185 C 
HETATM   32  C10 UNL     1      10.627  -0.205  -3.662  1.00  0.00     0.158 C 
HETATM   33  C2  UNL     1      13.263   2.059  -3.599  1.00  0.00     0.155 C 
HETATM   34  O24 UNL     1      13.346  -0.330  -3.704  1.00  0.00    -0.221 OA
HETATM   35  C1  UNL     1      12.560   3.292  -3.003  1.00  0.00     0.029 C 
HETATM   36  C58 UNL     1      12.767   4.515  -3.930  1.00  0.00     0.003 C 
HETATM   37  C59 UNL     1      13.115   3.664  -1.609  1.00  0.00     0.003 C 
HETATM   38  O1  UNL     1      10.928   0.421  -4.885  1.00  0.00    -0.223 OA
HETATM   39  C21 UNL     1       2.629   2.696  -0.277  1.00  0.00     0.030 C 
BRANCH  29  40
HETATM   40  C52 UNL     1      11.524  -0.505  -1.311  1.00  0.00     0.188 C 
HETATM   41  O23 UNL     1      10.284  -0.785  -0.709  1.00  0.00    -0.221 OA
ENDBRANCH  29  40
BRANCH  33  42
HETATM   42  O25 UNL     1      14.641   2.296  -3.490  1.00  0.00    -0.299 OA
BRANCH  42  43
HETATM   43  C53 UNL     1      15.531   1.674  -4.309  1.00  0.00     0.291 C 
HETATM   44  O26 UNL     1      15.138   0.883  -5.158  1.00  0.00    -0.260 OA
BRANCH  43  45
HETATM   45  C54 UNL     1      17.004   1.882  -4.169  1.00  0.00     0.037 C 
HETATM   46  C55 UNL     1      17.897   1.200  -5.178  1.00  0.00     0.036 C 
HETATM   47  C56 UNL     1      17.439   2.658  -3.151  1.00  0.00    -0.025 C 
HETATM   48  C57 UNL     1      18.862   3.005  -2.795  1.00  0.00     0.030 C 
ENDBRANCH  43  45
ENDBRANCH  42  43
ENDBRANCH  33  42
ENDBRANCH   8   9
ENDBRANCH   1   8
BRANCH   6  49
HETATM   49  O4  UNL     1      -0.846   0.150   2.256  1.00  0.00    -0.324 OA
BRANCH  49  50
HETATM   50  C28 UNL     1      -1.632   1.066   1.524  1.00  0.00     0.270 C 
HETATM   51  C29 UNL     1      -3.099   0.814   1.793  1.00  0.00     0.241 C 
HETATM   52  C30 UNL     1      -3.481   1.183   3.211  1.00  0.00     0.220 C 
HETATM   53  O9  UNL     1      -3.880   1.549   0.877  1.00  0.00    -0.215 OA
HETATM   54  C31 UNL     1      -3.074   2.621   3.472  1.00  0.00     0.215 C 
HETATM   55  O8  UNL     1      -2.825   0.322   4.113  1.00  0.00    -0.218 OA
HETATM   56  C32 UNL     1      -1.641   2.934   3.063  1.00  0.00     0.184 C 
HETATM   57  O7  UNL     1      -3.934   3.473   2.751  1.00  0.00    -0.218 OA
HETATM   58  O5  UNL     1      -1.246   2.389   1.829  1.00  0.00    -0.326 OA
BRANCH  56  59
HETATM   59  C33 UNL     1      -0.621   2.693   4.166  1.00  0.00     0.214 C 
HETATM   60  O6  UNL     1      -0.839   3.600   5.230  1.00  0.00    -0.218 OA
ENDBRANCH  56  59
ENDBRANCH  49  50
ENDBRANCH   6  49
BRANCH   3  61
HETATM   61  C46 UNL     1       2.723  -0.206   5.052  1.00  0.00     0.217 C 
HETATM   62  O21 UNL     1       3.696   0.716   4.960  1.00  0.00    -0.646 OA
HETATM   63  O22 UNL     1       2.736  -1.038   5.928  1.00  0.00    -0.646 OA
ENDBRANCH   3  61
BRANCH   5  64
HETATM   64  O10 UNL     1       1.732  -2.379   1.839  1.00  0.00    -0.326 OA
BRANCH  64  65
HETATM   65  C34 UNL     1       1.550  -3.285   0.777  1.00  0.00     0.270 C 
HETATM   66  O11 UNL     1       0.968  -4.477   1.260  1.00  0.00    -0.326 OA
HETATM   67  C35 UNL     1       1.806  -5.369   1.952  1.00  0.00     0.184 C 
HETATM   68  C36 UNL     1       3.133  -5.630   1.242  1.00  0.00     0.211 C 
HETATM   69  C37 UNL     1       3.868  -4.355   0.854  1.00  0.00     0.186 C 
HETATM   70  O18 UNL     1       3.970  -6.429   2.044  1.00  0.00    -0.218 OA
HETATM   71  C38 UNL     1       2.861  -3.533   0.056  1.00  0.00     0.238 C 
HETATM   72  O12 UNL     1       2.592  -4.200  -1.158  1.00  0.00    -0.215 OA
BRANCH  67  73
HETATM   73  C45 UNL     1       1.887  -5.036   3.438  1.00  0.00     0.214 C 
HETATM   74  O19 UNL     1       2.382  -6.155   4.150  1.00  0.00    -0.218 OA
ENDBRANCH  67  73
BRANCH  69  75
HETATM   75  O13 UNL     1       4.326  -3.747   2.032  1.00  0.00    -0.326 OA
BRANCH  75  76
HETATM   76  C39 UNL     1       5.033  -2.540   1.889  1.00  0.00     0.270 C 
HETATM   77  O14 UNL     1       6.340  -2.801   1.436  1.00  0.00    -0.329 OA
HETATM   78  C40 UNL     1       7.229  -3.264   2.413  1.00  0.00     0.151 C 
HETATM   79  C41 UNL     1       7.326  -2.267   3.556  1.00  0.00     0.212 C 
HETATM   80  C44 UNL     1       8.586  -3.464   1.734  1.00  0.00     0.035 C 
HETATM   81  C42 UNL     1       5.975  -2.119   4.216  1.00  0.00     0.220 C 
HETATM   82  O17 UNL     1       8.238  -2.697   4.537  1.00  0.00    -0.218 OA
HETATM   83  C43 UNL     1       4.958  -1.740   3.169  1.00  0.00     0.241 C 
HETATM   84  O16 UNL     1       6.048  -1.080   5.167  1.00  0.00    -0.218 OA
HETATM   85  O15 UNL     1       5.147  -0.376   2.887  1.00  0.00    -0.215 OA
ENDBRANCH  75  76
ENDBRANCH  69  75
ENDBRANCH  64  65
ENDBRANCH   5  64
TORSDOF 15
