REMARK  1 active torsions:
REMARK  status: ('A' for Active; 'I' for Inactive)
REMARK    1  A    between atoms: C12_14  and  C15_18 
ROOT
HETATM    1  C1  UNL     1      -2.996  -1.025   0.466  1.00  0.00     0.094 A 
HETATM    2  C2  UNL     1      -3.027  -2.358   0.415  1.00  0.00     0.051 A 
HETATM    3  C3  UNL     1      -1.892  -3.067   0.273  1.00  0.00     0.138 A 
HETATM    4  C4  UNL     1      -0.714  -2.397   0.191  1.00  0.00     0.082 A 
HETATM    5  C5  UNL     1      -0.667  -1.041   0.244  1.00  0.00     0.097 A 
HETATM    6  C6  UNL     1      -1.833  -0.381   0.364  1.00  0.00     0.024 A 
HETATM    7  C7  UNL     1      -2.068   1.115   0.376  1.00  0.00     0.048 C 
HETATM    8  C8  UNL     1      -3.571   1.065   0.761  1.00  0.00     0.125 C 
HETATM    9  O1  UNL     1      -3.975  -0.294   0.598  1.00  0.00    -0.333 OA
HETATM   10  C9  UNL     1      -4.521   2.014   0.025  1.00  0.00     0.033 C 
HETATM   11  C10 UNL     1      -1.242   1.858   1.437  1.00  0.00     0.007 C 
HETATM   12  C11 UNL     1      -1.809   1.695  -1.025  1.00  0.00     0.007 C 
HETATM   13  O2  UNL     1       0.480  -0.304   0.117  1.00  0.00    -0.329 OA
HETATM   14  C12 UNL     1       1.509  -0.910  -0.612  1.00  0.00     0.151 C 
HETATM   15  C13 UNL     1       1.762  -2.280  -0.008  1.00  0.00     0.104 C 
HETATM   16  C14 UNL     1       0.466  -3.072   0.064  1.00  0.00     0.180 C 
HETATM   17  O3  UNL     1       0.575  -4.276   0.010  1.00  0.00    -0.291 OA
HETATM   18  O5  UNL     1      -2.028  -4.425   0.248  1.00  0.00    -0.190 OA
ENDROOT
BRANCH  14  19
HETATM   19  C15 UNL     1       2.757  -0.046  -0.604  1.00  0.00     0.006 A 
HETATM   20  C16 UNL     1       3.431   0.214  -1.738  1.00  0.00     0.000 A 
HETATM   21  C17 UNL     1       4.533   0.978  -1.726  1.00  0.00     0.027 A 
HETATM   22  C18 UNL     1       5.005   1.508  -0.586  1.00  0.00     0.131 A 
HETATM   23  C19 UNL     1       4.331   1.245   0.546  1.00  0.00     0.027 A 
HETATM   24  O4  UNL     1       6.123   2.283  -0.569  1.00  0.00    -0.190 OA
HETATM   25  C20 UNL     1       3.227   0.482   0.539  1.00  0.00     0.000 A 
ENDBRANCH  14  19
TORSDOF 1
