REMARK  5 active torsions:
REMARK  status: ('A' for Active; 'I' for Inactive)
REMARK    1  A    between atoms: C10_11  and  O2_12 
REMARK    2  A    between atoms: O2_12  and  C11_13 
REMARK    3  A    between atoms: C11_13  and  C12_14 
REMARK    4  A    between atoms: C17_21  and  O8_31 
REMARK    5  A    between atoms: O8_31  and  C24_32 
ROOT
HETATM    1  C1  UNL     1      -3.771   0.733  -1.610  1.00  0.00     0.203 C 
HETATM    2  C2  UNL     1      -4.030  -0.351  -0.843  1.00  0.00     0.032 C 
HETATM    3  C3  UNL     1      -3.098  -0.933  -0.067  1.00  0.00    -0.039 C 
HETATM    4  C4  UNL     1      -1.652  -0.432  -0.081  1.00  0.00     0.052 C 
HETATM    5  C5  UNL     1      -1.642   1.126  -0.227  1.00  0.00     0.046 C 
HETATM    6  C6  UNL     1      -2.390   1.352  -1.565  1.00  0.00     0.213 C 
HETATM    7  O1  UNL     1      -2.570   2.720  -1.879  1.00  0.00    -0.215 OA
HETATM    8  C7  UNL     1      -0.186   1.689  -0.341  1.00  0.00     0.065 C 
HETATM    9  C8  UNL     1       0.905   1.022   0.521  1.00  0.00     0.063 C 
HETATM   10  C9  UNL     1       0.748  -0.480   0.707  1.00  0.00     0.155 C 
HETATM   11  C10 UNL     1      -0.694  -0.903   1.030  1.00  0.00     0.156 C 
HETATM   12  O4  UNL     1       1.167  -1.242  -0.391  1.00  0.00    -0.300 OA
HETATM   13  C16 UNL     1       1.777  -0.763  -1.499  1.00  0.00     0.300 C 
HETATM   14  C17 UNL     1       2.510   0.571  -1.392  1.00  0.00     0.210 C 
HETATM   15  C18 UNL     1       2.323   1.294  -0.055  1.00  0.00     0.045 C 
HETATM   16  C19 UNL     1       2.653   2.809  -0.091  1.00  0.00     0.039 C 
HETATM   17  C20 UNL     1       1.438   3.645  -0.498  1.00  0.00     0.206 C 
HETATM   18  C21 UNL     1       0.157   3.111   0.112  1.00  0.00     0.247 C 
HETATM   19  O5  UNL     1      -0.847   4.061  -0.127  1.00  0.00    -0.193 OA
HETATM   20  O6  UNL     1       0.278   3.078   1.504  1.00  0.00    -0.331 OA
HETATM   21  C22 UNL     1       0.742   1.793   1.841  1.00  0.00     0.147 C 
HETATM   22  O7  UNL     1       1.272   3.675  -1.894  1.00  0.00    -0.218 OA
HETATM   23  C23 UNL     1       3.922   3.227  -0.850  1.00  0.00     0.003 C 
HETATM   24  O10 UNL     1       1.843  -1.414  -2.520  1.00  0.00    -0.262 OA
HETATM   25  C26 UNL     1      -2.465   1.751   0.928  1.00  0.00     0.004 C 
HETATM   26  C27 UNL     1      -3.505  -2.143   0.740  1.00  0.00     0.026 C 
HETATM   27  O11 UNL     1      -4.585   1.272  -2.326  1.00  0.00    -0.289 OA
ENDROOT
BRANCH  11  28
HETATM   28  O2  UNL     1      -0.683  -2.304   1.149  1.00  0.00    -0.298 OA
BRANCH  28  29
HETATM   29  C11 UNL     1      -0.742  -2.891   2.387  1.00  0.00     0.291 C 
HETATM   30  O3  UNL     1      -0.679  -2.199   3.380  1.00  0.00    -0.260 OA
BRANCH  29  31
HETATM   31  C12 UNL     1      -0.912  -4.235   2.556  1.00  0.00     0.037 C 
HETATM   32  C13 UNL     1      -1.030  -4.760   3.972  1.00  0.00     0.036 C 
HETATM   33  C14 UNL     1      -0.981  -5.025   1.465  1.00  0.00    -0.025 C 
HETATM   34  C15 UNL     1      -1.147  -6.522   1.425  1.00  0.00     0.030 C 
ENDBRANCH  29  31
ENDBRANCH  28  29
ENDBRANCH  11  28
BRANCH  14  35
HETATM   35  O8  UNL     1       3.888   0.357  -1.619  1.00  0.00    -0.294 OA
BRANCH  35  36
HETATM   36  C24 UNL     1       4.489   0.414  -2.846  1.00  0.00     0.273 C 
HETATM   37  O9  UNL     1       5.670   0.174  -2.983  1.00  0.00    -0.264 OA
HETATM   38  C25 UNL     1       3.635   0.839  -4.029  1.00  0.00     0.106 C 
ENDBRANCH  35  36
ENDBRANCH  14  35
TORSDOF 5
