REMARK  4 active torsions:
REMARK  status: ('A' for Active; 'I' for Inactive)
REMARK    1  A    between atoms: C7_8  and  C11_14 
REMARK    2  A    between atoms: C8_9  and  O3_12 
REMARK    3  A    between atoms: C12_15  and  C13_16 
REMARK    4  A    between atoms: C13_16  and  C14_17 
ROOT
HETATM    1  C1  UNL     1      -3.442   2.847   0.474  1.00  0.00     0.032 A 
HETATM    2  C2  UNL     1      -2.956   4.032   0.867  1.00  0.00     0.156 A 
HETATM    3  C3  UNL     1      -1.631   4.171   1.073  1.00  0.00     0.161 A 
HETATM    4  C4  UNL     1      -0.810   3.111   0.890  1.00  0.00     0.091 A 
HETATM    5  C5  UNL     1      -1.297   1.927   0.486  1.00  0.00     0.105 A 
HETATM    6  C6  UNL     1      -2.620   1.811   0.278  1.00  0.00     0.027 A 
HETATM    7  O1  UNL     1      -0.492   0.867   0.235  1.00  0.00    -0.305 OA
HETATM    8  C7  UNL     1       0.782   0.861   0.726  1.00  0.00     0.125 C 
HETATM    9  C8  UNL     1       1.325   2.070   1.039  1.00  0.00     0.156 C 
HETATM   10  C9  UNL     1       0.533   3.188   1.103  1.00  0.00     0.224 C 
HETATM   11  O2  UNL     1       1.044   4.244   1.410  1.00  0.00    -0.284 OA
HETATM   12  O6  UNL     1      -1.193   5.397   1.479  1.00  0.00    -0.188 OA
HETATM   13  O7  UNL     1      -3.798   5.083   1.057  1.00  0.00    -0.188 OA
ENDROOT
BRANCH   8  14
HETATM   14  C11 UNL     1       1.417  -0.353   0.768  1.00  0.00     0.023 A 
HETATM   15  C12 UNL     1       0.938  -1.464   0.135  1.00  0.00    -0.014 A 
HETATM   16  C18 UNL     1       1.538  -2.656   0.329  1.00  0.00     0.026 A 
HETATM   17  C19 UNL     1       2.638  -2.828   1.070  1.00  0.00     0.156 A 
HETATM   18  C20 UNL     1       3.161  -1.744   1.656  1.00  0.00     0.156 A 
HETATM   19  O5  UNL     1       3.212  -4.049   1.230  1.00  0.00    -0.188 OA
HETATM   20  C21 UNL     1       2.533  -0.567   1.501  1.00  0.00     0.031 A 
HETATM   21  O4  UNL     1       4.269  -1.879   2.435  1.00  0.00    -0.188 OA
BRANCH  15  22
HETATM   22  C13 UNL     1      -0.245  -1.482  -0.835  1.00  0.00     0.052 C 
BRANCH  22  23
HETATM   23  C14 UNL     1      -0.261  -2.555  -1.900  1.00  0.00    -0.030 C 
HETATM   24  C15 UNL     1      -1.352  -3.075  -2.494  1.00  0.00    -0.048 C 
HETATM   25  C16 UNL     1      -1.225  -4.116  -3.583  1.00  0.00     0.026 C 
HETATM   26  C17 UNL     1      -2.775  -2.674  -2.186  1.00  0.00     0.026 C 
ENDBRANCH  22  23
ENDBRANCH  15  22
ENDBRANCH   8  14
BRANCH   9  27
HETATM   27  O3  UNL     1       2.623   2.294   1.442  1.00  0.00    -0.323 OA
HETATM   28  C10 UNL     1       3.509   2.577   0.381  1.00  0.00     0.182 C 
ENDBRANCH   9  27
TORSDOF 4
