REMARK  4 active torsions:
REMARK  status: ('A' for Active; 'I' for Inactive)
REMARK    1  A    between atoms: C7_8  and  C11_14 
REMARK    2  A    between atoms: C8_9  and  O3_12 
REMARK    3  A    between atoms: C13_16  and  C17_22 
REMARK    4  A    between atoms: C17_22  and  C18_23 
ROOT
HETATM    1  C1  UNL     1      -3.905   3.726   0.880  1.00  0.00     0.135 A 
HETATM    2  C2  UNL     1      -3.286   4.871   1.197  1.00  0.00     0.055 A 
HETATM    3  C3  UNL     1      -1.958   4.954   1.388  1.00  0.00     0.138 A 
HETATM    4  C4  UNL     1      -1.217   3.830   1.252  1.00  0.00     0.089 A 
HETATM    5  C5  UNL     1      -1.803   2.664   0.935  1.00  0.00     0.107 A 
HETATM    6  C6  UNL     1      -3.136   2.636   0.757  1.00  0.00     0.052 A 
HETATM    7  O1  UNL     1      -1.103   1.512   0.789  1.00  0.00    -0.305 OA
HETATM    8  C7  UNL     1       0.257   1.518   0.965  1.00  0.00     0.125 A 
HETATM    9  C8  UNL     1       0.874   2.694   1.253  1.00  0.00     0.156 A 
HETATM   10  C9  UNL     1       0.134   3.835   1.422  1.00  0.00     0.224 A 
HETATM   11  O2  UNL     1       0.710   4.860   1.716  1.00  0.00    -0.284 OA
HETATM   12  O6  UNL     1      -1.436   6.173   1.703  1.00  0.00    -0.190 OA
HETATM   13  O7  UNL     1      -5.251   3.665   0.690  1.00  0.00    -0.190 OA
ENDROOT
BRANCH   8  14
HETATM   14  C11 UNL     1       0.869   0.305   0.812  1.00  0.00     0.027 A 
HETATM   15  C12 UNL     1       0.098  -0.770   0.527  1.00  0.00     0.000 A 
HETATM   16  C13 UNL     1       0.564  -2.013   0.318  1.00  0.00     0.010 A 
HETATM   17  C14 UNL     1       1.886  -2.240   0.383  1.00  0.00     0.152 A 
HETATM   18  C15 UNL     1       2.701  -1.214   0.673  1.00  0.00     0.156 A 
HETATM   19  O5  UNL     1       2.405  -3.470   0.127  1.00  0.00    -0.188 OA
HETATM   20  C16 UNL     1       2.183   0.009   0.885  1.00  0.00     0.032 A 
HETATM   21  O4  UNL     1       4.043  -1.435   0.735  1.00  0.00    -0.188 OA
BRANCH  16  22
HETATM   22  C17 UNL     1      -0.383  -3.150  -0.014  1.00  0.00     0.054 C 
BRANCH  22  23
HETATM   23  C18 UNL     1      -0.314  -3.406  -1.497  1.00  0.00    -0.030 C 
HETATM   24  C19 UNL     1       0.104  -4.516  -2.131  1.00  0.00    -0.048 C 
HETATM   25  C20 UNL     1       0.117  -4.577  -3.643  1.00  0.00     0.026 C 
HETATM   26  C21 UNL     1       0.594  -5.780  -1.467  1.00  0.00     0.026 C 
ENDBRANCH  22  23
ENDBRANCH  16  22
ENDBRANCH   8  14
BRANCH   9  27
HETATM   27  O3  UNL     1       2.211   2.840   1.542  1.00  0.00    -0.323 OA
HETATM   28  C10 UNL     1       2.995   3.313   0.467  1.00  0.00     0.182 C 
ENDBRANCH   9  27
TORSDOF 4
