REMARK  0 active torsions:
REMARK  status: ('A' for Active; 'I' for Inactive)
ROOT
HETATM    1  N1  UNL     1      -1.889   0.801  -0.246  1.00  0.00    -0.151 NA
HETATM    2  C1  UNL     1      -1.805  -0.432  -0.849  1.00  0.00     0.369 C 
HETATM    3  N2  UNL     1      -0.636  -1.129  -0.742  1.00  0.00    -0.188 NA
HETATM    4  C2  UNL     1       0.308  -0.746   0.293  1.00  0.00     0.260 C 
HETATM    5  C3  UNL     1       0.313   0.762   0.400  1.00  0.00     0.167 C 
HETATM    6  C4  UNL     1      -0.818   1.498   0.261  1.00  0.00     0.301 C 
HETATM    7  O1  UNL     1      -0.900   2.691   0.431  1.00  0.00    -0.264 OA
HETATM    8  N3  UNL     1       1.500   1.188   0.583  1.00  0.00    -0.187 NA
HETATM    9  C5  UNL     1       2.361   0.264   0.436  1.00  0.00     0.366 C 
HETATM   10  N4  UNL     1       1.734  -0.903   0.144  1.00  0.00    -0.188 NA
HETATM   11  O2  UNL     1       3.564   0.358   0.483  1.00  0.00    -0.243 OA
HETATM   12  O3  UNL     1      -2.716  -0.851  -1.518  1.00  0.00    -0.243 OA
ENDROOT
TORSDOF 0
