REMARK  14 active torsions:
REMARK  status: ('A' for Active; 'I' for Inactive)
REMARK    1  A    between atoms: C1_1  and  C32_42 
REMARK    2  A    between atoms: C2_2  and  C3_3 
REMARK    3  A    between atoms: C3_3  and  C4_4 
REMARK    4  A    between atoms: C7_7  and  C26_32 
REMARK    5  A    between atoms: C8_8  and  C9_10 
REMARK    6  A    between atoms: C9_10  and  C10_11 
REMARK    7  A    between atoms: C11_12  and  C23_27 
REMARK    8  A    between atoms: C13_14  and  C14_16 
REMARK    9  A    between atoms: C14_16  and  C15_17 
REMARK   10  A    between atoms: C17_19  and  C19_23 
REMARK   11  A    between atoms: C23_27  and  C24_28 
REMARK   12  A    between atoms: C24_28  and  C25_29 
REMARK   13  A    between atoms: C26_32  and  C27_33 
REMARK   14  A    between atoms: C27_33  and  C28_34 
ROOT
HETATM    1  C9  UNL     1      -1.802   1.507  -0.826  1.00  0.00     0.037 C 
ENDROOT
BRANCH   1   2
HETATM    2  C8  UNL     1      -0.955   1.003  -1.739  1.00  0.00     0.078 A 
HETATM    3  C7  UNL     1      -0.750   1.327  -3.034  1.00  0.00    -0.007 A 
HETATM    4  C5  UNL     1       0.205   0.487  -3.486  1.00  0.00    -0.011 A 
HETATM    5  C4  UNL     1       0.546  -0.330  -2.478  1.00  0.00     0.057 A 
HETATM    6  C6  UNL     1       0.787   0.421  -4.871  1.00  0.00     0.032 C 
HETATM    7  N1  UNL     1      -0.163   0.040  -1.495  1.00  0.00    -0.250 NA
BRANCH   3   8
HETATM    8  C26 UNL     1      -1.375   2.381  -3.924  1.00  0.00     0.039 C 
BRANCH   8   9
HETATM    9  C27 UNL     1      -2.461   3.328  -3.397  1.00  0.00     0.102 C 
BRANCH   9  10
HETATM   10  C28 UNL     1      -2.942   4.318  -4.444  1.00  0.00     0.186 C 
HETATM   11  O4  UNL     1      -3.949   5.078  -3.974  1.00  0.00    -0.647 OA
HETATM   12  O5  UNL     1      -2.521   4.453  -5.568  1.00  0.00    -0.647 OA
ENDBRANCH   9  10
ENDBRANCH   8   9
ENDBRANCH   3   8
BRANCH   5  13
HETATM   13  C3  UNL     1       1.526  -1.472  -2.538  1.00  0.00     0.074 C 
BRANCH  13  14
HETATM   14  C2  UNL     1       2.107  -1.874  -1.177  1.00  0.00     0.131 A 
HETATM   15  C1  UNL     1       3.463  -1.298  -0.870  1.00  0.00    -0.021 A 
HETATM   16  C30 UNL     1       4.359  -2.286  -0.668  1.00  0.00     0.030 A 
HETATM   17  C29 UNL     1       3.790  -3.509  -0.833  1.00  0.00     0.271 A 
HETATM   18  C31 UNL     1       5.811  -2.146  -0.301  1.00  0.00     0.035 C 
HETATM   19  N4  UNL     1       2.488  -3.278  -1.139  1.00  0.00    -0.232 NA
HETATM   20  O6  UNL     1       4.270  -4.609  -0.742  1.00  0.00    -0.266 OA
BRANCH  15  21
HETATM   21  C32 UNL     1       3.680   0.189  -0.799  1.00  0.00     0.024 C 
HETATM   22  C33 UNL     1       2.958   0.820   0.397  1.00  0.00     0.005 C 
ENDBRANCH  15  21
ENDBRANCH  13  14
ENDBRANCH   5  13
ENDBRANCH   1   2
BRANCH   1  23
HETATM   23  C10 UNL     1      -1.906   1.186   0.476  1.00  0.00     0.078 A 
HETATM   24  C11 UNL     1      -2.815   1.685   1.339  1.00  0.00    -0.007 A 
HETATM   25  C12 UNL     1      -2.544   1.140   2.536  1.00  0.00    -0.011 A 
HETATM   26  C13 UNL     1      -1.483   0.350   2.326  1.00  0.00     0.057 A 
HETATM   27  C22 UNL     1      -3.231   1.384   3.847  1.00  0.00     0.032 C 
HETATM   28  N2  UNL     1      -1.153   0.386   1.108  1.00  0.00    -0.250 NA
BRANCH  24  29
HETATM   29  C23 UNL     1      -3.927   2.663   1.054  1.00  0.00     0.039 C 
BRANCH  29  30
HETATM   30  C24 UNL     1      -3.450   4.113   1.228  1.00  0.00     0.102 C 
BRANCH  30  31
HETATM   31  C25 UNL     1      -4.555   5.129   1.011  1.00  0.00     0.186 C 
HETATM   32  O2  UNL     1      -4.202   6.348   1.458  1.00  0.00    -0.647 OA
HETATM   33  O3  UNL     1      -5.638   4.927   0.516  1.00  0.00    -0.647 OA
ENDBRANCH  30  31
ENDBRANCH  29  30
ENDBRANCH  24  29
BRANCH  26  34
HETATM   34  C14 UNL     1      -0.714  -0.450   3.342  1.00  0.00     0.074 C 
BRANCH  34  35
HETATM   35  C15 UNL     1       0.477  -1.237   2.781  1.00  0.00     0.131 A 
HETATM   36  C16 UNL     1       0.164  -2.654   2.387  1.00  0.00    -0.021 A 
HETATM   37  C17 UNL     1       0.908  -3.521   3.103  1.00  0.00     0.029 A 
HETATM   38  C21 UNL     1      -0.849  -2.962   1.323  1.00  0.00     0.028 C 
HETATM   39  C18 UNL     1       1.724  -2.868   3.972  1.00  0.00     0.271 A 
HETATM   40  N3  UNL     1       1.468  -1.544   3.802  1.00  0.00    -0.232 NA
HETATM   41  O1  UNL     1       2.525  -3.296   4.762  1.00  0.00    -0.266 OA
BRANCH  37  42
HETATM   42  C19 UNL     1       0.902  -5.022   2.987  1.00  0.00     0.031 C 
HETATM   43  C20 UNL     1       2.020  -5.492   2.048  1.00  0.00     0.005 C 
ENDBRANCH  37  42
ENDBRANCH  34  35
ENDBRANCH  26  34
ENDBRANCH   1  23
TORSDOF 14
