REMARK  5 active torsions:
REMARK  status: ('A' for Active; 'I' for Inactive)
REMARK    1  A    between atoms: C4_4  and  O5_21 
REMARK    2  A    between atoms: C9_9  and  O1_11 
REMARK    3  A    between atoms: O1_11  and  C11_12 
REMARK    4  A    between atoms: O5_21  and  C17_22 
REMARK    5  A    between atoms: C17_22  and  C18_24 
ROOT
HETATM    1  C1  UNL     1      -0.992  -1.605   0.726  1.00  0.00    -0.032 C 
HETATM    2  C2  UNL     1      -1.683  -1.122  -0.325  1.00  0.00    -0.046 C 
HETATM    3  C3  UNL     1      -1.022  -0.973  -1.683  1.00  0.00     0.052 C 
HETATM    4  C4  UNL     1       0.261  -0.118  -1.730  1.00  0.00     0.135 C 
HETATM    5  C5  UNL     1       0.096   1.411  -1.533  1.00  0.00     0.088 C 
HETATM    6  C6  UNL     1      -0.311   1.984  -0.147  1.00  0.00     0.152 C 
HETATM    7  C7  UNL     1      -0.120   1.062   1.031  1.00  0.00    -0.002 C 
HETATM    8  C8  UNL     1      -0.935   0.830   2.079  1.00  0.00    -0.018 C 
HETATM    9  C9  UNL     1      -0.683  -0.431   2.902  1.00  0.00     0.147 C 
HETATM   10  C10 UNL     1      -1.406  -1.591   2.183  1.00  0.00     0.060 C 
HETATM   11  C13 UNL     1      -2.191   1.609   2.391  1.00  0.00     0.029 C 
HETATM   12  O3  UNL     1      -1.619   2.491  -0.286  1.00  0.00    -0.296 OA
HETATM   13  C14 UNL     1      -1.915   2.550  -1.608  1.00  0.00     0.292 C 
HETATM   14  C15 UNL     1      -0.975   2.008  -2.416  1.00  0.00     0.046 C 
HETATM   15  C16 UNL     1      -1.046   2.009  -3.754  1.00  0.00     0.001 C 
HETATM   16  O4  UNL     1      -2.943   3.050  -2.011  1.00  0.00    -0.259 OA
HETATM   17  C22 UNL     1      -3.132  -0.700  -0.282  1.00  0.00     0.026 C 
ENDROOT
BRANCH   4  18
HETATM   18  O5  UNL     1       0.843  -0.323  -2.994  1.00  0.00    -0.302 OA
BRANCH  18  19
HETATM   19  C17 UNL     1       2.176  -0.532  -3.212  1.00  0.00     0.299 C 
HETATM   20  O6  UNL     1       2.649  -0.537  -4.330  1.00  0.00    -0.262 OA
BRANCH  19  21
HETATM   21  C18 UNL     1       3.006  -0.825  -2.038  1.00  0.00     0.195 A 
HETATM   22  O7  UNL     1       4.158  -1.922  -2.271  1.00  0.00    -0.347 OA
HETATM   23  C19 UNL     1       3.027  -2.147  -1.464  1.00  0.00     0.150 A 
HETATM   24  C20 UNL     1       2.187  -3.263  -2.066  1.00  0.00     0.035 C 
HETATM   25  C21 UNL     1       3.551   0.347  -1.236  1.00  0.00     0.043 C 
ENDBRANCH  19  21
ENDBRANCH  18  19
ENDBRANCH   4  18
BRANCH   9  26
HETATM   26  O1  UNL     1      -1.153  -0.370   4.226  1.00  0.00    -0.300 OA
BRANCH  26  27
HETATM   27  C11 UNL     1      -0.562   0.409   5.178  1.00  0.00     0.273 C 
HETATM   28  O2  UNL     1      -0.988   0.472   6.312  1.00  0.00    -0.264 OA
HETATM   29  C12 UNL     1       0.670   1.191   4.755  1.00  0.00     0.106 C 
ENDBRANCH  26  27
ENDBRANCH   9  26
TORSDOF 5
