REMARK  3 active torsions:
REMARK  status: ('A' for Active; 'I' for Inactive)
REMARK    1  A    between atoms: C3_3  and  O4_20 
REMARK    2  A    between atoms: C7_8  and  C10_12 
REMARK    3  A    between atoms: C11_13  and  O3_14 
ROOT
HETATM    1  C1  UNL     1      -1.667  -2.428  -0.167  1.00  0.00     0.123 A 
HETATM    2  C2  UNL     1      -2.267  -1.394  -0.872  1.00  0.00     0.141 A 
HETATM    3  C3  UNL     1      -1.696  -0.126  -0.992  1.00  0.00     0.123 A 
HETATM    4  C4  UNL     1      -0.398  -0.001  -0.440  1.00  0.00     0.081 A 
HETATM    5  C5  UNL     1       0.229  -1.026   0.312  1.00  0.00     0.101 A 
HETATM    6  C6  UNL     1      -0.419  -2.264   0.424  1.00  0.00     0.051 A 
HETATM    7  O1  UNL     1       1.485  -0.910   0.846  1.00  0.00    -0.328 OA
HETATM    8  C7  UNL     1       2.340   0.013   0.222  1.00  0.00     0.153 C 
HETATM    9  C8  UNL     1       1.662   1.376   0.156  1.00  0.00     0.104 C 
HETATM   10  C9  UNL     1       0.327   1.293  -0.557  1.00  0.00     0.180 C 
HETATM   11  O2  UNL     1      -0.095   2.284  -1.143  1.00  0.00    -0.291 OA
HETATM   12  O5  UNL     1      -3.486  -1.837  -1.358  1.00  0.00    -0.298 OA
HETATM   13  C18 UNL     1      -3.651  -3.200  -0.949  1.00  0.00     0.304 A 
HETATM   14  O6  UNL     1      -2.478  -3.542  -0.202  1.00  0.00    -0.299 OA
ENDROOT
BRANCH   8  15
HETATM   15  C10 UNL     1       3.660   0.126   0.972  1.00  0.00     0.028 A 
HETATM   16  C11 UNL     1       4.878   0.304   0.286  1.00  0.00     0.092 A 
HETATM   17  C13 UNL     1       6.057   0.297   1.047  1.00  0.00     0.024 A 
HETATM   18  C14 UNL     1       6.048   0.262   2.441  1.00  0.00     0.002 A 
HETATM   19  C15 UNL     1       4.830   0.188   3.113  1.00  0.00    -0.000 A 
HETATM   20  C16 UNL     1       3.651   0.109   2.373  1.00  0.00     0.000 A 
BRANCH  16  21
HETATM   21  O3  UNL     1       4.945   0.297  -1.083  1.00  0.00    -0.328 OA
HETATM   22  C12 UNL     1       5.252   1.550  -1.651  1.00  0.00     0.181 C 
ENDBRANCH  16  21
ENDBRANCH   8  15
BRANCH   3  23
HETATM   23  O4  UNL     1      -2.280   0.807  -1.806  1.00  0.00    -0.326 OA
HETATM   24  C17 UNL     1      -3.192   1.650  -1.140  1.00  0.00     0.181 C 
ENDBRANCH   3  23
TORSDOF 3
