REMARK  2 active torsions:
REMARK  status: ('A' for Active; 'I' for Inactive)
REMARK    1  A    between atoms: C8_9  and  C10_11 
REMARK    2  A    between atoms: C10_11  and  C11_12 
ROOT
HETATM    1  C1  UNL     1      -4.528   1.502  -1.663  1.00  0.00     0.063 C 
HETATM    2  C2  UNL     1      -4.465   0.012  -1.558  1.00  0.00    -0.003 A 
HETATM    3  C3  UNL     1      -3.316  -0.678  -1.484  1.00  0.00     0.086 A 
HETATM    4  C4  UNL     1      -1.970  -0.005  -1.517  1.00  0.00     0.259 C 
HETATM    5  N1  UNL     1      -2.104   1.421  -1.216  1.00  0.00     0.145 N 
HETATM    6  C5  UNL     1      -3.136   2.047  -2.033  1.00  0.00     0.256 C 
HETATM    7  C6  UNL     1      -0.819   2.089  -1.356  1.00  0.00     0.273 C 
HETATM    8  C7  UNL     1       0.154   1.500  -0.357  1.00  0.00    -0.015 C 
HETATM    9  C8  UNL     1       0.413   0.029  -0.637  1.00  0.00     0.028 C 
HETATM   10  C9  UNL     1      -0.959  -0.672  -0.567  1.00  0.00     0.044 C 
HETATM   11  C22 UNL     1       0.688   2.175   0.678  1.00  0.00    -0.032 C 
HETATM   12  C23 UNL     1       0.460   3.616   1.052  1.00  0.00     0.030 C 
HETATM   13  N4  UNL     1      -3.620  -1.912  -1.419  1.00  0.00    -0.248 NA
HETATM   14  C24 UNL     1      -4.877  -2.084  -1.435  1.00  0.00     0.081 A 
HETATM   15  C25 UNL     1      -5.460  -0.882  -1.522  1.00  0.00     0.015 A 
HETATM   16  C26 UNL     1      -6.791  -0.753  -1.560  1.00  0.00     0.001 A 
HETATM   17  C27 UNL     1      -7.528  -1.877  -1.510  1.00  0.00     0.000 A 
HETATM   18  C28 UNL     1      -6.942  -3.086  -1.425  1.00  0.00     0.002 A 
HETATM   19  C29 UNL     1      -5.603  -3.206  -1.386  1.00  0.00     0.019 A 
ENDROOT
BRANCH   9  20
HETATM   20  C10 UNL     1       1.446  -0.681   0.259  1.00  0.00     0.051 C 
BRANCH  20  21
HETATM   21  C11 UNL     1       2.856  -0.136   0.200  1.00  0.00     0.077 A 
HETATM   22  N2  UNL     1       3.157   0.640  -0.759  1.00  0.00    -0.247 NA
HETATM   23  C12 UNL     1       4.321   1.139  -0.833  1.00  0.00     0.099 A 
HETATM   24  C13 UNL     1       5.314   0.913   0.044  1.00  0.00     0.022 A 
HETATM   25  C14 UNL     1       5.009   0.094   1.054  1.00  0.00     0.022 A 
HETATM   26  C15 UNL     1       3.778  -0.429   1.128  1.00  0.00     0.095 A 
HETATM   27  C17 UNL     1       5.690  -0.374   2.107  1.00  0.00     0.019 A 
HETATM   28  N3  UNL     1       3.724  -1.165   2.161  1.00  0.00    -0.244 NA
HETATM   29  C16 UNL     1       4.836  -1.165   2.774  1.00  0.00     0.081 A 
HETATM   30  C21 UNL     1       5.208  -1.799   3.892  1.00  0.00     0.019 A 
HETATM   31  C20 UNL     1       6.468  -1.616   4.325  1.00  0.00     0.002 A 
HETATM   32  C19 UNL     1       7.323  -0.821   3.656  1.00  0.00     0.000 A 
HETATM   33  C18 UNL     1       6.945  -0.186   2.533  1.00  0.00     0.002 A 
ENDBRANCH  20  21
ENDBRANCH   9  20
TORSDOF 2
