REMARK  1 active torsions:
REMARK  status: ('A' for Active; 'I' for Inactive)
REMARK    1  A    between atoms: C3_3  and  C15_19 
ROOT
HETATM    1  C1  UNL     1       0.941   2.673  -0.565  1.00  0.00     0.055 C 
HETATM    2  C2  UNL     1       0.889   1.349  -0.768  1.00  0.00     0.133 C 
HETATM    3  C3  UNL     1      -0.106   0.651  -0.166  1.00  0.00     0.028 C 
HETATM    4  C4  UNL     1      -1.221   1.431  -0.081  1.00  0.00     0.008 C 
HETATM    5  C5  UNL     1      -1.223   2.771   0.116  1.00  0.00     0.051 C 
HETATM    6  C6  UNL     1      -0.025   3.387   0.028  1.00  0.00     0.135 C 
HETATM    7  O1  UNL     1       0.217   4.712   0.209  1.00  0.00    -0.190 OA
HETATM    8  C7  UNL     1      -2.382   3.434   0.370  1.00  0.00     0.138 C 
HETATM    9  C8  UNL     1      -3.568   2.792   0.235  1.00  0.00     0.087 A 
HETATM   10  C9  UNL     1      -3.599   1.516  -0.192  1.00  0.00     0.105 A 
HETATM   11  C10 UNL     1      -2.421   0.903  -0.372  1.00  0.00     0.025 C 
HETATM   12  O2  UNL     1      -4.742   0.818  -0.467  1.00  0.00    -0.311 OA
HETATM   13  C11 UNL     1      -5.898   1.465  -0.179  1.00  0.00     0.081 A 
HETATM   14  C12 UNL     1      -5.910   2.729   0.267  1.00  0.00     0.062 A 
HETATM   15  C13 UNL     1      -4.760   3.422   0.467  1.00  0.00     0.201 A 
HETATM   16  O3  UNL     1      -4.890   4.559   0.864  1.00  0.00    -0.286 OA
HETATM   17  C14 UNL     1      -7.175   0.692  -0.400  1.00  0.00     0.058 C 
HETATM   18  O4  UNL     1      -2.403   4.771   0.641  1.00  0.00    -0.190 OA
HETATM   19  O10 UNL     1       1.933   0.795  -1.450  1.00  0.00    -0.190 OA
ENDROOT
BRANCH   3  20
HETATM   20  C15 UNL     1      -0.037  -0.691   0.132  1.00  0.00     0.028 C 
HETATM   21  C16 UNL     1      -1.041  -1.416   0.690  1.00  0.00     0.133 C 
HETATM   22  O5  UNL     1      -2.166  -0.915   1.278  1.00  0.00    -0.190 OA
HETATM   23  C17 UNL     1      -0.991  -2.754   0.625  1.00  0.00     0.055 C 
HETATM   24  C18 UNL     1       0.038  -3.462   0.143  1.00  0.00     0.135 C 
HETATM   25  C19 UNL     1       1.190  -2.772  -0.008  1.00  0.00     0.051 C 
HETATM   26  O9  UNL     1      -0.110  -4.818   0.124  1.00  0.00    -0.190 OA
HETATM   27  C20 UNL     1       1.115  -1.425   0.109  1.00  0.00     0.008 C 
HETATM   28  C24 UNL     1       2.377  -3.392  -0.244  1.00  0.00     0.138 C 
HETATM   29  C21 UNL     1       2.293  -0.833   0.376  1.00  0.00     0.025 C 
HETATM   30  C22 UNL     1       3.498  -1.398   0.218  1.00  0.00     0.105 A 
HETATM   31  C23 UNL     1       3.534  -2.691  -0.155  1.00  0.00     0.087 A 
HETATM   32  O7  UNL     1       4.603  -0.624   0.443  1.00  0.00    -0.311 OA
HETATM   33  C25 UNL     1       4.759  -3.252  -0.387  1.00  0.00     0.201 A 
HETATM   34  C26 UNL     1       5.870  -2.484  -0.249  1.00  0.00     0.062 A 
HETATM   35  O8  UNL     1       4.942  -4.393  -0.742  1.00  0.00    -0.286 OA
HETATM   36  C27 UNL     1       5.790  -1.206   0.143  1.00  0.00     0.081 A 
HETATM   37  C28 UNL     1       7.020  -0.343   0.286  1.00  0.00     0.058 C 
HETATM   38  O6  UNL     1       2.397  -4.733  -0.484  1.00  0.00    -0.190 OA
ENDBRANCH   3  20
TORSDOF 1
