REMARK  7 active torsions:
REMARK  status: ('A' for Active; 'I' for Inactive)
REMARK    1  A    between atoms: C3_3  and  C7_7 
REMARK    2  A    between atoms: C7_7  and  O1_8 
REMARK    3  A    between atoms: O1_8  and  C8_9 
REMARK    4  A    between atoms: C10_11  and  C14_16 
REMARK    5  A    between atoms: C14_16  and  O3_17 
REMARK    6  A    between atoms: O3_17  and  C15_18 
REMARK    7  A    between atoms: C15_18  and  C16_19 
ROOT
HETATM    1  C8  UNL     1       0.113  -2.465  -0.559  1.00  0.00     0.179 C 
HETATM    2  C9  UNL     1       0.244  -0.979  -0.877  1.00  0.00     0.217 C 
HETATM    3  C10 UNL     1       1.467  -0.355  -0.212  1.00  0.00     0.217 C 
HETATM    4  C11 UNL     1       2.727  -1.032  -0.746  1.00  0.00     0.207 C 
HETATM    5  C12 UNL     1       2.570  -2.503  -1.022  1.00  0.00     0.007 C 
HETATM    6  C13 UNL     1       1.398  -3.150  -0.962  1.00  0.00     0.004 C 
HETATM    7  O2  UNL     1       3.762  -0.837   0.202  1.00  0.00    -0.216 OA
HETATM    8  O5  UNL     1       1.390  -0.621   1.165  1.00  0.00    -0.218 OA
HETATM    9  O6  UNL     1      -0.924  -0.317  -0.468  1.00  0.00    -0.218 OA
ENDROOT
BRANCH   3  10
HETATM   10  C14 UNL     1       1.553   1.166  -0.369  1.00  0.00     0.188 C 
BRANCH  10  11
HETATM   11  O3  UNL     1       0.667   1.758   0.537  1.00  0.00    -0.296 OA
BRANCH  11  12
HETATM   12  C15 UNL     1       0.238   3.064   0.516  1.00  0.00     0.296 C 
HETATM   13  O4  UNL     1      -0.644   3.291   1.324  1.00  0.00    -0.259 OA
BRANCH  12  14
HETATM   14  C16 UNL     1       0.639   4.138  -0.239  1.00  0.00     0.063 A 
HETATM   15  C17 UNL     1       1.649   4.122  -1.132  1.00  0.00     0.005 A 
HETATM   16  C18 UNL     1       1.991   5.208  -1.845  1.00  0.00     0.000 A 
HETATM   17  C19 UNL     1       1.330   6.362  -1.685  1.00  0.00     0.000 A 
HETATM   18  C20 UNL     1       0.329   6.412  -0.798  1.00  0.00     0.000 A 
HETATM   19  C21 UNL     1      -0.002   5.320  -0.091  1.00  0.00     0.005 A 
ENDBRANCH  12  14
ENDBRANCH  11  12
ENDBRANCH  10  11
ENDBRANCH   3  10
BRANCH   1  20
HETATM   20  O1  UNL     1      -0.979  -3.001  -1.260  1.00  0.00    -0.294 OA
BRANCH  20  21
HETATM   21  C7  UNL     1      -2.100  -3.569  -0.699  1.00  0.00     0.296 C 
HETATM   22  O7  UNL     1      -2.705  -4.300  -1.463  1.00  0.00    -0.259 OA
BRANCH  21  23
HETATM   23  C3  UNL     1      -2.670  -3.419   0.541  1.00  0.00     0.063 A 
HETATM   24  C2  UNL     1      -3.733  -4.186   0.873  1.00  0.00     0.005 A 
HETATM   25  C1  UNL     1      -4.337  -4.101   2.069  1.00  0.00     0.000 A 
HETATM   26  C6  UNL     1      -3.903  -3.224   2.983  1.00  0.00     0.000 A 
HETATM   27  C5  UNL     1      -2.867  -2.433   2.673  1.00  0.00     0.000 A 
HETATM   28  C4  UNL     1      -2.270  -2.533   1.475  1.00  0.00     0.005 A 
ENDBRANCH  21  23
ENDBRANCH  20  21
ENDBRANCH   1  20
TORSDOF 7
