REMARK  2 active torsions:
REMARK  status: ('A' for Active; 'I' for Inactive)
REMARK    1  A    between atoms: C3_3  and  C8_8 
REMARK    2  A    between atoms: C9_9  and  C10_10 
ROOT
HETATM    1  C1  UNL     1      -0.124   1.449  -0.121  1.00  0.00     0.018 C 
HETATM    2  C2  UNL     1      -0.124  -0.058   0.021  1.00  0.00    -0.049 C 
HETATM    3  C3  UNL     1       1.179  -0.676   0.440  1.00  0.00     0.040 C 
HETATM    4  C4  UNL     1       1.355  -0.270   1.917  1.00  0.00     0.008 C 
HETATM    5  C5  UNL     1       0.865   1.170   2.200  1.00  0.00     0.001 C 
HETATM    6  C6  UNL     1       0.825   2.055   0.938  1.00  0.00     0.004 C 
HETATM    7  C7  UNL     1       0.535   3.526   1.270  1.00  0.00     0.000 C 
HETATM    8  C12 UNL     1      -1.343  -0.591  -0.139  1.00  0.00    -0.051 C 
HETATM    9  C13 UNL     1      -2.347   0.473  -0.486  1.00  0.00     0.022 C 
HETATM   10  C14 UNL     1      -1.634   1.762  -0.019  1.00  0.00     0.008 C 
HETATM   11  C15 UNL     1      -2.103   2.980  -0.823  1.00  0.00     0.001 C 
HETATM   12  C16 UNL     1      -1.794  -2.018  -0.034  1.00  0.00     0.026 C 
ENDROOT
BRANCH   3  13
HETATM   13  C8  UNL     1       1.346  -2.153   0.184  1.00  0.00    -0.021 C 
HETATM   14  C9  UNL     1       1.459  -2.805  -0.991  1.00  0.00     0.039 C 
HETATM   15  C11 UNL     1       1.606  -4.316  -0.988  1.00  0.00     0.037 C 
BRANCH  14  16
HETATM   16  C10 UNL     1       1.442  -2.177  -2.199  1.00  0.00     0.206 C 
HETATM   17  O1  UNL     1       1.545  -2.834  -3.211  1.00  0.00    -0.644 OA
HETATM   18  O2  UNL     1       1.317  -0.848  -2.394  1.00  0.00    -0.644 OA
ENDBRANCH  14  16
ENDBRANCH   3  13
TORSDOF 2
