REMARK  6 active torsions:
REMARK  status: ('A' for Active; 'I' for Inactive)
REMARK    1  A    between atoms: C2_2  and  C18_26 
REMARK    2  A    between atoms: C3_4  and  C17_23 
REMARK    3  A    between atoms: C5_6  and  C6_7 
REMARK    4  A    between atoms: C6_7  and  C7_8 
REMARK    5  A    between atoms: C7_8  and  N2_9 
REMARK    6  A    between atoms: C8_10  and  C16_20 
ROOT
HETATM    1  N2  UNL     1       3.462   1.395  -0.526  1.00  0.00    -0.345 N 
HETATM    2  C8  UNL     1       3.992   2.651   0.070  1.00  0.00     0.169 C 
HETATM    3  C9  UNL     1       3.209   3.767  -0.633  1.00  0.00     0.036 C 
HETATM    4  C10 UNL     1       1.876   3.257  -1.141  1.00  0.00     0.030 C 
HETATM    5  C11 UNL     1       1.715   1.762  -1.517  1.00  0.00     0.088 C 
HETATM    6  C12 UNL     1       0.842   1.579  -0.252  1.00  0.00     0.078 C 
HETATM    7  C13 UNL     1      -0.555   2.158  -0.218  1.00  0.00     0.131 C 
HETATM    8  C14 UNL     1      -0.675   3.528  -0.853  1.00  0.00     0.130 C 
HETATM    9  C15 UNL     1       0.661   4.155  -1.176  1.00  0.00     0.058 C 
HETATM   10  O1  UNL     1      -1.698   4.317  -0.431  1.00  0.00    -0.193 OA
HETATM   11  O2  UNL     1      -1.365   1.870   0.834  1.00  0.00    -0.193 OA
ENDROOT
BRANCH   1  12
HETATM   12  C7  UNL     1       4.197   0.237  -0.958  1.00  0.00     0.049 C 
BRANCH  12  13
HETATM   13  C6  UNL     1       3.615  -0.895  -1.761  1.00  0.00     0.066 C 
BRANCH  13  14
HETATM   14  C5  UNL     1       3.167  -2.154  -1.057  1.00  0.00    -0.037 C 
HETATM   15  C1  UNL     1       4.197  -3.162  -0.619  1.00  0.00     0.070 C 
HETATM   16  C2  UNL     1       4.186  -3.400   0.897  1.00  0.00     0.347 C 
HETATM   17  N1  UNL     1       2.919  -3.989   1.404  1.00  0.00     0.362 N 
HETATM   18  C3  UNL     1       1.274  -3.330   0.383  1.00  0.00     0.364 C 
HETATM   19  C4  UNL     1       1.786  -2.164  -0.449  1.00  0.00     0.012 C 
BRANCH  16  20
HETATM   20  C18 UNL     1       4.587  -2.156   1.682  1.00  0.00     0.221 C 
HETATM   21  O7  UNL     1       5.705  -1.908   2.067  1.00  0.00    -0.646 OA
HETATM   22  O8  UNL     1       3.546  -1.329   1.883  1.00  0.00    -0.646 OA
ENDBRANCH  16  20
BRANCH  18  23
HETATM   23  C17 UNL     1       1.052  -4.415  -0.689  1.00  0.00     0.225 C 
HETATM   24  O5  UNL     1       0.167  -4.184  -1.643  1.00  0.00    -0.646 OA
HETATM   25  O6  UNL     1       1.747  -5.570  -0.652  1.00  0.00    -0.646 OA
ENDBRANCH  18  23
ENDBRANCH  13  14
ENDBRANCH  12  13
ENDBRANCH   1  12
BRANCH   2  26
HETATM   26  C16 UNL     1       3.577   2.286   1.463  1.00  0.00     0.207 C 
HETATM   27  O3  UNL     1       4.135   1.259   1.897  1.00  0.00    -0.646 OA
HETATM   28  O4  UNL     1       2.600   2.869   1.967  1.00  0.00    -0.646 OA
ENDBRANCH   2  26
TORSDOF 6
