REMARK  2 active torsions:
REMARK  status: ('A' for Active; 'I' for Inactive)
REMARK    1  A    between atoms: C3_4  and  C10_11 
REMARK    2  A    between atoms: C10_11  and  O1_12 
ROOT
HETATM    1  C1  UNL     1      -1.095  -2.361   0.092  1.00  0.00     0.094 A 
HETATM    2  N1  UNL     1       0.043  -2.917   0.088  1.00  0.00    -0.243 NA
HETATM    3  C2  UNL     1       1.064  -2.192  -0.112  1.00  0.00     0.097 A 
HETATM    4  C3  UNL     1       1.049  -0.861  -0.324  1.00  0.00     0.022 A 
HETATM    5  C4  UNL     1      -0.165  -0.288  -0.315  1.00  0.00    -0.025 A 
HETATM    6  C5  UNL     1      -1.248  -1.046  -0.108  1.00  0.00    -0.007 A 
HETATM    7  C6  UNL     1      -2.526  -0.253  -0.127  1.00  0.00     0.024 C 
HETATM    8  C7  UNL     1      -2.043   1.047  -0.813  1.00  0.00     0.009 C 
HETATM    9  C8  UNL     1      -0.531   1.157  -0.517  1.00  0.00     0.026 C 
HETATM   10  C9  UNL     1      -3.043  -0.009   1.296  1.00  0.00     0.005 C 
ENDROOT
BRANCH   4  11
HETATM   11  C10 UNL     1       2.314  -0.065  -0.556  1.00  0.00     0.170 C 
BRANCH  11  12
HETATM   12  O1  UNL     1       2.411   1.005   0.366  1.00  0.00    -0.347 OA
HETATM   13  C11 UNL     1       3.591   1.758   0.187  1.00  0.00     0.175 C 
ENDBRANCH  11  12
ENDBRANCH   4  11
TORSDOF 2
