REMARK  11 active torsions:
REMARK  status: ('A' for Active; 'I' for Inactive)
REMARK    1  A    between atoms: C1_1  and  C2_2 
REMARK    2  A    between atoms: C1_1  and  C12_13 
REMARK    3  A    between atoms: C2_2  and  C3_3 
REMARK    4  A    between atoms: C3_3  and  C4_4 
REMARK    5  A    between atoms: C4_4  and  C5_5 
REMARK    6  A    between atoms: C5_5  and  C6_6 
REMARK    7  A    between atoms: C6_6  and  C7_7 
REMARK    8  A    between atoms: C7_7  and  C8_8 
REMARK    9  A    between atoms: C12_13  and  C13_14 
REMARK   10  A    between atoms: C13_14  and  O2_15 
REMARK   11  A    between atoms: O2_15  and  C14_16 
ROOT
HETATM    1  C3  UNL     1      -0.170  -1.223  -0.138  1.00  0.00    -0.009 C 
ENDROOT
BRANCH   1   2
HETATM    2  C2  UNL     1      -1.360  -1.240  -0.138  1.00  0.00    -0.051 C 
BRANCH   2   3
HETATM    3  C1  UNL     1      -2.797  -1.260  -0.138  1.00  0.00     0.048 C 
BRANCH   3   4
HETATM    4  C12 UNL     1      -3.498  -0.115  -0.138  1.00  0.00     0.015 C 
BRANCH   4   5
HETATM    5  C13 UNL     1      -5.000  -0.191  -0.138  1.00  0.00     0.179 C 
BRANCH   5   6
HETATM    6  O2  UNL     1      -5.539   1.063   0.250  1.00  0.00    -0.297 OA
BRANCH   6   7
HETATM    7  C14 UNL     1      -6.869   1.059   0.270  1.00  0.00     0.273 C 
HETATM    8  C15 UNL     1      -7.508   2.361   0.674  1.00  0.00     0.106 C 
HETATM    9  O3  UNL     1      -7.545   0.096  -0.011  1.00  0.00    -0.264 OA
ENDBRANCH   6   7
ENDBRANCH   5   6
ENDBRANCH   4   5
ENDBRANCH   3   4
ENDBRANCH   2   3
ENDBRANCH   1   2
BRANCH   1  10
HETATM   10  C4  UNL     1       1.209  -1.205  -0.138  1.00  0.00    -0.009 C 
BRANCH  10  11
HETATM   11  C5  UNL     1       2.400  -1.187  -0.138  1.00  0.00    -0.050 C 
BRANCH  11  12
HETATM   12  C6  UNL     1       3.836  -1.168  -0.138  1.00  0.00     0.052 C 
BRANCH  12  13
HETATM   13  C7  UNL     1       4.506  -0.004  -0.138  1.00  0.00     0.034 C 
BRANCH  13  14
HETATM   14  C8  UNL     1       5.961  -0.004  -0.138  1.00  0.00     0.101 A 
HETATM   15  O1  UNL     1       6.600   1.201  -0.138  1.00  0.00    -0.305 OA
HETATM   16  C9  UNL     1       7.922   0.858  -0.138  1.00  0.00     0.123 A 
HETATM   17  C10 UNL     1       8.111  -0.531  -0.138  1.00  0.00     0.029 A 
HETATM   18  C11 UNL     1       6.834  -1.094  -0.138  1.00  0.00     0.027 A 
ENDBRANCH  13  14
ENDBRANCH  12  13
ENDBRANCH  11  12
ENDBRANCH  10  11
ENDBRANCH   1  10
TORSDOF 11
