REMARK  0 active torsions:
REMARK  status: ('A' for Active; 'I' for Inactive)
ROOT
HETATM    1  C1  UNL     1       3.786  -2.573   2.206  1.00  0.00     0.000 A 
HETATM    2  C2  UNL     1       2.936  -3.602   1.804  1.00  0.00     0.002 A 
HETATM    3  C3  UNL     1       1.649  -3.307   1.351  1.00  0.00     0.019 A 
HETATM    4  C4  UNL     1       1.197  -1.986   1.299  1.00  0.00     0.087 A 
HETATM    5  C5  UNL     1       2.055  -0.949   1.711  1.00  0.00     0.083 A 
HETATM    6  C6  UNL     1       3.351  -1.249   2.156  1.00  0.00     0.006 A 
HETATM    7  C7  UNL     1       1.583   0.478   1.612  1.00  0.00     0.370 C 
HETATM    8  N1  UNL     1       0.139   0.524   1.542  1.00  0.00     0.109 N 
HETATM    9  C8  UNL     1      -0.538  -0.533   0.986  1.00  0.00     0.241 C 
HETATM   10  N2  UNL     1      -0.106  -1.738   0.828  1.00  0.00    -0.225 NA
HETATM   11  C9  UNL     1      -1.897  -0.095   0.505  1.00  0.00     0.092 C 
HETATM   12  C10 UNL     1      -1.999   1.304   1.120  1.00  0.00     0.052 C 
HETATM   13  C11 UNL     1      -0.549   1.771   1.281  1.00  0.00     0.273 A 
HETATM   14  C12 UNL     1      -1.957  -0.041  -0.990  1.00  0.00     0.001 A 
HETATM   15  C13 UNL     1      -2.925  -0.773  -1.676  1.00  0.00    -0.002 A 
HETATM   16  C14 UNL     1      -2.981  -0.722  -3.069  1.00  0.00    -0.000 A 
HETATM   17  C15 UNL     1      -2.067   0.060  -3.775  1.00  0.00     0.002 A 
HETATM   18  C16 UNL     1      -1.099   0.792  -3.089  1.00  0.00     0.017 A 
HETATM   19  C17 UNL     1      -1.043   0.742  -1.696  1.00  0.00     0.057 A 
HETATM   20  N3  UNL     1      -0.164   1.407  -1.073  1.00  0.00    -0.307 N 
HETATM   21  C18 UNL     1      -0.106   1.353   0.395  1.00  0.00     0.250 A 
HETATM   22  C19 UNL     1       0.798   2.231  -1.818  1.00  0.00     0.132 C 
HETATM   23  O1  UNL     1       2.306   1.446   1.593  1.00  0.00    -0.258 OA
ENDROOT
TORSDOF 0
