REMARK  0 active torsions:
REMARK  status: ('A' for Active; 'I' for Inactive)
ROOT
HETATM    1  C1  UNL     1      -2.844   1.507   1.301  1.00  0.00     0.000 C 
HETATM    2  C2  UNL     1      -3.382   0.097   1.507  1.00  0.00     0.002 C 
HETATM    3  C3  UNL     1      -2.224  -0.892   1.507  1.00  0.00     0.032 C 
HETATM    4  C4  UNL     1      -0.905  -0.131   1.507  1.00  0.00     0.006 C 
HETATM    5  C5  UNL     1      -0.765   0.642   0.202  1.00  0.00     0.056 C 
HETATM    6  C6  UNL     1      -1.939   1.600   0.051  1.00  0.00     0.004 C 
HETATM    7  C7  UNL     1       0.537   1.432   0.217  1.00  0.00     0.007 C 
HETATM    8  C8  UNL     1       1.712   0.471   0.334  1.00  0.00     0.032 C 
HETATM    9  C9  UNL     1       1.554  -0.375   1.590  1.00  0.00     0.003 C 
HETATM   10  C10 UNL     1       0.249  -1.115   1.640  1.00  0.00     0.000 C 
HETATM   11  C11 UNL     1       3.010   1.264   0.416  1.00  0.00     0.170 C 
HETATM   12  C12 UNL     1       3.470   1.160  -1.278  1.00  0.00    -0.015 C 
HETATM   13  C13 UNL     1       2.363   0.435  -1.976  1.00  0.00     0.021 C 
HETATM   14  C14 UNL     1       1.328   1.440  -2.466  1.00  0.00     0.004 C 
HETATM   15  C15 UNL     1       0.660   2.232  -1.073  1.00  0.00     0.001 C 
HETATM   16  C16 UNL     1       1.749  -0.436  -0.889  1.00  0.00     0.007 C 
HETATM   17  C17 UNL     1       4.590   1.635  -1.833  1.00  0.00    -0.007 C 
HETATM   18  O1  UNL     1       3.957   0.800   1.340  1.00  0.00    -0.219 OA
HETATM   19  C18 UNL     1      -0.753  -0.334  -0.967  1.00  0.00     0.336 C 
HETATM   20  O2  UNL     1       0.183  -1.335  -0.671  1.00  0.00    -0.327 OA
HETATM   21  C19 UNL     1      -0.248  -2.436  -1.424  1.00  0.00     0.180 C 
HETATM   22  C20 UNL     1      -1.813  -2.019  -2.050  1.00  0.00     0.285 C 
HETATM   23  N1  UNL     1      -2.007  -1.035  -1.019  1.00  0.00     0.165 N 
HETATM   24  C21 UNL     1      -2.305  -1.768   0.264  1.00  0.00     0.253 C 
HETATM   25  C22 UNL     1      -2.305  -1.768   2.751  1.00  0.00     0.002 C 
ENDROOT
TORSDOF 0
