REMARK  1 active torsions:
REMARK  status: ('A' for Active; 'I' for Inactive)
REMARK    1  A    between atoms: C13_15  and  O5_20 
ROOT
HETATM    1  O1  UNL     1      -3.995   1.098   0.095  1.00  0.00    -0.333 OA
HETATM    2  C1  UNL     1      -3.880  -0.256  -0.034  1.00  0.00     0.072 C 
HETATM    3  C2  UNL     1      -2.743  -0.947  -0.161  1.00  0.00     0.022 C 
HETATM    4  C3  UNL     1      -1.469  -0.242  -0.141  1.00  0.00     0.024 A 
HETATM    5  C4  UNL     1      -1.485   1.152  -0.080  1.00  0.00     0.033 A 
HETATM    6  C5  UNL     1      -2.804   1.882  -0.090  1.00  0.00     0.145 C 
HETATM    7  C6  UNL     1      -2.761   2.918   1.026  1.00  0.00     0.038 C 
HETATM    8  C7  UNL     1      -0.274   1.857  -0.058  1.00  0.00     0.133 A 
HETATM    9  C8  UNL     1       0.956   1.179  -0.086  1.00  0.00     0.070 A 
HETATM   10  C9  UNL     1       0.967  -0.227  -0.145  1.00  0.00     0.052 A 
HETATM   11  C10 UNL     1      -0.252  -0.927  -0.174  1.00  0.00     0.099 A 
HETATM   12  O2  UNL     1      -0.245  -2.280  -0.233  1.00  0.00    -0.301 OA
HETATM   13  C11 UNL     1       0.972  -2.975  -0.266  1.00  0.00     0.304 A 
HETATM   14  C12 UNL     1       2.260  -1.009  -0.179  1.00  0.00     0.123 A 
HETATM   15  C13 UNL     1       3.505  -0.173  -0.147  1.00  0.00     0.145 A 
HETATM   16  C14 UNL     1       3.495   1.166  -0.092  1.00  0.00     0.194 A 
HETATM   17  C15 UNL     1       2.237   1.981  -0.056  1.00  0.00     0.225 A 
HETATM   18  O3  UNL     1       2.246   3.188  -0.006  1.00  0.00    -0.284 OA
HETATM   19  O4  UNL     1       4.683   1.817  -0.067  1.00  0.00    -0.185 OA
HETATM   20  O6  UNL     1       2.288  -2.216  -0.228  1.00  0.00    -0.299 OA
HETATM   21  O7  UNL     1      -0.289   3.211  -0.007  1.00  0.00    -0.190 OA
HETATM   22  C17 UNL     1      -5.152  -1.045  -0.033  1.00  0.00     0.058 C 
ENDROOT
BRANCH  15  23
HETATM   23  O5  UNL     1       4.703  -0.805  -0.175  1.00  0.00    -0.324 OA
HETATM   24  C16 UNL     1       4.762  -2.202  -0.063  1.00  0.00     0.182 C 
ENDBRANCH  15  23
TORSDOF 1
