REMARK  2 active torsions:
REMARK  status: ('A' for Active; 'I' for Inactive)
REMARK    1  A    between atoms: C15_15  and  C18_18 
REMARK    2  A    between atoms: C18_18  and  C19_19 
ROOT
HETATM    1  C1  UNL     1      -5.084  -2.361  -3.619  1.00  0.00     0.034 C 
HETATM    2  C2  UNL     1      -5.889  -3.109  -2.555  1.00  0.00     0.156 C 
HETATM    3  C3  UNL     1      -4.896  -3.944  -1.756  1.00  0.00     0.055 C 
HETATM    4  C4  UNL     1      -3.565  -3.260  -1.744  1.00  0.00    -0.046 C 
HETATM    5  C5  UNL     1      -3.565  -1.762  -1.744  1.00  0.00     0.016 C 
HETATM    6  C6  UNL     1      -4.227  -1.255  -3.018  1.00  0.00     0.006 C 
HETATM    7  C7  UNL     1      -2.130  -1.255  -1.681  1.00  0.00     0.012 C 
HETATM    8  C8  UNL     1      -1.337  -2.098  -0.691  1.00  0.00     0.027 C 
HETATM    9  C9  UNL     1      -0.868  -3.376  -1.375  1.00  0.00     0.030 C 
HETATM   10  C10 UNL     1      -2.424  -3.956  -1.744  1.00  0.00    -0.034 C 
HETATM   11  C11 UNL     1      -0.151  -1.246  -0.359  1.00  0.00    -0.026 C 
HETATM   12  C12 UNL     1      -0.446   0.052  -0.479  1.00  0.00    -0.030 C 
HETATM   13  C13 UNL     1      -2.112   0.141  -1.072  1.00  0.00     0.026 C 
HETATM   14  C14 UNL     1       0.472   0.977  -0.177  1.00  0.00    -0.030 C 
HETATM   15  C15 UNL     1       1.684   0.602   0.245  1.00  0.00    -0.025 C 
HETATM   16  C16 UNL     1       2.011  -0.698   0.263  1.00  0.00    -0.005 C 
HETATM   17  C17 UNL     1       1.079  -1.622   0.005  1.00  0.00    -0.005 C 
HETATM   18  C26 UNL     1       0.142   2.431  -0.312  1.00  0.00     0.030 C 
HETATM   19  C27 UNL     1      -4.337  -1.255  -0.533  1.00  0.00     0.004 C 
HETATM   20  O2  UNL     1      -6.538  -2.196  -1.712  1.00  0.00    -0.223 OA
ENDROOT
BRANCH  15  21
HETATM   21  C18 UNL     1       2.674   1.631   0.695  1.00  0.00     0.059 C 
HETATM   22  C25 UNL     1       4.018   1.368   0.029  1.00  0.00     0.007 C 
BRANCH  21  23
HETATM   23  C19 UNL     1       2.833   1.556   2.208  1.00  0.00     0.290 C 
HETATM   24  C20 UNL     1       4.284   1.243   2.550  1.00  0.00     0.186 C 
HETATM   25  O1  UNL     1       4.435   1.192   3.942  1.00  0.00    -0.221 OA
HETATM   26  C21 UNL     1       5.185   2.332   1.982  1.00  0.00     0.037 C 
HETATM   27  C22 UNL     1       4.696   3.694   2.454  1.00  0.00     0.039 C 
HETATM   28  C23 UNL     1       3.218   3.846   2.121  1.00  0.00     0.290 C 
HETATM   29  C24 UNL     1       4.890   3.808   3.961  1.00  0.00     0.002 C 
HETATM   30  N1  UNL     1       2.465   2.818   2.792  1.00  0.00     0.340 N 
ENDBRANCH  21  23
ENDBRANCH  15  21
TORSDOF 2
