REMARK  3 active torsions:
REMARK  status: ('A' for Active; 'I' for Inactive)
REMARK    1  A    between atoms: C1_1  and  C5_5 
REMARK    2  A    between atoms: C5_5  and  O1_6 
REMARK    3  A    between atoms: O1_6  and  C6_7 
ROOT
HETATM    1  C6  UNL     1      -1.351   0.689   0.621  1.00  0.00     0.143 C 
HETATM    2  C7  UNL     1      -1.638  -0.376  -0.392  1.00  0.00    -0.015 C 
HETATM    3  C8  UNL     1      -0.947  -0.084  -1.687  1.00  0.00     0.053 C 
HETATM    4  C9  UNL     1      -0.787   1.431  -1.687  1.00  0.00     0.027 C 
HETATM    5  C10 UNL     1      -0.587   1.780  -0.219  1.00  0.00     0.039 C 
HETATM    6  C11 UNL     1       0.439   1.803  -2.461  1.00  0.00    -0.044 C 
HETATM    7  C12 UNL     1       1.747   1.263  -1.972  1.00  0.00     0.022 C 
HETATM    8  C13 UNL     1       2.199   0.340  -3.061  1.00  0.00     0.011 C 
HETATM    9  C14 UNL     1       1.036  -0.643  -3.081  1.00  0.00     0.056 C 
HETATM   10  C15 UNL     1       0.428  -0.739  -1.687  1.00  0.00     0.133 C 
HETATM   11  O2  UNL     1       0.240  -2.115  -1.493  1.00  0.00    -0.301 OA
HETATM   12  C16 UNL     1       1.127  -2.683  -2.319  1.00  0.00     0.292 C 
HETATM   13  C17 UNL     1       1.554  -2.023  -3.345  1.00  0.00     0.043 C 
HETATM   14  C18 UNL     1       2.276  -2.462  -4.381  1.00  0.00     0.001 C 
HETATM   15  O3  UNL     1       1.524  -3.803  -2.107  1.00  0.00    -0.260 OA
HETATM   16  C19 UNL     1       0.369   2.586  -3.542  1.00  0.00    -0.009 C 
HETATM   17  C20 UNL     1      -2.410  -1.445  -0.169  1.00  0.00    -0.007 C 
ENDROOT
BRANCH   1  18
HETATM   18  O1  UNL     1      -0.545   0.195   1.656  1.00  0.00    -0.297 OA
BRANCH  18  19
HETATM   19  C5  UNL     1      -0.966   0.268   2.924  1.00  0.00     0.295 C 
HETATM   20  O4  UNL     1      -2.040   0.760   3.177  1.00  0.00    -0.259 OA
BRANCH  19  21
HETATM   21  C1  UNL     1      -0.189  -0.209   3.922  1.00  0.00     0.060 C 
HETATM   22  C2  UNL     1      -0.609  -0.136   5.189  1.00  0.00    -0.038 C 
HETATM   23  C3  UNL     1       0.251  -0.663   6.294  1.00  0.00     0.026 C 
HETATM   24  C4  UNL     1      -1.940   0.474   5.502  1.00  0.00     0.026 C 
ENDBRANCH  19  21
ENDBRANCH  18  19
ENDBRANCH   1  18
TORSDOF 3
