REMARK  3 active torsions:
REMARK  status: ('A' for Active; 'I' for Inactive)
REMARK    1  A    between atoms: O1_1  and  C1_2 
REMARK    2  A    between atoms: O1_1  and  C16_19 
REMARK    3  A    between atoms: C17_21  and  C21_28 
ROOT
HETATM    1  C1  UNL     1      -1.738   0.808   0.545  1.00  0.00     0.137 C 
HETATM    2  C2  UNL     1      -2.025  -0.257  -0.468  1.00  0.00    -0.015 C 
HETATM    3  C3  UNL     1      -1.333   0.035  -1.763  1.00  0.00     0.052 C 
HETATM    4  C4  UNL     1      -1.174   1.550  -1.763  1.00  0.00     0.027 C 
HETATM    5  C5  UNL     1      -0.973   1.899  -0.295  1.00  0.00     0.038 C 
HETATM    6  C6  UNL     1       0.053   1.923  -2.537  1.00  0.00    -0.044 C 
HETATM    7  C7  UNL     1       1.360   1.382  -2.048  1.00  0.00     0.022 C 
HETATM    8  C8  UNL     1       1.812   0.459  -3.137  1.00  0.00     0.011 C 
HETATM    9  C9  UNL     1       0.650  -0.524  -3.157  1.00  0.00     0.056 C 
HETATM   10  C10 UNL     1       0.042  -0.620  -1.763  1.00  0.00     0.133 C 
HETATM   11  O2  UNL     1      -0.146  -1.996  -1.569  1.00  0.00    -0.301 OA
HETATM   12  C11 UNL     1       0.740  -2.563  -2.395  1.00  0.00     0.292 C 
HETATM   13  C12 UNL     1       1.168  -1.904  -3.421  1.00  0.00     0.043 C 
HETATM   14  C13 UNL     1       1.890  -2.343  -4.457  1.00  0.00     0.001 C 
HETATM   15  O3  UNL     1       1.138  -3.684  -2.183  1.00  0.00    -0.260 OA
HETATM   16  C14 UNL     1      -0.017   2.705  -3.619  1.00  0.00    -0.009 C 
HETATM   17  C15 UNL     1      -2.796  -1.325  -0.245  1.00  0.00    -0.007 C 
ENDROOT
BRANCH   1  18
HETATM   18  O1  UNL     1      -0.932   0.314   1.580  1.00  0.00    -0.327 OA
BRANCH  18  19
HETATM   19  C16 UNL     1      -0.548   1.156   2.633  1.00  0.00     0.270 C 
HETATM   20  O4  UNL     1       0.851   1.232   2.699  1.00  0.00    -0.326 OA
HETATM   21  C17 UNL     1       1.333  -0.080   2.602  1.00  0.00     0.184 C 
HETATM   22  C18 UNL     1       1.038  -0.775   3.925  1.00  0.00     0.215 C 
HETATM   23  C19 UNL     1      -0.463  -0.808   4.156  1.00  0.00     0.220 C 
HETATM   24  O7  UNL     1       1.656  -0.073   4.969  1.00  0.00    -0.218 OA
HETATM   25  C20 UNL     1      -1.038   0.588   3.958  1.00  0.00     0.241 C 
HETATM   26  O6  UNL     1      -1.057  -1.691   3.243  1.00  0.00    -0.218 OA
HETATM   27  O5  UNL     1      -0.618   1.419   5.006  1.00  0.00    -0.215 OA
BRANCH  21  28
HETATM   28  C21 UNL     1       0.630  -0.809   1.464  1.00  0.00     0.214 C 
HETATM   29  O8  UNL     1       1.580  -1.244   0.529  1.00  0.00    -0.218 OA
ENDBRANCH  21  28
ENDBRANCH  18  19
ENDBRANCH   1  18
TORSDOF 3
