REMARK  4 active torsions:
REMARK  status: ('A' for Active; 'I' for Inactive)
REMARK    1  A    between atoms: C7_7  and  O4_16 
REMARK    2  A    between atoms: C12_14  and  O3_15 
REMARK    3  A    between atoms: O4_16  and  C13_17 
REMARK    4  A    between atoms: C13_17  and  C14_18 
ROOT
HETATM    1  C1  UNL     1      -3.636   2.056   0.376  1.00  0.00     0.032 C 
HETATM    2  C2  UNL     1      -3.401   1.426   1.742  1.00  0.00     0.007 A 
HETATM    3  C3  UNL     1      -2.086   0.709   1.742  1.00  0.00     0.057 A 
HETATM    4  C4  UNL     1      -0.928   1.378   1.742  1.00  0.00     0.060 A 
HETATM    5  C5  UNL     1       0.386   0.661   1.742  1.00  0.00     0.134 C 
HETATM    6  C6  UNL     1       0.426  -0.325   0.582  1.00  0.00     0.083 C 
HETATM    7  C7  UNL     1       0.983   0.369  -0.654  1.00  0.00     0.134 C 
HETATM    8  C8  UNL     1      -0.290   1.118  -1.329  1.00  0.00     0.063 C 
HETATM    9  C9  UNL     1      -1.265   1.312  -0.199  1.00  0.00     0.143 A 
HETATM   10  C10 UNL     1      -2.354   2.278  -0.381  1.00  0.00     0.142 A 
HETATM   11  O1  UNL     1      -1.221   2.619   0.431  1.00  0.00    -0.354 OA
HETATM   12  C11 UNL     1      -1.433   0.239   0.843  1.00  0.00     0.124 A 
HETATM   13  O2  UNL     1      -1.484  -1.261   0.575  1.00  0.00    -0.356 OA
HETATM   14  C12 UNL     1      -2.123  -0.787   1.729  1.00  0.00     0.142 A 
HETATM   15  O3  UNL     1      -2.639   0.540   1.491  1.00  0.00     0.000 OA
HETATM   16  C17 UNL     1       1.386  -1.380   1.037  1.00  0.00     0.045 C 
HETATM   17  C18 UNL     1       1.167  -1.218   2.464  1.00  0.00     0.292 C 
HETATM   18  O6  UNL     1       0.476  -0.152   2.881  1.00  0.00    -0.301 OA
HETATM   19  O7  UNL     1       1.597  -2.026   3.252  1.00  0.00    -0.260 OA
HETATM   20  C19 UNL     1       2.186  -2.204   0.352  1.00  0.00     0.001 C 
ENDROOT
BRANCH   7  21
HETATM   21  O4  UNL     1       1.528  -0.570  -1.542  1.00  0.00    -0.301 OA
BRANCH  21  22
HETATM   22  C13 UNL     1       2.811  -0.477  -1.909  1.00  0.00     0.292 C 
HETATM   23  O5  UNL     1       3.500   0.416  -1.477  1.00  0.00    -0.260 OA
BRANCH  22  24
HETATM   24  C14 UNL     1       3.336  -1.382  -2.764  1.00  0.00     0.041 C 
HETATM   25  C15 UNL     1       4.618  -1.289  -3.132  1.00  0.00     0.001 C 
HETATM   26  C16 UNL     1       2.482  -2.489  -3.300  1.00  0.00     0.037 C 
ENDBRANCH  22  24
ENDBRANCH  21  22
ENDBRANCH   7  21
TORSDOF 4
