REMARK  1 active torsions:
REMARK  status: ('A' for Active; 'I' for Inactive)
REMARK    1  A    between atoms: C4_5  and  C13_17 
ROOT
HETATM    1  O1  UNL     1      -2.644   0.768   0.182  1.00  0.00    -0.298 OA
HETATM    2  C1  UNL     1      -2.789  -0.642   0.072  1.00  0.00     0.292 C 
HETATM    3  C2  UNL     1      -1.841  -1.298  -0.632  1.00  0.00     0.043 C 
HETATM    4  C3  UNL     1      -0.430  -0.799  -0.632  1.00  0.00     0.065 C 
HETATM    5  C4  UNL     1      -0.430   0.724  -0.632  1.00  0.00     0.055 C 
HETATM    6  C5  UNL     1      -1.353   1.232   0.468  1.00  0.00     0.157 C 
HETATM    7  C6  UNL     1       0.984   1.232  -0.383  1.00  0.00     0.038 C 
HETATM    8  C7  UNL     1       1.966   0.042  -0.635  1.00  0.00     0.132 C 
HETATM    9  C8  UNL     1       1.732  -0.823   0.597  1.00  0.00     0.086 C 
HETATM   10  C9  UNL     1       0.288  -1.306   0.611  1.00  0.00     0.163 C 
HETATM   11  O2  UNL     1       0.265  -2.708   0.624  1.00  0.00    -0.223 OA
HETATM   12  C10 UNL     1       1.957   0.112   1.744  1.00  0.00     0.045 C 
HETATM   13  C11 UNL     1       1.900   1.399   1.337  1.00  0.00     0.292 C 
HETATM   14  O3  UNL     1       1.442  -0.721  -1.689  1.00  0.00    -0.301 OA
HETATM   15  O4  UNL     1       1.960   2.543   1.722  1.00  0.00    -0.260 OA
HETATM   16  C12 UNL     1       2.185  -0.275   3.003  1.00  0.00     0.001 C 
HETATM   17  C15 UNL     1      -2.163  -2.392  -1.329  1.00  0.00     0.001 C 
HETATM   18  O5  UNL     1      -3.715  -1.225   0.584  1.00  0.00    -0.260 OA
ENDROOT
BRANCH   5  19
HETATM   19  C13 UNL     1      -0.913   1.224  -1.958  1.00  0.00    -0.024 C 
HETATM   20  C14 UNL     1      -0.996   2.538  -2.188  1.00  0.00    -0.005 C 
ENDBRANCH   5  19
TORSDOF 1
