REMARK  0 active torsions:
REMARK  status: ('A' for Active; 'I' for Inactive)
ROOT
HETATM    1  C1  UNL     1      -0.740   0.404   2.980  1.00  0.00    -0.046 C 
HETATM    2  C2  UNL     1      -1.392  -0.955   3.131  1.00  0.00     0.024 C 
HETATM    3  C3  UNL     1      -2.222  -1.282   1.897  1.00  0.00     0.038 C 
HETATM    4  C4  UNL     1      -1.504  -0.774   0.653  1.00  0.00     0.162 C 
HETATM    5  C5  UNL     1      -1.504   0.749   0.653  1.00  0.00     0.191 A 
HETATM    6  C6  UNL     1      -1.075   1.248   1.998  1.00  0.00    -0.001 C 
HETATM    7  O1  UNL     1      -0.585   1.171  -0.318  1.00  0.00     0.000 OA
HETATM    8  C7  UNL     1       0.885   0.713  -0.206  1.00  0.00     0.033 C 
HETATM    9  C8  UNL     1       0.922  -0.200   0.990  1.00  0.00     0.125 A 
HETATM   10  C9  UNL     1      -0.069  -1.282   0.653  1.00  0.00     0.079 C 
HETATM   11  C10 UNL     1      -0.024  -2.408   1.678  1.00  0.00     0.007 C 
HETATM   12  C11 UNL     1       0.319  -1.710  -0.756  1.00  0.00     0.129 C 
HETATM   13  C12 UNL     1       0.939  -0.459  -1.364  1.00  0.00     0.033 C 
HETATM   14  O2  UNL     1       1.333  -2.670  -0.641  1.00  0.00    -0.301 OA
HETATM   15  C13 UNL     1       1.447  -3.352  -1.787  1.00  0.00     0.296 C 
HETATM   16  C14 UNL     1       2.572  -3.403  -2.534  1.00  0.00     0.068 C 
HETATM   17  C15 UNL     1       3.203  -2.251  -2.782  1.00  0.00     0.006 C 
HETATM   18  C16 UNL     1       2.718  -1.104  -2.296  1.00  0.00     0.004 C 
HETATM   19  C17 UNL     1       3.349   0.048  -2.545  1.00  0.00     0.045 C 
HETATM   20  C18 UNL     1       2.816   1.177  -2.030  1.00  0.00     0.234 C 
HETATM   21  O3  UNL     1       1.845   1.202  -1.111  1.00  0.00     0.000 OA
HETATM   22  C19 UNL     1       0.836   2.092  -1.506  1.00  0.00     0.000 C 
HETATM   23  C20 UNL     1      -0.348   1.887  -0.570  1.00  0.00     0.003 C 
HETATM   24  C21 UNL     1      -1.622   2.373  -1.249  1.00  0.00     0.036 C 
HETATM   25  C22 UNL     1      -2.787   2.271  -0.274  1.00  0.00     0.209 C 
HETATM   26  O4  UNL     1      -2.618   3.193   0.769  1.00  0.00    -0.218 OA
HETATM   27  C23 UNL     1      -2.804   0.868   0.280  1.00  0.00     0.276 A 
HETATM   28  O5  UNL     1      -2.898   0.036  -0.765  1.00  0.00    -0.192 OA
HETATM   29  O6  UNL     1      -2.243  -1.196  -0.461  1.00  0.00    -0.221 OA
HETATM   30  O7  UNL     1      -2.745   0.554   1.445  1.00  0.00    -0.322 OA
HETATM   31  C24 UNL     1      -1.906   1.511  -2.472  1.00  0.00     0.003 C 
HETATM   32  O8  UNL     1       3.245   2.235  -2.427  1.00  0.00    -0.283 OA
HETATM   33  O9  UNL     1       0.481  -3.962  -2.179  1.00  0.00    -0.259 OA
HETATM   34  O10 UNL     1       0.708   0.446   2.253  1.00  0.00    -0.354 OA
HETATM   35  C25 UNL     1       2.232  -0.599   1.518  1.00  0.00     0.169 A 
HETATM   36  C26 UNL     1       0.313   0.816   3.961  1.00  0.00     0.026 C 
ENDROOT
TORSDOF 0
