REMARK  1 active torsions:
REMARK  status: ('A' for Active; 'I' for Inactive)
REMARK    1  A    between atoms: C18_18  and  C26_26 
ROOT
HETATM    1  C1  UNL     1      -3.728   0.270  -1.496  1.00  0.00     0.026 C 
HETATM    2  C2  UNL     1      -3.715  -0.896  -0.517  1.00  0.00     0.030 C 
HETATM    3  C3  UNL     1      -2.396  -0.939   0.191  1.00  0.00    -0.034 C 
HETATM    4  C4  UNL     1      -2.107  -1.907   1.067  1.00  0.00    -0.045 C 
HETATM    5  C5  UNL     1      -0.788  -1.950   1.774  1.00  0.00     0.053 C 
HETATM    6  C6  UNL     1      -0.205  -0.545   1.847  1.00  0.00     0.117 C 
HETATM    7  C7  UNL     1      -1.317   0.457   1.863  1.00  0.00    -0.005 C 
HETATM    8  C8  UNL     1      -0.838   1.705   1.863  1.00  0.00    -0.019 C 
HETATM    9  C9  UNL     1      -1.640   2.969   1.877  1.00  0.00     0.029 C 
HETATM   10  C10 UNL     1      -3.075   2.664   1.467  1.00  0.00     0.030 C 
HETATM   11  C11 UNL     1      -3.026   1.558   0.495  1.00  0.00    -0.034 C 
HETATM   12  C12 UNL     1      -3.514   1.550  -0.750  1.00  0.00    -0.048 C 
HETATM   13  C13 UNL     1      -3.856   2.849  -1.411  1.00  0.00     0.026 C 
HETATM   14  C14 UNL     1       0.659   1.705   1.863  1.00  0.00     0.138 C 
HETATM   15  C15 UNL     1       1.166   1.287   0.489  1.00  0.00     0.086 C 
HETATM   16  C16 UNL     1       0.681  -0.300   0.633  1.00  0.00     0.064 C 
HETATM   17  C17 UNL     1       1.985  -1.071   0.792  1.00  0.00     0.124 C 
HETATM   18  C18 UNL     1       2.392  -1.663  -0.550  1.00  0.00     0.046 C 
HETATM   19  C19 UNL     1       3.892  -1.489  -0.749  1.00  0.00     0.011 C 
HETATM   20  C20 UNL     1       3.983  -0.480  -1.881  1.00  0.00     0.029 C 
HETATM   21  C21 UNL     1       3.198   0.761  -1.591  1.00  0.00    -0.002 C 
HETATM   22  C22 UNL     1       1.984   0.956  -2.116  1.00  0.00    -0.028 C 
HETATM   23  C23 UNL     1       1.199   2.197  -1.825  1.00  0.00     0.026 C 
HETATM   24  C24 UNL     1       0.339   1.975  -0.588  1.00  0.00     0.012 C 
HETATM   25  C25 UNL     1       3.785   1.805  -0.693  1.00  0.00     0.114 C 
HETATM   26  O1  UNL     1       2.925  -0.083   1.119  1.00  0.00    -0.333 OA
HETATM   27  C29 UNL     1       2.672   1.216   0.556  1.00  0.00     0.242 C 
HETATM   28  O2  UNL     1       3.475   2.052   0.216  1.00  0.00    -0.304 OA
HETATM   29  O3  UNL     1       0.998   0.626   2.692  1.00  0.00    -0.353 OA
HETATM   30  C30 UNL     1      -3.123  -2.970   1.346  1.00  0.00     0.026 C 
ENDROOT
BRANCH  18  31
HETATM   31  C26 UNL     1       2.052  -3.121  -0.576  1.00  0.00    -0.042 C 
HETATM   32  C27 UNL     1       1.204  -3.594  -1.495  1.00  0.00    -0.009 C 
HETATM   33  C28 UNL     1       2.660  -4.049   0.429  1.00  0.00     0.026 C 
ENDBRANCH  18  31
TORSDOF 1
