REMARK  4 active torsions:
REMARK  status: ('A' for Active; 'I' for Inactive)
REMARK    1  A    between atoms: C4_4  and  O3_9 
REMARK    2  A    between atoms: C5_6  and  C6_7 
REMARK    3  A    between atoms: O3_9  and  C7_10 
REMARK    4  A    between atoms: C7_10  and  C8_11 
ROOT
HETATM    1  O3  UNL     1      -0.550   0.988   0.492  1.00  0.00    -0.329 OA
ENDROOT
BRANCH   1   2
HETATM    2  C4  UNL     1       0.582   1.248   1.278  1.00  0.00     0.270 C 
HETATM    3  C3  UNL     1       1.480   2.257   0.575  1.00  0.00     0.241 C 
HETATM    4  C2  UNL     1       2.716   2.516   1.427  1.00  0.00     0.220 C 
HETATM    5  O6  UNL     1       1.871   1.747  -0.671  1.00  0.00    -0.215 OA
HETATM    6  C1  UNL     1       2.290   2.832   2.855  1.00  0.00     0.215 C 
HETATM    7  O7  UNL     1       3.426   3.604   0.900  1.00  0.00    -0.218 OA
HETATM    8  C5  UNL     1       1.318   1.766   3.342  1.00  0.00     0.184 C 
HETATM    9  O8  UNL     1       3.420   2.849   3.686  1.00  0.00    -0.218 OA
HETATM   10  O1  UNL     1       0.193   1.807   2.506  1.00  0.00    -0.326 OA
BRANCH   8  11
HETATM   11  C6  UNL     1       0.907   2.056   4.780  1.00  0.00     0.214 C 
HETATM   12  O2  UNL     1       1.256   0.970   5.595  1.00  0.00    -0.218 OA
ENDBRANCH   8  11
ENDBRANCH   1   2
BRANCH   1  13
HETATM   13  C7  UNL     1      -0.819  -0.318   0.059  1.00  0.00     0.147 C 
BRANCH  13  14
HETATM   14  C8  UNL     1      -2.095  -0.327  -0.771  1.00  0.00     0.061 C 
HETATM   15  C9  UNL     1      -3.121  -1.242  -0.114  1.00  0.00     0.154 C 
HETATM   16  O4  UNL     1      -3.877  -2.069  -1.278  1.00  0.00    -0.302 OA
HETATM   17  C10 UNL     1      -3.223  -2.819  -2.173  1.00  0.00     0.271 C 
HETATM   18  C11 UNL     1      -1.786  -2.357  -2.173  1.00  0.00     0.087 C 
HETATM   19  O5  UNL     1      -3.693  -3.699  -2.852  1.00  0.00    -0.264 OA
HETATM   20  C12 UNL     1      -1.786  -0.835  -2.173  1.00  0.00     0.014 C 
HETATM   21  C15 UNL     1      -1.179  -2.726  -3.520  1.00  0.00     0.009 C 
HETATM   22  C13 UNL     1      -0.355  -0.466  -2.541  1.00  0.00     0.001 C 
HETATM   23  C14 UNL     1      -0.144  -1.636  -3.768  1.00  0.00     0.001 C 
HETATM   24  C16 UNL     1      -0.516  -4.096  -3.458  1.00  0.00     0.001 C 
ENDBRANCH  13  14
ENDBRANCH   1  13
TORSDOF 4
