REMARK  0 active torsions:
REMARK  status: ('A' for Active; 'I' for Inactive)
ROOT
HETATM    1  C1  UNL     1       0.075   0.806  -0.800  1.00  0.00     0.017 C 
HETATM    2  C2  UNL     1       0.075  -0.717  -0.800  1.00  0.00     0.061 C 
HETATM    3  C3  UNL     1       1.140  -1.225   0.164  1.00  0.00     0.154 C 
HETATM    4  O1  UNL     1       2.346  -0.594  -0.171  1.00  0.00    -0.302 OA
HETATM    5  C4  UNL     1       2.254   0.596   0.300  1.00  0.00     0.271 C 
HETATM    6  C5  UNL     1       1.511   1.313  -0.800  1.00  0.00     0.087 C 
HETATM    7  C6  UNL     1       1.529   2.814  -0.543  1.00  0.00     0.010 C 
HETATM    8  O2  UNL     1       2.658   1.030   1.353  1.00  0.00    -0.264 OA
HETATM    9  C7  UNL     1      -1.305  -1.086  -0.271  1.00  0.00     0.157 C 
HETATM   10  C8  UNL     1      -1.587   0.044   0.756  1.00  0.00     0.180 C 
HETATM   11  C9  UNL     1      -0.594   1.174   0.518  1.00  0.00     0.036 C 
HETATM   12  O3  UNL     1      -1.434  -0.452   2.058  1.00  0.00    -0.221 OA
HETATM   13  C10 UNL     1      -1.288  -2.451   0.405  1.00  0.00     0.036 C 
HETATM   14  O4  UNL     1      -2.279  -1.183  -1.275  1.00  0.00    -0.223 OA
ENDROOT
TORSDOF 0
