REMARK  1 active torsions:
REMARK  status: ('A' for Active; 'I' for Inactive)
REMARK    1  A    between atoms: C20_22  and  O1_23 
ROOT
HETATM    1  C1  UNL     1      -4.717   1.728  -0.246  1.00  0.00     0.000 A 
HETATM    2  C2  UNL     1      -4.717   0.391  -0.271  1.00  0.00     0.002 A 
HETATM    3  C3  UNL     1      -3.559  -0.278  -0.258  1.00  0.00     0.017 A 
HETATM    4  C4  UNL     1      -2.401   0.391  -0.246  1.00  0.00     0.061 A 
HETATM    5  C5  UNL     1      -2.401   1.728  -0.246  1.00  0.00     0.013 A 
HETATM    6  C6  UNL     1      -3.559   2.396  -0.246  1.00  0.00     0.001 A 
HETATM    7  C7  UNL     1      -1.153   2.207  -0.232  1.00  0.00    -0.005 C 
HETATM    8  C8  UNL     1      -0.390   0.832  -0.584  1.00  0.00     0.067 C 
HETATM    9  N1  UNL     1      -1.220  -0.063  -0.246  1.00  0.00    -0.307 N 
HETATM   10  C9  UNL     1      -0.472  -1.304   0.006  1.00  0.00     0.221 C 
HETATM   11  C10 UNL     1       0.260  -0.880   1.237  1.00  0.00     0.061 C 
HETATM   12  C11 UNL     1       1.454  -0.498   0.371  1.00  0.00     0.060 C 
HETATM   13  C12 UNL     1       1.099   0.717  -0.476  1.00  0.00     0.261 C 
HETATM   14  N2  UNL     1       1.659   1.898   0.122  1.00  0.00     0.146 N 
HETATM   15  C13 UNL     1       0.674   2.444   1.017  1.00  0.00     0.256 C 
HETATM   16  C14 UNL     1      -0.407   3.411   0.252  1.00  0.00     0.063 C 
HETATM   17  C15 UNL     1       2.791   1.494   0.912  1.00  0.00     0.277 C 
HETATM   18  C16 UNL     1       2.305   0.818   2.187  1.00  0.00     0.004 C 
HETATM   19  C17 UNL     1       2.642  -0.165   1.264  1.00  0.00    -0.027 C 
HETATM   20  C18 UNL     1       1.814  -1.665  -0.539  1.00  0.00     0.038 A 
HETATM   21  C19 UNL     1       2.115  -1.143  -1.938  1.00  0.00     0.003 A 
HETATM   22  C20 UNL     1       0.468  -1.638  -1.126  1.00  0.00     0.164 A 
HETATM   23  O2  UNL     1       1.286  -0.828  -1.491  1.00  0.00     0.000 OA
HETATM   24  O3  UNL     1      -1.248  -2.465   0.130  1.00  0.00    -0.200 OA
ENDROOT
BRANCH  22  25
HETATM   25  O1  UNL     1       0.395  -2.832  -1.726  1.00  0.00    -0.350 OA
HETATM   26  C21 UNL     1      -0.555  -3.772  -1.302  1.00  0.00     0.174 C 
ENDBRANCH  22  25
TORSDOF 1
