REMARK  2 active torsions:
REMARK  status: ('A' for Active; 'I' for Inactive)
REMARK    1  A    between atoms: C13_15  and  C20_22 
REMARK    2  A    between atoms: C20_22  and  O2_24 
ROOT
HETATM    1  C1  UNL     1      -1.379   1.397  -1.677  1.00  0.00     0.233 C 
HETATM    2  N1  UNL     1      -0.981   0.093  -2.134  1.00  0.00     0.135 N 
HETATM    3  C2  UNL     1      -1.383  -0.861  -1.135  1.00  0.00     0.243 A 
HETATM    4  C3  UNL     1      -0.421  -0.797   0.044  1.00  0.00     0.204 A 
HETATM    5  C4  UNL     1       0.451   0.446  -0.079  1.00  0.00     0.096 A 
HETATM    6  C5  UNL     1       0.171   1.133  -1.409  1.00  0.00     0.074 C 
HETATM    7  C6  UNL     1       1.849  -0.090  -0.079  1.00  0.00    -0.007 A 
HETATM    8  C7  UNL     1       1.849  -1.427  -0.079  1.00  0.00     0.224 A 
HETATM    9  N2  UNL     1       0.667  -1.881  -0.079  1.00  0.00    -0.004 N 
HETATM   10  C8  UNL     1       3.006  -2.096  -0.092  1.00  0.00     0.008 A 
HETATM   11  C9  UNL     1       4.164  -1.427  -0.089  1.00  0.00    -0.002 A 
HETATM   12  C10 UNL     1       4.164  -0.090  -0.069  1.00  0.00    -0.001 A 
HETATM   13  C11 UNL     1       3.006   0.578  -0.067  1.00  0.00    -0.006 A 
HETATM   14  C12 UNL     1       0.023   1.472   0.962  1.00  0.00     0.170 C 
HETATM   15  C13 UNL     1      -1.440   1.406  -0.156  1.00  0.00     0.139 C 
HETATM   16  C14 UNL     1      -1.246  -0.011   0.368  1.00  0.00     0.070 C 
HETATM   17  C15 UNL     1      -0.016  -0.606  -0.243  1.00  0.00     0.207 A 
HETATM   18  C16 UNL     1       0.455   0.073  -2.205  1.00  0.00     0.249 C 
HETATM   19  C17 UNL     1       0.737  -1.504   0.400  1.00  0.00     0.220 A 
HETATM   20  C18 UNL     1       0.359  -1.947   1.779  1.00  0.00     0.035 C 
HETATM   21  C19 UNL     1      -2.792  -0.534  -0.659  1.00  0.00     0.039 C 
HETATM   22  O3  UNL     1       0.740   2.676   0.993  1.00  0.00    -0.222 OA
ENDROOT
BRANCH  15  23
HETATM   23  C20 UNL     1      -2.540   2.437  -0.100  1.00  0.00     0.275 C 
HETATM   24  O1  UNL     1      -2.595   3.308  -0.936  1.00  0.00    -0.264 OA
BRANCH  23  25
HETATM   25  O2  UNL     1      -3.456   2.386   0.874  1.00  0.00    -0.299 OA
HETATM   26  C21 UNL     1      -3.393   1.375   1.843  1.00  0.00     0.184 C 
ENDBRANCH  23  25
ENDBRANCH  15  23
TORSDOF 2
