REMARK  4 active torsions:
REMARK  status: ('A' for Active; 'I' for Inactive)
REMARK    1  A    between atoms: C16_18  and  C18_21 
REMARK    2  A    between atoms: C32_38  and  O4_49 
REMARK    3  A    between atoms: C33_39  and  C40_47 
REMARK    4  A    between atoms: O4_49  and  C42_50 
ROOT
HETATM    1  C1  UNL     1      -6.844   1.911   1.114  1.00  0.00    -0.000 A 
HETATM    2  C2  UNL     1      -6.844   0.574   1.114  1.00  0.00     0.002 A 
HETATM    3  C3  UNL     1      -5.686  -0.094   1.089  1.00  0.00     0.018 A 
HETATM    4  C4  UNL     1      -4.529   0.575   1.089  1.00  0.00     0.074 A 
HETATM    5  C5  UNL     1      -4.529   1.911   1.089  1.00  0.00    -0.000 A 
HETATM    6  C6  UNL     1      -5.686   2.580   1.101  1.00  0.00    -0.003 A 
HETATM    7  C7  UNL     1      -3.131   2.448   1.089  1.00  0.00     0.089 A 
HETATM    8  C8  UNL     1      -2.272   1.222   1.088  1.00  0.00     0.246 A 
HETATM    9  N1  UNL     1      -3.352   0.123   1.078  1.00  0.00    -0.247 NA
HETATM   10  C9  UNL     1      -0.789   1.425   1.080  1.00  0.00     0.139 C 
HETATM   11  C10 UNL     1      -0.549   3.551   1.590  1.00  0.00     0.048 C 
HETATM   12  C11 UNL     1      -1.422   3.127   2.764  1.00  0.00     0.040 C 
HETATM   13  C12 UNL     1      -1.103   1.686   3.139  1.00  0.00     0.212 A 
HETATM   14  N2  UNL     1      -1.985   0.799   2.430  1.00  0.00     0.011 N 
HETATM   15  C13 UNL     1      -2.017   1.221   1.055  1.00  0.00     0.201 A 
HETATM   16  C14 UNL     1      -2.890   3.238  -0.191  1.00  0.00     0.041 A 
HETATM   17  C15 UNL     1      -3.306   0.971   2.971  1.00  0.00     0.249 C 
HETATM   18  C16 UNL     1      -3.757   2.668   3.486  1.00  0.00     0.156 C 
HETATM   19  C17 UNL     1      -2.889   3.235   2.370  1.00  0.00     0.041 C 
HETATM   20  O1  UNL     1      -5.122   2.962   3.354  1.00  0.00    -0.224 OA
HETATM   21  C20 UNL     1      -0.122   0.547   2.110  1.00  0.00     0.215 C 
HETATM   22  O2  UNL     1       0.734  -0.237   1.773  1.00  0.00    -0.288 OA
HETATM   23  O3  UNL     1      -0.477   0.636   3.397  1.00  0.00     0.000 OA
HETATM   24  C21 UNL     1      -1.469   1.546   3.789  1.00  0.00     0.001 A 
HETATM   25  C22 UNL     1      -0.162   1.069  -0.232  1.00  0.00     0.011 A 
HETATM   26  C23 UNL     1      -0.173   1.950  -1.238  1.00  0.00     0.092 A 
HETATM   27  C24 UNL     1       0.398   1.637  -2.406  1.00  0.00     0.040 A 
HETATM   28  C25 UNL     1       0.958   0.435  -2.576  1.00  0.00     0.054 A 
HETATM   29  C26 UNL     1       0.968  -0.446  -1.569  1.00  0.00    -0.003 A 
HETATM   30  C27 UNL     1       0.408  -0.128  -0.398  1.00  0.00    -0.004 A 
HETATM   31  C28 UNL     1       1.642  -1.719  -1.978  1.00  0.00     0.075 A 
HETATM   32  C29 UNL     1       2.056  -1.470  -3.422  1.00  0.00     0.125 A 
HETATM   33  N3  UNL     1       1.530  -0.040  -3.600  1.00  0.00    -0.345 N 
HETATM   34  C30 UNL     1       1.677   0.714  -4.854  1.00  0.00     0.126 C 
HETATM   35  C31 UNL     1       3.575  -1.503  -3.528  1.00  0.00     0.228 C 
HETATM   36  C32 UNL     1       3.674  -2.836  -3.301  1.00  0.00     0.167 C 
HETATM   37  C33 UNL     1       3.786  -2.964  -1.788  1.00  0.00     0.078 C 
HETATM   38  C34 UNL     1       2.884  -1.932  -1.123  1.00  0.00     0.220 A 
HETATM   39  N4  UNL     1       2.372  -2.467   0.109  1.00  0.00     0.015 N 
HETATM   40  C35 UNL     1       1.212  -3.216  -0.292  1.00  0.00     0.223 C 
HETATM   41  C36 UNL     1       0.638  -2.863  -1.927  1.00  0.00     0.042 C 
HETATM   42  C37 UNL     1       3.340  -3.400   0.618  1.00  0.00     0.248 C 
HETATM   43  C38 UNL     1       3.180  -4.649  -0.083  1.00  0.00     0.002 C 
HETATM   44  C39 UNL     1       3.364  -4.338  -1.370  1.00  0.00    -0.025 C 
HETATM   45  C44 UNL     1       4.257  -0.672  -2.469  1.00  0.00     0.241 C 
HETATM   46  O6  UNL     1       5.070   0.163  -2.787  1.00  0.00    -0.285 OA
HETATM   47  O7  UNL     1       3.962  -0.861  -1.177  1.00  0.00     0.000 OA
HETATM   48  C45 UNL     1       3.019  -1.831  -0.808  1.00  0.00     0.191 A 
HETATM   49  O8  UNL     1       4.161  -0.992  -4.694  1.00  0.00    -0.213 OA
HETATM   50  O9  UNL     1      -0.762   3.159  -1.074  1.00  0.00    -0.331 OA
HETATM   51  C46 UNL     1      -0.962   3.672   0.215  1.00  0.00     0.150 C 
ENDROOT
BRANCH  36  52
HETATM   52  O4  UNL     1       2.534  -3.504  -3.770  1.00  0.00    -0.301 OA
BRANCH  52  53
HETATM   53  C42 UNL     1       2.655  -4.477  -4.680  1.00  0.00     0.272 C 
HETATM   54  C43 UNL     1       1.428  -5.195  -5.185  1.00  0.00     0.106 C 
HETATM   55  O5  UNL     1       3.747  -4.781  -5.098  1.00  0.00    -0.264 OA
ENDBRANCH  52  53
ENDBRANCH  36  52
BRANCH  37  56
HETATM   56  C40 UNL     1       5.229  -2.725  -1.363  1.00  0.00     0.009 C 
HETATM   57  C41 UNL     1       5.342  -2.853   0.150  1.00  0.00     0.001 C 
ENDBRANCH  37  56
BRANCH  18  58
HETATM   58  C18 UNL     1      -3.554   3.118   4.927  1.00  0.00     0.033 C 
HETATM   59  C19 UNL     1      -2.228   3.857   5.046  1.00  0.00     0.003 C 
ENDBRANCH  18  58
TORSDOF 4
