REMARK  2 active torsions:
REMARK  status: ('A' for Active; 'I' for Inactive)
REMARK    1  A    between atoms: C9_10  and  C20_24 
REMARK    2  A    between atoms: C20_24  and  O3_25 
ROOT
HETATM    1  C1  UNL     1      -3.683  -0.223  -1.153  1.00  0.00    -0.000 A 
HETATM    2  C2  UNL     1      -3.683  -1.560  -1.153  1.00  0.00     0.002 A 
HETATM    3  C3  UNL     1      -2.526  -2.228  -1.178  1.00  0.00     0.018 A 
HETATM    4  C4  UNL     1      -1.368  -1.560  -1.178  1.00  0.00     0.072 A 
HETATM    5  C5  UNL     1      -1.368  -0.223  -1.178  1.00  0.00     0.001 A 
HETATM    6  C6  UNL     1      -2.526   0.446  -1.165  1.00  0.00    -0.003 A 
HETATM    7  C7  UNL     1       0.030   0.314  -1.178  1.00  0.00     0.103 A 
HETATM    8  C8  UNL     1       0.903  -0.934  -1.180  1.00  0.00     0.145 A 
HETATM    9  N1  UNL     1      -0.186  -2.014  -1.189  1.00  0.00    -0.270 NA
HETATM   10  C9  UNL     1       1.710  -0.992   0.111  1.00  0.00     0.190 C 
HETATM   11  C10 UNL     1       0.874  -1.646   1.203  1.00  0.00     0.043 C 
HETATM   12  C11 UNL     1       0.027   0.199   1.307  1.00  0.00     0.058 A 
HETATM   13  C12 UNL     1       0.272   1.100   0.104  1.00  0.00     0.230 C 
HETATM   14  N2  UNL     1      -0.726   2.135   0.070  1.00  0.00     0.138 N 
HETATM   15  C13 UNL     1      -1.630   1.907   1.165  1.00  0.00     0.250 C 
HETATM   16  C14 UNL     1      -0.389   2.105   2.825  1.00  0.00     0.038 C 
HETATM   17  C15 UNL     1       0.269   0.971   2.566  1.00  0.00     0.031 A 
HETATM   18  C16 UNL     1      -1.445   1.886  -1.150  1.00  0.00     0.283 C 
HETATM   19  C17 UNL     1       0.270   1.104  -2.457  1.00  0.00     0.193 C 
HETATM   20  O1  UNL     1       1.439   1.869  -2.576  1.00  0.00    -0.221 OA
HETATM   21  C18 UNL     1       0.656   0.823   2.545  1.00  0.00     0.095 A 
HETATM   22  O2  UNL     1       1.883   0.326   0.559  1.00  0.00    -0.352 OA
HETATM   23  C19 UNL     1       0.861  -0.003   3.808  1.00  0.00     0.030 C 
ENDROOT
BRANCH  10  24
HETATM   24  C20 UNL     1       3.000  -1.731  -0.145  1.00  0.00     0.298 C 
HETATM   25  O4  UNL     1       3.431  -2.497   0.684  1.00  0.00    -0.262 OA
BRANCH  24  26
HETATM   26  O3  UNL     1       3.666  -1.540  -1.289  1.00  0.00    -0.297 OA
HETATM   27  C21 UNL     1       3.165  -0.651  -2.251  1.00  0.00     0.185 C 
ENDBRANCH  24  26
ENDBRANCH  10  24
TORSDOF 2
