REMARK  3 active torsions:
REMARK  status: ('A' for Active; 'I' for Inactive)
REMARK    1  A    between atoms: C2_2  and  O1_3 
REMARK    2  A    between atoms: O1_3  and  C3_4 
REMARK    3  A    between atoms: C19_24  and  O4_27 
ROOT
HETATM    1  C3  UNL     1       0.903  -2.756   1.313  1.00  0.00     0.104 C 
HETATM    2  C4  UNL     1       1.368  -1.590   0.473  1.00  0.00     0.054 C 
HETATM    3  C5  UNL     1       0.409  -0.392   0.559  1.00  0.00     0.041 C 
HETATM    4  C6  UNL     1       0.920   0.799  -0.264  1.00  0.00     0.232 C 
HETATM    5  N1  UNL     1       2.254   0.563  -0.785  1.00  0.00     0.136 N 
HETATM    6  C7  UNL     1       3.184   0.202   0.258  1.00  0.00     0.253 C 
HETATM    7  C8  UNL     1       2.830  -1.208   0.787  1.00  0.00     0.067 C 
HETATM    8  C9  UNL     1       3.127  -1.359   2.280  1.00  0.00     0.124 C 
HETATM    9  O2  UNL     1       2.834  -2.647   2.735  1.00  0.00    -0.330 OA
HETATM   10  C10 UNL     1       1.661  -3.209   2.326  1.00  0.00     0.136 C 
HETATM   11  C11 UNL     1       4.590  -1.075   2.627  1.00  0.00     0.033 C 
HETATM   12  C12 UNL     1       2.564   1.750  -1.557  1.00  0.00     0.251 C 
HETATM   13  C13 UNL     1       1.242   2.059  -2.295  1.00  0.00     0.050 C 
HETATM   14  C14 UNL     1       0.200   1.197  -1.557  1.00  0.00     0.125 A 
HETATM   15  C15 UNL     1      -1.175   1.786  -1.436  1.00  0.00     0.005 A 
HETATM   16  C16 UNL     1      -2.071   1.040  -2.090  1.00  0.00     0.083 A 
HETATM   17  N2  UNL     1      -1.497   0.041  -2.618  1.00  0.00    -0.212 NA
HETATM   18  C17 UNL     1      -0.250   0.004  -2.406  1.00  0.00     0.261 A 
HETATM   19  O3  UNL     1       0.459  -0.870  -2.843  1.00  0.00    -0.270 OA
HETATM   20  C18 UNL     1      -3.366   1.374  -2.132  1.00  0.00     0.043 A 
HETATM   21  C19 UNL     1      -3.800   2.493  -1.511  1.00  0.00     0.096 A 
HETATM   22  C20 UNL     1      -2.872   3.222  -0.852  1.00  0.00     0.024 A 
HETATM   23  C21 UNL     1      -1.570   2.894  -0.801  1.00  0.00    -0.000 A 
ENDROOT
BRANCH   1  24
HETATM   24  O1  UNL     1      -0.288  -3.315   0.936  1.00  0.00    -0.279 OA
BRANCH  24  25
HETATM   25  C2  UNL     1      -1.082  -3.763   1.948  1.00  0.00     0.277 C 
HETATM   26  C1  UNL     1      -1.784  -2.614   2.649  1.00  0.00     0.107 C 
HETATM   27  O5  UNL     1      -1.224  -4.931   2.243  1.00  0.00    -0.264 OA
ENDBRANCH  24  25
ENDBRANCH   1  24
BRANCH  21  28
HETATM   28  O4  UNL     1      -5.105   2.926  -1.492  1.00  0.00    -0.328 OA
HETATM   29  C22 UNL     1      -6.095   2.122  -2.092  1.00  0.00     0.181 C 
ENDBRANCH  21  28
TORSDOF 3
