REMARK  4 active torsions:
REMARK  status: ('A' for Active; 'I' for Inactive)
REMARK    1  A    between atoms: C4_4  and  C7_8 
REMARK    2  A    between atoms: C8_9  and  C9_10 
REMARK    3  A    between atoms: C15_17  and  C23_27 
REMARK    4  A    between atoms: C16_18  and  C17_20 
ROOT
HETATM    1  C1  UNL     1      -2.643   1.426   0.467  1.00  0.00     0.051 A 
HETATM    2  C2  UNL     1      -2.120   0.195   0.449  1.00  0.00     0.093 A 
HETATM    3  C3  UNL     1      -0.801   0.002   0.318  1.00  0.00     0.007 A 
HETATM    4  C4  UNL     1       0.061   1.034   0.216  1.00  0.00     0.000 A 
HETATM    5  C5  UNL     1      -0.496   2.258   0.314  1.00  0.00     0.027 A 
HETATM    6  C6  UNL     1      -1.820   2.484   0.400  1.00  0.00     0.133 A 
HETATM    7  O1  UNL     1      -2.303   3.754   0.475  1.00  0.00    -0.190 OA
HETATM    8  C15 UNL     1      -0.515  -1.481   0.286  1.00  0.00     0.079 C 
HETATM    9  C16 UNL     1      -1.922  -1.970   0.697  1.00  0.00     0.152 C 
HETATM   10  O3  UNL     1      -2.779  -0.837   0.562  1.00  0.00    -0.329 OA
ENDROOT
BRANCH   4  11
HETATM   11  C7  UNL     1       1.391   0.811   0.149  1.00  0.00    -0.000 C 
HETATM   12  C8  UNL     1       2.442   1.632  -0.038  1.00  0.00    -0.000 C 
BRANCH  12  13
HETATM   13  C9  UNL     1       2.568   2.849  -0.608  1.00  0.00     0.000 A 
HETATM   14  C10 UNL     1       3.701   3.553  -0.411  1.00  0.00     0.002 A 
HETATM   15  C11 UNL     1       3.880   4.770  -0.948  1.00  0.00     0.027 A 
HETATM   16  C12 UNL     1       2.950   5.330  -1.738  1.00  0.00     0.131 A 
HETATM   17  C13 UNL     1       1.851   4.604  -1.995  1.00  0.00     0.027 A 
HETATM   18  O2  UNL     1       3.127   6.560  -2.290  1.00  0.00    -0.190 OA
HETATM   19  C14 UNL     1       1.670   3.388  -1.454  1.00  0.00     0.002 A 
ENDBRANCH  12  13
ENDBRANCH   4  11
BRANCH   8  20
HETATM   20  C23 UNL     1      -0.133  -1.940  -1.109  1.00  0.00    -0.011 A 
HETATM   21  C24 UNL     1       0.948  -2.715  -1.302  1.00  0.00     0.024 A 
HETATM   22  C25 UNL     1       1.301  -3.156  -2.521  1.00  0.00     0.133 A 
HETATM   23  C26 UNL     1       0.531  -2.804  -3.564  1.00  0.00     0.055 A 
HETATM   24  O6  UNL     1       2.395  -3.945  -2.701  1.00  0.00    -0.190 OA
HETATM   25  C27 UNL     1      -0.559  -2.033  -3.421  1.00  0.00     0.133 A 
HETATM   26  C28 UNL     1      -0.874  -1.615  -2.183  1.00  0.00     0.024 A 
HETATM   27  O5  UNL     1      -1.331  -1.692  -4.488  1.00  0.00    -0.190 OA
ENDBRANCH   8  20
BRANCH   9  28
HETATM   28  C17 UNL     1      -1.980  -2.448   2.139  1.00  0.00     0.006 A 
HETATM   29  C18 UNL     1      -2.444  -3.671   2.453  1.00  0.00     0.000 A 
HETATM   30  C19 UNL     1      -2.495  -4.085   3.728  1.00  0.00     0.027 A 
HETATM   31  C20 UNL     1      -2.086  -3.299   4.738  1.00  0.00     0.131 A 
HETATM   32  C21 UNL     1      -1.625  -2.077   4.424  1.00  0.00     0.027 A 
HETATM   33  O4  UNL     1      -2.135  -3.712   6.033  1.00  0.00    -0.190 OA
HETATM   34  C22 UNL     1      -1.575  -1.659   3.150  1.00  0.00     0.000 A 
ENDBRANCH   9  28
TORSDOF 4
