REMARK  10 active torsions:
REMARK  status: ('A' for Active; 'I' for Inactive)
REMARK    1  A    between atoms: C1_1  and  O6_28 
REMARK    2  A    between atoms: C2_2  and  O5_26 
REMARK    3  A    between atoms: C3_3  and  O4_24 
REMARK    4  A    between atoms: C5_5  and  C7_7 
REMARK    5  A    between atoms: C7_7  and  C8_8 
REMARK    6  A    between atoms: C8_8  and  O1_9 
REMARK    7  A    between atoms: O1_9  and  C9_10 
REMARK    8  A    between atoms: C10_11  and  O2_12 
REMARK    9  A    between atoms: C13_15  and  C17_20 
REMARK   10  A    between atoms: C15_17  and  O3_18 
ROOT
HETATM    1  C8  UNL     1      -0.903   1.709   0.383  1.00  0.00     0.126 C 
HETATM    2  C20 UNL     1      -2.346   2.220   0.317  1.00  0.00     0.033 C 
ENDROOT
BRANCH   1   3
HETATM    3  C7  UNL     1       0.067   2.783  -0.130  1.00  0.00     0.057 C 
BRANCH   3   4
HETATM    4  C5  UNL     1       1.559   2.492  -0.129  1.00  0.00    -0.016 A 
HETATM    5  C4  UNL     1       2.109   1.354   0.316  1.00  0.00     0.022 A 
HETATM    6  C3  UNL     1       3.430   1.091   0.284  1.00  0.00     0.118 A 
HETATM    7  C2  UNL     1       4.254   2.045  -0.224  1.00  0.00     0.138 A 
HETATM    8  C1  UNL     1       3.738   3.225  -0.655  1.00  0.00     0.118 A 
HETATM    9  C6  UNL     1       2.408   3.416  -0.600  1.00  0.00     0.022 A 
BRANCH   6  10
HETATM   10  O4  UNL     1       3.931  -0.118   0.709  1.00  0.00    -0.326 OA
HETATM   11  C21 UNL     1       3.058  -1.189   0.985  1.00  0.00     0.181 C 
ENDBRANCH   6  10
BRANCH   7  12
HETATM   12  O5  UNL     1       5.630   1.950  -0.327  1.00  0.00    -0.324 OA
HETATM   13  C22 UNL     1       6.357   0.887   0.238  1.00  0.00     0.182 C 
ENDBRANCH   7  12
BRANCH   8  14
HETATM   14  O6  UNL     1       4.619   4.175  -1.129  1.00  0.00    -0.326 OA
HETATM   15  C23 UNL     1       4.136   5.451  -1.482  1.00  0.00     0.181 C 
ENDBRANCH   8  14
ENDBRANCH   3   4
ENDBRANCH   1   3
BRANCH   1  16
HETATM   16  O1  UNL     1      -0.757   0.549  -0.394  1.00  0.00    -0.329 OA
BRANCH  16  17
HETATM   17  C9  UNL     1      -1.611  -0.503  -0.140  1.00  0.00     0.138 A 
HETATM   18  C10 UNL     1      -2.451  -0.894  -1.127  1.00  0.00     0.118 A 
HETATM   19  C12 UNL     1      -3.257  -1.951  -0.904  1.00  0.00     0.026 A 
HETATM   20  C13 UNL     1      -3.275  -2.626   0.257  1.00  0.00     0.004 A 
HETATM   21  C14 UNL     1      -2.400  -2.222   1.195  1.00  0.00     0.026 A 
HETATM   22  C15 UNL     1      -1.560  -1.181   1.032  1.00  0.00     0.118 A 
BRANCH  18  23
HETATM   23  O2  UNL     1      -2.397  -0.221  -2.329  1.00  0.00    -0.326 OA
HETATM   24  C11 UNL     1      -2.811  -0.886  -3.501  1.00  0.00     0.181 C 
ENDBRANCH  18  23
BRANCH  20  25
HETATM   25  C17 UNL     1      -4.087  -3.674   0.519  1.00  0.00    -0.004 C 
HETATM   26  C18 UNL     1      -5.018  -4.225  -0.280  1.00  0.00    -0.026 C 
HETATM   27  C19 UNL     1      -5.878  -5.395   0.128  1.00  0.00     0.031 C 
ENDBRANCH  20  25
BRANCH  22  28
HETATM   28  O3  UNL     1      -0.634  -0.799   1.976  1.00  0.00    -0.326 OA
HETATM   29  C16 UNL     1      -0.360  -1.637   3.074  1.00  0.00     0.181 C 
ENDBRANCH  22  28
ENDBRANCH  16  17
ENDBRANCH   1  16
TORSDOF 10
