REMARK  2 active torsions:
REMARK  status: ('A' for Active; 'I' for Inactive)
REMARK    1  A    between atoms: C1_1  and  O4_19 
REMARK    2  A    between atoms: O4_19  and  C16_20 
ROOT
HETATM    1  C1  UNL     1       1.474   0.364   0.457  1.00  0.00     0.131 C 
HETATM    2  C2  UNL     1       0.697   1.639   0.793  1.00  0.00     0.052 C 
HETATM    3  C3  UNL     1      -0.302   1.988  -0.285  1.00  0.00    -0.042 C 
HETATM    4  C4  UNL     1      -1.704   1.422  -0.184  1.00  0.00     0.026 C 
HETATM    5  C5  UNL     1      -1.905  -0.115  -0.102  1.00  0.00     0.059 C 
HETATM    6  C6  UNL     1      -0.756  -0.906   0.540  1.00  0.00     0.130 C 
HETATM    7  C7  UNL     1       0.583  -0.713  -0.173  1.00  0.00     0.066 C 
HETATM    8  C8  UNL     1       1.204  -2.116  -0.160  1.00  0.00     0.091 C 
HETATM    9  C9  UNL     1       0.010  -3.020   0.057  1.00  0.00     0.271 C 
HETATM   10  O1  UNL     1      -1.038  -2.275   0.481  1.00  0.00    -0.304 OA
HETATM   11  O2  UNL     1      -0.015  -4.221  -0.104  1.00  0.00    -0.264 OA
HETATM   12  C10 UNL     1       1.986  -2.474  -1.429  1.00  0.00     0.011 C 
HETATM   13  C11 UNL     1      -3.255  -0.260   0.606  1.00  0.00     0.120 A 
HETATM   14  C12 UNL     1      -3.651   0.975   1.216  1.00  0.00     0.140 A 
HETATM   15  C13 UNL     1      -2.532   1.979   0.994  1.00  0.00     0.036 C 
HETATM   16  O3  UNL     1      -4.377   0.730   0.034  1.00  0.00    -0.357 OA
HETATM   17  C14 UNL     1      -3.853  -1.583   1.030  1.00  0.00     0.032 C 
HETATM   18  C15 UNL     1       0.067   2.777  -1.308  1.00  0.00    -0.009 C 
ENDROOT
BRANCH   1  19
HETATM   19  O4  UNL     1       2.503   0.671  -0.445  1.00  0.00    -0.304 OA
BRANCH  19  20
HETATM   20  C16 UNL     1       3.789   0.686  -0.002  1.00  0.00     0.272 C 
HETATM   21  C17 UNL     1       4.728   1.010  -1.147  1.00  0.00     0.106 C 
HETATM   22  O5  UNL     1       4.144   0.467   1.134  1.00  0.00    -0.264 OA
ENDBRANCH  19  20
ENDBRANCH   1  19
TORSDOF 2
