REMARK  7 active torsions:
REMARK  status: ('A' for Active; 'I' for Inactive)
REMARK    1  A    between atoms: C4_4  and  O2_8 
REMARK    2  A    between atoms: O2_8  and  C7_9 
REMARK    3  A    between atoms: C8_11  and  C12_18 
REMARK    4  A    between atoms: C12_18  and  O7_19 
REMARK    5  A    between atoms: O7_19  and  C13_20 
REMARK    6  A    between atoms: C15_24  and  C18_28 
REMARK    7  A    between atoms: C22_32  and  O11_34 
ROOT
HETATM    1  C1  UNL     1       2.175  -1.585   1.905  1.00  0.00     0.083 A 
HETATM    2  C2  UNL     1       2.210  -0.282   1.547  1.00  0.00     0.101 A 
HETATM    3  C3  UNL     1       1.040   0.381   1.499  1.00  0.00     0.049 A 
HETATM    4  C4  UNL     1      -0.151  -0.146   1.830  1.00  0.00     0.101 A 
HETATM    5  C5  UNL     1      -0.119  -1.436   2.207  1.00  0.00     0.052 A 
HETATM    6  C6  UNL     1       1.008  -2.166   2.260  1.00  0.00     0.138 A 
HETATM    7  O1  UNL     1       0.904  -3.468   2.650  1.00  0.00    -0.190 OA
HETATM    8  O9  UNL     1       3.339   0.385   1.149  1.00  0.00    -0.328 OA
HETATM    9  C15 UNL     1       4.366  -0.395   0.597  1.00  0.00     0.151 C 
HETATM   10  C16 UNL     1       4.610  -1.608   1.482  1.00  0.00     0.104 C 
HETATM   11  C17 UNL     1       3.331  -2.305   1.910  1.00  0.00     0.180 C 
HETATM   12  O10 UNL     1       3.420  -3.472   2.222  1.00  0.00    -0.291 OA
ENDROOT
BRANCH   4  13
HETATM   13  O2  UNL     1      -1.280   0.623   1.698  1.00  0.00    -0.303 OA
BRANCH  13  14
HETATM   14  C7  UNL     1      -2.523   0.012   1.421  1.00  0.00     0.274 C 
HETATM   15  O3  UNL     1      -3.060   0.698   0.307  1.00  0.00    -0.326 OA
HETATM   16  C8  UNL     1      -3.390   2.040   0.546  1.00  0.00     0.181 C 
HETATM   17  C9  UNL     1      -4.385   2.175   1.694  1.00  0.00     0.215 C 
HETATM   18  C10 UNL     1      -3.870   1.482   2.943  1.00  0.00     0.220 C 
HETATM   19  O6  UNL     1      -5.625   1.611   1.335  1.00  0.00    -0.218 OA
HETATM   20  C11 UNL     1      -3.460   0.063   2.609  1.00  0.00     0.241 C 
HETATM   21  O5  UNL     1      -2.748   2.174   3.445  1.00  0.00    -0.218 OA
HETATM   22  O4  UNL     1      -2.832  -0.493   3.738  1.00  0.00    -0.215 OA
BRANCH  16  23
HETATM   23  C12 UNL     1      -3.918   2.642  -0.754  1.00  0.00     0.184 C 
BRANCH  23  24
HETATM   24  O7  UNL     1      -2.873   2.700  -1.691  1.00  0.00    -0.299 OA
BRANCH  24  25
HETATM   25  C13 UNL     1      -3.171   3.241  -2.903  1.00  0.00     0.273 C 
HETATM   26  C14 UNL     1      -1.938   3.263  -3.784  1.00  0.00     0.106 C 
HETATM   27  O8  UNL     1      -4.259   3.657  -3.229  1.00  0.00    -0.264 OA
ENDBRANCH  24  25
ENDBRANCH  23  24
ENDBRANCH  16  23
ENDBRANCH  13  14
ENDBRANCH   4  13
BRANCH   9  28
HETATM   28  C18 UNL     1       4.123  -0.699  -0.877  1.00  0.00     0.008 A 
HETATM   29  C19 UNL     1       4.979  -0.246  -1.810  1.00  0.00     0.000 A 
HETATM   30  C20 UNL     1       4.747  -0.451  -3.114  1.00  0.00     0.029 A 
HETATM   31  C21 UNL     1       3.668  -1.131  -3.532  1.00  0.00     0.153 A 
HETATM   32  C22 UNL     1       2.828  -1.654  -2.618  1.00  0.00     0.119 A 
HETATM   33  O12 UNL     1       3.420  -1.310  -4.858  1.00  0.00    -0.188 OA
HETATM   34  C23 UNL     1       3.056  -1.389  -1.317  1.00  0.00     0.024 A 
BRANCH  32  35
HETATM   35  O11 UNL     1       1.691  -2.306  -3.023  1.00  0.00    -0.326 OA
HETATM   36  C24 UNL     1       1.810  -3.711  -3.021  1.00  0.00     0.181 C 
ENDBRANCH  32  35
ENDBRANCH   9  28
TORSDOF 7
