REMARK  6 active torsions:
REMARK  status: ('A' for Active; 'I' for Inactive)
REMARK    1  A    between atoms: C12_13  and  O3_17 
REMARK    2  A    between atoms: O3_17  and  C15_18 
REMARK    3  A    between atoms: C15_18  and  C16_19 
REMARK    4  A    between atoms: C17_20  and  C19_22 
REMARK    5  A    between atoms: C19_22  and  C20_23 
REMARK    6  A    between atoms: C20_23  and  C21_24 
ROOT
HETATM    1  C1  UNL     1      -5.267  -5.506   0.433  1.00  0.00     0.100 C 
HETATM    2  C2  UNL     1      -5.837  -4.313  -0.316  1.00  0.00     0.138 C 
HETATM    3  C3  UNL     1      -5.133  -3.078   0.220  1.00  0.00     0.057 C 
HETATM    4  C4  UNL     1      -3.629  -3.242   0.180  1.00  0.00    -0.015 A 
HETATM    5  C5  UNL     1      -3.000  -4.434   0.239  1.00  0.00     0.056 A 
HETATM    6  C6  UNL     1      -3.747  -5.572   0.365  1.00  0.00     0.177 C 
HETATM    7  O1  UNL     1      -3.295  -6.692   0.471  1.00  0.00    -0.291 OA
HETATM    8  C7  UNL     1      -1.644  -4.495   0.183  1.00  0.00     0.135 A 
HETATM    9  C8  UNL     1      -0.911  -3.356   0.093  1.00  0.00     0.051 A 
HETATM   10  C9  UNL     1      -1.550  -2.170   0.043  1.00  0.00     0.006 A 
HETATM   11  C10 UNL     1      -2.890  -2.128   0.080  1.00  0.00    -0.004 A 
HETATM   12  C11 UNL     1      -0.874  -1.011  -0.033  1.00  0.00     0.024 A 
HETATM   13  C12 UNL     1       0.467  -0.952  -0.063  1.00  0.00     0.097 A 
HETATM   14  C13 UNL     1       1.085  -2.143   0.006  1.00  0.00     0.052 A 
HETATM   15  C14 UNL     1       0.444  -3.325   0.077  1.00  0.00     0.135 A 
HETATM   16  O2  UNL     1       1.236  -4.428   0.160  1.00  0.00    -0.190 OA
HETATM   17  O4  UNL     1      -1.024  -5.711   0.188  1.00  0.00    -0.190 OA
HETATM   18  C25 UNL     1      -7.355  -4.217  -0.181  1.00  0.00     0.034 C 
HETATM   19  O5  UNL     1      -5.521  -4.454  -1.675  1.00  0.00    -0.225 OA
ENDROOT
BRANCH  13  20
HETATM   20  O3  UNL     1       1.082   0.275  -0.121  1.00  0.00    -0.326 OA
BRANCH  20  21
HETATM   21  C15 UNL     1       2.490   0.345  -0.012  1.00  0.00     0.174 C 
BRANCH  21  22
HETATM   22  C16 UNL     1       2.947   1.785  -0.012  1.00  0.00    -0.002 C 
HETATM   23  C17 UNL     1       4.234   2.177   0.005  1.00  0.00    -0.045 C 
HETATM   24  C18 UNL     1       5.356   1.164   0.024  1.00  0.00     0.026 C 
BRANCH  23  25
HETATM   25  C19 UNL     1       4.671   3.630   0.014  1.00  0.00     0.026 C 
BRANCH  25  26
HETATM   26  C20 UNL     1       3.551   4.681   0.000  1.00  0.00     0.030 C 
BRANCH  26  27
HETATM   27  C21 UNL     1       4.064   6.101  -0.003  1.00  0.00    -0.034 C 
HETATM   28  C22 UNL     1       3.272   7.188  -0.013  1.00  0.00    -0.048 C 
HETATM   29  C23 UNL     1       3.880   8.570  -0.024  1.00  0.00     0.026 C 
HETATM   30  C24 UNL     1       1.766   7.074  -0.018  1.00  0.00     0.026 C 
ENDBRANCH  26  27
ENDBRANCH  25  26
ENDBRANCH  23  25
ENDBRANCH  21  22
ENDBRANCH  20  21
ENDBRANCH  13  20
TORSDOF 6
