REMARK  1 active torsions:
REMARK  status: ('A' for Active; 'I' for Inactive)
REMARK    1  A    between atoms: C6_6  and  O1_7 
ROOT
HETATM    1  C1  UNL     1      -1.597  -0.912  -0.175  1.00  0.00     0.047 A 
HETATM    2  C2  UNL     1      -2.113   0.319  -0.303  1.00  0.00     0.104 A 
HETATM    3  C3  UNL     1      -1.333   1.398  -0.249  1.00  0.00     0.050 A 
HETATM    4  C4  UNL     1      -0.009   1.249  -0.066  1.00  0.00     0.106 A 
HETATM    5  C5  UNL     1       0.500  -0.003   0.058  1.00  0.00     0.084 A 
HETATM    6  C6  UNL     1      -0.277  -1.124   0.009  1.00  0.00     0.101 A 
HETATM    7  C8  UNL     1       1.852  -0.121   0.238  1.00  0.00     0.201 A 
HETATM    8  C9  UNL     1       2.612   1.003   0.281  1.00  0.00     0.062 A 
HETATM    9  C10 UNL     1       2.069   2.219   0.156  1.00  0.00     0.081 A 
HETATM   10  O2  UNL     1       0.737   2.394  -0.019  1.00  0.00    -0.311 OA
HETATM   11  C11 UNL     1       2.932   3.455   0.206  1.00  0.00     0.058 C 
HETATM   12  O3  UNL     1       2.456  -1.165   0.364  1.00  0.00    -0.286 OA
HETATM   13  O4  UNL     1      -3.332   0.327  -0.466  1.00  0.00    -0.305 OA
HETATM   14  C12 UNL     1      -3.713  -0.840  -0.460  1.00  0.00     0.123 A 
HETATM   15  C13 UNL     1      -2.691  -1.686  -0.282  1.00  0.00     0.031 A 
ENDROOT
BRANCH   6  16
HETATM   16  O1  UNL     1       0.323  -2.357   0.145  1.00  0.00    -0.328 OA
HETATM   17  C7  UNL     1      -0.405  -3.556   0.090  1.00  0.00     0.181 C 
ENDBRANCH   6  16
TORSDOF 1
