REMARK  5 active torsions:
REMARK  status: ('A' for Active; 'I' for Inactive)
REMARK    1  A    between atoms: C8_8  and  C9_9 
REMARK    2  A    between atoms: C16_16  and  C19_19 
REMARK    3  A    between atoms: C19_19  and  C20_20 
REMARK    4  A    between atoms: C21_21  and  C22_22 
REMARK    5  A    between atoms: C22_22  and  C23_23 
ROOT
HETATM    1  C9  UNL     1      -0.639  -2.498  -0.229  1.00  0.00    -0.009 C 
HETATM    2  C10 UNL     1      -0.086  -1.689   0.701  1.00  0.00    -0.044 C 
HETATM    3  C11 UNL     1       1.425  -1.448   0.814  1.00  0.00     0.018 C 
HETATM    4  C12 UNL     1       1.772   0.065   0.948  1.00  0.00     0.004 C 
HETATM    5  C13 UNL     1       0.875   0.743   2.004  1.00  0.00     0.001 C 
HETATM    6  C14 UNL     1      -0.621   0.490   1.818  1.00  0.00     0.004 C 
HETATM    7  C15 UNL     1      -0.873  -1.018   1.812  1.00  0.00     0.022 C 
HETATM    8  C16 UNL     1       1.597   0.542  -0.519  1.00  0.00     0.004 C 
HETATM    9  C17 UNL     1       2.150  -0.631  -1.363  1.00  0.00     0.001 C 
HETATM   10  C18 UNL     1       2.275  -1.832  -0.412  1.00  0.00     0.004 C 
HETATM   11  C28 UNL     1       3.229   0.280   1.427  1.00  0.00     0.000 C 
ENDROOT
BRANCH   1  12
HETATM   12  C8  UNL     1      -1.937  -2.816  -0.387  1.00  0.00    -0.005 C 
HETATM   13  C4  UNL     1      -2.563  -3.663  -1.239  1.00  0.00    -0.024 C 
HETATM   14  C3  UNL     1      -4.016  -3.942  -0.851  1.00  0.00     0.059 C 
HETATM   15  C5  UNL     1      -2.066  -4.265  -2.349  1.00  0.00    -0.026 C 
HETATM   16  C2  UNL     1      -4.539  -5.315  -1.242  1.00  0.00     0.157 C 
HETATM   17  C1  UNL     1      -4.299  -5.523  -2.725  1.00  0.00     0.038 C 
HETATM   18  O1  UNL     1      -3.870  -6.301  -0.490  1.00  0.00    -0.223 OA
HETATM   19  C6  UNL     1      -2.800  -5.423  -3.015  1.00  0.00     0.029 C 
HETATM   20  C7  UNL     1      -0.948  -3.891  -3.001  1.00  0.00    -0.005 C 
ENDBRANCH   1  12
BRANCH   8  21
HETATM   21  C19 UNL     1       2.183   1.913  -0.921  1.00  0.00     0.022 C 
HETATM   22  C27 UNL     1       1.904   2.250  -2.398  1.00  0.00     0.005 C 
BRANCH  21  23
HETATM   23  C20 UNL     1       1.601   3.027  -0.079  1.00  0.00    -0.031 C 
HETATM   24  C21 UNL     1       2.336   3.877   0.652  1.00  0.00    -0.031 C 
BRANCH  24  25
HETATM   25  C22 UNL     1       1.867   4.979   1.580  1.00  0.00     0.022 C 
HETATM   26  C26 UNL     1       2.372   4.654   3.000  1.00  0.00     0.005 C 
BRANCH  25  27
HETATM   27  C23 UNL     1       0.381   5.412   1.586  1.00  0.00     0.004 C 
HETATM   28  C24 UNL     1      -0.617   4.397   2.169  1.00  0.00     0.000 C 
HETATM   29  C25 UNL     1      -0.092   5.951   0.224  1.00  0.00     0.000 C 
ENDBRANCH  25  27
ENDBRANCH  24  25
ENDBRANCH  21  23
ENDBRANCH   8  21
TORSDOF 5
