REMARK  4 active torsions:
REMARK  status: ('A' for Active; 'I' for Inactive)
REMARK    1  A    between atoms: C1_2  and  C2_4 
REMARK    2  A    between atoms: C2_4  and  C3_5 
REMARK    3  A    between atoms: C3_5  and  C4_6 
REMARK    4  A    between atoms: C4_6  and  S1_7 
ROOT
HETATM    1  C2  UNL     1       1.893  -0.711   0.639  1.00  0.00     0.388 C 
HETATM    2  N1  UNL     1       2.469  -1.065   1.945  1.00  0.00     0.628 N 
ENDROOT
BRANCH   1   3
HETATM    3  C1  UNL     1       1.490  -1.959  -0.131  1.00  0.00     0.224 C 
HETATM    4  O1  UNL     1       1.089  -2.962   0.674  1.00  0.00    -0.646 OA
HETATM    5  O2  UNL     1       1.390  -1.963  -1.338  1.00  0.00    -0.646 OA
ENDBRANCH   1   3
BRANCH   1   6
HETATM    6  C3  UNL     1       0.687   0.237   0.812  1.00  0.00     0.061 C 
BRANCH   6   7
HETATM    7  C4  UNL     1       0.062   0.682  -0.523  1.00  0.00     0.051 C 
BRANCH   7   8
HETATM    8  S1  UNL     1      -1.371   1.786  -0.354  1.00  0.00    -0.178 SA
HETATM    9  C5  UNL     1      -1.829   1.925  -2.099  1.00  0.00     0.059 C 
HETATM   10  C6  UNL     1      -2.629   0.593   0.166  1.00  0.00     0.059 C 
ENDBRANCH   7   8
ENDBRANCH   6   7
ENDBRANCH   1   6
TORSDOF 4
