REMARK  8 active torsions:
REMARK  status: ('A' for Active; 'I' for Inactive)
REMARK    1  A    between atoms: C6_6  and  C7_7 
REMARK    2  A    between atoms: C8_8  and  C51_60 
REMARK    3  A    between atoms: C14_15  and  C15_16 
REMARK    4  A    between atoms: C18_20  and  C19_21 
REMARK    5  A    between atoms: C27_30  and  C29_32 
REMARK    6  A    between atoms: C30_33  and  C31_34 
REMARK    7  A    between atoms: C37_40  and  C45_50 
REMARK    8  A    between atoms: C38_41  and  C39_43 
ROOT
HETATM    1  C15 UNL     1       1.176  -1.403  -2.741  1.00  0.00     0.092 C 
HETATM    2  C16 UNL     1       0.158  -1.926  -1.779  1.00  0.00     0.011 A 
HETATM    3  C17 UNL     1      -0.806  -2.611  -2.394  1.00  0.00     0.096 A 
HETATM    4  O2  UNL     1      -0.680  -2.628  -3.617  1.00  0.00    -0.311 OA
HETATM    5  C18 UNL     1       0.572  -2.048  -4.016  1.00  0.00     0.085 C 
HETATM    6  C25 UNL     1      -1.768  -3.200  -1.671  1.00  0.00     0.024 A 
HETATM    7  C26 UNL     1      -1.727  -3.110  -0.328  1.00  0.00     0.002 A 
HETATM    8  C27 UNL     1      -0.767  -2.405   0.305  1.00  0.00    -0.000 A 
HETATM    9  C28 UNL     1       0.170  -1.797  -0.450  1.00  0.00    -0.002 A 
ENDROOT
BRANCH   8  10
HETATM   10  C29 UNL     1      -0.626  -2.275   1.639  1.00  0.00    -0.000 C 
HETATM   11  C30 UNL     1      -1.198  -2.949   2.646  1.00  0.00    -0.000 C 
BRANCH  11  12
HETATM   12  C31 UNL     1      -0.919  -2.853   3.969  1.00  0.00     0.000 A 
HETATM   13  C32 UNL     1      -1.553  -3.761   4.748  1.00  0.00     0.027 A 
HETATM   14  C33 UNL     1      -1.436  -3.842   6.085  1.00  0.00     0.133 A 
HETATM   15  C34 UNL     1      -0.651  -2.943   6.693  1.00  0.00     0.051 A 
HETATM   16  O8  UNL     1      -2.102  -4.784   6.806  1.00  0.00    -0.190 OA
HETATM   17  C35 UNL     1      -0.003  -2.033   5.956  1.00  0.00     0.093 A 
HETATM   18  C36 UNL     1      -0.102  -1.984   4.615  1.00  0.00     0.007 A 
HETATM   19  O4  UNL     1       0.716  -1.177   6.471  1.00  0.00    -0.329 OA
HETATM   20  C37 UNL     1       0.699  -0.776   4.150  1.00  0.00     0.079 C 
HETATM   21  C38 UNL     1       1.390  -0.417   5.480  1.00  0.00     0.152 C 
BRANCH  20  22
HETATM   22  C45 UNL     1       1.776  -0.829   3.084  1.00  0.00    -0.011 A 
HETATM   23  C46 UNL     1       1.942   0.226   2.264  1.00  0.00     0.024 A 
HETATM   24  C47 UNL     1       2.847   0.232   1.273  1.00  0.00     0.133 A 
HETATM   25  C48 UNL     1       3.602  -0.868   1.121  1.00  0.00     0.055 A 
HETATM   26  O7  UNL     1       2.956   1.287   0.420  1.00  0.00    -0.190 OA
HETATM   27  C49 UNL     1       3.493  -1.933   1.933  1.00  0.00     0.133 A 
HETATM   28  C50 UNL     1       2.571  -1.897   2.912  1.00  0.00     0.024 A 
HETATM   29  O6  UNL     1       4.276  -3.031   1.760  1.00  0.00    -0.190 OA
ENDBRANCH  20  22
BRANCH  21  30
HETATM   30  C39 UNL     1       1.414   1.074   5.715  1.00  0.00     0.006 A 
HETATM   31  C40 UNL     1       2.518   1.789   5.440  1.00  0.00     0.000 A 
HETATM   32  C41 UNL     1       2.537   3.119   5.611  1.00  0.00     0.027 A 
HETATM   33  C42 UNL     1       1.455   3.779   6.058  1.00  0.00     0.131 A 
HETATM   34  C43 UNL     1       0.352   3.059   6.326  1.00  0.00     0.027 A 
HETATM   35  O5  UNL     1       1.467   5.129   6.221  1.00  0.00    -0.190 OA
HETATM   36  C44 UNL     1       0.328   1.728   6.159  1.00  0.00     0.000 A 
ENDBRANCH  21  30
ENDBRANCH  11  12
ENDBRANCH   8  10
BRANCH   1  37
HETATM   37  C14 UNL     1       1.498   0.070  -2.583  1.00  0.00    -0.012 A 
HETATM   38  C9  UNL     1       0.626   1.062  -2.311  1.00  0.00     0.004 A 
HETATM   39  C8  UNL     1      -0.859   1.022  -2.043  1.00  0.00     0.078 A 
HETATM   40  C10 UNL     1       1.060   2.322  -2.161  1.00  0.00     0.092 A 
HETATM   41  C7  UNL     1      -1.099   2.538  -1.853  1.00  0.00     0.152 A 
HETATM   42  O1  UNL     1       0.187   3.147  -1.907  1.00  0.00    -0.329 OA
HETATM   43  C11 UNL     1       2.356   2.643  -2.249  1.00  0.00     0.051 A 
HETATM   44  C12 UNL     1       3.253   1.678  -2.494  1.00  0.00     0.133 A 
HETATM   45  C13 UNL     1       2.799   0.424  -2.652  1.00  0.00     0.024 A 
HETATM   46  O9  UNL     1       4.582   1.958  -2.530  1.00  0.00    -0.190 OA
BRANCH  39  47
HETATM   47  C51 UNL     1      -1.752   0.479  -3.130  1.00  0.00    -0.011 A 
HETATM   48  C52 UNL     1      -2.827  -0.264  -2.815  1.00  0.00     0.024 A 
HETATM   49  C53 UNL     1      -3.652  -0.754  -3.754  1.00  0.00     0.133 A 
HETATM   50  C54 UNL     1      -3.389  -0.454  -5.037  1.00  0.00     0.055 A 
HETATM   51  O11 UNL     1      -4.715  -1.535  -3.424  1.00  0.00    -0.190 OA
HETATM   52  C55 UNL     1      -2.352   0.322  -5.392  1.00  0.00     0.133 A 
HETATM   53  C56 UNL     1      -1.535   0.766  -4.423  1.00  0.00     0.024 A 
HETATM   54  O10 UNL     1      -2.089   0.601  -6.696  1.00  0.00    -0.190 OA
ENDBRANCH  39  47
BRANCH  41  55
HETATM   55  C6  UNL     1      -1.794   2.899  -0.560  1.00  0.00     0.006 A 
HETATM   56  C1  UNL     1      -1.162   2.775   0.621  1.00  0.00     0.000 A 
HETATM   57  C2  UNL     1      -1.767   3.125   1.766  1.00  0.00     0.027 A 
HETATM   58  C3  UNL     1      -3.021   3.609   1.772  1.00  0.00     0.131 A 
HETATM   59  C4  UNL     1      -3.652   3.723   0.591  1.00  0.00     0.027 A 
HETATM   60  O12 UNL     1      -3.637   3.977   2.928  1.00  0.00    -0.190 OA
HETATM   61  C5  UNL     1      -3.052   3.372  -0.557  1.00  0.00     0.000 A 
ENDBRANCH  41  55
ENDBRANCH   1  37
BRANCH   5  62
HETATM   62  C19 UNL     1       0.555  -1.384  -5.379  1.00  0.00     0.019 A 
HETATM   63  C20 UNL     1      -0.214  -1.903  -6.355  1.00  0.00     0.004 A 
HETATM   64  C21 UNL     1      -0.231  -1.387  -7.593  1.00  0.00     0.027 A 
HETATM   65  C22 UNL     1       0.519  -0.320  -7.912  1.00  0.00     0.131 A 
HETATM   66  C23 UNL     1       1.295   0.197  -6.946  1.00  0.00     0.027 A 
HETATM   67  O3  UNL     1       0.498   0.220  -9.159  1.00  0.00    -0.190 OA
HETATM   68  C24 UNL     1       1.322  -0.333  -5.713  1.00  0.00     0.004 A 
ENDBRANCH   5  62
TORSDOF 8
