REMARK  1 active torsions:
REMARK  status: ('A' for Active; 'I' for Inactive)
REMARK    1  A    between atoms: C4_4  and  C14_18 
ROOT
HETATM    1  C1  UNL     1      -0.485   1.267   2.220  1.00  0.00     0.013 C 
HETATM    2  C2  UNL     1      -0.992   0.014   2.340  1.00  0.00     0.199 C 
HETATM    3  C3  UNL     1      -1.659  -0.627   1.130  1.00  0.00     0.218 C 
HETATM    4  C4  UNL     1      -1.007  -0.293  -0.231  1.00  0.00     0.097 C 
HETATM    5  C5  UNL     1      -0.932   1.255  -0.280  1.00  0.00     0.142 C 
HETATM    6  C6  UNL     1      -0.485   1.877   1.024  1.00  0.00     0.002 C 
HETATM    7  O1  UNL     1      -0.130   1.715  -1.346  1.00  0.00    -0.347 OA
HETATM    8  C7  UNL     1       1.168   1.162  -1.347  1.00  0.00     0.199 C 
HETATM    9  C8  UNL     1       1.405   0.245  -0.167  1.00  0.00     0.150 A 
HETATM   10  C9  UNL     1       0.441  -0.910  -0.388  1.00  0.00     0.040 C 
HETATM   11  C10 UNL     1       0.696  -2.180   0.447  1.00  0.00     0.003 C 
HETATM   12  C11 UNL     1       0.862  -1.197  -1.866  1.00  0.00     0.068 C 
HETATM   13  C12 UNL     1       1.251   0.149  -2.475  1.00  0.00     0.277 C 
HETATM   14  O2  UNL     1       2.560   0.119  -3.002  1.00  0.00    -0.190 OA
HETATM   15  O3  UNL     1       0.423   0.497  -3.563  1.00  0.00    -0.190 OA
HETATM   16  O4  UNL     1       2.942  -0.190  -0.053  1.00  0.00    -0.351 OA
HETATM   17  C13 UNL     1       2.248   0.498   0.957  1.00  0.00     0.172 A 
HETATM   18  O6  UNL     1      -3.018  -0.216   1.141  1.00  0.00    -0.215 OA
HETATM   19  O7  UNL     1      -0.969  -0.580   3.395  1.00  0.00    -0.289 OA
HETATM   20  C15 UNL     1       0.089   1.948   3.442  1.00  0.00     0.034 C 
ENDROOT
BRANCH   4  21
HETATM   21  C14 UNL     1      -1.976  -0.757  -1.341  1.00  0.00     0.188 C 
HETATM   22  O5  UNL     1      -2.178  -2.152  -1.260  1.00  0.00    -0.221 OA
ENDBRANCH   4  21
TORSDOF 1
