REMARK  10 active torsions:
REMARK  status: ('A' for Active; 'I' for Inactive)
REMARK    1  A    between atoms: C1_1  and  C2_2 
REMARK    2  A    between atoms: C2_2  and  C3_3 
REMARK    3  A    between atoms: C3_3  and  C4_4 
REMARK    4  A    between atoms: C4_4  and  N1_5 
REMARK    5  A    between atoms: C4_4  and  C14_20 
REMARK    6  A    between atoms: N1_5  and  C5_6 
REMARK    7  A    between atoms: C5_6  and  C6_7 
REMARK    8  A    between atoms: C6_7  and  C7_8 
REMARK    9  A    between atoms: C9_10  and  C13_17 
REMARK   10  A    between atoms: C10_12  and  C12_14 
ROOT
HETATM    1  C7  UNL     1       0.060  -1.450  -0.361  1.00  0.00    -0.016 C 
HETATM    2  C8  UNL     1       1.139  -2.213  -0.089  1.00  0.00     0.021 C 
HETATM    3  C9  UNL     1       1.111  -3.558  -0.043  1.00  0.00     0.141 C 
HETATM    4  N2  UNL     1       0.029  -4.215  -0.140  1.00  0.00    -0.255 NA
HETATM    5  C10 UNL     1      -1.297  -3.582  -0.185  1.00  0.00     0.194 C 
HETATM    6  C11 UNL     1      -1.240  -2.143  -0.709  1.00  0.00     0.062 C 
ENDROOT
BRANCH   1   7
HETATM    7  C6  UNL     1       0.202  -0.107  -0.416  1.00  0.00     0.016 C 
BRANCH   7   8
HETATM    8  C5  UNL     1      -0.748   0.776  -0.774  1.00  0.00     0.093 C 
BRANCH   8   9
HETATM    9  N1  UNL     1      -0.732   2.036  -0.907  1.00  0.00    -0.260 NA
BRANCH   9  10
HETATM   10  C4  UNL     1       0.516   2.817  -0.704  1.00  0.00     0.191 C 
BRANCH  10  11
HETATM   11  C3  UNL     1       0.143   4.257  -0.288  1.00  0.00     0.047 C 
BRANCH  11  12
HETATM   12  C2  UNL     1      -0.625   4.325   1.042  1.00  0.00     0.100 C 
BRANCH  12  13
HETATM   13  C1  UNL     1      -0.964   5.747   1.454  1.00  0.00     0.185 C 
HETATM   14  O7  UNL     1      -0.625   6.765   0.900  1.00  0.00    -0.647 OA
HETATM   15  O8  UNL     1      -1.724   5.772   2.564  1.00  0.00    -0.647 OA
ENDBRANCH  12  13
ENDBRANCH  11  12
ENDBRANCH  10  11
BRANCH  10  16
HETATM   16  C14 UNL     1       1.335   2.831  -1.996  1.00  0.00     0.209 C 
HETATM   17  O5  UNL     1       1.896   1.637  -2.258  1.00  0.00    -0.646 OA
HETATM   18  O6  UNL     1       1.515   3.775  -2.730  1.00  0.00    -0.646 OA
ENDBRANCH  10  16
ENDBRANCH   9  10
ENDBRANCH   8   9
ENDBRANCH   7   8
ENDBRANCH   1   7
BRANCH   3  19
HETATM   19  C13 UNL     1       2.255  -4.281   0.127  1.00  0.00     0.229 C 
HETATM   20  O3  UNL     1       2.243  -5.633   0.180  1.00  0.00    -0.643 OA
HETATM   21  O4  UNL     1       3.343  -3.759   0.234  1.00  0.00    -0.643 OA
ENDBRANCH   3  19
BRANCH   5  22
HETATM   22  C12 UNL     1      -1.854  -3.669   1.232  1.00  0.00     0.209 C 
HETATM   23  O1  UNL     1      -2.457  -4.850   1.459  1.00  0.00    -0.646 OA
HETATM   24  O2  UNL     1      -1.799  -2.812   2.082  1.00  0.00    -0.646 OA
ENDBRANCH   5  22
TORSDOF 10
