REMARK  5 active torsions:
REMARK  status: ('A' for Active; 'I' for Inactive)
REMARK    1  A    between atoms: C1_1  and  O9_31 
REMARK    2  A    between atoms: C7_7  and  O1_8 
REMARK    3  A    between atoms: O1_8  and  C8_9 
REMARK    4  A    between atoms: O9_31  and  C23_32 
REMARK    5  A    between atoms: C23_32  and  C24_34 
ROOT
HETATM    1  C1  UNL     1      -0.174  -0.490   0.277  1.00  0.00     0.133 C 
HETATM    2  C2  UNL     1       0.112   0.756  -0.589  1.00  0.00     0.064 C 
HETATM    3  C3  UNL     1       0.664   1.913   0.311  1.00  0.00     0.071 C 
HETATM    4  C4  UNL     1       0.607   3.169  -0.587  1.00  0.00     0.158 C 
HETATM    5  C5  UNL     1       1.507   3.076  -1.821  1.00  0.00     0.065 C 
HETATM    6  C6  UNL     1       1.424   1.768  -2.604  1.00  0.00     0.146 A 
HETATM    7  C7  UNL     1       0.731   0.547  -1.977  1.00  0.00     0.156 A 
HETATM    8  C10 UNL     1       2.125  -0.071  -2.068  1.00  0.00     0.172 A 
HETATM    9  O3  UNL     1       2.671   1.102  -2.639  1.00  0.00    -0.351 OA
HETATM   10  O4  UNL     1       0.988   4.323   0.131  1.00  0.00    -0.223 OA
HETATM   11  C11 UNL     1      -0.257   2.018   1.577  1.00  0.00     0.220 C 
HETATM   12  C12 UNL     1      -1.545   1.315   1.311  1.00  0.00    -0.009 C 
HETATM   13  C13 UNL     1      -1.364  -0.177   1.233  1.00  0.00     0.069 C 
HETATM   14  C14 UNL     1      -2.747  -0.584   0.658  1.00  0.00     0.046 C 
HETATM   15  C15 UNL     1      -3.725   0.569   0.911  1.00  0.00     0.171 C 
HETATM   16  C16 UNL     1      -2.799   1.740   1.106  1.00  0.00    -0.019 C 
HETATM   17  C17 UNL     1      -3.352   3.134   1.099  1.00  0.00     0.028 C 
HETATM   18  O5  UNL     1      -4.590   0.745  -0.195  1.00  0.00    -0.219 OA
HETATM   19  C18 UNL     1      -1.078  -0.591   2.690  1.00  0.00     0.107 C 
HETATM   20  O6  UNL     1      -0.007   0.134   3.223  1.00  0.00    -0.304 OA
HETATM   21  C19 UNL     1       0.339   1.397   2.845  1.00  0.00     0.303 C 
HETATM   22  O7  UNL     1       1.114   2.086   3.476  1.00  0.00    -0.261 OA
HETATM   23  C20 UNL     1      -2.270  -0.360   3.639  1.00  0.00     0.031 C 
HETATM   24  C21 UNL     1      -0.720  -2.084   2.790  1.00  0.00     0.031 C 
HETATM   25  O8  UNL     1      -0.442   3.370   1.964  1.00  0.00    -0.211 OA
HETATM   26  C22 UNL     1       2.133   1.702   0.756  1.00  0.00     0.006 C 
ENDROOT
BRANCH   1  27
HETATM   27  O9  UNL     1      -0.468  -1.622  -0.477  1.00  0.00    -0.300 OA
BRANCH  27  28
HETATM   28  C23 UNL     1       0.242  -2.780  -0.705  1.00  0.00     0.296 C 
HETATM   29  O10 UNL     1      -0.384  -3.555  -1.405  1.00  0.00    -0.259 OA
BRANCH  28  30
HETATM   30  C24 UNL     1       1.478  -3.241  -0.318  1.00  0.00     0.063 A 
HETATM   31  C25 UNL     1       1.857  -4.480  -0.712  1.00  0.00     0.005 A 
HETATM   32  C26 UNL     1       3.038  -5.025  -0.380  1.00  0.00     0.000 A 
HETATM   33  C27 UNL     1       3.909  -4.340   0.371  1.00  0.00     0.000 A 
HETATM   34  C28 UNL     1       3.571  -3.108   0.773  1.00  0.00     0.000 A 
HETATM   35  C29 UNL     1       2.384  -2.580   0.431  1.00  0.00     0.005 A 
ENDBRANCH  28  30
ENDBRANCH  27  28
ENDBRANCH   1  27
BRANCH   7  36
HETATM   36  O1  UNL     1      -0.207  -0.040  -2.831  1.00  0.00    -0.302 OA
BRANCH  36  37
HETATM   37  C8  UNL     1       0.016  -0.356  -4.134  1.00  0.00     0.272 C 
HETATM   38  C9  UNL     1      -1.231  -0.975  -4.737  1.00  0.00     0.106 C 
HETATM   39  O2  UNL     1       1.042  -0.184  -4.750  1.00  0.00    -0.264 OA
ENDBRANCH  36  37
ENDBRANCH   7  36
TORSDOF 5
