REMARK  2 active torsions:
REMARK  status: ('A' for Active; 'I' for Inactive)
REMARK    1  A    between atoms: C7_7  and  C12_13 
REMARK    2  A    between atoms: C8_8  and  C11_11 
ROOT
HETATM    1  C1  UNL     1      -1.738   0.363  -1.987  1.00  0.00     0.000 C 
HETATM    2  C2  UNL     1      -2.461  -0.434  -0.902  1.00  0.00     0.000 C 
HETATM    3  C3  UNL     1      -1.481  -1.319  -0.096  1.00  0.00     0.000 C 
HETATM    4  C4  UNL     1      -0.054  -0.688  -0.029  1.00  0.00     0.007 C 
HETATM    5  C5  UNL     1       0.049   0.862  -0.104  1.00  0.00     0.037 C 
HETATM    6  C6  UNL     1      -0.621   1.279  -1.451  1.00  0.00     0.003 C 
HETATM    7  C7  UNL     1       1.546   1.344  -0.004  1.00  0.00     0.205 C 
HETATM    8  C8  UNL     1       2.585   0.287   0.351  1.00  0.00     0.050 C 
HETATM    9  C9  UNL     1       2.233  -0.885   0.901  1.00  0.00    -0.024 C 
HETATM   10  C10 UNL     1       0.798  -1.258   1.116  1.00  0.00     0.026 C 
HETATM   11  O3  UNL     1       1.975   1.935  -1.226  1.00  0.00    -0.213 OA
HETATM   12  C13 UNL     1      -0.768   1.530   1.034  1.00  0.00     0.003 C 
HETATM   13  C14 UNL     1      -2.099  -1.600   1.293  1.00  0.00     0.000 C 
HETATM   14  C15 UNL     1      -1.390  -2.692  -0.817  1.00  0.00     0.000 C 
ENDROOT
BRANCH   7  15
HETATM   15  C12 UNL     1       1.779   2.427   1.056  1.00  0.00     0.241 C 
HETATM   16  O2  UNL     1       2.211   3.505   0.720  1.00  0.00    -0.285 OA
ENDBRANCH   7  15
BRANCH   8  17
HETATM   17  C11 UNL     1       3.905   0.543   0.152  1.00  0.00     0.232 C 
HETATM   18  O1  UNL     1       4.284   1.593  -0.311  1.00  0.00    -0.283 OA
ENDBRANCH   8  17
TORSDOF 2
