REMARK  5 active torsions:
REMARK  status: ('A' for Active; 'I' for Inactive)
REMARK    1  A    between atoms: C4_5  and  C7_10 
REMARK    2  A    between atoms: C5_6  and  C6_7 
REMARK    3  A    between atoms: C7_10  and  C8_11 
REMARK    4  A    between atoms: C8_11  and  C9_12 
REMARK    5  A    between atoms: C9_12  and  C10_13 
ROOT
HETATM    1  C1  UNL     1       1.256   3.242   0.456  1.00  0.00     0.009 A 
HETATM    2  C2  UNL     1       0.069   3.792   0.744  1.00  0.00     0.021 A 
HETATM    3  C3  UNL     1      -1.006   2.998   0.673  1.00  0.00     0.099 A 
HETATM    4  N1  UNL     1      -0.946   1.777   0.355  1.00  0.00    -0.248 NA
HETATM    5  C4  UNL     1       0.167   1.231   0.082  1.00  0.00     0.065 A 
HETATM    6  C5  UNL     1       1.323   1.939   0.114  1.00  0.00     0.078 A 
ENDROOT
BRANCH   5   7
HETATM    7  C7  UNL     1       0.048  -0.241  -0.284  1.00  0.00     0.047 C 
BRANCH   7   8
HETATM    8  C8  UNL     1      -1.329  -0.928  -0.136  1.00  0.00     0.017 C 
HETATM    9  C11 UNL     1      -1.718  -1.139   1.339  1.00  0.00     0.001 C 
BRANCH   8  10
HETATM   10  C9  UNL     1      -1.393  -2.256  -0.925  1.00  0.00     0.098 C 
BRANCH  10  11
HETATM   11  C10 UNL     1      -0.346  -3.302  -0.591  1.00  0.00     0.185 C 
HETATM   12  O3  UNL     1      -0.304  -4.263  -1.534  1.00  0.00    -0.647 OA
HETATM   13  O4  UNL     1       0.392  -3.340   0.364  1.00  0.00    -0.647 OA
ENDBRANCH  10  11
ENDBRANCH   8  10
ENDBRANCH   7   8
ENDBRANCH   5   7
BRANCH   6  14
HETATM   14  C6  UNL     1       2.547   1.413  -0.186  1.00  0.00     0.212 C 
HETATM   15  O1  UNL     1       2.782   0.136  -0.557  1.00  0.00    -0.644 OA
HETATM   16  O2  UNL     1       3.543   2.101  -0.140  1.00  0.00    -0.644 OA
ENDBRANCH   6  14
TORSDOF 5
