REMARK  14 active torsions:
REMARK  status: ('A' for Active; 'I' for Inactive)
REMARK    1  A    between atoms: C1_1  and  O16_60 
REMARK    2  A    between atoms: C5_5  and  C40_55 
REMARK    3  A    between atoms: C6_6  and  O1_7 
REMARK    4  A    between atoms: O1_7  and  C7_8 
REMARK    5  A    between atoms: C9_11  and  O12_51 
REMARK    6  A    between atoms: C10_12  and  O10_42 
REMARK    7  A    between atoms: C26_32  and  O7_33 
REMARK    8  A    between atoms: O7_33  and  C27_34 
REMARK    9  A    between atoms: O10_42  and  C32_43 
REMARK   10  A    between atoms: C32_43  and  C33_45 
REMARK   11  A    between atoms: O12_51  and  C38_52 
REMARK   12  A    between atoms: C40_55  and  O14_56 
REMARK   13  A    between atoms: O14_56  and  C41_57 
REMARK   14  A    between atoms: O16_60  and  C43_61 
ROOT
HETATM    1  C1  UNL     1      -0.271   2.440   2.509  1.00  0.00     0.154 C 
HETATM    2  C2  UNL     1      -0.299   3.134   1.147  1.00  0.00     0.058 A 
HETATM    3  C3  UNL     1      -0.558   2.291  -0.076  1.00  0.00     0.033 A 
HETATM    4  C4  UNL     1      -0.286   0.772   0.014  1.00  0.00     0.038 C 
HETATM    5  C5  UNL     1      -0.747   0.176   1.397  1.00  0.00     0.086 C 
HETATM    6  C6  UNL     1      -0.059   0.921   2.589  1.00  0.00     0.157 C 
HETATM    7  C9  UNL     1      -0.534  -1.374   1.434  1.00  0.00     0.159 C 
HETATM    8  C10 UNL     1      -1.133  -2.152   0.248  1.00  0.00     0.182 C 
HETATM    9  C11 UNL     1      -0.861  -1.509  -1.125  1.00  0.00     0.182 C 
HETATM   10  C12 UNL     1      -1.003   0.024  -1.176  1.00  0.00     0.155 C 
HETATM   11  C13 UNL     1      -2.498   0.329  -1.450  1.00  0.00     0.036 C 
HETATM   12  O3  UNL     1      -0.393   0.496  -2.349  1.00  0.00    -0.223 OA
HETATM   13  O4  UNL     1       0.366  -1.968  -1.632  1.00  0.00    -0.299 OA
HETATM   14  C14 UNL     1       0.466  -2.053  -2.993  1.00  0.00     0.271 C 
HETATM   15  O5  UNL     1      -0.377  -1.627  -3.751  1.00  0.00    -0.264 OA
HETATM   16  C15 UNL     1       1.679  -2.857  -3.434  1.00  0.00     0.087 C 
HETATM   17  C16 UNL     1       2.888  -2.757  -2.490  1.00  0.00     0.010 C 
HETATM   18  C17 UNL     1       2.046  -2.643  -4.920  1.00  0.00     0.016 C 
HETATM   19  C18 UNL     1       2.558  -1.251  -5.345  1.00  0.00     0.046 C 
HETATM   20  C19 UNL     1       1.494  -0.159  -5.364  1.00  0.00     0.064 A 
HETATM   21  C20 UNL     1       1.356   0.905  -4.535  1.00  0.00     0.077 A 
HETATM   22  C21 UNL     1       2.188   1.188  -3.488  1.00  0.00     0.297 C 
HETATM   23  O6  UNL     1       1.958   2.236  -2.628  1.00  0.00    -0.298 OA
HETATM   24  C22 UNL     1       2.736   2.346  -1.462  1.00  0.00     0.154 C 
HETATM   25  C23 UNL     1       1.914   2.167  -0.157  1.00  0.00     0.052 C 
HETATM   26  C24 UNL     1       1.282   0.746  -0.148  1.00  0.00     0.007 C 
HETATM   27  C25 UNL     1       2.969   2.408   0.949  1.00  0.00     0.005 C 
HETATM   28  C26 UNL     1       0.722   3.090   0.030  1.00  0.00     0.106 A 
HETATM   29  O9  UNL     1       3.135   0.469  -3.272  1.00  0.00    -0.259 OA
HETATM   30  C29 UNL     1       0.316   1.736  -4.746  1.00  0.00     0.008 A 
HETATM   31  C30 UNL     1      -0.542   1.488  -5.743  1.00  0.00     0.021 A 
HETATM   32  C31 UNL     1      -0.305   0.411  -6.500  1.00  0.00     0.099 A 
HETATM   33  N1  UNL     1       0.673  -0.366  -6.312  1.00  0.00    -0.248 NA
ENDROOT
BRANCH   8  34
HETATM   34  O10 UNL     1      -2.491  -2.510   0.325  1.00  0.00    -0.296 OA
BRANCH  34  35
HETATM   35  C32 UNL     1      -2.952  -3.345   1.311  1.00  0.00     0.297 C 
HETATM   36  O11 UNL     1      -2.522  -3.241   2.439  1.00  0.00    -0.259 OA
BRANCH  35  37
HETATM   37  C33 UNL     1      -3.797  -4.386   1.051  1.00  0.00     0.082 A 
HETATM   38  C34 UNL     1      -4.247  -4.636  -0.194  1.00  0.00     0.104 A 
HETATM   39  N2  UNL     1      -5.008  -5.601  -0.503  1.00  0.00    -0.242 NA
HETATM   40  C35 UNL     1      -5.378  -6.385   0.419  1.00  0.00     0.099 A 
HETATM   41  C36 UNL     1      -5.011  -6.245   1.701  1.00  0.00     0.021 A 
HETATM   42  C37 UNL     1      -4.204  -5.223   2.025  1.00  0.00     0.009 A 
ENDBRANCH  35  37
ENDBRANCH  34  35
ENDBRANCH   8  34
BRANCH   7  43
HETATM   43  O12 UNL     1       0.826  -1.706   1.509  1.00  0.00    -0.301 OA
BRANCH  43  44
HETATM   44  C38 UNL     1       1.201  -2.951   1.915  1.00  0.00     0.272 C 
HETATM   45  C39 UNL     1       2.709  -3.090   1.878  1.00  0.00     0.106 C 
HETATM   46  O13 UNL     1       0.447  -3.838   2.244  1.00  0.00    -0.264 OA
ENDBRANCH  43  44
ENDBRANCH   7  43
BRANCH   5  47
HETATM   47  C40 UNL     1      -2.274   0.434   1.605  1.00  0.00     0.157 C 
BRANCH  47  48
HETATM   48  O14 UNL     1      -2.699   0.133   2.912  1.00  0.00    -0.302 OA
BRANCH  48  49
HETATM   49  C41 UNL     1      -4.032  -0.043   3.118  1.00  0.00     0.272 C 
HETATM   50  C42 UNL     1      -4.295  -0.381   4.571  1.00  0.00     0.106 C 
HETATM   51  O15 UNL     1      -4.885   0.057   2.265  1.00  0.00    -0.264 OA
ENDBRANCH  48  49
ENDBRANCH  47  48
ENDBRANCH   5  47
BRANCH   6  52
HETATM   52  O1  UNL     1       1.304   0.661   2.744  1.00  0.00    -0.302 OA
BRANCH  52  53
HETATM   53  C7  UNL     1       1.782   0.062   3.869  1.00  0.00     0.272 C 
HETATM   54  C8  UNL     1       3.296   0.036   3.831  1.00  0.00     0.106 C 
HETATM   55  O2  UNL     1       1.112  -0.371   4.779  1.00  0.00    -0.264 OA
ENDBRANCH  52  53
ENDBRANCH   6  52
BRANCH   1  56
HETATM   56  O16 UNL     1       0.585   3.082   3.427  1.00  0.00    -0.302 OA
BRANCH  56  57
HETATM   57  C43 UNL     1       0.213   4.279   3.955  1.00  0.00     0.272 C 
HETATM   58  C44 UNL     1       1.286   4.781   4.899  1.00  0.00     0.106 C 
HETATM   59  O17 UNL     1      -0.814   4.866   3.702  1.00  0.00    -0.264 OA
ENDBRANCH  56  57
ENDBRANCH   1  56
BRANCH  28  60
HETATM   60  O7  UNL     1       0.678   4.243  -0.788  1.00  0.00    -0.306 OA
BRANCH  60  61
HETATM   61  C27 UNL     1       1.569   5.230  -0.481  1.00  0.00     0.272 C 
HETATM   62  O8  UNL     1       2.457   5.599  -1.219  1.00  0.00    -0.264 OA
HETATM   63  C28 UNL     1       1.319   5.868   0.872  1.00  0.00     0.106 C 
ENDBRANCH  60  61
ENDBRANCH  28  60
TORSDOF 14
