REMARK  2 active torsions:
REMARK  status: ('A' for Active; 'I' for Inactive)
REMARK    1  A    between atoms: C15_18  and  C18_21 
REMARK    2  A    between atoms: C18_21  and  C19_22 
ROOT
HETATM    1  C1  UNL     1      -5.149  -1.290  -3.057  1.00  0.00     0.033 C 
HETATM    2  C2  UNL     1      -5.125  -2.601  -2.778  1.00  0.00    -0.021 C 
HETATM    3  C3  UNL     1      -3.928  -3.290  -2.190  1.00  0.00     0.059 C 
HETATM    4  C4  UNL     1      -2.661  -2.473  -2.479  1.00  0.00     0.164 C 
HETATM    5  C5  UNL     1      -2.860  -0.997  -2.068  1.00  0.00     0.084 C 
HETATM    6  C6  UNL     1      -4.113  -0.455  -2.789  1.00  0.00     0.174 C 
HETATM    7  O1  UNL     1      -4.210   0.716  -3.080  1.00  0.00    -0.291 OA
HETATM    8  C7  UNL     1      -1.587  -0.182  -2.465  1.00  0.00     0.019 C 
HETATM    9  C8  UNL     1      -0.235  -0.962  -2.386  1.00  0.00     0.031 C 
HETATM   10  C9  UNL     1      -0.284  -2.320  -1.686  1.00  0.00     0.145 A 
HETATM   11  C10 UNL     1      -1.460  -3.074  -1.749  1.00  0.00     0.171 A 
HETATM   12  O2  UNL     1      -0.348  -3.440  -2.743  1.00  0.00    -0.352 OA
HETATM   13  C11 UNL     1       0.868  -0.010  -1.887  1.00  0.00     0.009 C 
HETATM   14  C12 UNL     1       0.610   0.638  -0.514  1.00  0.00     0.052 C 
HETATM   15  C13 UNL     1      -0.678   1.443  -0.628  1.00  0.00     0.150 C 
HETATM   16  C14 UNL     1      -1.509   1.259  -1.889  1.00  0.00     0.065 C 
HETATM   17  O3  UNL     1      -1.020   2.208   0.247  1.00  0.00    -0.296 OA
HETATM   18  C15 UNL     1       1.895   1.492  -0.356  1.00  0.00     0.009 C 
HETATM   19  C16 UNL     1       3.022   0.680  -1.038  1.00  0.00     0.001 C 
HETATM   20  C17 UNL     1       2.331  -0.465  -1.812  1.00  0.00     0.001 C 
HETATM   21  C27 UNL     1       0.410  -0.349   0.641  1.00  0.00     0.007 C 
HETATM   22  C28 UNL     1      -3.188  -0.883  -0.561  1.00  0.00     0.010 C 
HETATM   23  O6  UNL     1      -2.509  -2.502  -3.890  1.00  0.00    -0.223 OA
ENDROOT
BRANCH  18  24
HETATM   24  C18 UNL     1       2.188   2.195   0.998  1.00  0.00     0.029 C 
HETATM   25  C26 UNL     1       2.620   3.651   0.681  1.00  0.00     0.003 C 
BRANCH  24  26
HETATM   26  C19 UNL     1       3.207   1.577   1.989  1.00  0.00     0.129 C 
HETATM   27  O4  UNL     1       3.202   0.184   1.980  1.00  0.00    -0.301 OA
HETATM   28  C20 UNL     1       2.553  -0.525   2.947  1.00  0.00     0.291 C 
HETATM   29  C21 UNL     1       1.902   0.010   4.016  1.00  0.00     0.034 C 
HETATM   30  O5  UNL     1       2.508  -1.733   2.820  1.00  0.00    -0.260 OA
HETATM   31  C22 UNL     1       2.030   1.332   4.220  1.00  0.00    -0.040 C 
HETATM   32  C25 UNL     1       1.101  -0.921   4.902  1.00  0.00     0.036 C 
HETATM   33  C23 UNL     1       3.037   2.108   3.411  1.00  0.00     0.052 C 
HETATM   34  C24 UNL     1       1.376   2.114   5.335  1.00  0.00     0.026 C 
ENDBRANCH  24  26
ENDBRANCH  18  24
TORSDOF 2
