REMARK  1 active torsions:
REMARK  status: ('A' for Active; 'I' for Inactive)
REMARK    1  A    between atoms: C18_20  and  C20_24 
ROOT
HETATM    1  C1  UNL     1      -5.120  -1.810   2.463  1.00  0.00     0.033 C 
HETATM    2  C2  UNL     1      -5.147  -3.145   2.411  1.00  0.00    -0.021 C 
HETATM    3  C3  UNL     1      -3.955  -4.022   2.611  1.00  0.00     0.056 C 
HETATM    4  C4  UNL     1      -2.697  -3.258   2.974  1.00  0.00     0.128 A 
HETATM    5  C5  UNL     1      -2.620  -1.720   2.954  1.00  0.00     0.081 C 
HETATM    6  C6  UNL     1      -4.005  -1.078   2.707  1.00  0.00     0.174 C 
HETATM    7  O1  UNL     1      -4.128   0.128   2.728  1.00  0.00    -0.291 OA
HETATM    8  C7  UNL     1      -1.685  -1.205   1.807  1.00  0.00     0.009 C 
HETATM    9  C8  UNL     1      -0.566  -2.203   1.386  1.00  0.00     0.004 C 
HETATM   10  C9  UNL     1      -0.234  -3.177   2.522  1.00  0.00     0.032 C 
HETATM   11  C10 UNL     1      -1.470  -4.003   2.816  1.00  0.00     0.141 A 
HETATM   12  O2  UNL     1      -1.861  -3.955   4.160  1.00  0.00    -0.356 OA
HETATM   13  C11 UNL     1       0.687  -1.472   0.890  1.00  0.00     0.009 C 
HETATM   14  C12 UNL     1       0.378  -0.287  -0.034  1.00  0.00     0.080 C 
HETATM   15  C13 UNL     1      -0.376   0.785   0.770  1.00  0.00     0.009 C 
HETATM   16  C14 UNL     1      -1.090   0.208   2.014  1.00  0.00     0.001 C 
HETATM   17  C15 UNL     1       1.732   0.092  -0.668  1.00  0.00     0.037 C 
HETATM   18  C16 UNL     1       2.644  -1.128  -0.383  1.00  0.00     0.003 C 
HETATM   19  C17 UNL     1       1.721  -2.264   0.086  1.00  0.00     0.001 C 
HETATM   20  C18 UNL     1       1.412   0.428  -2.134  1.00  0.00     0.127 C 
HETATM   21  O3  UNL     1       0.160  -0.136  -2.371  1.00  0.00    -0.304 OA
HETATM   22  C19 UNL     1      -0.431  -0.652  -1.271  1.00  0.00     0.271 C 
HETATM   23  O4  UNL     1      -1.478  -1.258  -1.307  1.00  0.00    -0.264 OA
HETATM   24  C27 UNL     1       2.369  -0.195  -3.162  1.00  0.00     0.033 C 
HETATM   25  C28 UNL     1      -2.228  -1.175   4.352  1.00  0.00     0.010 C 
ENDROOT
BRANCH  20  26
HETATM   26  C20 UNL     1       1.292   1.955  -2.353  1.00  0.00     0.154 C 
HETATM   27  O5  UNL     1       0.638   2.202  -3.563  1.00  0.00    -0.298 OA
HETATM   28  C21 UNL     1       0.791   3.402  -4.191  1.00  0.00     0.291 C 
HETATM   29  C22 UNL     1       1.671   4.378  -3.836  1.00  0.00     0.034 C 
HETATM   30  O6  UNL     1       0.073   3.627  -5.146  1.00  0.00    -0.260 OA
HETATM   31  C23 UNL     1       2.541   4.110  -2.845  1.00  0.00    -0.040 C 
HETATM   32  C26 UNL     1       1.635   5.676  -4.618  1.00  0.00     0.036 C 
HETATM   33  C24 UNL     1       2.601   2.731  -2.241  1.00  0.00     0.054 C 
HETATM   34  C25 UNL     1       3.629   5.035  -2.346  1.00  0.00     0.026 C 
ENDBRANCH  20  26
TORSDOF 1
