REMARK  2 active torsions:
REMARK  status: ('A' for Active; 'I' for Inactive)
REMARK    1  A    between atoms: C14_15  and  O2_16 
REMARK    2  A    between atoms: O2_16  and  C15_17 
ROOT
HETATM    1  C1  UNL     1      -2.766  -0.396   1.843  1.00  0.00     0.033 C 
HETATM    2  C2  UNL     1      -2.608  -1.909   1.808  1.00  0.00     0.152 C 
HETATM    3  C3  UNL     1      -2.018  -2.421   0.478  1.00  0.00     0.031 C 
HETATM    4  C4  UNL     1      -0.739  -1.594   0.119  1.00  0.00     0.033 C 
HETATM    5  C5  UNL     1      -0.787  -0.025   0.172  1.00  0.00     0.005 C 
HETATM    6  C6  UNL     1      -1.443   0.324   1.543  1.00  0.00     0.003 C 
HETATM    7  C7  UNL     1       0.685   0.550   0.100  1.00  0.00     0.037 C 
HETATM    8  C8  UNL     1       1.632  -0.137  -0.931  1.00  0.00     0.060 C 
HETATM    9  C9  UNL     1       1.530  -1.667  -0.959  1.00  0.00     0.040 C 
HETATM   10  C10 UNL     1       0.092  -2.163  -1.038  1.00  0.00     0.153 C 
HETATM   11  O1  UNL     1      -0.453  -1.862  -2.296  1.00  0.00    -0.223 OA
HETATM   12  C11 UNL     1       1.529   0.487  -2.337  1.00  0.00     0.015 C 
HETATM   13  C12 UNL     1       2.229   1.827  -2.111  1.00  0.00     0.059 C 
HETATM   14  C13 UNL     1       1.341   2.715  -1.243  1.00  0.00     0.184 C 
HETATM   15  C14 UNL     1       0.974   2.085   0.109  1.00  0.00     0.155 C 
HETATM   16  O4  UNL     1       0.169   3.044  -1.949  1.00  0.00    -0.221 OA
HETATM   17  C17 UNL     1       3.410   1.363  -1.300  1.00  0.00     0.015 C 
HETATM   18  C18 UNL     1       3.083   0.254  -0.592  1.00  0.00     0.169 C 
HETATM   19  O5  UNL     1       3.799  -0.329   0.188  1.00  0.00    -0.292 OA
HETATM   20  C19 UNL     1       4.606   1.962  -1.244  1.00  0.00    -0.002 C 
HETATM   21  C20 UNL     1      -1.667   0.617  -0.920  1.00  0.00     0.000 C 
HETATM   22  C21 UNL     1      -1.677  -3.925   0.686  1.00  0.00     0.003 C 
HETATM   23  C22 UNL     1      -3.118  -2.423  -0.607  1.00  0.00     0.003 C 
HETATM   24  O6  UNL     1      -1.793  -2.291   2.894  1.00  0.00    -0.224 OA
ENDROOT
BRANCH  15  25
HETATM   25  O2  UNL     1      -0.033   2.883   0.654  1.00  0.00    -0.302 OA
BRANCH  25  26
HETATM   26  C15 UNL     1      -0.028   3.384   1.924  1.00  0.00     0.272 C 
HETATM   27  O3  UNL     1      -0.882   4.157   2.303  1.00  0.00    -0.264 OA
HETATM   28  C16 UNL     1       1.064   2.898   2.860  1.00  0.00     0.106 C 
ENDBRANCH  25  26
ENDBRANCH  15  25
TORSDOF 2
