REMARK  6 active torsions:
REMARK  status: ('A' for Active; 'I' for Inactive)
REMARK    1  A    between atoms: C1_1  and  O5_25 
REMARK    2  A    between atoms: C2_2  and  O4_23 
REMARK    3  A    between atoms: C9_10  and  C10_11 
REMARK    4  A    between atoms: C10_11  and  C11_13 
REMARK    5  A    between atoms: C14_16  and  O3_21 
REMARK    6  A    between atoms: C15_17  and  O2_19 
ROOT
HETATM    1  C1  UNL     1       2.319  -0.311  -3.738  1.00  0.00     0.116 A 
HETATM    2  C2  UNL     1       1.584   0.777  -3.417  1.00  0.00     0.116 A 
HETATM    3  C3  UNL     1       0.758   0.701  -2.352  1.00  0.00     0.028 A 
HETATM    4  C4  UNL     1       0.590  -0.386  -1.572  1.00  0.00     0.023 A 
HETATM    5  C5  UNL     1       1.355  -1.446  -1.906  1.00  0.00     0.005 A 
HETATM    6  C6  UNL     1       2.178  -1.405  -2.967  1.00  0.00     0.026 A 
HETATM    7  C7  UNL     1       1.284  -2.562  -1.164  1.00  0.00     0.021 A 
HETATM    8  C8  UNL     1       0.439  -2.560  -0.129  1.00  0.00     0.099 A 
HETATM    9  N1  UNL     1      -0.277  -1.566   0.169  1.00  0.00    -0.241 NA
HETATM   10  C9  UNL     1      -0.228  -0.480  -0.487  1.00  0.00     0.120 A 
ENDROOT
BRANCH  10  11
HETATM   11  C10 UNL     1      -1.134   0.487  -0.122  1.00  0.00     0.213 C 
HETATM   12  O1  UNL     1      -1.525   1.272  -0.959  1.00  0.00    -0.285 OA
BRANCH  11  13
HETATM   13  C11 UNL     1      -1.613   0.665   1.152  1.00  0.00     0.043 A 
HETATM   14  C12 UNL     1      -2.615   1.541   1.354  1.00  0.00     0.005 A 
HETATM   15  C13 UNL     1      -3.115   1.743   2.579  1.00  0.00     0.026 A 
HETATM   16  C14 UNL     1      -2.656   1.111   3.675  1.00  0.00     0.116 A 
HETATM   17  C15 UNL     1      -1.611   0.263   3.514  1.00  0.00     0.116 A 
HETATM   18  C16 UNL     1      -1.139   0.067   2.262  1.00  0.00     0.029 A 
BRANCH  16  19
HETATM   19  O3  UNL     1      -3.248   1.435   4.877  1.00  0.00    -0.326 OA
HETATM   20  C18 UNL     1      -2.444   1.550   6.029  1.00  0.00     0.181 C 
ENDBRANCH  16  19
BRANCH  17  21
HETATM   21  O2  UNL     1      -1.109  -0.397   4.612  1.00  0.00    -0.326 OA
HETATM   22  C17 UNL     1      -0.269  -1.516   4.443  1.00  0.00     0.181 C 
ENDBRANCH  17  21
ENDBRANCH  11  13
ENDBRANCH  10  11
BRANCH   2  23
HETATM   23  O4  UNL     1       1.732   1.895  -4.210  1.00  0.00    -0.326 OA
HETATM   24  C19 UNL     1       0.911   3.020  -3.994  1.00  0.00     0.181 C 
ENDBRANCH   2  23
BRANCH   1  25
HETATM   25  O5  UNL     1       3.139  -0.239  -4.842  1.00  0.00    -0.326 OA
HETATM   26  C20 UNL     1       3.690  -1.425  -5.365  1.00  0.00     0.181 C 
ENDBRANCH   1  25
TORSDOF 6
