REMARK  4 active torsions:
REMARK  status: ('A' for Active; 'I' for Inactive)
REMARK    1  A    between atoms: C3_3  and  O7_27 
REMARK    2  A    between atoms: C4_4  and  C18_24 
REMARK    3  A    between atoms: O7_27  and  C21_28 
REMARK    4  A    between atoms: C21_28  and  C22_29 
ROOT
HETATM    1  C1  UNL     1      -0.419   0.709   0.002  1.00  0.00     0.189 C 
HETATM    2  C2  UNL     1      -0.366  -0.853   0.192  1.00  0.00     0.185 C 
HETATM    3  C3  UNL     1      -0.539  -0.880   1.691  1.00  0.00     0.183 C 
HETATM    4  C4  UNL     1      -1.982  -0.145   1.425  1.00  0.00     0.161 C 
HETATM    5  C5  UNL     1      -1.911   0.622  -0.049  1.00  0.00     0.109 C 
HETATM    6  C6  UNL     1      -1.631   0.104  -1.588  1.00  0.00     0.224 C 
HETATM    7  O1  UNL     1      -0.848   1.127  -2.145  1.00  0.00    -0.330 OA
HETATM    8  C7  UNL     1       0.233   1.204  -1.277  1.00  0.00     0.179 C 
HETATM    9  C8  UNL     1       1.297   0.117  -1.401  1.00  0.00     0.159 C 
HETATM   10  C9  UNL     1       0.521  -1.153  -1.010  1.00  0.00     0.064 C 
HETATM   11  C10 UNL     1      -0.700  -1.102  -2.034  1.00  0.00     0.064 C 
HETATM   12  C11 UNL     1       1.309  -2.458  -1.018  1.00  0.00     0.005 C 
HETATM   13  C12 UNL     1       2.024   0.138  -2.749  1.00  0.00     0.065 C 
HETATM   14  C13 UNL     1       2.359   1.526  -3.285  1.00  0.00     0.145 A 
HETATM   15  C14 UNL     1       1.845   2.694  -2.618  1.00  0.00     0.148 A 
HETATM   16  C15 UNL     1       0.878   2.582  -1.440  1.00  0.00     0.208 C 
HETATM   17  O2  UNL     1       1.562   2.973  -0.264  1.00  0.00    -0.218 OA
HETATM   18  C16 UNL     1       2.506   4.036  -2.889  1.00  0.00     0.035 C 
HETATM   19  O3  UNL     1       1.237   2.063  -3.949  1.00  0.00    -0.354 OA
HETATM   20  O4  UNL     1       2.282   0.337  -0.420  1.00  0.00    -0.223 OA
HETATM   21  O5  UNL     1      -2.794   0.176  -2.375  1.00  0.00    -0.195 OA
HETATM   22  C17 UNL     1      -2.606   2.000  -0.044  1.00  0.00     0.010 C 
HETATM   23  O6  UNL     1      -2.078   0.877   2.393  1.00  0.00    -0.223 OA
HETATM   24  O9  UNL     1      -1.432  -1.783  -0.062  1.00  0.00    -0.221 OA
HETATM   25  O10 UNL     1       0.143   1.454   1.045  1.00  0.00    -0.221 OA
ENDROOT
BRANCH   3  26
HETATM   26  O7  UNL     1      -0.621  -2.147   2.259  1.00  0.00    -0.295 OA
BRANCH  26  27
HETATM   27  C21 UNL     1       0.502  -2.828   2.639  1.00  0.00     0.314 C 
HETATM   28  O8  UNL     1       0.345  -3.972   3.071  1.00  0.00    -0.257 OA
BRANCH  27  29
HETATM   29  C22 UNL     1       1.932  -2.420   2.573  1.00  0.00     0.144 A 
HETATM   30  C23 UNL     1       2.521  -1.193   2.284  1.00  0.00     0.026 A 
HETATM   31  C24 UNL     1       3.917  -1.351   2.341  1.00  0.00     0.022 A 
HETATM   32  C25 UNL     1       4.179  -2.669   2.670  1.00  0.00     0.099 A 
HETATM   33  N1  UNL     1       2.977  -3.294   2.807  1.00  0.00    -0.239 NA
ENDBRANCH  27  29
ENDBRANCH  26  27
ENDBRANCH   3  26
BRANCH   4  34
HETATM   34  C18 UNL     1      -3.243  -1.027   1.716  1.00  0.00     0.031 C 
HETATM   35  C19 UNL     1      -3.735  -0.985   3.180  1.00  0.00     0.003 C 
HETATM   36  C20 UNL     1      -4.431  -0.747   0.781  1.00  0.00     0.003 C 
ENDBRANCH   4  34
TORSDOF 4
