REMARK  3 active torsions:
REMARK  status: ('A' for Active; 'I' for Inactive)
REMARK    1  A    between atoms: C2_2  and  C16_25 
REMARK    2  A    between atoms: C9_11  and  C10_12 
REMARK    3  A    between atoms: C11_14  and  C15_21 
ROOT
HETATM    1  C1  UNL     1       0.270  -1.097   3.295  1.00  0.00     0.062 A 
HETATM    2  C2  UNL     1      -0.580  -0.954   2.270  1.00  0.00     0.080 A 
HETATM    3  O1  UNL     1      -0.129  -0.843   0.994  1.00  0.00    -0.311 OA
HETATM    4  C3  UNL     1       1.216  -0.727   0.805  1.00  0.00     0.108 A 
HETATM    5  C4  UNL     1       2.084  -0.848   1.838  1.00  0.00     0.087 A 
HETATM    6  C5  UNL     1       1.611  -1.066   3.100  1.00  0.00     0.201 A 
HETATM    7  O2  UNL     1       2.311  -1.200   4.080  1.00  0.00    -0.286 OA
HETATM    8  C6  UNL     1       3.414  -0.742   1.642  1.00  0.00     0.138 A 
HETATM    9  C7  UNL     1       3.840  -0.490   0.397  1.00  0.00     0.055 A 
HETATM   10  C8  UNL     1       3.010  -0.362  -0.646  1.00  0.00     0.137 A 
HETATM   11  C9  UNL     1       1.680  -0.489  -0.445  1.00  0.00     0.069 A 
HETATM   12  O8  UNL     1       3.541  -0.083  -1.871  1.00  0.00    -0.190 OA
HETATM   13  O9  UNL     1       4.348  -0.849   2.629  1.00  0.00    -0.190 OA
ENDROOT
BRANCH  11  14
HETATM   14  C10 UNL     1       0.784  -0.363  -1.687  1.00  0.00     0.108 C 
HETATM   15  O3  UNL     1       0.866   0.918  -2.275  1.00  0.00    -0.329 OA
HETATM   16  C11 UNL     1      -0.057   1.863  -1.806  1.00  0.00     0.187 C 
HETATM   17  C12 UNL     1      -1.471   1.372  -2.082  1.00  0.00     0.215 C 
HETATM   18  C13 UNL     1      -1.728   0.028  -1.438  1.00  0.00     0.221 C 
HETATM   19  O6  UNL     1      -2.436   2.276  -1.604  1.00  0.00    -0.218 OA
HETATM   20  C14 UNL     1      -0.623  -0.954  -1.778  1.00  0.00     0.229 C 
HETATM   21  O5  UNL     1      -2.958  -0.471  -1.909  1.00  0.00    -0.217 OA
HETATM   22  O4  UNL     1      -0.865  -1.351  -3.113  1.00  0.00    -0.214 OA
BRANCH  16  23
HETATM   23  C15 UNL     1       0.238   2.304  -0.378  1.00  0.00     0.215 C 
HETATM   24  O7  UNL     1      -0.154   3.650  -0.189  1.00  0.00    -0.218 OA
ENDBRANCH  16  23
ENDBRANCH  11  14
BRANCH   2  25
HETATM   25  C16 UNL     1      -2.091  -0.916   2.435  1.00  0.00     0.046 C 
HETATM   26  C17 UNL     1      -2.717  -2.187   1.839  1.00  0.00     0.007 C 
HETATM   27  C18 UNL     1      -2.599  -0.684   3.867  1.00  0.00     0.007 C 
ENDBRANCH   2  25
TORSDOF 3
