REMARK  3 active torsions:
REMARK  status: ('A' for Active; 'I' for Inactive)
REMARK    1  A    between atoms: C5_5  and  O1_9 
REMARK    2  A    between atoms: O1_9  and  C9_10 
REMARK    3  A    between atoms: C9_10  and  C10_11 
ROOT
HETATM    1  C1  UNL     1       1.811  -2.013   0.132  1.00  0.00     0.154 C 
HETATM    2  C2  UNL     1       1.162  -1.820  -1.262  1.00  0.00     0.111 C 
HETATM    3  C3  UNL     1      -0.374  -1.719  -1.220  1.00  0.00     0.140 C 
HETATM    4  C4  UNL     1      -1.042  -0.861  -0.106  1.00  0.00     0.084 C 
HETATM    5  C5  UNL     1      -0.219   0.317   0.451  1.00  0.00     0.131 C 
HETATM    6  C6  UNL     1       0.806  -0.095   1.516  1.00  0.00     0.033 C 
HETATM    7  C7  UNL     1       2.085  -0.801   1.025  1.00  0.00     0.035 C 
HETATM    8  C8  UNL     1       3.129   0.208   0.518  1.00  0.00     0.003 C 
HETATM    9  C13 UNL     1      -2.277  -0.393  -0.839  1.00  0.00     0.045 C 
HETATM   10  C14 UNL     1      -1.989  -0.585  -2.267  1.00  0.00     0.292 C 
HETATM   11  O4  UNL     1      -0.875  -1.322  -2.477  1.00  0.00    -0.300 OA
HETATM   12  O5  UNL     1      -2.671  -0.115  -3.172  1.00  0.00    -0.260 OA
HETATM   13  C15 UNL     1      -3.438   0.078  -0.352  1.00  0.00     0.001 C 
HETATM   14  C16 UNL     1       1.609  -3.120  -1.963  1.00  0.00     0.177 C 
HETATM   15  C17 UNL     1       2.875  -3.536  -1.320  1.00  0.00     0.035 C 
HETATM   16  C18 UNL     1       3.029  -2.850  -0.178  1.00  0.00     0.007 C 
HETATM   17  O6  UNL     1       1.084  -3.648  -2.932  1.00  0.00    -0.291 OA
HETATM   18  C19 UNL     1       1.817  -0.749  -2.166  1.00  0.00     0.013 C 
HETATM   19  O7  UNL     1       0.978  -2.890   0.869  1.00  0.00    -0.221 OA
ENDROOT
BRANCH   5  20
HETATM   20  O1  UNL     1      -1.088   1.244   1.053  1.00  0.00    -0.302 OA
BRANCH  20  21
HETATM   21  C9  UNL     1      -1.005   2.559   0.700  1.00  0.00     0.299 C 
HETATM   22  O3  UNL     1      -0.203   3.006  -0.089  1.00  0.00    -0.262 OA
BRANCH  21  23
HETATM   23  C10 UNL     1      -2.057   3.357   1.353  1.00  0.00     0.197 A 
HETATM   24  C11 UNL     1      -2.700   2.858   2.638  1.00  0.00     0.043 C 
HETATM   25  C12 UNL     1      -2.729   4.362   0.575  1.00  0.00     0.180 A 
HETATM   26  O2  UNL     1      -1.777   4.935   1.437  1.00  0.00    -0.344 OA
ENDBRANCH  21  23
ENDBRANCH  20  21
ENDBRANCH   5  20
TORSDOF 3
