REMARK  8 active torsions:
REMARK  status: ('A' for Active; 'I' for Inactive)
REMARK    1  A    between atoms: C2_2  and  O9_31 
REMARK    2  A    between atoms: C4_4  and  C19_24 
REMARK    3  A    between atoms: C7_7  and  C12_15 
REMARK    4  A    between atoms: C12_15  and  C13_16 
REMARK    5  A    between atoms: C13_16  and  C14_17 
REMARK    6  A    between atoms: C19_24  and  O6_25 
REMARK    7  A    between atoms: O6_25  and  C20_26 
REMARK    8  A    between atoms: O9_31  and  C23_32 
ROOT
HETATM    1  C1  UNL     1       0.843  -0.203   0.709  1.00  0.00     0.035 C 
HETATM    2  C2  UNL     1       0.695  -1.373  -0.259  1.00  0.00     0.152 C 
HETATM    3  C3  UNL     1       2.034  -2.107  -0.365  1.00  0.00     0.153 A 
HETATM    4  C4  UNL     1       3.275  -1.259  -0.788  1.00  0.00     0.116 C 
HETATM    5  C5  UNL     1       3.397  -0.086   0.253  1.00  0.00     0.137 C 
HETATM    6  C6  UNL     1       2.048   0.671   0.332  1.00  0.00     0.033 C 
HETATM    7  C7  UNL     1       4.645   0.892   0.166  1.00  0.00     0.059 C 
HETATM    8  C8  UNL     1       5.979   0.174  -0.238  1.00  0.00     0.182 C 
HETATM    9  C9  UNL     1       5.807  -1.154  -0.961  1.00  0.00     0.208 C 
HETATM   10  C10 UNL     1       4.604  -2.032  -0.722  1.00  0.00     0.218 C 
HETATM   11  O1  UNL     1       4.667  -3.080  -1.676  1.00  0.00    -0.215 OA
HETATM   12  O2  UNL     1       6.695  -1.636  -1.629  1.00  0.00    -0.291 OA
HETATM   13  C11 UNL     1       6.950   1.005  -1.095  1.00  0.00     0.041 C 
HETATM   14  O3  UNL     1       6.708  -0.197   0.918  1.00  0.00    -0.218 OA
HETATM   15  C18 UNL     1       4.312   2.068  -0.794  1.00  0.00     0.005 C 
HETATM   16  O5  UNL     1       3.512  -0.752   1.490  1.00  0.00    -0.226 OA
HETATM   17  O8  UNL     1       1.869  -3.508  -1.122  1.00  0.00    -0.351 OA
HETATM   18  C22 UNL     1       2.169  -3.400   0.249  1.00  0.00     0.172 A 
ENDROOT
BRANCH   7  19
HETATM   19  C12 UNL     1       4.839   1.579   1.571  1.00  0.00     0.010 C 
BRANCH  19  20
HETATM   20  C13 UNL     1       5.887   2.695   1.736  1.00  0.00     0.029 C 
BRANCH  20  21
HETATM   21  C14 UNL     1       6.017   3.073   3.184  1.00  0.00     0.005 A 
HETATM   22  C15 UNL     1       5.507   4.170   3.809  1.00  0.00     0.118 A 
HETATM   23  O4  UNL     1       5.826   4.167   5.135  1.00  0.00    -0.303 OA
HETATM   24  C16 UNL     1       6.558   3.036   5.349  1.00  0.00     0.122 A 
HETATM   25  C17 UNL     1       6.709   2.329   4.195  1.00  0.00     0.025 A 
ENDBRANCH  20  21
ENDBRANCH  19  20
ENDBRANCH   7  19
BRANCH   4  26
HETATM   26  C19 UNL     1       3.017  -0.831  -2.260  1.00  0.00     0.160 C 
BRANCH  26  27
HETATM   27  O6  UNL     1       4.184  -0.433  -2.927  1.00  0.00    -0.301 OA
BRANCH  27  28
HETATM   28  C20 UNL     1       4.040   0.042  -4.194  1.00  0.00     0.272 C 
HETATM   29  C21 UNL     1       5.378   0.484  -4.751  1.00  0.00     0.106 C 
HETATM   30  O7  UNL     1       2.988   0.124  -4.787  1.00  0.00    -0.264 OA
ENDBRANCH  27  28
ENDBRANCH  26  27
ENDBRANCH   4  26
BRANCH   2  31
HETATM   31  O9  UNL     1      -0.369  -2.199   0.159  1.00  0.00    -0.302 OA
BRANCH  31  32
HETATM   32  C23 UNL     1      -1.639  -1.819  -0.146  1.00  0.00     0.272 C 
HETATM   33  C24 UNL     1      -2.629  -2.836   0.385  1.00  0.00     0.106 C 
HETATM   34  O10 UNL     1      -1.940  -0.814  -0.747  1.00  0.00    -0.264 OA
ENDBRANCH  31  32
ENDBRANCH   2  31
TORSDOF 8
