REMARK  6 active torsions:
REMARK  status: ('A' for Active; 'I' for Inactive)
REMARK    1  A    between atoms: C4_4  and  C19_23 
REMARK    2  A    between atoms: C7_8  and  C12_15 
REMARK    3  A    between atoms: C12_15  and  C13_16 
REMARK    4  A    between atoms: C13_16  and  C14_17 
REMARK    5  A    between atoms: C19_23  and  O5_24 
REMARK    6  A    between atoms: O5_24  and  C20_25 
ROOT
HETATM    1  C1  UNL     1      -2.194  -0.344   0.366  1.00  0.00     0.035 C 
HETATM    2  C2  UNL     1      -2.290  -1.719  -0.311  1.00  0.00     0.033 C 
HETATM    3  C3  UNL     1      -0.947  -2.439  -0.349  1.00  0.00     0.129 A 
HETATM    4  C4  UNL     1       0.256  -1.638  -0.906  1.00  0.00     0.107 C 
HETATM    5  C5  UNL     1       0.315  -0.338  -0.029  1.00  0.00     0.044 C 
HETATM    6  C6  UNL     1      -0.995   0.475  -0.125  1.00  0.00     0.153 C 
HETATM    7  O1  UNL     1      -1.229   0.925  -1.435  1.00  0.00    -0.223 OA
HETATM    8  C7  UNL     1       1.656   0.478   0.173  1.00  0.00     0.030 C 
HETATM    9  C8  UNL     1       2.916  -0.458   0.103  1.00  0.00     0.134 C 
HETATM   10  C9  UNL     1       2.520  -1.919   0.347  1.00  0.00     0.095 C 
HETATM   11  C10 UNL     1       1.583  -2.388  -0.744  1.00  0.00     0.157 C 
HETATM   12  O2  UNL     1       1.906  -3.315  -1.455  1.00  0.00    -0.296 OA
HETATM   13  C11 UNL     1       3.747  -0.373  -1.186  1.00  0.00     0.033 C 
HETATM   14  O3  UNL     1       3.845  -0.159   1.119  1.00  0.00    -0.226 OA
HETATM   15  C18 UNL     1       1.728   1.639  -0.843  1.00  0.00     0.003 C 
HETATM   16  O7  UNL     1      -1.082  -3.925  -0.929  1.00  0.00    -0.354 OA
HETATM   17  C22 UNL     1      -0.775  -3.643   0.415  1.00  0.00     0.170 A 
ENDROOT
BRANCH   8  18
HETATM   18  C12 UNL     1       1.589   1.142   1.599  1.00  0.00     0.007 C 
BRANCH  18  19
HETATM   19  C13 UNL     1       2.510   2.352   1.865  1.00  0.00     0.029 C 
BRANCH  19  20
HETATM   20  C14 UNL     1       2.636   2.698   3.320  1.00  0.00     0.005 A 
HETATM   21  C15 UNL     1       2.534   3.938   3.877  1.00  0.00     0.118 A 
HETATM   22  O4  UNL     1       2.727   3.887   5.225  1.00  0.00    -0.303 OA
HETATM   23  C16 UNL     1       2.961   2.578   5.526  1.00  0.00     0.122 A 
HETATM   24  C17 UNL     1       2.922   1.806   4.404  1.00  0.00     0.025 A 
ENDBRANCH  19  20
ENDBRANCH  18  19
ENDBRANCH   8  18
BRANCH   4  25
HETATM   25  C19 UNL     1       0.015  -1.507  -2.431  1.00  0.00     0.161 C 
BRANCH  25  26
HETATM   26  O5  UNL     1       0.967  -0.684  -3.035  1.00  0.00    -0.301 OA
BRANCH  26  27
HETATM   27  C20 UNL     1       0.881  -0.493  -4.378  1.00  0.00     0.272 C 
HETATM   28  C21 UNL     1       1.972   0.452  -4.839  1.00  0.00     0.106 C 
HETATM   29  O6  UNL     1       0.051  -0.995  -5.103  1.00  0.00    -0.264 OA
ENDBRANCH  26  27
ENDBRANCH  25  26
ENDBRANCH   4  25
TORSDOF 6
