REMARK  5 active torsions:
REMARK  status: ('A' for Active; 'I' for Inactive)
REMARK    1  A    between atoms: C1_1  and  O5_22 
REMARK    2  A    between atoms: C13_15  and  O4_20 
REMARK    3  A    between atoms: C14_16  and  O3_18 
REMARK    4  A    between atoms: O5_22  and  C18_23 
REMARK    5  A    between atoms: C20_25  and  C24_32 
ROOT
HETATM    1  C1  UNL     1      -1.887   0.430   0.329  1.00  0.00     0.096 A 
HETATM    2  C2  UNL     1      -1.784  -0.901   0.501  1.00  0.00     0.024 A 
HETATM    3  C3  UNL     1      -0.693  -1.582   0.126  1.00  0.00     0.002 A 
HETATM    4  C4  UNL     1       0.345  -0.954  -0.445  1.00  0.00     0.028 A 
HETATM    5  C5  UNL     1       0.275   0.373  -0.673  1.00  0.00     0.094 A 
HETATM    6  C6  UNL     1      -0.829   1.025  -0.256  1.00  0.00     0.048 A 
HETATM    7  O1  UNL     1       1.308   1.078  -1.234  1.00  0.00    -0.331 OA
HETATM    8  C7  UNL     1       2.583   0.545  -1.000  1.00  0.00     0.156 C 
HETATM    9  C8  UNL     1       2.658  -0.889  -1.508  1.00  0.00     0.086 C 
HETATM   10  C9  UNL     1       1.554  -1.749  -0.868  1.00  0.00     0.152 C 
HETATM   11  O2  UNL     1       2.185  -2.477   0.190  1.00  0.00    -0.329 OA
HETATM   12  C10 UNL     1       3.408  -2.437   0.068  1.00  0.00     0.093 A 
HETATM   13  C11 UNL     1       3.821  -1.607  -0.890  1.00  0.00     0.007 A 
HETATM   14  C12 UNL     1       5.125  -1.467  -1.151  1.00  0.00     0.024 A 
HETATM   15  C13 UNL     1       6.045  -2.156  -0.443  1.00  0.00     0.116 A 
HETATM   16  C14 UNL     1       5.628  -3.000   0.539  1.00  0.00     0.118 A 
HETATM   17  C15 UNL     1       4.305  -3.121   0.787  1.00  0.00     0.050 A 
ENDROOT
BRANCH   1  18
HETATM   18  O5  UNL     1      -3.029   1.047   0.773  1.00  0.00    -0.331 OA
BRANCH  18  19
HETATM   19  C18 UNL     1      -3.207   2.426   0.639  1.00  0.00     0.154 C 
HETATM   20  C19 UNL     1      -4.330   2.853   1.595  1.00  0.00     0.038 C 
HETATM   21  C20 UNL     1      -5.737   2.370   1.193  1.00  0.00     0.069 C 
HETATM   22  C21 UNL     1      -6.023   2.711  -0.274  1.00  0.00     0.188 C 
HETATM   23  C22 UNL     1      -4.918   2.300  -1.234  1.00  0.00     0.215 C 
HETATM   24  O8  UNL     1      -6.208   4.107  -0.393  1.00  0.00    -0.221 OA
HETATM   25  C23 UNL     1      -3.552   2.807  -0.798  1.00  0.00     0.212 C 
HETATM   26  O7  UNL     1      -4.877   0.899  -1.394  1.00  0.00    -0.218 OA
HETATM   27  O6  UNL     1      -3.539   4.212  -0.906  1.00  0.00    -0.218 OA
BRANCH  21  28
HETATM   28  C24 UNL     1      -6.023   0.900   1.516  1.00  0.00     0.185 C 
HETATM   29  O9  UNL     1      -5.852   0.657   2.898  1.00  0.00    -0.221 OA
ENDBRANCH  21  28
ENDBRANCH  18  19
ENDBRANCH   1  18
BRANCH  15  30
HETATM   30  O4  UNL     1       7.400  -2.069  -0.672  1.00  0.00    -0.326 OA
HETATM   31  C17 UNL     1       7.861  -1.373  -1.808  1.00  0.00     0.181 C 
ENDBRANCH  15  30
BRANCH  16  32
HETATM   32  O3  UNL     1       6.600  -3.681   1.240  1.00  0.00    -0.326 OA
HETATM   33  C16 UNL     1       6.222  -4.519   2.307  1.00  0.00     0.181 C 
ENDBRANCH  16  32
TORSDOF 5
