REMARK  8 active torsions:
REMARK  status: ('A' for Active; 'I' for Inactive)
REMARK    1  A    between atoms: C1_1  and  C17_24 
REMARK    2  A    between atoms: C2_3  and  C11_16 
REMARK    3  A    between atoms: C3_4  and  C8_11 
REMARK    4  A    between atoms: C4_5  and  C5_6 
REMARK    5  A    between atoms: C5_6  and  O2_7 
REMARK    6  A    between atoms: O2_7  and  C6_8 
REMARK    7  A    between atoms: C8_11  and  O4_12 
REMARK    8  A    between atoms: O4_12  and  C9_13 
ROOT
HETATM    1  C1  UNL     1       0.745  -0.208  -0.857  1.00  0.00     0.141 C 
HETATM    2  O1  UNL     1      -0.152   0.603  -1.577  1.00  0.00    -0.350 OA
HETATM    3  C2  UNL     1      -1.464   0.374  -1.113  1.00  0.00     0.141 C 
HETATM    4  C3  UNL     1      -1.387  -0.537   0.126  1.00  0.00     0.067 C 
HETATM    5  C4  UNL     1       0.104  -0.433   0.510  1.00  0.00     0.067 C 
ENDROOT
BRANCH   1   6
HETATM    6  C17 UNL     1       2.121   0.430  -0.794  1.00  0.00     0.007 A 
HETATM    7  C18 UNL     1       3.236  -0.296  -0.979  1.00  0.00     0.000 A 
HETATM    8  C19 UNL     1       4.444   0.283  -0.923  1.00  0.00     0.029 A 
HETATM    9  C20 UNL     1       4.576   1.599  -0.690  1.00  0.00     0.156 A 
HETATM   10  C21 UNL     1       3.468   2.339  -0.502  1.00  0.00     0.156 A 
HETATM   11  O9  UNL     1       5.796   2.197  -0.638  1.00  0.00    -0.188 OA
HETATM   12  C22 UNL     1       2.265   1.745  -0.553  1.00  0.00     0.028 A 
HETATM   13  O8  UNL     1       3.571   3.674  -0.268  1.00  0.00    -0.188 OA
ENDBRANCH   1   6
BRANCH   5  14
HETATM   14  C5  UNL     1       0.696  -1.579   1.329  1.00  0.00     0.155 C 
BRANCH  14  15
HETATM   15  O2  UNL     1       2.006  -1.252   1.707  1.00  0.00    -0.302 OA
BRANCH  15  16
HETATM   16  C6  UNL     1       2.740  -2.070   2.514  1.00  0.00     0.272 C 
HETATM   17  O3  UNL     1       3.873  -1.796   2.849  1.00  0.00    -0.264 OA
HETATM   18  C7  UNL     1       2.064  -3.352   2.970  1.00  0.00     0.106 C 
ENDBRANCH  15  16
ENDBRANCH  14  15
ENDBRANCH   5  14
BRANCH   3  19
HETATM   19  C11 UNL     1      -2.158   1.709  -0.878  1.00  0.00     0.007 A 
HETATM   20  C12 UNL     1      -3.186   2.105  -1.649  1.00  0.00     0.028 A 
HETATM   21  C13 UNL     1      -3.797   3.291  -1.485  1.00  0.00     0.156 A 
HETATM   22  C14 UNL     1      -3.373   4.122  -0.516  1.00  0.00     0.156 A 
HETATM   23  O7  UNL     1      -4.830   3.673  -2.283  1.00  0.00    -0.188 OA
HETATM   24  C15 UNL     1      -2.349   3.741   0.262  1.00  0.00     0.029 A 
HETATM   25  O6  UNL     1      -3.972   5.329  -0.339  1.00  0.00    -0.188 OA
HETATM   26  C16 UNL     1      -1.749   2.555   0.084  1.00  0.00     0.000 A 
ENDBRANCH   3  19
BRANCH   4  27
HETATM   27  C8  UNL     1      -1.895  -1.949  -0.211  1.00  0.00     0.155 C 
BRANCH  27  28
HETATM   28  O4  UNL     1      -1.968  -2.727   0.953  1.00  0.00    -0.302 OA
BRANCH  28  29
HETATM   29  C9  UNL     1      -2.264  -4.058   0.914  1.00  0.00     0.272 C 
HETATM   30  O5  UNL     1      -2.270  -4.743   1.915  1.00  0.00    -0.264 OA
HETATM   31  C10 UNL     1      -2.591  -4.637  -0.451  1.00  0.00     0.106 C 
ENDBRANCH  28  29
ENDBRANCH  27  28
ENDBRANCH   4  27
TORSDOF 8
