REMARK  3 active torsions:
REMARK  status: ('A' for Active; 'I' for Inactive)
REMARK    1  A    between atoms: C4_4  and  C7_7 
REMARK    2  A    between atoms: C10_11  and  C11_12 
REMARK    3  A    between atoms: C11_12  and  C12_13 
ROOT
HETATM    1  C7  UNL     1       1.993  -0.932   0.132  1.00  0.00     0.060 A 
HETATM    2  C8  UNL     1       3.262  -1.530   0.609  1.00  0.00     0.297 A 
HETATM    3  O1  UNL     1       4.246  -1.562  -0.338  1.00  0.00    -0.266 OA
HETATM    4  C9  UNL     1       3.675  -0.963  -1.499  1.00  0.00     0.296 A 
HETATM    5  C10 UNL     1       2.259  -0.578  -1.141  1.00  0.00     0.024 A 
HETATM    6  O2  UNL     1       3.682  -1.970  -2.506  1.00  0.00    -0.185 OA
HETATM    7  O3  UNL     1       3.420  -1.978   1.740  1.00  0.00    -0.259 OA
ENDROOT
BRANCH   1   8
HETATM    8  C4  UNL     1       0.790  -0.744   0.957  1.00  0.00     0.005 C 
HETATM    9  C3  UNL     1      -0.544  -1.137   0.569  1.00  0.00     0.002 C 
HETATM   10  C2  UNL     1      -1.897  -0.967   0.757  1.00  0.00     0.027 C 
HETATM   11  C1  UNL     1      -1.695  -0.771   2.248  1.00  0.00     0.131 C 
HETATM   12  C6  UNL     1      -0.491  -0.588   2.925  1.00  0.00     0.027 C 
HETATM   13  O4  UNL     1      -2.784  -0.682   3.089  1.00  0.00    -0.190 OA
HETATM   14  C5  UNL     1       0.803  -0.536   2.305  1.00  0.00     0.002 C 
ENDBRANCH   1   8
BRANCH   5  15
HETATM   15  C11 UNL     1       1.390   0.105  -2.157  1.00  0.00     0.053 C 
BRANCH  15  16
HETATM   16  C12 UNL     1       0.331   1.013  -1.585  1.00  0.00    -0.018 A 
HETATM   17  C13 UNL     1      -1.007   0.889  -1.981  1.00  0.00    -0.004 A 
HETATM   18  C14 UNL     1      -1.999   1.703  -1.431  1.00  0.00    -0.000 A 
HETATM   19  C15 UNL     1      -1.660   2.656  -0.470  1.00  0.00    -0.000 A 
HETATM   20  C16 UNL     1      -0.326   2.812  -0.089  1.00  0.00    -0.000 A 
HETATM   21  C17 UNL     1       0.663   2.000  -0.648  1.00  0.00    -0.004 A 
ENDBRANCH  15  16
ENDBRANCH   5  15
TORSDOF 3
