REMARK  3 active torsions:
REMARK  status: ('A' for Active; 'I' for Inactive)
REMARK    1  A    between atoms: C4_5  and  O4_14 
REMARK    2  A    between atoms: O4_14  and  C11_15 
REMARK    3  A    between atoms: C12_17  and  C16_24 
ROOT
HETATM    1  C1  UNL     1      -1.229  -0.553  -0.852  1.00  0.00     0.073 C 
HETATM    2  C2  UNL     1      -1.362  -2.087  -0.744  1.00  0.00     0.157 C 
HETATM    3  C3  UNL     1      -0.326  -2.756   0.146  1.00  0.00     0.175 C 
HETATM    4  O1  UNL     1       0.939  -2.171  -0.014  1.00  0.00    -0.328 OA
HETATM    5  C4  UNL     1       0.921  -0.824   0.400  1.00  0.00     0.247 C 
HETATM    6  C5  UNL     1       0.177   0.011  -0.621  1.00  0.00     0.148 C 
HETATM    7  C6  UNL     1       0.759   0.110  -2.018  1.00  0.00     0.277 C 
HETATM    8  O2  UNL     1      -0.259   0.082  -2.913  1.00  0.00    -0.304 OA
HETATM    9  C7  UNL     1      -1.491  -0.203  -2.317  1.00  0.00     0.127 C 
HETATM   10  C8  UNL     1      -2.077  -1.462  -2.949  1.00  0.00     0.033 C 
HETATM   11  C9  UNL     1      -1.357  -2.590  -2.194  1.00  0.00     0.033 C 
HETATM   12  C10 UNL     1      -1.999  -3.961  -2.441  1.00  0.00     0.003 C 
HETATM   13  O3  UNL     1       1.926   0.235  -2.318  1.00  0.00    -0.264 OA
HETATM   14  O10 UNL     1      -2.623  -2.366  -0.188  1.00  0.00    -0.223 OA
ENDROOT
BRANCH   5  15
HETATM   15  O4  UNL     1       2.290  -0.513   0.538  1.00  0.00    -0.304 OA
BRANCH  15  16
HETATM   16  C11 UNL     1       2.543   0.663   1.281  1.00  0.00     0.272 C 
HETATM   17  O5  UNL     1       2.800   1.673   0.330  1.00  0.00    -0.326 OA
HETATM   18  C12 UNL     1       3.106   2.912   0.920  1.00  0.00     0.184 C 
HETATM   19  C13 UNL     1       4.328   2.783   1.824  1.00  0.00     0.215 C 
HETATM   20  C14 UNL     1       4.112   1.697   2.857  1.00  0.00     0.220 C 
HETATM   21  O8  UNL     1       4.575   3.983   2.514  1.00  0.00    -0.218 OA
HETATM   22  C15 UNL     1       3.771   0.420   2.126  1.00  0.00     0.241 C 
HETATM   23  O7  UNL     1       5.284   1.514   3.609  1.00  0.00    -0.218 OA
HETATM   24  O6  UNL     1       3.498  -0.592   3.061  1.00  0.00    -0.215 OA
BRANCH  18  25
HETATM   25  C16 UNL     1       3.351   3.918  -0.196  1.00  0.00     0.214 C 
HETATM   26  O9  UNL     1       2.161   4.115  -0.934  1.00  0.00    -0.218 OA
ENDBRANCH  18  25
ENDBRANCH  15  16
ENDBRANCH   5  15
TORSDOF 3
