REMARK  1 active torsions:
REMARK  status: ('A' for Active; 'I' for Inactive)
REMARK    1  A    between atoms: C2_2  and  O7_23 
ROOT
HETATM    1  C1  UNL     1      -3.163  -1.225   0.082  1.00  0.00     0.026 A 
HETATM    2  C2  UNL     1      -3.531   0.074   0.055  1.00  0.00     0.094 A 
HETATM    3  C3  UNL     1      -2.529   0.967  -0.013  1.00  0.00     0.049 A 
HETATM    4  C4  UNL     1      -1.229   0.632  -0.055  1.00  0.00     0.107 A 
HETATM    5  C5  UNL     1      -0.887  -0.668  -0.028  1.00  0.00     0.087 A 
HETATM    6  C6  UNL     1      -1.865  -1.603   0.042  1.00  0.00     0.134 A 
HETATM    7  O1  UNL     1      -1.591  -2.940   0.075  1.00  0.00    -0.190 OA
HETATM    8  C7  UNL     1       0.439  -1.009  -0.071  1.00  0.00     0.201 A 
HETATM    9  C8  UNL     1       1.411  -0.046  -0.151  1.00  0.00     0.065 A 
HETATM   10  C9  UNL     1       0.983   1.228  -0.184  1.00  0.00     0.140 A 
HETATM   11  O2  UNL     1      -0.310   1.628  -0.126  1.00  0.00    -0.306 OA
HETATM   12  C10 UNL     1       1.942   2.377  -0.159  1.00  0.00     0.320 C 
HETATM   13  O3  UNL     1       3.214   2.032  -0.633  1.00  0.00    -0.297 OA
HETATM   14  C11 UNL     1       3.616   0.747  -0.397  1.00  0.00     0.122 A 
HETATM   15  C12 UNL     1       2.754  -0.279  -0.163  1.00  0.00     0.029 A 
HETATM   16  C13 UNL     1       3.323  -1.489   0.033  1.00  0.00     0.002 A 
HETATM   17  C14 UNL     1       4.647  -1.692   0.025  1.00  0.00     0.002 A 
HETATM   18  C15 UNL     1       5.468  -0.661  -0.182  1.00  0.00     0.029 A 
HETATM   19  C16 UNL     1       4.955   0.558  -0.393  1.00  0.00     0.153 A 
HETATM   20  O4  UNL     1       5.797   1.610  -0.602  1.00  0.00    -0.188 OA
HETATM   21  O5  UNL     1       2.138   2.795   1.188  1.00  0.00    -0.182 OA
HETATM   22  O6  UNL     1       0.719  -2.185  -0.063  1.00  0.00    -0.286 OA
HETATM   23  C18 UNL     1      -4.233  -2.303   0.158  1.00  0.00     0.035 C 
ENDROOT
BRANCH   2  24
HETATM   24  O7  UNL     1      -4.864   0.411   0.097  1.00  0.00    -0.328 OA
HETATM   25  C17 UNL     1      -5.235   1.770   0.069  1.00  0.00     0.181 C 
ENDBRANCH   2  24
TORSDOF 1
