REMARK  1 active torsions:
REMARK  status: ('A' for Active; 'I' for Inactive)
REMARK    1  A    between atoms: C9_10  and  O2_11 
ROOT
HETATM    1  C1  UNL     1      -4.536   0.516  -0.444  1.00  0.00     0.300 A 
HETATM    2  C2  UNL     1      -4.428  -0.811  -0.189  1.00  0.00     0.069 A 
HETATM    3  C3  UNL     1      -3.217  -1.348   0.017  1.00  0.00     0.009 A 
HETATM    4  C4  UNL     1      -2.091  -0.609  -0.020  1.00  0.00     0.045 A 
HETATM    5  C5  UNL     1      -2.232   0.709  -0.268  1.00  0.00     0.107 A 
HETATM    6  O1  UNL     1      -3.438   1.317  -0.495  1.00  0.00    -0.273 OA
HETATM    7  C6  UNL     1      -1.119   1.458  -0.271  1.00  0.00     0.049 A 
HETATM    8  C7  UNL     1       0.111   0.976  -0.031  1.00  0.00     0.098 A 
HETATM    9  C8  UNL     1       0.212  -0.346   0.215  1.00  0.00     0.044 A 
HETATM   10  C9  UNL     1      -0.870  -1.163   0.173  1.00  0.00     0.098 A 
HETATM   11  C11 UNL     1       1.432  -0.837   0.497  1.00  0.00     0.002 A 
HETATM   12  C12 UNL     1       2.512  -0.050   0.531  1.00  0.00     0.001 A 
HETATM   13  C13 UNL     1       2.448   1.427   0.256  1.00  0.00     0.117 A 
HETATM   14  O3  UNL     1       1.150   1.870  -0.034  1.00  0.00    -0.332 OA
HETATM   15  C14 UNL     1       3.335   1.748  -0.953  1.00  0.00     0.035 C 
HETATM   16  C15 UNL     1       2.945   2.189   1.489  1.00  0.00     0.035 C 
HETATM   17  O4  UNL     1      -5.640   0.985  -0.631  1.00  0.00    -0.259 OA
ENDROOT
BRANCH  10  18
HETATM   18  O2  UNL     1      -0.749  -2.502   0.474  1.00  0.00    -0.328 OA
HETATM   19  C10 UNL     1      -0.549  -3.327  -0.653  1.00  0.00     0.181 C 
ENDBRANCH  10  18
TORSDOF 1
