REMARK  15 active torsions:
REMARK  status: ('A' for Active; 'I' for Inactive)
REMARK    1  A    between atoms: C3_3  and  C33_43 
REMARK    2  A    between atoms: C3_3  and  C35_46 
REMARK    3  A    between atoms: C6_6  and  O1_7 
REMARK    4  A    between atoms: C10_11  and  O9_38 
REMARK    5  A    between atoms: C12_13  and  O2_14 
REMARK    6  A    between atoms: C16_18  and  O8_36 
REMARK    7  A    between atoms: C18_20  and  O3_21 
REMARK    8  A    between atoms: O3_21  and  C19_22 
REMARK    9  A    between atoms: C19_22  and  C20_23 
REMARK   10  A    between atoms: C23_26  and  O5_31 
REMARK   11  A    between atoms: C24_27  and  O4_29 
REMARK   12  A    between atoms: O9_38  and  C30_39 
REMARK   13  A    between atoms: C33_43  and  O11_44 
REMARK   14  A    between atoms: C35_46  and  N1_47 
REMARK   15  A    between atoms: N1_47  and  C37_49 
ROOT
HETATM    1  C1  UNL     1       1.753   0.185   3.149  1.00  0.00     0.030 C 
HETATM    2  C2  UNL     1       1.773  -1.257   2.653  1.00  0.00     0.007 C 
HETATM    3  C3  UNL     1       1.883  -1.481   1.117  1.00  0.00     0.061 C 
HETATM    4  C4  UNL     1       3.080  -0.567   0.574  1.00  0.00     0.034 C 
HETATM    5  C5  UNL     1       3.131   0.935   1.087  1.00  0.00     0.028 C 
HETATM    6  C6  UNL     1       2.992   0.928   2.652  1.00  0.00     0.115 C 
HETATM    7  C8  UNL     1       4.517   1.625   0.787  1.00  0.00     0.010 C 
HETATM    8  C9  UNL     1       5.407   1.315  -0.451  1.00  0.00     0.056 C 
HETATM    9  C10 UNL     1       4.671   1.410  -1.808  1.00  0.00     0.108 C 
HETATM   10  C11 UNL     1       3.686   0.206  -1.971  1.00  0.00     0.053 C 
HETATM   11  C12 UNL     1       3.648  -0.880  -0.863  1.00  0.00     0.118 C 
HETATM   12  C14 UNL     1       2.312   0.429  -2.640  1.00  0.00     0.005 C 
HETATM   13  C15 UNL     1       4.057   2.818  -1.940  1.00  0.00     0.060 C 
HETATM   14  C16 UNL     1       4.953   3.967  -1.458  1.00  0.00     0.148 C 
HETATM   15  C17 UNL     1       5.658   3.600  -0.152  1.00  0.00     0.177 C 
HETATM   16  C18 UNL     1       6.526   2.360  -0.240  1.00  0.00     0.157 C 
HETATM   17  C28 UNL     1       4.675   3.169   0.944  1.00  0.00     0.036 C 
HETATM   18  O7  UNL     1       6.430   4.694   0.258  1.00  0.00    -0.221 OA
HETATM   19  C32 UNL     1       1.940   1.797   0.602  1.00  0.00     0.003 C 
ENDROOT
BRANCH  16  20
HETATM   20  O3  UNL     1       7.532   2.499  -1.191  1.00  0.00    -0.298 OA
BRANCH  20  21
HETATM   21  C19 UNL     1       8.327   1.473  -1.618  1.00  0.00     0.296 C 
HETATM   22  O6  UNL     1       9.103   1.710  -2.542  1.00  0.00    -0.259 OA
BRANCH  21  23
HETATM   23  C20 UNL     1       8.394   0.064  -1.107  1.00  0.00     0.065 A 
HETATM   24  C21 UNL     1       8.631  -0.967  -2.017  1.00  0.00     0.007 A 
HETATM   25  C22 UNL     1       8.677  -2.281  -1.560  1.00  0.00     0.026 A 
HETATM   26  C23 UNL     1       8.481  -2.636  -0.217  1.00  0.00     0.116 A 
HETATM   27  C24 UNL     1       8.305  -1.594   0.724  1.00  0.00     0.116 A 
HETATM   28  C25 UNL     1       8.255  -0.276   0.243  1.00  0.00     0.032 A 
BRANCH  26  29
HETATM   29  O5  UNL     1       8.593  -3.975   0.080  1.00  0.00    -0.326 OA
HETATM   30  C27 UNL     1       9.091  -4.369   1.337  1.00  0.00     0.181 C 
ENDBRANCH  26  29
BRANCH  27  31
HETATM   31  O4  UNL     1       8.084  -1.901   2.044  1.00  0.00    -0.326 OA
HETATM   32  C26 UNL     1       7.450  -0.955   2.873  1.00  0.00     0.181 C 
ENDBRANCH  27  31
ENDBRANCH  21  23
ENDBRANCH  20  21
ENDBRANCH  16  20
BRANCH   9  33
HETATM   33  O9  UNL     1       5.690   1.305  -2.769  1.00  0.00    -0.306 OA
BRANCH  33  34
HETATM   34  C30 UNL     1       5.448   1.383  -4.107  1.00  0.00     0.272 C 
HETATM   35  O10 UNL     1       4.362   1.467  -4.632  1.00  0.00    -0.264 OA
HETATM   36  C31 UNL     1       6.754   1.380  -4.873  1.00  0.00     0.106 C 
ENDBRANCH  33  34
ENDBRANCH   9  33
BRANCH  14  37
HETATM   37  O8  UNL     1       5.927   4.311  -2.405  1.00  0.00    -0.351 OA
HETATM   38  C29 UNL     1       5.462   5.151  -3.439  1.00  0.00     0.174 C 
ENDBRANCH  14  37
BRANCH   6  39
HETATM   39  O1  UNL     1       2.972   2.244   3.143  1.00  0.00    -0.354 OA
HETATM   40  C7  UNL     1       3.490   2.383   4.449  1.00  0.00     0.174 C 
ENDBRANCH   6  39
BRANCH  11  41
HETATM   41  O2  UNL     1       3.037  -2.035  -1.376  1.00  0.00    -0.354 OA
HETATM   42  C13 UNL     1       3.820  -2.842  -2.235  1.00  0.00     0.174 C 
ENDBRANCH  11  41
BRANCH   3  43
HETATM   43  C33 UNL     1       2.178  -3.028   1.064  1.00  0.00     0.144 C 
BRANCH  43  44
HETATM   44  O11 UNL     1       1.482  -3.710   0.044  1.00  0.00    -0.351 OA
HETATM   45  C34 UNL     1       1.786  -5.088  -0.001  1.00  0.00     0.174 C 
ENDBRANCH  43  44
ENDBRANCH   3  43
BRANCH   3  46
HETATM   46  C35 UNL     1       0.558  -1.198   0.346  1.00  0.00     0.253 C 
BRANCH  46  47
HETATM   47  N1  UNL     1      -0.638  -1.921   0.792  1.00  0.00     0.139 N 
HETATM   48  C36 UNL     1      -1.428  -2.360  -0.355  1.00  0.00     0.285 C 
BRANCH  47  49
HETATM   49  C37 UNL     1      -1.468  -1.107   1.683  1.00  0.00     0.250 C 
HETATM   50  C38 UNL     1      -2.632  -1.878   2.329  1.00  0.00     0.037 C 
ENDBRANCH  47  49
ENDBRANCH  46  47
ENDBRANCH   3  46
TORSDOF 15
