REMARK  3 active torsions:
REMARK  status: ('A' for Active; 'I' for Inactive)
REMARK    1  A    between atoms: C3_3  and  C20_26 
REMARK    2  A    between atoms: C20_26  and  O7_27 
REMARK    3  A    between atoms: O7_27  and  C21_28 
ROOT
HETATM    1  C1  UNL     1      -2.836   1.168   1.474  1.00  0.00     0.033 C 
HETATM    2  C2  UNL     1      -2.923  -0.361   1.518  1.00  0.00     0.005 C 
HETATM    3  C3  UNL     1      -2.186  -1.020   0.328  1.00  0.00     0.031 C 
HETATM    4  C4  UNL     1      -0.729  -0.446   0.218  1.00  0.00     0.043 C 
HETATM    5  C5  UNL     1      -0.449   1.048   0.582  1.00  0.00     0.059 C 
HETATM    6  C6  UNL     1      -1.386   1.588   1.673  1.00  0.00     0.154 C 
HETATM    7  O1  UNL     1      -1.006   1.119   2.947  1.00  0.00    -0.223 OA
HETATM    8  C7  UNL     1       1.064   1.301   0.907  1.00  0.00     0.019 C 
HETATM    9  C8  UNL     1       1.940   0.583  -0.151  1.00  0.00     0.136 C 
HETATM   10  C9  UNL     1       1.034   0.358  -1.352  1.00  0.00     0.256 C 
HETATM   11  C10 UNL     1      -0.073  -0.660  -1.153  1.00  0.00     0.207 C 
HETATM   12  O2  UNL     1       0.365  -1.986  -1.333  1.00  0.00    -0.218 OA
HETATM   13  O3  UNL     1       1.778  -0.011  -2.489  1.00  0.00    -0.192 OA
HETATM   14  O4  UNL     1       0.428   1.589  -1.650  1.00  0.00    -0.330 OA
HETATM   15  C11 UNL     1      -0.621   1.860  -0.736  1.00  0.00     0.147 C 
HETATM   16  C12 UNL     1       3.171   1.492  -0.329  1.00  0.00     0.168 C 
HETATM   17  C13 UNL     1       3.936   1.167   0.957  1.00  0.00     0.056 C 
HETATM   18  C14 UNL     1       3.190   1.692   2.199  1.00  0.00     0.007 C 
HETATM   19  C15 UNL     1       1.727   1.189   2.291  1.00  0.00     0.001 C 
HETATM   20  C16 UNL     1       3.805  -0.328   0.960  1.00  0.00     0.015 C 
HETATM   21  C17 UNL     1       2.641  -0.684   0.366  1.00  0.00     0.175 C 
HETATM   22  O5  UNL     1       2.254  -1.821   0.246  1.00  0.00    -0.291 OA
HETATM   23  C18 UNL     1       4.679  -1.191   1.494  1.00  0.00    -0.002 C 
HETATM   24  O6  UNL     1       3.920   1.093  -1.450  1.00  0.00    -0.223 OA
HETATM   25  C19 UNL     1      -2.125  -2.537   0.651  1.00  0.00     0.003 C 
ENDROOT
BRANCH   3  26
HETATM   26  C20 UNL     1      -3.101  -0.853  -0.912  1.00  0.00     0.152 C 
BRANCH  26  27
HETATM   27  O7  UNL     1      -2.810  -1.784  -1.923  1.00  0.00    -0.302 OA
BRANCH  27  28
HETATM   28  C21 UNL     1      -3.456  -1.617  -3.109  1.00  0.00     0.272 C 
HETATM   29  C22 UNL     1      -2.954  -2.621  -4.126  1.00  0.00     0.106 C 
HETATM   30  O8  UNL     1      -4.295  -0.774  -3.328  1.00  0.00    -0.264 OA
ENDBRANCH  27  28
ENDBRANCH  26  27
ENDBRANCH   3  26
TORSDOF 3
