REMARK  0 active torsions:
REMARK  status: ('A' for Active; 'I' for Inactive)
ROOT
HETATM    1  C1  UNL     1      -2.841   0.077   1.879  1.00  0.00     0.033 C 
HETATM    2  C2  UNL     1      -2.718  -1.453   1.909  1.00  0.00     0.003 C 
HETATM    3  C3  UNL     1      -2.055  -2.028   0.637  1.00  0.00     0.003 C 
HETATM    4  C4  UNL     1      -0.716  -1.272   0.385  1.00  0.00     0.040 C 
HETATM    5  C5  UNL     1      -0.722   0.282   0.437  1.00  0.00     0.059 C 
HETATM    6  C6  UNL     1      -1.485   0.752   1.687  1.00  0.00     0.154 C 
HETATM    7  O1  UNL     1      -0.715   0.501   2.842  1.00  0.00    -0.223 OA
HETATM    8  C7  UNL     1       0.764   0.791   0.426  1.00  0.00     0.017 C 
HETATM    9  C8  UNL     1       1.352   0.524  -0.982  1.00  0.00     0.108 C 
HETATM   10  C9  UNL     1       0.416  -0.457  -1.669  1.00  0.00     0.254 C 
HETATM   11  C10 UNL     1       0.040  -1.695  -0.880  1.00  0.00     0.206 C 
HETATM   12  O2  UNL     1       1.171  -2.459  -0.535  1.00  0.00    -0.218 OA
HETATM   13  O3  UNL     1       0.914  -0.822  -2.933  1.00  0.00    -0.192 OA
HETATM   14  O4  UNL     1      -0.773   0.206  -2.001  1.00  0.00    -0.330 OA
HETATM   15  C11 UNL     1      -1.355   0.803  -0.865  1.00  0.00     0.147 C 
HETATM   16  C12 UNL     1       1.575   1.848  -1.752  1.00  0.00     0.017 C 
HETATM   17  C13 UNL     1       2.764   2.421  -0.969  1.00  0.00     0.026 C 
HETATM   18  C14 UNL     1       2.324   2.855   0.439  1.00  0.00     0.004 C 
HETATM   19  C15 UNL     1       0.962   2.265   0.849  1.00  0.00     0.001 C 
HETATM   20  C16 UNL     1       3.599   1.169  -0.885  1.00  0.00     0.012 C 
HETATM   21  C17 UNL     1       2.813   0.065  -0.884  1.00  0.00     0.173 C 
HETATM   22  O5  UNL     1       3.206  -1.075  -0.854  1.00  0.00    -0.291 OA
HETATM   23  C18 UNL     1       4.937   1.133  -0.823  1.00  0.00    -0.002 C 
HETATM   24  C19 UNL     1      -1.736  -3.523   0.901  1.00  0.00     0.000 C 
HETATM   25  C20 UNL     1      -3.089  -2.007  -0.513  1.00  0.00     0.000 C 
ENDROOT
TORSDOF 0
