REMARK  9 active torsions:
REMARK  status: ('A' for Active; 'I' for Inactive)
REMARK    1  A    between atoms: C2_2  and  O3_29 
REMARK    2  A    between atoms: O3_29  and  C27_30 
REMARK    3  A    between atoms: C28_32  and  C44_61 
REMARK    4  A    between atoms: C31_35  and  O5_36 
REMARK    5  A    between atoms: O5_36  and  C32_37 
REMARK    6  A    between atoms: C33_39  and  C43_57 
REMARK    7  A    between atoms: C35_41  and  O8_44 
REMARK    8  A    between atoms: O8_44  and  C37_45 
REMARK    9  A    between atoms: C38_47  and  C42_54 
ROOT
HETATM    1  C27 UNL     1      -3.654  -0.528   0.378  1.00  0.00     0.267 C 
HETATM    2  O4  UNL     1      -4.409  -0.762   1.548  1.00  0.00    -0.326 OA
HETATM    3  C28 UNL     1      -3.864  -0.291   2.755  1.00  0.00     0.184 C 
HETATM    4  C29 UNL     1      -2.392  -0.641   2.925  1.00  0.00     0.215 C 
HETATM    5  C30 UNL     1      -1.546  -0.426   1.683  1.00  0.00     0.217 C 
HETATM    6  C31 UNL     1      -2.232  -1.060   0.479  1.00  0.00     0.207 C 
HETATM    7  O16 UNL     1      -1.300   0.940   1.452  1.00  0.00    -0.218 OA
HETATM    8  O17 UNL     1      -1.845   0.072   4.008  1.00  0.00    -0.218 OA
ENDROOT
BRANCH   1   9
HETATM    9  O3  UNL     1      -3.603   0.866   0.193  1.00  0.00    -0.332 OA
BRANCH   9  10
HETATM   10  C2  UNL     1      -4.397   1.426  -0.814  1.00  0.00     0.118 C 
HETATM   11  C1  UNL     1      -4.301   2.945  -0.615  1.00  0.00     0.030 C 
HETATM   12  C6  UNL     1      -2.872   3.479  -0.852  1.00  0.00     0.003 C 
HETATM   13  C5  UNL     1      -2.297   3.122  -2.243  1.00  0.00     0.000 C 
HETATM   14  C4  UNL     1      -2.455   1.587  -2.420  1.00  0.00     0.002 C 
HETATM   15  C7  UNL     1      -0.790   3.499  -2.428  1.00  0.00     0.000 C 
HETATM   16  C26 UNL     1      -3.102   3.913  -3.307  1.00  0.00     0.000 C 
HETATM   17  C3  UNL     1      -3.893   1.081  -2.227  1.00  0.00     0.030 C 
HETATM   18  C10 UNL     1      -1.712   1.069  -3.662  1.00  0.00     0.000 C 
HETATM   19  C9  UNL     1      -0.191   1.321  -3.541  1.00  0.00     0.000 C 
HETATM   20  C8  UNL     1       0.145   2.273  -2.379  1.00  0.00     0.000 C 
HETATM   21  C11 UNL     1       1.615   2.673  -2.194  1.00  0.00     0.003 C 
HETATM   22  C12 UNL     1       2.041   4.059  -2.706  1.00  0.00     0.003 C 
HETATM   23  C17 UNL     1       2.729   1.723  -2.640  1.00  0.00     0.030 C 
HETATM   24  C13 UNL     1       1.146   5.150  -2.074  1.00  0.00     0.000 C 
HETATM   25  C15 UNL     1       3.544   4.043  -2.306  1.00  0.00     0.032 C 
HETATM   26  C25 UNL     1       1.989   4.181  -4.250  1.00  0.00     0.000 C 
HETATM   27  C14 UNL     1      -0.218   4.632  -1.558  1.00  0.00     0.000 C 
HETATM   28  C16 UNL     1       3.989   2.602  -2.576  1.00  0.00     0.118 C 
HETATM   29  C19 UNL     1       3.908   4.238  -0.824  1.00  0.00     0.054 C 
HETATM   30  O1  UNL     1       4.840   2.178  -1.560  1.00  0.00    -0.337 OA
HETATM   31  C18 UNL     1       4.767   3.025  -0.444  1.00  0.00     0.187 C 
HETATM   32  C21 UNL     1       4.185   2.268   0.749  1.00  0.00     0.056 C 
HETATM   33  O2  UNL     1       6.082   3.449  -0.168  1.00  0.00    -0.335 OA
HETATM   34  C22 UNL     1       5.087   1.110   1.188  1.00  0.00     0.008 C 
HETATM   35  C23 UNL     1       6.490   1.671   1.433  1.00  0.00     0.032 C 
HETATM   36  C24 UNL     1       6.967   2.416   0.192  1.00  0.00     0.145 C 
HETATM   37  C20 UNL     1       4.561   5.607  -0.567  1.00  0.00     0.005 C 
ENDBRANCH   9  10
ENDBRANCH   1   9
BRANCH   6  38
HETATM   38  O5  UNL     1      -2.152  -2.448   0.639  1.00  0.00    -0.324 OA
BRANCH  38  39
HETATM   39  C32 UNL     1      -2.636  -3.237  -0.425  1.00  0.00     0.270 C 
HETATM   40  O6  UNL     1      -3.763  -3.937   0.056  1.00  0.00    -0.326 OA
HETATM   41  C33 UNL     1      -3.503  -4.948   0.997  1.00  0.00     0.184 C 
HETATM   42  C34 UNL     1      -2.410  -5.908   0.544  1.00  0.00     0.211 C 
HETATM   43  C35 UNL     1      -1.152  -5.240   0.004  1.00  0.00     0.186 C 
HETATM   44  O14 UNL     1      -2.935  -6.737  -0.473  1.00  0.00    -0.218 OA
HETATM   45  C36 UNL     1      -1.578  -4.164  -0.986  1.00  0.00     0.238 C 
HETATM   46  O7  UNL     1      -2.102  -4.795  -2.133  1.00  0.00    -0.215 OA
BRANCH  41  47
HETATM   47  C43 UNL     1      -3.329  -4.406   2.410  1.00  0.00     0.214 C 
HETATM   48  O15 UNL     1      -3.436  -5.454   3.353  1.00  0.00    -0.218 OA
ENDBRANCH  41  47
BRANCH  43  49
HETATM   49  O8  UNL     1      -0.403  -4.679   1.045  1.00  0.00    -0.326 OA
BRANCH  49  50
HETATM   50  C37 UNL     1       0.962  -4.472   0.743  1.00  0.00     0.270 C 
HETATM   51  O9  UNL     1       1.691  -5.550   1.289  1.00  0.00    -0.326 OA
HETATM   52  C38 UNL     1       1.778  -5.601   2.689  1.00  0.00     0.184 C 
HETATM   53  C39 UNL     1       2.187  -4.270   3.309  1.00  0.00     0.215 C 
HETATM   54  C40 UNL     1       1.421  -3.079   2.762  1.00  0.00     0.220 C 
HETATM   55  O12 UNL     1       3.561  -4.054   3.059  1.00  0.00    -0.218 OA
HETATM   56  C41 UNL     1       1.437  -3.129   1.249  1.00  0.00     0.241 C 
HETATM   57  O11 UNL     1       0.088  -3.083   3.219  1.00  0.00    -0.218 OA
HETATM   58  O10 UNL     1       2.751  -2.902   0.792  1.00  0.00    -0.215 OA
BRANCH  52  59
HETATM   59  C42 UNL     1       0.558  -6.262   3.324  1.00  0.00     0.214 C 
HETATM   60  O13 UNL     1       0.880  -6.713   4.625  1.00  0.00    -0.218 OA
ENDBRANCH  52  59
ENDBRANCH  49  50
ENDBRANCH  43  49
ENDBRANCH  38  39
ENDBRANCH   6  38
BRANCH   3  61
HETATM   61  C44 UNL     1      -4.213   1.169   3.031  1.00  0.00     0.214 C 
HETATM   62  O18 UNL     1      -4.104   1.425   4.419  1.00  0.00    -0.218 OA
ENDBRANCH   3  61
TORSDOF 9
