REMARK  0 active torsions:
REMARK  status: ('A' for Active; 'I' for Inactive)
ROOT
HETATM    1  C1  UNL     1       0.611   0.601  -0.167  1.00  0.00     0.123 A 
HETATM    2  C2  UNL     1       1.108  -0.610   0.159  1.00  0.00     0.005 A 
HETATM    3  C3  UNL     1       0.276  -1.630   0.429  1.00  0.00     0.025 A 
HETATM    4  C4  UNL     1      -1.056  -1.486   0.387  1.00  0.00     0.131 A 
HETATM    5  C5  UNL     1      -1.532  -0.273   0.066  1.00  0.00     0.025 A 
HETATM    6  C6  UNL     1      -0.728   0.768  -0.210  1.00  0.00     0.005 A 
HETATM    7  C7  UNL     1      -1.381   2.089  -0.560  1.00  0.00     0.033 C 
HETATM    8  O1  UNL     1      -1.896  -2.520   0.662  1.00  0.00    -0.190 OA
HETATM    9  C8  UNL     1       2.606  -0.815   0.218  1.00  0.00     0.033 C 
HETATM   10  O2  UNL     1       1.465   1.627  -0.438  1.00  0.00    -0.191 OA
ENDROOT
TORSDOF 0
