REMARK  3 active torsions:
REMARK  status: ('A' for Active; 'I' for Inactive)
REMARK    1  A    between atoms: C2_2  and  C8_9 
REMARK    2  A    between atoms: C10_11  and  C12_14 
REMARK    3  A    between atoms: C12_14  and  C13_15 
ROOT
HETATM    1  C8  UNL     1       3.809  -0.519  -0.519  1.00  0.00     0.004 A 
HETATM    2  C9  UNL     1       4.214   0.705   0.106  1.00  0.00     0.018 A 
HETATM    3  C10 UNL     1       5.579   0.718   0.089  1.00  0.00     0.077 A 
HETATM    4  O2  UNL     1       6.051  -0.423  -0.496  1.00  0.00    -0.310 OA
HETATM    5  C11 UNL     1       4.963  -1.158  -0.857  1.00  0.00     0.118 A 
ENDROOT
BRANCH   1   6
HETATM    6  C2  UNL     1       2.410  -0.990  -0.797  1.00  0.00     0.032 C 
HETATM    7  C1  UNL     1       1.614   0.044  -1.604  1.00  0.00     0.042 C 
HETATM    8  C6  UNL     1       0.270  -0.540  -2.038  1.00  0.00     0.171 C 
HETATM    9  C5  UNL     1      -0.434  -1.270  -0.918  1.00  0.00    -0.018 C 
HETATM   10  O1  UNL     1       0.480  -1.418  -3.131  1.00  0.00    -0.219 OA
HETATM   11  C4  UNL     1       0.197  -1.612   0.217  1.00  0.00    -0.032 C 
HETATM   12  C7  UNL     1      -1.882  -1.618  -1.164  1.00  0.00     0.029 C 
HETATM   13  C3  UNL     1       1.647  -1.312   0.496  1.00  0.00     0.030 C 
ENDBRANCH   1   6
BRANCH   3  14
HETATM   14  C12 UNL     1       6.467   1.826   0.579  1.00  0.00     0.051 C 
BRANCH  14  15
HETATM   15  C13 UNL     1       7.628   1.319   1.454  1.00  0.00     0.006 C 
HETATM   16  C14 UNL     1       7.114   0.719   2.773  1.00  0.00     0.000 C 
HETATM   17  C15 UNL     1       8.627   2.455   1.736  1.00  0.00     0.000 C 
ENDBRANCH  14  15
ENDBRANCH   3  14
TORSDOF 3
