REMARK  9 active torsions:
REMARK  status: ('A' for Active; 'I' for Inactive)
REMARK    1  A    between atoms: C2_2  and  O5_36 
REMARK    2  A    between atoms: C16_16  and  C26_28 
REMARK    3  A    between atoms: C21_21  and  C23_23 
REMARK    4  A    between atoms: C23_23  and  O1_24 
REMARK    5  A    between atoms: O5_36  and  C32_37 
REMARK    6  A    between atoms: C34_39  and  C44_57 
REMARK    7  A    between atoms: C35_40  and  O8_45 
REMARK    8  A    between atoms: O8_45  and  C38_46 
REMARK    9  A    between atoms: C39_48  and  C43_55 
ROOT
HETATM    1  C1  UNL     1      -1.462  -0.066  -0.929  1.00  0.00     0.030 C 
HETATM    2  C2  UNL     1      -1.813  -0.078   0.790  1.00  0.00     0.115 C 
HETATM    3  C3  UNL     1      -3.298   0.606   1.451  1.00  0.00     0.025 C 
HETATM    4  C4  UNL     1      -4.133   1.745   0.257  1.00  0.00     0.002 A 
HETATM    5  C5  UNL     1      -3.510   2.093  -1.475  1.00  0.00     0.001 C 
HETATM    6  C6  UNL     1      -2.252   0.934  -2.123  1.00  0.00     0.003 C 
HETATM    7  C7  UNL     1      -2.494   3.122  -1.274  1.00  0.00     0.005 C 
HETATM    8  C8  UNL     1      -2.124   2.004  -0.265  1.00  0.00     0.004 C 
HETATM    9  C9  UNL     1      -3.442   0.471  -0.565  1.00  0.00     0.000 A 
HETATM   10  C10 UNL     1      -4.965   0.711  -0.360  1.00  0.00     0.000 A 
HETATM   11  C11 UNL     1      -0.398   2.431  -0.575  1.00  0.00     0.018 C 
HETATM   12  C12 UNL     1      -0.218   4.047  -0.523  1.00  0.00    -0.034 C 
HETATM   13  C13 UNL     1      -1.234   4.935  -0.686  1.00  0.00    -0.031 C 
HETATM   14  C14 UNL     1      -2.682   4.569  -0.902  1.00  0.00     0.026 C 
HETATM   15  C15 UNL     1       1.152   4.698  -0.269  1.00  0.00    -0.039 C 
HETATM   16  C16 UNL     1       1.896   4.089   0.932  1.00  0.00     0.093 C 
HETATM   17  C17 UNL     1       2.011   2.586   0.636  1.00  0.00     0.014 C 
HETATM   18  C18 UNL     1       0.637   1.903   0.487  1.00  0.00     0.005 C 
HETATM   19  C19 UNL     1       3.271   4.766   1.163  1.00  0.00     0.015 C 
HETATM   20  C20 UNL     1       3.639   5.851   0.139  1.00  0.00     0.011 C 
HETATM   21  C21 UNL     1       3.460   5.382  -1.317  1.00  0.00     0.082 C 
HETATM   22  C22 UNL     1       1.983   4.982  -1.542  1.00  0.00     0.032 C 
HETATM   23  C25 UNL     1       4.454   4.237  -1.622  1.00  0.00     0.010 C 
HETATM   24  C27 UNL     1       0.317   2.153  -1.948  1.00  0.00     0.004 C 
HETATM   25  C28 UNL     1      -2.122   2.816   1.119  1.00  0.00     0.000 C 
HETATM   26  C29 UNL     1      -4.496   2.559  -2.562  1.00  0.00     0.000 C 
HETATM   27  C30 UNL     1      -3.220   1.176   2.928  1.00  0.00     0.002 C 
HETATM   28  C31 UNL     1      -4.185  -0.651   1.898  1.00  0.00     0.002 C 
ENDROOT
BRANCH   2  29
HETATM   29  O5  UNL     1      -1.667  -1.441   1.141  1.00  0.00    -0.356 OA
BRANCH  29  30
HETATM   30  C32 UNL     1      -0.960  -1.737   2.317  1.00  0.00     0.148 C 
HETATM   31  C33 UNL     1       0.551  -1.819   2.068  1.00  0.00     0.037 C 
HETATM   32  C34 UNL     1       1.013  -2.983   1.162  1.00  0.00     0.066 C 
HETATM   33  C35 UNL     1       0.408  -4.328   1.618  1.00  0.00     0.153 C 
HETATM   34  C36 UNL     1      -1.091  -4.232   1.907  1.00  0.00     0.212 C 
HETATM   35  C37 UNL     1      -1.447  -3.086   2.839  1.00  0.00     0.212 C 
HETATM   36  O7  UNL     1      -1.838  -4.110   0.718  1.00  0.00    -0.218 OA
HETATM   37  O6  UNL     1      -0.892  -3.333   4.111  1.00  0.00    -0.218 OA
BRANCH  32  38
HETATM   38  C44 UNL     1       0.833  -2.664  -0.328  1.00  0.00     0.185 C 
HETATM   39  O14 UNL     1       1.671  -3.465  -1.137  1.00  0.00    -0.221 OA
ENDBRANCH  32  38
BRANCH  33  40
HETATM   40  O8  UNL     1       0.703  -5.289   0.643  1.00  0.00    -0.329 OA
BRANCH  40  41
HETATM   41  C38 UNL     1       0.461  -6.636   0.974  1.00  0.00     0.270 C 
HETATM   42  O9  UNL     1       1.681  -7.229   1.366  1.00  0.00    -0.326 OA
HETATM   43  C39 UNL     1       2.644  -7.432   0.365  1.00  0.00     0.184 C 
HETATM   44  C40 UNL     1       2.077  -8.058  -0.903  1.00  0.00     0.215 C 
HETATM   45  C41 UNL     1       0.780  -7.425  -1.371  1.00  0.00     0.220 C 
HETATM   46  O12 UNL     1       1.834  -9.430  -0.669  1.00  0.00    -0.218 OA
HETATM   47  C42 UNL     1      -0.181  -7.335  -0.204  1.00  0.00     0.241 C 
HETATM   48  O11 UNL     1       1.007  -6.138  -1.904  1.00  0.00    -0.218 OA
HETATM   49  O10 UNL     1      -0.571  -8.630   0.188  1.00  0.00    -0.215 OA
BRANCH  43  50
HETATM   50  C43 UNL     1       3.509  -6.199   0.137  1.00  0.00     0.214 C 
HETATM   51  O13 UNL     1       4.731  -6.569  -0.472  1.00  0.00    -0.218 OA
ENDBRANCH  43  50
ENDBRANCH  40  41
ENDBRANCH  33  40
ENDBRANCH  29  30
ENDBRANCH   2  29
BRANCH  16  52
HETATM   52  C26 UNL     1       1.095   4.323   2.222  1.00  0.00     0.188 C 
HETATM   53  O3  UNL     1       0.226   5.141   2.404  1.00  0.00    -0.647 OA
HETATM   54  O4  UNL     1       1.509   3.541   3.237  1.00  0.00    -0.647 OA
ENDBRANCH  16  52
BRANCH  21  55
HETATM   55  C23 UNL     1       3.818   6.530  -2.274  1.00  0.00     0.271 C 
HETATM   56  O2  UNL     1       4.116   7.652  -1.931  1.00  0.00    -0.264 OA
BRANCH  55  57
HETATM   57  O1  UNL     1       3.776   6.116  -3.571  1.00  0.00    -0.299 OA
HETATM   58  C24 UNL     1       4.139   7.063  -4.546  1.00  0.00     0.184 C 
ENDBRANCH  55  57
ENDBRANCH  21  55
TORSDOF 9
