REMARK  4 active torsions:
REMARK  status: ('A' for Active; 'I' for Inactive)
REMARK    1  A    between atoms: C7_8  and  C10_12 
REMARK    2  A    between atoms: C12_14  and  C21_24 
REMARK    3  A    between atoms: C21_24  and  C22_25 
REMARK    4  A    between atoms: C22_25  and  C23_27 
ROOT
HETATM    1  C10 UNL     1      -0.964   0.807  -0.145  1.00  0.00     0.023 A 
HETATM    2  C11 UNL     1       0.359   0.783  -0.394  1.00  0.00     0.004 A 
HETATM    3  C12 UNL     1       1.110  -0.337  -0.436  1.00  0.00     0.021 A 
HETATM    4  C13 UNL     1       0.521  -1.537  -0.232  1.00  0.00     0.094 A 
HETATM    5  C14 UNL     1      -0.796  -1.543   0.064  1.00  0.00     0.022 A 
HETATM    6  C15 UNL     1      -1.508  -0.402   0.093  1.00  0.00     0.004 A 
HETATM    7  C16 UNL     1      -1.426  -2.707   0.300  1.00  0.00    -0.000 C 
HETATM    8  C17 UNL     1      -0.740  -3.853   0.360  1.00  0.00     0.001 C 
HETATM    9  C18 UNL     1       0.760  -3.865   0.261  1.00  0.00     0.117 C 
HETATM   10  O3  UNL     1       1.258  -2.687  -0.306  1.00  0.00    -0.332 OA
HETATM   11  C19 UNL     1       1.353  -4.009   1.668  1.00  0.00     0.035 C 
HETATM   12  C20 UNL     1       1.215  -5.032  -0.622  1.00  0.00     0.035 C 
ENDROOT
BRANCH   1  13
HETATM   13  C7  UNL     1      -1.755   1.912  -0.122  1.00  0.00     0.103 A 
HETATM   14  O1  UNL     1      -3.089   1.768   0.145  1.00  0.00    -0.307 OA
HETATM   15  C5  UNL     1      -3.870   2.887   0.131  1.00  0.00     0.107 A 
HETATM   16  C4  UNL     1      -3.392   4.124  -0.112  1.00  0.00     0.087 A 
HETATM   17  C6  UNL     1      -5.186   2.749   0.373  1.00  0.00     0.052 A 
HETATM   18  C3  UNL     1      -4.216   5.196  -0.111  1.00  0.00     0.138 A 
HETATM   19  C9  UNL     1      -2.060   4.264  -0.359  1.00  0.00     0.202 A 
HETATM   20  C2  UNL     1      -5.522   4.997   0.136  1.00  0.00     0.055 A 
HETATM   21  O5  UNL     1      -3.798   6.471  -0.351  1.00  0.00    -0.190 OA
HETATM   22  C1  UNL     1      -6.037   3.785   0.382  1.00  0.00     0.135 A 
HETATM   23  O6  UNL     1      -7.363   3.606   0.629  1.00  0.00    -0.190 OA
HETATM   24  C8  UNL     1      -1.279   3.151  -0.359  1.00  0.00     0.067 A 
HETATM   25  O2  UNL     1      -1.528   5.329  -0.586  1.00  0.00    -0.286 OA
ENDBRANCH   1  13
BRANCH   3  26
HETATM   26  C21 UNL     1       2.595  -0.132  -0.748  1.00  0.00     0.012 C 
BRANCH  26  27
HETATM   27  C22 UNL     1       3.651  -1.200  -0.445  1.00  0.00     0.193 C 
HETATM   28  O4  UNL     1       3.644  -2.202  -1.448  1.00  0.00    -0.214 OA
BRANCH  27  29
HETATM   29  C23 UNL     1       5.073  -0.672  -0.377  1.00  0.00    -0.010 C 
HETATM   30  C24 UNL     1       5.981  -1.341   0.628  1.00  0.00     0.029 C 
HETATM   31  C25 UNL     1       5.532   0.287  -1.196  1.00  0.00    -0.006 C 
ENDBRANCH  27  29
ENDBRANCH  26  27
ENDBRANCH   3  26
TORSDOF 4
