REMARK  1 active torsions:
REMARK  status: ('A' for Active; 'I' for Inactive)
REMARK    1  A    between atoms: C7_8  and  C10_12 
ROOT
HETATM    1  C1  UNL     1      -4.592   3.430   0.174  1.00  0.00     0.135 A 
HETATM    2  C2  UNL     1      -4.098   4.639  -0.126  1.00  0.00     0.055 A 
HETATM    3  C3  UNL     1      -2.793   4.852  -0.368  1.00  0.00     0.138 A 
HETATM    4  C4  UNL     1      -1.948   3.799  -0.309  1.00  0.00     0.087 A 
HETATM    5  C5  UNL     1      -2.403   2.567   0.000  1.00  0.00     0.107 A 
HETATM    6  C6  UNL     1      -3.719   2.415   0.234  1.00  0.00     0.052 A 
HETATM    7  O1  UNL     1      -1.597   1.470   0.090  1.00  0.00    -0.307 OA
HETATM    8  C7  UNL     1      -0.275   1.619  -0.227  1.00  0.00     0.103 A 
HETATM    9  C8  UNL     1       0.178   2.851  -0.529  1.00  0.00     0.067 A 
HETATM   10  C9  UNL     1      -0.620   3.951  -0.565  1.00  0.00     0.202 A 
HETATM   11  O2  UNL     1      -0.106   5.013  -0.846  1.00  0.00    -0.286 OA
HETATM   12  O5  UNL     1      -2.398   6.121  -0.669  1.00  0.00    -0.190 OA
HETATM   13  O6  UNL     1      -5.917   3.235   0.410  1.00  0.00    -0.190 OA
ENDROOT
BRANCH   8  14
HETATM   14  C10 UNL     1       0.533   0.526  -0.217  1.00  0.00     0.025 A 
HETATM   15  C11 UNL     1       1.839   0.511  -0.543  1.00  0.00     0.031 A 
HETATM   16  C12 UNL     1       2.591  -0.603  -0.540  1.00  0.00     0.153 A 
HETATM   17  C13 UNL     1       2.055  -1.789  -0.189  1.00  0.00     0.119 A 
HETATM   18  O4  UNL     1       3.903  -0.527  -0.903  1.00  0.00    -0.188 OA
HETATM   19  C14 UNL     1       0.755  -1.803   0.161  1.00  0.00     0.024 A 
HETATM   20  O3  UNL     1       2.866  -2.893  -0.204  1.00  0.00    -0.330 OA
HETATM   21  C15 UNL     1       0.024  -0.673   0.134  1.00  0.00     0.004 A 
HETATM   22  C16 UNL     1       0.182  -2.958   0.536  1.00  0.00    -0.000 A 
HETATM   23  C17 UNL     1       0.898  -4.086   0.581  1.00  0.00     0.001 A 
HETATM   24  C18 UNL     1       2.360  -4.132   0.219  1.00  0.00     0.117 A 
HETATM   25  C19 UNL     1       3.164  -4.578   1.446  1.00  0.00     0.035 C 
HETATM   26  C20 UNL     1       2.555  -5.135  -0.925  1.00  0.00     0.035 C 
ENDBRANCH   8  14
TORSDOF 1
