REMARK  6 active torsions:
REMARK  status: ('A' for Active; 'I' for Inactive)
REMARK    1  A    between atoms: C7_9  and  C31_44 
REMARK    2  A    between atoms: C8_10  and  C10_13 
REMARK    3  A    between atoms: C11_14  and  O8_32 
REMARK    4  A    between atoms: C16_20  and  C19_24 
REMARK    5  A    between atoms: O8_32  and  C25_33 
REMARK    6  A    between atoms: C26_35  and  C30_42 
ROOT
HETATM    1  C10 UNL     1       6.085  -0.331  -0.673  1.00  0.00     0.029 C 
HETATM    2  C11 UNL     1       7.570  -0.386  -0.464  1.00  0.00     0.079 C 
HETATM    3  C12 UNL     1       8.332   0.316  -1.556  1.00  0.00     0.105 C 
HETATM    4  C13 UNL     1       7.844   0.128  -2.953  1.00  0.00     0.118 C 
HETATM    5  C14 UNL     1       6.512  -0.108  -3.086  1.00  0.00     0.065 C 
HETATM    6  C15 UNL     1       5.582  -0.167  -1.931  1.00  0.00     0.096 C 
HETATM    7  O4  UNL     1       4.225  -0.171  -2.105  1.00  0.00    -0.329 OA
HETATM    8  C16 UNL     1       3.730  -0.685  -3.312  1.00  0.00     0.150 C 
HETATM    9  C17 UNL     1       4.396  -0.010  -4.506  1.00  0.00     0.089 C 
HETATM   10  C18 UNL     1       5.897  -0.202  -4.465  1.00  0.00     0.115 C 
HETATM   11  O5  UNL     1       6.579  -0.436  -5.564  1.00  0.00    -0.195 OA
HETATM   12  O7  UNL     1       8.714   0.282  -3.985  1.00  0.00    -0.194 OA
ENDROOT
BRANCH   1  13
HETATM   13  C8  UNL     1       5.170  -0.488   0.532  1.00  0.00     0.120 C 
HETATM   14  C7  UNL     1       4.332   0.761   0.799  1.00  0.00     0.155 C 
HETATM   15  O2  UNL     1       3.606   0.596   1.991  1.00  0.00    -0.328 OA
HETATM   16  C4  UNL     1       2.828  -0.530   2.058  1.00  0.00     0.101 A 
HETATM   17  C3  UNL     1       3.065  -1.694   1.296  1.00  0.00     0.083 A 
HETATM   18  C5  UNL     1       1.675  -0.502   2.848  1.00  0.00     0.052 A 
HETATM   19  C2  UNL     1       2.209  -2.809   1.364  1.00  0.00     0.138 A 
HETATM   20  C9  UNL     1       4.286  -1.723   0.449  1.00  0.00     0.183 C 
HETATM   21  C1  UNL     1       1.095  -2.723   2.206  1.00  0.00     0.055 A 
HETATM   22  O15 UNL     1       2.418  -3.970   0.684  1.00  0.00    -0.190 OA
HETATM   23  C6  UNL     1       0.798  -1.585   2.953  1.00  0.00     0.135 A 
HETATM   24  O1  UNL     1      -0.304  -1.538   3.747  1.00  0.00    -0.190 OA
HETATM   25  O3  UNL     1       4.605  -2.664  -0.267  1.00  0.00    -0.291 OA
BRANCH  14  26
HETATM   26  C31 UNL     1       5.229   1.982   0.872  1.00  0.00     0.006 A 
HETATM   27  C32 UNL     1       5.385   2.813  -0.242  1.00  0.00     0.000 A 
HETATM   28  C33 UNL     1       6.229   3.923  -0.197  1.00  0.00     0.027 A 
HETATM   29  C34 UNL     1       6.931   4.253   0.965  1.00  0.00     0.131 A 
HETATM   30  C35 UNL     1       6.771   3.422   2.078  1.00  0.00     0.027 A 
HETATM   31  O14 UNL     1       7.759   5.329   1.008  1.00  0.00    -0.190 OA
HETATM   32  C36 UNL     1       5.947   2.296   2.030  1.00  0.00     0.000 A 
ENDBRANCH  14  26
ENDBRANCH   1  13
BRANCH   2  33
HETATM   33  O8  UNL     1       8.104  -0.835   0.710  1.00  0.00    -0.308 OA
BRANCH  33  34
HETATM   34  C25 UNL     1       9.416  -0.447   1.040  1.00  0.00     0.274 C 
HETATM   35  O9  UNL     1       9.880  -1.537   1.812  1.00  0.00    -0.326 OA
HETATM   36  C26 UNL     1      11.204  -1.359   2.244  1.00  0.00     0.184 C 
HETATM   37  C27 UNL     1      11.284  -0.125   3.136  1.00  0.00     0.215 C 
HETATM   38  C28 UNL     1      10.774   1.093   2.392  1.00  0.00     0.220 C 
HETATM   39  O12 UNL     1      12.611   0.129   3.525  1.00  0.00    -0.218 OA
HETATM   40  C29 UNL     1       9.378   0.807   1.883  1.00  0.00     0.241 C 
HETATM   41  O11 UNL     1      10.738   2.197   3.260  1.00  0.00    -0.218 OA
HETATM   42  O10 UNL     1       8.935   1.902   1.123  1.00  0.00    -0.215 OA
BRANCH  36  43
HETATM   43  C30 UNL     1      11.646  -2.619   2.975  1.00  0.00     0.214 C 
HETATM   44  O13 UNL     1      11.617  -3.721   2.090  1.00  0.00    -0.218 OA
ENDBRANCH  36  43
ENDBRANCH  33  34
ENDBRANCH   2  33
BRANCH   8  45
HETATM   45  C19 UNL     1       2.228  -0.479  -3.368  1.00  0.00     0.006 A 
HETATM   46  C20 UNL     1       1.364  -1.510  -3.750  1.00  0.00     0.000 A 
HETATM   47  C21 UNL     1      -0.015  -1.300  -3.815  1.00  0.00     0.027 A 
HETATM   48  C22 UNL     1      -0.578  -0.059  -3.502  1.00  0.00     0.131 A 
HETATM   49  C23 UNL     1       0.289   0.968  -3.120  1.00  0.00     0.027 A 
HETATM   50  O6  UNL     1      -1.921   0.137  -3.575  1.00  0.00    -0.190 OA
HETATM   51  C24 UNL     1       1.668   0.765  -3.054  1.00  0.00     0.000 A 
ENDBRANCH   8  45
TORSDOF 6
