REMARK  0 active torsions:
REMARK  status: ('A' for Active; 'I' for Inactive)
ROOT
HETATM    1  C1  UNL     1      -5.017   0.117  -0.346  1.00  0.00     0.055 A 
HETATM    2  C2  UNL     1      -4.873  -1.192  -0.566  1.00  0.00     0.133 A 
HETATM    3  C3  UNL     1      -3.624  -1.666  -0.501  1.00  0.00     0.028 A 
HETATM    4  C4  UNL     1      -2.534  -0.915  -0.214  1.00  0.00     0.009 A 
HETATM    5  C5  UNL     1      -2.706   0.435  -0.091  1.00  0.00     0.089 A 
HETATM    6  C6  UNL     1      -3.974   0.932  -0.124  1.00  0.00     0.138 A 
HETATM    7  O1  UNL     1      -4.301   2.252   0.027  1.00  0.00    -0.190 OA
HETATM    8  C7  UNL     1      -1.688   1.358   0.020  1.00  0.00     0.298 C 
HETATM    9  O2  UNL     1      -0.359   1.076  -0.065  1.00  0.00    -0.301 OA
HETATM   10  C8  UNL     1       0.631   2.074  -0.257  1.00  0.00     0.125 C 
HETATM   11  C9  UNL     1       1.910   1.247  -0.403  1.00  0.00     0.031 C 
HETATM   12  C10 UNL     1       3.378   1.681  -0.399  1.00  0.00     0.010 C 
HETATM   13  C11 UNL     1       4.274   0.481   0.041  1.00  0.00     0.065 C 
HETATM   14  C12 UNL     1       4.099  -0.852  -0.703  1.00  0.00     0.151 C 
HETATM   15  C13 UNL     1       3.438  -2.080  -0.034  1.00  0.00     0.065 C 
HETATM   16  C14 UNL     1       2.021  -1.697   0.393  1.00  0.00     0.012 C 
HETATM   17  C15 UNL     1       0.819  -2.599   0.685  1.00  0.00     0.026 C 
HETATM   18  C16 UNL     1      -0.358  -1.612   0.694  1.00  0.00    -0.026 C 
HETATM   19  C17 UNL     1      -1.446  -1.716  -0.085  1.00  0.00    -0.004 C 
HETATM   20  O3  UNL     1       4.490  -0.936  -1.847  1.00  0.00    -0.296 OA
HETATM   21  C18 UNL     1       0.729   3.037   0.929  1.00  0.00     0.033 C 
HETATM   22  O4  UNL     1      -1.956   2.538   0.081  1.00  0.00    -0.259 OA
HETATM   23  O5  UNL     1      -5.938  -2.003  -0.806  1.00  0.00    -0.190 OA
ENDROOT
TORSDOF 0
