REMARK  4 active torsions:
REMARK  status: ('A' for Active; 'I' for Inactive)
REMARK    1  A    between atoms: C4_6  and  N3_7 
REMARK    2  A    between atoms: N3_7  and  C5_8 
REMARK    3  A    between atoms: C5_8  and  C6_9 
REMARK    4  A    between atoms: C7_10  and  C8_11 
ROOT
HETATM    1  N1  UNL     1       0.354  -2.582  -0.900  1.00  0.00    -0.204 NA
HETATM    2  C1  UNL     1       0.189  -3.744  -1.378  1.00  0.00     0.202 A 
HETATM    3  N2  UNL     1      -0.888  -4.275  -1.782  1.00  0.00    -0.203 NA
HETATM    4  C2  UNL     1      -1.917  -3.549  -1.695  1.00  0.00     0.186 A 
HETATM    5  C3  UNL     1      -1.836  -2.301  -1.200  1.00  0.00     0.154 A 
HETATM    6  C4  UNL     1      -0.652  -1.814  -0.791  1.00  0.00     0.181 A 
HETATM    7  N4  UNL     1      -2.986  -1.772  -1.210  1.00  0.00    -0.218 NA
HETATM    8  C10 UNL     1      -3.744  -2.662  -1.694  1.00  0.00     0.201 A 
HETATM    9  N5  UNL     1      -3.138  -3.737  -1.994  1.00  0.00    -0.203 NA
ENDROOT
BRANCH   6  10
HETATM   10  N3  UNL     1      -0.616  -0.633  -0.328  1.00  0.00    -0.247 NA
BRANCH  10  11
HETATM   11  C5  UNL     1       0.623   0.012   0.154  1.00  0.00     0.153 C 
BRANCH  11  12
HETATM   12  C6  UNL     1       0.328   1.401   0.655  1.00  0.00    -0.006 C 
HETATM   13  C7  UNL     1       1.241   2.251   1.159  1.00  0.00    -0.014 C 
HETATM   14  C9  UNL     1       2.707   1.915   1.284  1.00  0.00     0.029 C 
BRANCH  13  15
HETATM   15  C8  UNL     1       0.803   3.619   1.632  1.00  0.00     0.204 C 
HETATM   16  O1  UNL     1       1.874   4.406   2.137  1.00  0.00    -0.216 OA
ENDBRANCH  13  15
ENDBRANCH  11  12
ENDBRANCH  10  11
ENDBRANCH   6  10
TORSDOF 4
