REMARK  3 active torsions:
REMARK  status: ('A' for Active; 'I' for Inactive)
REMARK    1  A    between atoms: C2_2  and  O5_18 
REMARK    2  A    between atoms: C4_4  and  C8_9 
REMARK    3  A    between atoms: C6_6  and  O1_7 
ROOT
HETATM    1  C1  UNL     1      -1.266   0.835  -2.480  1.00  0.00     0.175 A 
HETATM    2  C2  UNL     1      -2.236   0.466  -1.617  1.00  0.00     0.121 A 
HETATM    3  C3  UNL     1      -1.858   0.106  -0.376  1.00  0.00     0.025 A 
HETATM    4  C4  UNL     1      -0.576   0.107   0.027  1.00  0.00     0.009 A 
HETATM    5  C5  UNL     1       0.347   0.482  -0.873  1.00  0.00     0.025 A 
HETATM    6  C6  UNL     1       0.038   0.840  -2.132  1.00  0.00     0.121 A 
HETATM    7  O6  UNL     1      -1.604   1.213  -3.746  1.00  0.00    -0.186 OA
ENDROOT
BRANCH   4   8
HETATM    8  C8  UNL     1      -0.206  -0.304   1.448  1.00  0.00     0.141 C 
HETATM    9  C9  UNL     1       0.811  -1.436   1.542  1.00  0.00     0.074 C 
HETATM   10  C10 UNL     1       2.140  -0.716   1.738  1.00  0.00     0.121 C 
HETATM   11  C13 UNL     1       0.708  -2.275   2.815  1.00  0.00     0.155 C 
HETATM   12  C11 UNL     1       1.740   0.701   2.138  1.00  0.00     0.153 C 
HETATM   13  C12 UNL     1       2.856  -1.501   2.813  1.00  0.00     0.274 C 
HETATM   14  O2  UNL     1       0.335   0.761   2.195  1.00  0.00    -0.352 OA
HETATM   15  O3  UNL     1       1.995  -2.391   3.362  1.00  0.00    -0.302 OA
HETATM   16  O4  UNL     1       4.016  -1.360   3.134  1.00  0.00    -0.264 OA
ENDBRANCH   4   8
BRANCH   2  17
HETATM   17  O5  UNL     1      -3.537   0.481  -2.066  1.00  0.00    -0.326 OA
HETATM   18  C14 UNL     1      -4.568   0.063  -1.202  1.00  0.00     0.181 C 
ENDBRANCH   2  17
BRANCH   6  19
HETATM   19  O1  UNL     1       0.956   1.257  -3.068  1.00  0.00    -0.326 OA
HETATM   20  C7  UNL     1       2.240   1.644  -2.638  1.00  0.00     0.181 C 
ENDBRANCH   6  19
TORSDOF 3
