REMARK  7 active torsions:
REMARK  status: ('A' for Active; 'I' for Inactive)
REMARK    1  A    between atoms: C2_2  and  C7_8 
REMARK    2  A    between atoms: C13_16  and  C17_21 
REMARK    3  A    between atoms: C14_17  and  O4_19 
REMARK    4  A    between atoms: C18_23  and  C29_41 
REMARK    5  A    between atoms: C19_24  and  O8_29 
REMARK    6  A    between atoms: O8_29  and  C22_30 
REMARK    7  A    between atoms: C24_32  and  C28_39 
ROOT
HETATM    1  C17 UNL     1       0.758   0.596  -2.288  1.00  0.00     0.174 C 
HETATM    2  O5  UNL     1      -0.098   1.617  -1.825  1.00  0.00    -0.347 OA
HETATM    3  C18 UNL     1      -1.310   1.688  -2.512  1.00  0.00     0.178 C 
HETATM    4  C19 UNL     1      -2.161   0.475  -2.133  1.00  0.00     0.178 C 
HETATM    5  C20 UNL     1      -1.352  -0.819  -2.253  1.00  0.00     0.215 C 
HETATM    6  C21 UNL     1       0.031  -0.626  -2.844  1.00  0.00     0.216 C 
HETATM    7  O6  UNL     1      -0.099  -0.511  -4.244  1.00  0.00    -0.218 OA
HETATM    8  O7  UNL     1      -2.046  -1.747  -3.055  1.00  0.00    -0.218 OA
ENDROOT
BRANCH   1   9
HETATM    9  C13 UNL     1       1.801   0.212  -1.231  1.00  0.00     0.055 A 
HETATM   10  C12 UNL     1       3.088   0.031  -1.613  1.00  0.00     0.136 A 
HETATM   11  C9  UNL     1       4.037  -0.245  -0.690  1.00  0.00     0.087 A 
HETATM   12  O14 UNL     1       3.411   0.126  -2.936  1.00  0.00    -0.190 OA
HETATM   13  C8  UNL     1       3.713  -0.381   0.608  1.00  0.00     0.107 A 
HETATM   14  C10 UNL     1       5.348  -0.382  -1.036  1.00  0.00     0.202 C 
HETATM   15  O2  UNL     1       4.614  -0.674   1.590  1.00  0.00    -0.307 OA
HETATM   16  C15 UNL     1       2.420  -0.247   0.938  1.00  0.00     0.049 A 
HETATM   17  C7  UNL     1       5.938  -0.695   1.250  1.00  0.00     0.103 C 
HETATM   18  C11 UNL     1       6.265  -0.581  -0.052  1.00  0.00     0.067 C 
HETATM   19  C14 UNL     1       1.449   0.078   0.068  1.00  0.00     0.096 A 
HETATM   20  O3  UNL     1       5.761  -0.293  -2.172  1.00  0.00    -0.286 OA
BRANCH  17  21
HETATM   21  C2  UNL     1       6.870  -0.827   2.229  1.00  0.00     0.023 A 
HETATM   22  C1  UNL     1       6.464  -0.943   3.512  1.00  0.00     0.004 A 
HETATM   23  C6  UNL     1       7.325  -1.048   4.536  1.00  0.00     0.028 A 
HETATM   24  C5  UNL     1       8.651  -1.043   4.338  1.00  0.00     0.131 A 
HETATM   25  C4  UNL     1       9.071  -0.938   3.068  1.00  0.00     0.028 A 
HETATM   26  O1  UNL     1       9.523  -1.137   5.378  1.00  0.00    -0.190 OA
HETATM   27  C3  UNL     1       8.207  -0.836   2.045  1.00  0.00     0.004 A 
ENDBRANCH  17  21
BRANCH  19  28
HETATM   28  O4  UNL     1       0.154   0.172   0.516  1.00  0.00    -0.328 OA
HETATM   29  C16 UNL     1      -0.105   1.319   1.299  1.00  0.00     0.181 C 
ENDBRANCH  19  28
ENDBRANCH   1   9
BRANCH   3  30
HETATM   30  C29 UNL     1      -1.964   3.024  -2.177  1.00  0.00     0.214 C 
HETATM   31  O13 UNL     1      -3.215   3.122  -2.827  1.00  0.00    -0.218 OA
ENDBRANCH   3  30
BRANCH   4  32
HETATM   32  O8  UNL     1      -2.597   0.638  -0.810  1.00  0.00    -0.351 OA
BRANCH  32  33
HETATM   33  C22 UNL     1      -3.705  -0.138  -0.455  1.00  0.00     0.148 C 
HETATM   34  C23 UNL     1      -4.990   0.691  -0.569  1.00  0.00     0.038 C 
HETATM   35  C24 UNL     1      -6.224  -0.065  -0.036  1.00  0.00     0.069 C 
HETATM   36  C25 UNL     1      -5.954  -0.578   1.383  1.00  0.00     0.188 C 
HETATM   37  C26 UNL     1      -4.685  -1.403   1.440  1.00  0.00     0.215 C 
HETATM   38  O11 UNL     1      -7.010  -1.390   1.837  1.00  0.00    -0.221 OA
HETATM   39  C27 UNL     1      -3.507  -0.568   0.991  1.00  0.00     0.212 C 
HETATM   40  O10 UNL     1      -4.468  -1.825   2.763  1.00  0.00    -0.218 OA
HETATM   41  O9  UNL     1      -2.333  -1.335   1.105  1.00  0.00    -0.218 OA
BRANCH  35  42
HETATM   42  C28 UNL     1      -7.476   0.816  -0.058  1.00  0.00     0.185 C 
HETATM   43  O12 UNL     1      -7.725   1.290  -1.366  1.00  0.00    -0.221 OA
ENDBRANCH  35  42
ENDBRANCH  32  33
ENDBRANCH   4  32
TORSDOF 7
