REMARK  8 active torsions:
REMARK  status: ('A' for Active; 'I' for Inactive)
REMARK    1  A    between atoms: C4_4  and  C5_5 
REMARK    2  A    between atoms: C5_5  and  C6_6 
REMARK    3  A    between atoms: C6_6  and  C7_8 
REMARK    4  A    between atoms: C7_8  and  C8_9 
REMARK    5  A    between atoms: C8_9  and  C9_10 
REMARK    6  A    between atoms: C9_10  and  C10_11 
REMARK    7  A    between atoms: C10_11  and  C11_12 
REMARK    8  A    between atoms: C18_21  and  C19_22 
ROOT
HETATM    1  C11 UNL     1       1.969   1.184  -0.925  1.00  0.00     0.121 C 
HETATM    2  C12 UNL     1       1.498   0.893  -2.366  1.00  0.00     0.032 C 
HETATM    3  O2  UNL     1       2.956   0.224  -0.669  1.00  0.00    -0.352 OA
HETATM    4  C13 UNL     1       3.752   0.389   0.489  1.00  0.00     0.164 C 
HETATM    5  C14 UNL     1       4.828   1.439   0.323  1.00  0.00    -0.017 C 
HETATM    6  C15 UNL     1       4.450   2.835   0.751  1.00  0.00     0.027 C 
HETATM    7  C16 UNL     1       2.981   3.170   0.460  1.00  0.00     0.040 C 
HETATM    8  C17 UNL     1       2.485   2.636  -0.885  1.00  0.00     0.177 C 
HETATM    9  O3  UNL     1       3.478   2.854  -1.862  1.00  0.00    -0.221 OA
HETATM   10  C18 UNL     1       6.036   1.108  -0.168  1.00  0.00     0.003 C 
ENDROOT
BRANCH   1  11
HETATM   11  C10 UNL     1       0.765   1.010   0.033  1.00  0.00     0.030 C 
BRANCH  11  12
HETATM   12  C9  UNL     1      -0.133  -0.227  -0.163  1.00  0.00     0.003 C 
BRANCH  12  13
HETATM   13  C8  UNL     1      -1.213  -0.311   0.934  1.00  0.00     0.007 C 
BRANCH  13  14
HETATM   14  C7  UNL     1      -2.426  -1.202   0.588  1.00  0.00     0.058 C 
HETATM   15  C20 UNL     1      -2.020  -2.663   0.346  1.00  0.00     0.008 C 
BRANCH  14  16
HETATM   16  C6  UNL     1      -3.528  -1.079   1.645  1.00  0.00     0.154 C 
HETATM   17  O1  UNL     1      -3.438  -0.281   2.553  1.00  0.00    -0.296 OA
BRANCH  16  18
HETATM   18  C5  UNL     1      -4.775  -1.951   1.554  1.00  0.00     0.090 C 
BRANCH  18  19
HETATM   19  C4  UNL     1      -5.517  -1.831   0.247  1.00  0.00    -0.027 C 
HETATM   20  C2  UNL     1      -6.530  -2.623  -0.145  1.00  0.00    -0.047 C 
HETATM   21  C1  UNL     1      -7.210  -2.430  -1.481  1.00  0.00     0.026 C 
HETATM   22  C3  UNL     1      -7.088  -3.752   0.689  1.00  0.00     0.026 C 
ENDBRANCH  18  19
ENDBRANCH  16  18
ENDBRANCH  14  16
ENDBRANCH  13  14
ENDBRANCH  12  13
ENDBRANCH  11  12
ENDBRANCH   1  11
BRANCH  10  23
HETATM   23  C19 UNL     1       7.223   2.016  -0.369  1.00  0.00     0.208 C 
HETATM   24  O4  UNL     1       8.381   1.470   0.250  1.00  0.00    -0.215 OA
ENDBRANCH  10  23
TORSDOF 8
