REMARK  2 active torsions:
REMARK  status: ('A' for Active; 'I' for Inactive)
REMARK    1  A    between atoms: C5_9  and  C7_12 
REMARK    2  A    between atoms: C7_12  and  C8_13 
ROOT
HETATM    1  N1  UNL     1      -0.518  -2.822  -1.922  1.00  0.00    -0.029 NA
HETATM    2  C1  UNL     1      -0.990  -3.332  -0.726  1.00  0.00     0.772 A 
HETATM    3  N2  UNL     1      -0.663  -2.786   0.459  1.00  0.00    -0.037 NA
HETATM    4  C2  UNL     1       0.162  -1.700   0.495  1.00  0.00     0.202 A 
HETATM    5  C3  UNL     1       0.668  -1.153  -0.707  1.00  0.00     0.162 A 
HETATM    6  C4  UNL     1       0.277  -1.766  -1.934  1.00  0.00     0.251 A 
HETATM    7  O1  UNL     1       0.696  -1.348  -3.159  1.00  0.00    -0.167 OA
HETATM    8  N3  UNL     1       1.501  -0.068  -0.694  1.00  0.00    -0.239 NA
HETATM    9  C5  UNL     1       1.805   0.460   0.461  1.00  0.00     0.111 A 
HETATM   10  C6  UNL     1       1.288  -0.101   1.673  1.00  0.00     0.118 A 
HETATM   11  N4  UNL     1       0.499  -1.142   1.706  1.00  0.00    -0.222 NA
HETATM   12  N5  UNL     1      -1.812  -4.429  -0.750  1.00  0.00     0.062 N 
ENDROOT
BRANCH   9  13
HETATM   13  C7  UNL     1       2.714   1.666   0.433  1.00  0.00     0.223 C 
HETATM   14  O3  UNL     1       3.428   1.748   1.654  1.00  0.00    -0.214 OA
BRANCH  13  15
HETATM   15  C8  UNL     1       1.981   2.979   0.194  1.00  0.00     0.188 C 
HETATM   16  O2  UNL     1       1.487   2.998  -1.125  1.00  0.00    -0.220 OA
HETATM   17  C9  UNL     1       0.818   3.226   1.151  1.00  0.00     0.039 C 
ENDBRANCH  13  15
ENDBRANCH   9  13
TORSDOF 2
