REMARK  0 active torsions:
REMARK  status: ('A' for Active; 'I' for Inactive)
ROOT
HETATM    1  C1  UNL     1      -0.859  -1.200   1.142  1.00  0.00     0.152 C 
HETATM    2  C2  UNL     1      -1.569   0.103   1.508  1.00  0.00     0.033 C 
HETATM    3  C3  UNL     1      -0.461   1.167   1.591  1.00  0.00     0.003 C 
HETATM    4  C4  UNL     1       0.530   0.748   0.488  1.00  0.00     0.003 C 
HETATM    5  C5  UNL     1       0.462  -0.815   0.462  1.00  0.00     0.031 C 
HETATM    6  C6  UNL     1       0.683  -1.252  -1.029  1.00  0.00     0.006 C 
HETATM    7  C7  UNL     1       1.024   0.111  -1.721  1.00  0.00     0.018 C 
HETATM    8  C8  UNL     1       0.058   1.041  -0.943  1.00  0.00     0.004 C 
HETATM    9  C9  UNL     1       2.198   1.039  -1.943  1.00  0.00    -0.044 C 
HETATM   10  C10 UNL     1       2.587   1.876  -0.730  1.00  0.00     0.022 C 
HETATM   11  C11 UNL     1       1.954   1.371   0.599  1.00  0.00     0.004 C 
HETATM   12  C12 UNL     1       2.816   1.134  -3.130  1.00  0.00    -0.009 C 
HETATM   13  C13 UNL     1       1.762  -2.373  -1.114  1.00  0.00     0.000 C 
HETATM   14  C14 UNL     1      -0.543  -1.838  -1.768  1.00  0.00     0.000 C 
HETATM   15  C15 UNL     1       0.148   1.185   3.005  1.00  0.00     0.000 C 
HETATM   16  O1  UNL     1      -0.597  -1.937   2.314  1.00  0.00    -0.224 OA
ENDROOT
TORSDOF 0
