REMARK  1 active torsions:
REMARK  status: ('A' for Active; 'I' for Inactive)
REMARK    1  A    between atoms: C9_9  and  C11_12 
ROOT
HETATM    1  C1  UNL     1       8.472   1.705   0.544  1.00  0.00     0.002 A 
HETATM    2  C2  UNL     1       8.353   0.416   0.035  1.00  0.00     0.028 A 
HETATM    3  C3  UNL     1       7.107  -0.144  -0.288  1.00  0.00     0.134 A 
HETATM    4  C4  UNL     1       5.960   0.634  -0.061  1.00  0.00     0.067 A 
HETATM    5  C5  UNL     1       6.064   1.926   0.488  1.00  0.00     0.044 A 
HETATM    6  C6  UNL     1       7.322   2.463   0.778  1.00  0.00     0.003 A 
HETATM    7  C7  UNL     1       4.854   2.732   0.781  1.00  0.00     0.192 C 
HETATM    8  C8  UNL     1       3.521   2.082   0.647  1.00  0.00     0.020 C 
HETATM    9  C9  UNL     1       3.410   0.859   0.076  1.00  0.00     0.041 C 
HETATM   10  C10 UNL     1       4.611   0.111  -0.394  1.00  0.00     0.198 C 
HETATM   11  O1  UNL     1       4.450  -0.893  -1.080  1.00  0.00    -0.286 OA
HETATM   12  C22 UNL     1       2.349   2.848   1.222  1.00  0.00     0.035 C 
HETATM   13  O5  UNL     1       4.938   3.889   1.186  1.00  0.00    -0.287 OA
HETATM   14  O6  UNL     1       7.068  -1.425  -0.751  1.00  0.00    -0.190 OA
ENDROOT
BRANCH   9  15
HETATM   15  C11 UNL     1       2.115   0.130  -0.086  1.00  0.00     0.041 C 
HETATM   16  C12 UNL     1       1.075   0.599  -0.812  1.00  0.00     0.020 C 
HETATM   17  C13 UNL     1       1.101   1.911  -1.566  1.00  0.00     0.035 C 
HETATM   18  C14 UNL     1      -0.172  -0.205  -0.953  1.00  0.00     0.192 C 
HETATM   19  C15 UNL     1      -0.146  -1.618  -0.502  1.00  0.00     0.044 A 
HETATM   20  O4  UNL     1      -1.159   0.278  -1.499  1.00  0.00    -0.287 OA
HETATM   21  C16 UNL     1       0.952  -2.131   0.215  1.00  0.00     0.067 A 
HETATM   22  C21 UNL     1      -1.228  -2.446  -0.815  1.00  0.00     0.003 A 
HETATM   23  C17 UNL     1       2.068  -1.214   0.557  1.00  0.00     0.198 C 
HETATM   24  C18 UNL     1       0.991  -3.482   0.597  1.00  0.00     0.134 A 
HETATM   25  O2  UNL     1       2.933  -1.505   1.378  1.00  0.00    -0.286 OA
HETATM   26  C19 UNL     1      -0.102  -4.292   0.248  1.00  0.00     0.028 A 
HETATM   27  O3  UNL     1       2.052  -4.051   1.235  1.00  0.00    -0.190 OA
HETATM   28  C20 UNL     1      -1.206  -3.789  -0.433  1.00  0.00     0.002 A 
ENDBRANCH   9  15
TORSDOF 1
