REMARK  4 active torsions:
REMARK  status: ('A' for Active; 'I' for Inactive)
REMARK    1  A    between atoms: C1_1  and  C2_2 
REMARK    2  A    between atoms: C1_1  and  C7_8 
REMARK    3  A    between atoms: C2_2  and  C3_3 
REMARK    4  A    between atoms: C7_8  and  C8_9 
ROOT
HETATM    1  C7  UNL     1       3.843   1.311   0.261  1.00  0.00     0.025 C 
HETATM    2  C15 UNL     1       4.515   1.251   1.645  1.00  0.00     0.005 C 
ENDROOT
BRANCH   1   3
HETATM    3  C1  UNL     1       4.276   0.181  -0.704  1.00  0.00     0.042 C 
BRANCH   3   4
HETATM    4  C2  UNL     1       3.572  -1.178  -0.583  1.00  0.00     0.174 C 
HETATM    5  O1  UNL     1       3.606  -1.588   0.770  1.00  0.00    -0.219 OA
BRANCH   4   6
HETATM    6  C3  UNL     1       2.143  -1.177  -1.070  1.00  0.00    -0.002 C 
HETATM    7  C4  UNL     1       1.233  -2.146  -0.867  1.00  0.00    -0.045 C 
HETATM    8  C5  UNL     1      -0.202  -1.973  -1.310  1.00  0.00     0.026 C 
HETATM    9  C6  UNL     1       1.520  -3.464  -0.189  1.00  0.00     0.026 C 
ENDBRANCH   4   6
ENDBRANCH   3   4
ENDBRANCH   1   3
BRANCH   1  10
HETATM   10  C8  UNL     1       2.336   1.469   0.319  1.00  0.00    -0.022 A 
HETATM   11  C9  UNL     1       1.683   2.237  -0.653  1.00  0.00    -0.005 A 
HETATM   12  C10 UNL     1       0.294   2.376  -0.658  1.00  0.00    -0.005 A 
HETATM   13  C11 UNL     1      -0.491   1.743   0.310  1.00  0.00    -0.022 A 
HETATM   14  C12 UNL     1       0.156   0.988   1.292  1.00  0.00    -0.005 A 
HETATM   15  C14 UNL     1      -1.992   1.894   0.299  1.00  0.00     0.031 C 
HETATM   16  C13 UNL     1       1.546   0.858   1.300  1.00  0.00    -0.005 A 
ENDBRANCH   1  10
TORSDOF 4
