REMARK  17 active torsions:
REMARK  status: ('A' for Active; 'I' for Inactive)
REMARK    1  A    between atoms: C1_1  and  C2_2 
REMARK    2  A    between atoms: C1_1  and  C14_20 
REMARK    3  A    between atoms: C5_5  and  O1_8 
REMARK    4  A    between atoms: O1_8  and  C8_9 
REMARK    5  A    between atoms: C9_11  and  C13_18 
REMARK    6  A    between atoms: C14_20  and  C15_21 
REMARK    7  A    between atoms: C15_21  and  C17_23 
REMARK    8  A    between atoms: C17_23  and  C18_24 
REMARK    9  A    between atoms: C18_24  and  C19_25 
REMARK   10  A    between atoms: C18_24  and  C23_29 
REMARK   11  A    between atoms: C19_25  and  C20_26 
REMARK   12  A    between atoms: C23_29  and  O8_31 
REMARK   13  A    between atoms: O8_31  and  C24_32 
REMARK   14  A    between atoms: C24_32  and  C25_33 
REMARK   15  A    between atoms: C28_36  and  O9_39 
REMARK   16  A    between atoms: O9_39  and  C31_40 
REMARK   17  A    between atoms: C32_42  and  C36_49 
ROOT
HETATM    1  C18 UNL     1       4.296   5.962  -1.649  1.00  0.00     0.207 C 
HETATM    2  O15 UNL     1       4.017   6.819  -2.745  1.00  0.00    -0.215 OA
ENDROOT
BRANCH   1   3
HETATM    3  C17 UNL     1       3.534   4.644  -1.870  1.00  0.00     0.062 C 
BRANCH   3   4
HETATM    4  C15 UNL     1       2.021   4.596  -1.808  1.00  0.00    -0.041 C 
HETATM    5  C16 UNL     1       1.224   5.666  -1.961  1.00  0.00    -0.009 C 
BRANCH   4   6
HETATM    6  C14 UNL     1       1.416   3.212  -1.641  1.00  0.00     0.027 C 
BRANCH   6   7
HETATM    7  C1  UNL     1       1.668   2.591  -0.257  1.00  0.00     0.031 C 
BRANCH   7   8
HETATM    8  C2  UNL     1       0.919   1.286  -0.103  1.00  0.00    -0.022 A 
HETATM    9  C3  UNL     1       1.496   0.062  -0.459  1.00  0.00    -0.002 A 
HETATM   10  C4  UNL     1       0.787  -1.135  -0.328  1.00  0.00     0.024 A 
HETATM   11  C5  UNL     1      -0.527  -1.167   0.162  1.00  0.00     0.097 A 
HETATM   12  C6  UNL     1      -1.081   0.066   0.532  1.00  0.00     0.024 A 
HETATM   13  C7  UNL     1      -0.385   1.268   0.399  1.00  0.00    -0.002 A 
BRANCH  11  14
HETATM   14  O1  UNL     1      -1.273  -2.305   0.311  1.00  0.00    -0.304 OA
BRANCH  14  15
HETATM   15  C8  UNL     1      -0.654  -3.452   0.854  1.00  0.00     0.274 C 
HETATM   16  O2  UNL     1      -0.925  -4.478  -0.076  1.00  0.00    -0.326 OA
HETATM   17  C9  UNL     1      -0.437  -5.729   0.338  1.00  0.00     0.184 C 
HETATM   18  C10 UNL     1      -1.075  -6.122   1.667  1.00  0.00     0.215 C 
HETATM   19  C11 UNL     1      -0.801  -5.063   2.715  1.00  0.00     0.220 C 
HETATM   20  O5  UNL     1      -0.554  -7.340   2.140  1.00  0.00    -0.218 OA
HETATM   21  C12 UNL     1      -1.312  -3.744   2.183  1.00  0.00     0.241 C 
HETATM   22  O4  UNL     1      -1.476  -5.395   3.901  1.00  0.00    -0.218 OA
HETATM   23  O3  UNL     1      -0.995  -2.707   3.075  1.00  0.00    -0.215 OA
BRANCH  17  24
HETATM   24  C13 UNL     1      -0.747  -6.746  -0.751  1.00  0.00     0.214 C 
HETATM   25  O6  UNL     1      -0.050  -6.411  -1.935  1.00  0.00    -0.218 OA
ENDBRANCH  17  24
ENDBRANCH  14  15
ENDBRANCH  11  14
ENDBRANCH   7   8
ENDBRANCH   6   7
ENDBRANCH   4   6
ENDBRANCH   3   4
ENDBRANCH   1   3
BRANCH   1  26
HETATM   26  C19 UNL     1       3.981   6.729  -0.343  1.00  0.00     0.038 C 
HETATM   27  C22 UNL     1       4.891   7.961  -0.165  1.00  0.00     0.003 C 
BRANCH  26  28
HETATM   28  C20 UNL     1       3.988   5.846   0.923  1.00  0.00     0.003 C 
HETATM   29  C21 UNL     1       3.572   6.585   2.204  1.00  0.00     0.000 C 
ENDBRANCH  26  28
ENDBRANCH   1  26
BRANCH   1  30
HETATM   30  C23 UNL     1       5.803   5.716  -1.760  1.00  0.00     0.300 C 
HETATM   31  O7  UNL     1       6.511   6.506  -2.343  1.00  0.00    -0.262 OA
BRANCH  30  32
HETATM   32  O8  UNL     1       6.208   4.567  -1.166  1.00  0.00    -0.295 OA
BRANCH  32  33
HETATM   33  C24 UNL     1       7.583   4.255  -1.188  1.00  0.00     0.178 C 
BRANCH  33  34
HETATM   34  C25 UNL     1       7.817   2.780  -0.936  1.00  0.00     0.008 A 
HETATM   35  C26 UNL     1       8.943   2.148  -1.470  1.00  0.00     0.000 A 
HETATM   36  C27 UNL     1       9.152   0.781  -1.284  1.00  0.00     0.024 A 
HETATM   37  C28 UNL     1       8.275  -0.024  -0.544  1.00  0.00     0.097 A 
HETATM   38  C29 UNL     1       7.141   0.620  -0.026  1.00  0.00     0.024 A 
HETATM   39  C30 UNL     1       6.920   1.989  -0.209  1.00  0.00     0.000 A 
BRANCH  37  40
HETATM   40  O9  UNL     1       8.543  -1.365  -0.462  1.00  0.00    -0.304 OA
BRANCH  40  41
HETATM   41  C31 UNL     1       7.485  -2.292  -0.355  1.00  0.00     0.274 C 
HETATM   42  O10 UNL     1       7.551  -2.791   0.964  1.00  0.00    -0.326 OA
HETATM   43  C32 UNL     1       6.615  -3.808   1.214  1.00  0.00     0.184 C 
HETATM   44  C33 UNL     1       6.829  -4.974   0.252  1.00  0.00     0.215 C 
HETATM   45  C34 UNL     1       6.744  -4.495  -1.182  1.00  0.00     0.220 C 
HETATM   46  O13 UNL     1       5.848  -5.966   0.430  1.00  0.00    -0.218 OA
HETATM   47  C35 UNL     1       7.760  -3.392  -1.355  1.00  0.00     0.241 C 
HETATM   48  O12 UNL     1       7.041  -5.558  -2.050  1.00  0.00    -0.218 OA
HETATM   49  O11 UNL     1       7.661  -2.861  -2.652  1.00  0.00    -0.215 OA
BRANCH  43  50
HETATM   50  C36 UNL     1       6.773  -4.263   2.659  1.00  0.00     0.214 C 
HETATM   51  O14 UNL     1       6.453  -3.203   3.537  1.00  0.00    -0.218 OA
ENDBRANCH  43  50
ENDBRANCH  40  41
ENDBRANCH  37  40
ENDBRANCH  33  34
ENDBRANCH  32  33
ENDBRANCH  30  32
ENDBRANCH   1  30
TORSDOF 17
