REMARK  4 active torsions:
REMARK  status: ('A' for Active; 'I' for Inactive)
REMARK    1  A    between atoms: C7_7  and  O1_9 
REMARK    2  A    between atoms: O1_9  and  C9_10 
REMARK    3  A    between atoms: C9_10  and  C10_12 
REMARK    4  A    between atoms: C10_12  and  C11_13 
ROOT
HETATM    1  C1  UNL     1       1.209  -2.964   0.923  1.00  0.00     0.000 C 
HETATM    2  C2  UNL     1      -0.068  -2.110   1.070  1.00  0.00     0.002 C 
HETATM    3  C3  UNL     1      -0.124  -1.284   2.376  1.00  0.00     0.003 C 
HETATM    4  C4  UNL     1      -1.420  -0.457   2.234  1.00  0.00     0.000 C 
HETATM    5  C5  UNL     1      -1.438  -0.139   0.727  1.00  0.00     0.002 C 
HETATM    6  C6  UNL     1      -0.139  -0.818   0.213  1.00  0.00     0.026 C 
HETATM    7  C7  UNL     1       1.020   0.067   0.736  1.00  0.00     0.124 C 
HETATM    8  C8  UNL     1       1.052  -0.293   2.233  1.00  0.00     0.030 C 
HETATM    9  C14 UNL     1      -0.163  -1.010  -1.305  1.00  0.00     0.002 C 
HETATM   10  C15 UNL     1      -1.245  -3.093   0.894  1.00  0.00     0.000 C 
ENDROOT
BRANCH   7  11
HETATM   11  O1  UNL     1       2.238  -0.253   0.128  1.00  0.00    -0.304 OA
BRANCH  11  12
HETATM   12  C9  UNL     1       2.963   0.568  -0.686  1.00  0.00     0.272 C 
HETATM   13  O2  UNL     1       3.992   0.178  -1.197  1.00  0.00    -0.264 OA
BRANCH  12  14
HETATM   14  C10 UNL     1       2.435   1.979  -0.904  1.00  0.00     0.096 C 
BRANCH  14  15
HETATM   15  C11 UNL     1       3.271   2.912  -1.808  1.00  0.00     0.010 C 
HETATM   16  C12 UNL     1       3.378   2.408  -3.257  1.00  0.00     0.001 C 
HETATM   17  C13 UNL     1       4.660   3.220  -1.222  1.00  0.00     0.001 C 
ENDBRANCH  14  15
ENDBRANCH  12  14
ENDBRANCH  11  12
ENDBRANCH   7  11
TORSDOF 4
