REMARK  6 active torsions:
REMARK  status: ('A' for Active; 'I' for Inactive)
REMARK    1  A    between atoms: C15_17  and  C18_20 
REMARK    2  A    between atoms: C18_20  and  C19_21 
REMARK    3  A    between atoms: C19_21  and  C20_22 
REMARK    4  A    between atoms: C20_22  and  C21_23 
REMARK    5  A    between atoms: C21_23  and  C22_24 
REMARK    6  A    between atoms: C22_24  and  C23_25 
ROOT
HETATM    1  C1  UNL     1       0.746  -0.517  -2.067  1.00  0.00     0.036 C 
HETATM    2  C2  UNL     1       0.035  -0.951  -3.347  1.00  0.00     0.182 C 
HETATM    3  C3  UNL     1      -0.912  -2.094  -3.088  1.00  0.00     0.183 C 
HETATM    4  C4  UNL     1      -0.196  -3.307  -2.503  1.00  0.00     0.045 C 
HETATM    5  C5  UNL     1       1.157  -3.012  -1.799  1.00  0.00     0.089 C 
HETATM    6  C6  UNL     1       1.206  -1.640  -1.081  1.00  0.00     0.012 C 
HETATM    7  C7  UNL     1       2.647  -1.261  -0.583  1.00  0.00     0.003 C 
HETATM    8  C8  UNL     1       3.524  -2.378   0.043  1.00  0.00     0.030 C 
HETATM    9  C9  UNL     1       3.785  -3.542  -0.924  1.00  0.00     0.152 C 
HETATM   10  O1  UNL     1       2.801  -4.531  -0.826  1.00  0.00    -0.302 OA
HETATM   11  C10 UNL     1       1.488  -4.206  -0.901  1.00  0.00     0.271 C 
HETATM   12  O2  UNL     1       0.634  -4.924  -0.425  1.00  0.00    -0.264 OA
HETATM   13  C11 UNL     1       4.877  -1.768   0.486  1.00  0.00     0.002 C 
HETATM   14  C12 UNL     1       4.790  -0.584   1.488  1.00  0.00     0.000 C 
HETATM   15  C13 UNL     1       4.005   0.510   0.742  1.00  0.00     0.000 C 
HETATM   16  C14 UNL     1       2.620  -0.005   0.325  1.00  0.00     0.000 C 
HETATM   17  C15 UNL     1       6.298  -0.276   1.712  1.00  0.00     0.003 C 
HETATM   18  C16 UNL     1       6.937  -1.692   1.752  1.00  0.00     0.000 C 
HETATM   19  C17 UNL     1       5.920  -2.678   1.147  1.00  0.00     0.000 C 
HETATM   20  C28 UNL     1       4.093  -0.981   2.807  1.00  0.00     0.000 C 
HETATM   21  C29 UNL     1       0.222  -1.713   0.114  1.00  0.00     0.001 C 
HETATM   22  O5  UNL     1      -1.516  -2.443  -4.312  1.00  0.00    -0.221 OA
HETATM   23  O6  UNL     1       0.953  -1.360  -4.334  1.00  0.00    -0.221 OA
ENDROOT
BRANCH  17  24
HETATM   24  C18 UNL     1       6.845   0.655   2.830  1.00  0.00     0.033 C 
HETATM   25  C27 UNL     1       5.861   1.572   3.573  1.00  0.00     0.003 C 
BRANCH  24  26
HETATM   26  C19 UNL     1       8.125   1.432   2.432  1.00  0.00     0.182 C 
HETATM   27  O4  UNL     1       8.953   0.641   1.612  1.00  0.00    -0.221 OA
BRANCH  26  28
HETATM   28  C20 UNL     1       8.027   2.847   1.841  1.00  0.00     0.182 C 
HETATM   29  O3  UNL     1       7.891   3.759   2.910  1.00  0.00    -0.221 OA
BRANCH  28  30
HETATM   30  C21 UNL     1       6.985   3.139   0.744  1.00  0.00     0.033 C 
HETATM   31  C26 UNL     1       6.132   4.399   1.028  1.00  0.00     0.003 C 
BRANCH  30  32
HETATM   32  C22 UNL     1       7.539   3.219  -0.708  1.00  0.00     0.003 C 
HETATM   33  C25 UNL     1       7.847   1.844  -1.320  1.00  0.00     0.000 C 
BRANCH  32  34
HETATM   34  C23 UNL     1       8.671   4.253  -0.925  1.00  0.00     0.000 C 
HETATM   35  C24 UNL     1      10.096   3.699  -1.075  1.00  0.00     0.000 C 
ENDBRANCH  32  34
ENDBRANCH  30  32
ENDBRANCH  28  30
ENDBRANCH  26  28
ENDBRANCH  24  26
ENDBRANCH  17  24
TORSDOF 6
