REMARK  1 active torsions:
REMARK  status: ('A' for Active; 'I' for Inactive)
REMARK    1  A    between atoms: C9_10  and  C12_14 
ROOT
HETATM    1  C1  UNL     1       3.693  -1.283  -0.813  1.00  0.00     0.000 A 
HETATM    2  C2  UNL     1       4.041  -0.484   0.313  1.00  0.00     0.002 A 
HETATM    3  C3  UNL     1       3.041   0.236   1.020  1.00  0.00     0.019 A 
HETATM    4  C4  UNL     1       1.699   0.141   0.582  1.00  0.00     0.081 A 
HETATM    5  C5  UNL     1       1.369  -0.643  -0.520  1.00  0.00     0.019 A 
HETATM    6  C6  UNL     1       2.344  -1.371  -1.242  1.00  0.00     0.002 A 
HETATM    7  C7  UNL     1       0.039  -0.560  -0.727  1.00  0.00     0.022 A 
HETATM    8  C8  UNL     1      -0.516   0.277   0.240  1.00  0.00     0.102 A 
HETATM    9  N1  UNL     1       0.523   0.736   1.082  1.00  0.00    -0.244 NA
HETATM   10  C9  UNL     1      -1.916   0.514   0.219  1.00  0.00     0.134 A 
HETATM   11  N2  UNL     1      -2.721  -0.076  -0.740  1.00  0.00    -0.240 NA
HETATM   12  C10 UNL     1      -2.156  -0.910  -1.697  1.00  0.00     0.099 A 
HETATM   13  C11 UNL     1      -0.760  -1.180  -1.723  1.00  0.00     0.022 A 
ENDROOT
BRANCH  10  14
HETATM   14  C12 UNL     1      -2.412   1.414   1.281  1.00  0.00     0.192 C 
HETATM   15  C13 UNL     1      -3.902   1.592   1.160  1.00  0.00     0.079 C 
HETATM   16  O1  UNL     1      -1.789   1.971   2.156  1.00  0.00    -0.290 OA
ENDBRANCH  10  14
TORSDOF 1
