REMARK  1 active torsions:
REMARK  status: ('A' for Active; 'I' for Inactive)
REMARK    1  A    between atoms: C15_15  and  C18_19 
ROOT
HETATM    1  C1  UNL     1      -2.195  -1.171  -2.458  1.00  0.00     0.033 C 
HETATM    2  C2  UNL     1      -3.219  -1.916  -1.610  1.00  0.00     0.155 C 
HETATM    3  C3  UNL     1      -2.656  -2.456  -0.293  1.00  0.00     0.063 C 
HETATM    4  C4  UNL     1      -1.200  -2.054   0.002  1.00  0.00     0.129 C 
HETATM    5  C5  UNL     1      -0.967  -0.539  -0.212  1.00  0.00     0.026 C 
HETATM    6  C6  UNL     1      -1.357  -0.148  -1.674  1.00  0.00     0.005 C 
HETATM    7  C7  UNL     1       0.528  -0.168   0.081  1.00  0.00     0.005 C 
HETATM    8  C8  UNL     1       1.540  -1.312  -0.154  1.00  0.00     0.028 C 
HETATM    9  C9  UNL     1       1.059  -2.268  -1.246  1.00  0.00     0.005 C 
HETATM   10  C10 UNL     1      -0.229  -2.962  -0.781  1.00  0.00     0.031 C 
HETATM   11  C11 UNL     1       2.903  -0.667  -0.304  1.00  0.00     0.118 A 
HETATM   12  C12 UNL     1       3.399   0.273   0.795  1.00  0.00     0.029 C 
HETATM   13  C13 UNL     1       2.326   0.396   1.900  1.00  0.00     0.003 C 
HETATM   14  C14 UNL     1       0.859   0.512   1.433  1.00  0.00     0.000 C 
HETATM   15  C15 UNL     1       3.631   1.583   0.008  1.00  0.00     0.029 C 
HETATM   16  C16 UNL     1       4.117   1.089  -1.371  1.00  0.00     0.036 C 
HETATM   17  C17 UNL     1       3.336  -0.201  -1.594  1.00  0.00     0.140 A 
HETATM   18  O1  UNL     1       4.021  -1.363  -1.188  1.00  0.00    -0.357 OA
HETATM   19  C23 UNL     1       4.699  -0.238   1.453  1.00  0.00     0.003 C 
HETATM   20  C24 UNL     1      -1.905   0.297   0.702  1.00  0.00     0.002 C 
HETATM   21  O4  UNL     1      -0.995  -2.332   1.369  1.00  0.00    -0.226 OA
HETATM   22  O5  UNL     1      -4.310  -1.059  -1.356  1.00  0.00    -0.223 OA
ENDROOT
BRANCH  15  23
HETATM   23  C18 UNL     1       4.460   2.650   0.694  1.00  0.00     0.003 A 
HETATM   24  C19 UNL     1       3.847   3.628   1.402  1.00  0.00     0.122 A 
HETATM   25  O2  UNL     1       4.485   4.639   2.059  1.00  0.00    -0.271 OA
HETATM   26  C20 UNL     1       5.846   4.656   2.003  1.00  0.00     0.300 A 
HETATM   27  C21 UNL     1       6.608   3.631   1.259  1.00  0.00     0.068 A 
HETATM   28  O3  UNL     1       6.478   5.538   2.580  1.00  0.00    -0.259 OA
HETATM   29  C22 UNL     1       5.919   2.659   0.623  1.00  0.00     0.003 A 
ENDBRANCH  15  23
TORSDOF 1
