REMARK  1 active torsions:
REMARK  status: ('A' for Active; 'I' for Inactive)
REMARK    1  A    between atoms: C15_15  and  C18_18 
ROOT
HETATM    1  C1  UNL     1      -2.611  -0.605   2.464  1.00  0.00     0.033 C 
HETATM    2  C2  UNL     1      -2.742  -2.099   2.171  1.00  0.00     0.152 C 
HETATM    3  C3  UNL     1      -2.167  -2.498   0.809  1.00  0.00     0.033 C 
HETATM    4  C4  UNL     1      -0.733  -1.961   0.700  1.00  0.00     0.003 C 
HETATM    5  C5  UNL     1      -0.669  -0.413   0.781  1.00  0.00     0.000 C 
HETATM    6  C6  UNL     1      -1.198  -0.054   2.191  1.00  0.00     0.003 C 
HETATM    7  C7  UNL     1       0.791   0.062   0.489  1.00  0.00     0.002 C 
HETATM    8  C8  UNL     1       1.867  -1.021   0.694  1.00  0.00     0.028 C 
HETATM    9  C9  UNL     1       1.581  -2.188  -0.282  1.00  0.00     0.002 C 
HETATM   10  C10 UNL     1       0.079  -2.478  -0.492  1.00  0.00     0.000 C 
HETATM   11  C11 UNL     1       3.330  -0.492   0.776  1.00  0.00     0.127 C 
HETATM   12  C12 UNL     1       3.572   0.928   0.201  1.00  0.00     0.030 C 
HETATM   13  C13 UNL     1       2.448   1.942   0.515  1.00  0.00     0.003 C 
HETATM   14  C14 UNL     1       1.213   1.348   1.201  1.00  0.00     0.000 C 
HETATM   15  C15 UNL     1       3.706   0.599  -1.310  1.00  0.00     0.027 C 
HETATM   16  C16 UNL     1       4.527  -0.703  -1.371  1.00  0.00     0.007 C 
HETATM   17  C17 UNL     1       4.361  -1.346   0.019  1.00  0.00     0.031 C 
HETATM   18  C23 UNL     1       4.893   1.555   0.715  1.00  0.00     0.003 C 
HETATM   19  O3  UNL     1       3.694  -0.493   2.136  1.00  0.00    -0.226 OA
HETATM   20  C24 UNL     1      -1.569   0.285  -0.274  1.00  0.00     0.000 C 
HETATM   21  O4  UNL     1      -4.099  -2.473   2.229  1.00  0.00    -0.224 OA
ENDROOT
BRANCH  15  22
HETATM   22  C18 UNL     1       4.134   1.721  -2.237  1.00  0.00     0.003 A 
HETATM   23  C19 UNL     1       3.116   2.446  -2.997  1.00  0.00     0.003 A 
HETATM   24  C20 UNL     1       3.484   3.452  -3.819  1.00  0.00     0.068 A 
HETATM   25  C21 UNL     1       4.922   3.776  -3.919  1.00  0.00     0.300 A 
HETATM   26  O1  UNL     1       5.863   3.087  -3.216  1.00  0.00    -0.271 OA
HETATM   27  O2  UNL     1       5.256   4.694  -4.665  1.00  0.00    -0.259 OA
HETATM   28  C22 UNL     1       5.428   2.084  -2.399  1.00  0.00     0.122 A 
ENDBRANCH  15  22
TORSDOF 1
