REMARK  2 active torsions:
REMARK  status: ('A' for Active; 'I' for Inactive)
REMARK    1  A    between atoms: C5_5  and  C24_27 
REMARK    2  A    between atoms: C15_15  and  C18_19 
ROOT
HETATM    1  C1  UNL     1      -3.001   0.066   0.542  1.00  0.00     0.034 C 
HETATM    2  C2  UNL     1      -3.127  -1.448   0.424  1.00  0.00     0.155 C 
HETATM    3  C3  UNL     1      -2.305  -1.969  -0.754  1.00  0.00     0.064 C 
HETATM    4  C4  UNL     1      -0.827  -1.558  -0.665  1.00  0.00     0.136 C 
HETATM    5  C5  UNL     1      -0.662  -0.023  -0.566  1.00  0.00     0.084 C 
HETATM    6  C6  UNL     1      -1.524   0.495   0.615  1.00  0.00     0.012 C 
HETATM    7  C7  UNL     1       0.848   0.385  -0.476  1.00  0.00     0.012 C 
HETATM    8  C8  UNL     1       1.823  -0.745  -0.896  1.00  0.00     0.028 C 
HETATM    9  C9  UNL     1       1.304  -1.480  -2.134  1.00  0.00     0.005 C 
HETATM   10  C10 UNL     1      -0.036  -2.174  -1.833  1.00  0.00     0.031 C 
HETATM   11  C11 UNL     1       3.225  -0.175  -0.937  1.00  0.00     0.118 A 
HETATM   12  C12 UNL     1       3.791   0.444   0.337  1.00  0.00     0.029 C 
HETATM   13  C13 UNL     1       2.790   1.524   0.794  1.00  0.00     0.003 C 
HETATM   14  C14 UNL     1       1.336   1.001   0.858  1.00  0.00     0.001 C 
HETATM   15  C15 UNL     1       5.160   1.007  -0.136  1.00  0.00     0.029 C 
HETATM   16  C16 UNL     1       5.565   0.034  -1.270  1.00  0.00     0.036 C 
HETATM   17  C17 UNL     1       4.253  -0.427  -1.897  1.00  0.00     0.140 A 
HETATM   18  O1  UNL     1       3.460   0.673  -2.273  1.00  0.00    -0.357 OA
HETATM   19  C23 UNL     1       3.996  -0.604   1.451  1.00  0.00     0.003 C 
HETATM   20  O5  UNL     1      -0.339  -2.124   0.530  1.00  0.00    -0.226 OA
HETATM   21  O6  UNL     1      -4.479  -1.800   0.244  1.00  0.00    -0.223 OA
ENDROOT
BRANCH  15  22
HETATM   22  C18 UNL     1       6.176   1.296   0.952  1.00  0.00     0.003 A 
HETATM   23  C19 UNL     1       6.178   2.617   1.579  1.00  0.00     0.003 A 
HETATM   24  C20 UNL     1       7.065   2.890   2.559  1.00  0.00     0.068 A 
HETATM   25  C21 UNL     1       8.006   1.824   2.962  1.00  0.00     0.300 A 
HETATM   26  O2  UNL     1       7.986   0.593   2.381  1.00  0.00    -0.271 OA
HETATM   27  O3  UNL     1       8.819   2.075   3.849  1.00  0.00    -0.259 OA
HETATM   28  C22 UNL     1       7.069   0.380   1.392  1.00  0.00     0.122 A 
ENDBRANCH  15  22
BRANCH   5  29
HETATM   29  C24 UNL     1      -1.200   0.624  -1.852  1.00  0.00     0.209 C 
HETATM   30  O4  UNL     1      -1.835   1.652  -1.868  1.00  0.00    -0.288 OA
ENDBRANCH   5  29
TORSDOF 2
