REMARK  1 active torsions:
REMARK  status: ('A' for Active; 'I' for Inactive)
REMARK    1  A    between atoms: C12_12  and  C15_16 
ROOT
HETATM    1  C1  UNL     1      -2.260   1.706  -0.970  1.00  0.00     0.000 C 
HETATM    2  C2  UNL     1      -2.822   0.497  -1.725  1.00  0.00     0.000 C 
HETATM    3  C3  UNL     1      -2.104  -0.824  -1.355  1.00  0.00     0.000 C 
HETATM    4  C4  UNL     1      -2.095  -0.993   0.200  1.00  0.00     0.004 C 
HETATM    5  C5  UNL     1      -1.574   0.226   1.016  1.00  0.00     0.022 C 
HETATM    6  C6  UNL     1      -2.381   1.457   0.535  1.00  0.00     0.004 C 
HETATM    7  C7  UNL     1      -0.053   0.309   0.898  1.00  0.00     0.015 C 
HETATM    8  C8  UNL     1       0.684  -0.824   0.796  1.00  0.00     0.015 C 
HETATM    9  C9  UNL     1       0.083  -2.213   0.770  1.00  0.00     0.029 C 
HETATM   10  C10 UNL     1      -1.446  -2.281   0.729  1.00  0.00     0.005 C 
HETATM   11  C11 UNL     1       2.171  -0.790   0.681  1.00  0.00     0.188 C 
HETATM   12  C12 UNL     1       2.857   0.522   0.582  1.00  0.00     0.019 C 
HETATM   13  C13 UNL     1       2.118   1.638   0.730  1.00  0.00     0.041 C 
HETATM   14  C14 UNL     1       0.659   1.616   0.987  1.00  0.00     0.191 C 
HETATM   15  O1  UNL     1       0.109   2.683   1.228  1.00  0.00    -0.287 OA
HETATM   16  O2  UNL     1       2.812  -1.833   0.615  1.00  0.00    -0.287 OA
HETATM   17  C18 UNL     1      -1.863   0.092   2.532  1.00  0.00     0.004 C 
HETATM   18  C19 UNL     1      -2.913  -1.968  -2.017  1.00  0.00     0.000 C 
HETATM   19  C20 UNL     1      -0.717  -0.823  -2.033  1.00  0.00     0.000 C 
ENDROOT
BRANCH  12  20
HETATM   20  C15 UNL     1       4.345   0.586   0.281  1.00  0.00     0.026 C 
HETATM   21  C16 UNL     1       4.561   1.026  -1.176  1.00  0.00     0.005 C 
HETATM   22  C17 UNL     1       5.113   1.490   1.260  1.00  0.00     0.005 C 
ENDBRANCH  12  20
TORSDOF 1
