REMARK  1 active torsions:
REMARK  status: ('A' for Active; 'I' for Inactive)
REMARK    1  A    between atoms: C12_13  and  C15_16 
ROOT
HETATM    1  C1  UNL     1       0.110   3.286  -0.059  1.00  0.00     0.000 C 
HETATM    2  C2  UNL     1      -1.208   2.537  -0.274  1.00  0.00     0.000 C 
HETATM    3  C3  UNL     1      -1.299   1.213   0.519  1.00  0.00     0.000 C 
HETATM    4  C4  UNL     1      -0.005   0.382   0.269  1.00  0.00     0.007 C 
HETATM    5  C5  UNL     1       1.370   1.094   0.425  1.00  0.00     0.019 C 
HETATM    6  C6  UNL     1       1.314   2.400  -0.404  1.00  0.00     0.004 C 
HETATM    7  C7  UNL     1       2.485   0.158  -0.071  1.00  0.00    -0.024 A 
HETATM    8  C8  UNL     1       2.324  -1.238  -0.106  1.00  0.00     0.004 A 
HETATM    9  C9  UNL     1       1.029  -1.904   0.291  1.00  0.00     0.174 C 
HETATM   10  C10 UNL     1       0.029  -0.981   0.976  1.00  0.00     0.038 C 
HETATM   11  O1  UNL     1       1.284  -3.002   1.150  1.00  0.00    -0.219 OA
HETATM   12  C11 UNL     1       3.374  -2.048  -0.558  1.00  0.00    -0.006 A 
HETATM   13  C12 UNL     1       4.624  -1.536  -0.920  1.00  0.00    -0.023 A 
HETATM   14  C13 UNL     1       4.791  -0.152  -0.837  1.00  0.00    -0.005 A 
HETATM   15  C14 UNL     1       3.742   0.668  -0.424  1.00  0.00    -0.005 A 
HETATM   16  C18 UNL     1       1.797   1.424   1.874  1.00  0.00     0.004 C 
HETATM   17  C19 UNL     1      -2.540   0.458  -0.034  1.00  0.00     0.000 C 
HETATM   18  C20 UNL     1      -1.602   1.493   2.006  1.00  0.00     0.000 C 
ENDROOT
BRANCH  13  19
HETATM   19  C15 UNL     1       5.755  -2.449  -1.354  1.00  0.00     0.022 C 
HETATM   20  C16 UNL     1       6.267  -2.089  -2.758  1.00  0.00     0.005 C 
HETATM   21  C17 UNL     1       6.894  -2.422  -0.321  1.00  0.00     0.005 C 
ENDBRANCH  13  19
TORSDOF 1
