REMARK  14 active torsions:
REMARK  status: ('A' for Active; 'I' for Inactive)
REMARK    1  A    between atoms: C2_2  and  O4_34 
REMARK    2  A    between atoms: C15_15  and  C16_16 
REMARK    3  A    between atoms: C16_16  and  C17_17 
REMARK    4  A    between atoms: C17_17  and  C18_18 
REMARK    5  A    between atoms: C18_18  and  C19_19 
REMARK    6  A    between atoms: C19_19  and  C20_20 
REMARK    7  A    between atoms: C20_20  and  C21_21 
REMARK    8  A    between atoms: C21_21  and  N1_22 
REMARK       I    between atoms: N1_22  and  C22_23 
REMARK    9  A    between atoms: O4_34  and  C30_35 
REMARK   10  A    between atoms: C31_37  and  C46_63 
REMARK   11  A    between atoms: C32_38  and  O8_43 
REMARK   12  A    between atoms: O8_43  and  C35_44 
REMARK   13  A    between atoms: C39_49  and  O10_50 
REMARK   14  A    between atoms: O10_50  and  C40_51 
ROOT
HETATM    1  C1  UNL     1       7.258   0.105  -2.655  1.00  0.00     0.030 C 
HETATM    2  C2  UNL     1       6.604  -0.840  -1.647  1.00  0.00     0.122 C 
HETATM    3  C3  UNL     1       7.727  -1.554  -0.897  1.00  0.00     0.051 C 
HETATM    4  C4  UNL     1       8.972  -0.729  -0.647  1.00  0.00    -0.047 C 
HETATM    5  C5  UNL     1       8.956   0.792  -0.771  1.00  0.00     0.015 C 
HETATM    6  C6  UNL     1       8.103   1.212  -2.000  1.00  0.00     0.006 C 
HETATM    7  C7  UNL     1      10.425   1.283  -0.951  1.00  0.00     0.004 C 
HETATM    8  C8  UNL     1      11.381   0.727   0.120  1.00  0.00     0.005 C 
HETATM    9  C9  UNL     1      11.432  -0.797  -0.046  1.00  0.00     0.025 C 
HETATM   10  C10 UNL     1      10.083  -1.403  -0.303  1.00  0.00    -0.035 C 
HETATM   11  C11 UNL     1      12.730   1.494   0.237  1.00  0.00     0.003 C 
HETATM   12  C12 UNL     1      13.187   2.339  -0.990  1.00  0.00     0.003 C 
HETATM   13  C13 UNL     1      12.004   3.082  -1.655  1.00  0.00     0.000 C 
HETATM   14  C14 UNL     1      10.635   2.803  -1.018  1.00  0.00     0.000 C 
HETATM   15  C15 UNL     1      13.853   1.249  -1.873  1.00  0.00     0.037 C 
HETATM   16  C26 UNL     1      14.588   0.363  -0.849  1.00  0.00     0.152 C 
HETATM   17  C27 UNL     1      13.946   0.594   0.518  1.00  0.00     0.033 C 
HETATM   18  O3  UNL     1      14.502  -0.990  -1.216  1.00  0.00    -0.224 OA
HETATM   19  C28 UNL     1      14.231   3.387  -0.529  1.00  0.00     0.000 C 
HETATM   20  C29 UNL     1       8.365   1.426   0.510  1.00  0.00     0.004 C 
ENDROOT
BRANCH   2  21
HETATM   21  O4  UNL     1       5.798  -0.105  -0.777  1.00  0.00    -0.331 OA
BRANCH  21  22
HETATM   22  C30 UNL     1       4.953  -0.874   0.059  1.00  0.00     0.270 C 
HETATM   23  O5  UNL     1       3.660  -0.677  -0.468  1.00  0.00    -0.326 OA
HETATM   24  C31 UNL     1       2.658  -1.224   0.349  1.00  0.00     0.181 C 
HETATM   25  C32 UNL     1       2.622  -0.471   1.691  1.00  0.00     0.181 C 
HETATM   26  C33 UNL     1       3.954  -0.755   2.378  1.00  0.00     0.217 C 
HETATM   27  C34 UNL     1       5.065  -0.308   1.454  1.00  0.00     0.241 C 
HETATM   28  O7  UNL     1       4.149  -0.017   3.558  1.00  0.00    -0.218 OA
HETATM   29  O6  UNL     1       6.288  -0.700   2.028  1.00  0.00    -0.215 OA
BRANCH  24  30
HETATM   30  C46 UNL     1       1.368  -1.227  -0.464  1.00  0.00     0.214 C 
HETATM   31  O17 UNL     1       0.372  -2.021   0.151  1.00  0.00    -0.218 OA
ENDBRANCH  24  30
BRANCH  25  32
HETATM   32  O8  UNL     1       1.496  -0.894   2.408  1.00  0.00    -0.326 OA
BRANCH  32  33
HETATM   33  C35 UNL     1       1.277  -0.293   3.674  1.00  0.00     0.267 C 
HETATM   34  O9  UNL     1       1.701  -1.353   4.515  1.00  0.00    -0.329 OA
HETATM   35  C36 UNL     1       1.566  -1.127   5.887  1.00  0.00     0.151 C 
HETATM   36  C37 UNL     1       0.120  -0.828   6.249  1.00  0.00     0.212 C 
HETATM   37  C45 UNL     1       2.595  -0.127   6.417  1.00  0.00     0.035 C 
HETATM   38  C38 UNL     1      -0.496   0.232   5.362  1.00  0.00     0.217 C 
HETATM   39  O16 UNL     1      -0.650  -2.004   6.129  1.00  0.00    -0.218 OA
HETATM   40  C39 UNL     1      -0.201   0.018   3.878  1.00  0.00     0.207 C 
HETATM   41  O15 UNL     1      -0.005   1.497   5.742  1.00  0.00    -0.218 OA
BRANCH  40  42
HETATM   42  O10 UNL     1      -0.655   1.210   3.289  1.00  0.00    -0.324 OA
BRANCH  42  43
HETATM   43  C40 UNL     1      -0.538   1.356   1.893  1.00  0.00     0.270 C 
HETATM   44  O11 UNL     1       0.491   2.314   1.738  1.00  0.00    -0.326 OA
HETATM   45  C41 UNL     1       0.718   2.675   0.397  1.00  0.00     0.181 C 
HETATM   46  C42 UNL     1      -0.544   3.200  -0.266  1.00  0.00     0.215 C 
HETATM   47  C43 UNL     1      -1.671   2.202  -0.115  1.00  0.00     0.220 C 
HETATM   48  O14 UNL     1      -0.328   3.404  -1.641  1.00  0.00    -0.218 OA
HETATM   49  C44 UNL     1      -1.840   1.906   1.358  1.00  0.00     0.241 C 
HETATM   50  O13 UNL     1      -2.860   2.748  -0.626  1.00  0.00    -0.218 OA
HETATM   51  O12 UNL     1      -2.856   0.949   1.514  1.00  0.00    -0.215 OA
ENDBRANCH  42  43
ENDBRANCH  40  42
ENDBRANCH  32  33
ENDBRANCH  25  32
ENDBRANCH  21  22
ENDBRANCH   2  21
BRANCH  15  52
HETATM   52  C16 UNL     1      14.760   1.614  -3.076  1.00  0.00     0.060 C 
HETATM   53  C25 UNL     1      14.267   2.774  -3.962  1.00  0.00     0.008 C 
BRANCH  52  54
HETATM   54  C17 UNL     1      14.911   0.388  -3.985  1.00  0.00     0.150 C 
HETATM   55  O2  UNL     1      14.056   0.146  -4.810  1.00  0.00    -0.296 OA
BRANCH  54  56
HETATM   56  C18 UNL     1      16.134  -0.514  -3.876  1.00  0.00     0.065 C 
BRANCH  56  57
HETATM   57  C19 UNL     1      15.896  -1.889  -4.529  1.00  0.00     0.010 C 
BRANCH  57  58
HETATM   58  C20 UNL     1      16.934  -2.967  -4.152  1.00  0.00     0.025 C 
HETATM   59  C24 UNL     1      17.390  -3.744  -5.403  1.00  0.00     0.002 C 
BRANCH  58  60
HETATM   60  C21 UNL     1      16.378  -3.966  -3.114  1.00  0.00     0.129 C 
BRANCH  60  61
HETATM   61  N1  UNL     1      15.956  -3.279  -1.890  1.00  0.00    -0.238 NA
HETATM   62  C22 UNL     1      15.271  -3.861  -0.860  1.00  0.00     0.252 C 
HETATM   63  O1  UNL     1      15.004  -3.220   0.127  1.00  0.00    -0.271 OA
HETATM   64  C23 UNL     1      14.864  -5.312  -1.044  1.00  0.00     0.100 C 
ENDBRANCH  60  61
ENDBRANCH  58  60
ENDBRANCH  57  58
ENDBRANCH  56  57
ENDBRANCH  54  56
ENDBRANCH  52  54
ENDBRANCH  15  52
TORSDOF 14
