REMARK  6 active torsions:
REMARK  status: ('A' for Active; 'I' for Inactive)
REMARK    1  A    between atoms: C2_2  and  O6_36 
REMARK    2  A    between atoms: C3_3  and  C30_33 
REMARK    3  A    between atoms: C16_16  and  C25_26 
REMARK    4  A    between atoms: C21_21  and  C22_22 
REMARK    5  A    between atoms: C22_22  and  C24_24 
REMARK    6  A    between atoms: O6_36  and  C31_37 
ROOT
HETATM    1  C1  UNL     1       1.496  -0.998  -2.733  1.00  0.00     0.031 C 
HETATM    2  C2  UNL     1       0.700  -1.958  -1.853  1.00  0.00     0.134 C 
HETATM    3  C3  UNL     1       1.611  -2.868  -1.000  1.00  0.00     0.104 C 
HETATM    4  C4  UNL     1       2.958  -2.157  -0.664  1.00  0.00     0.012 C 
HETATM    5  C5  UNL     1       2.924  -0.605  -0.555  1.00  0.00     0.001 C 
HETATM    6  C6  UNL     1       2.423  -0.061  -1.932  1.00  0.00     0.003 C 
HETATM    7  C7  UNL     1       4.383  -0.070  -0.291  1.00  0.00     0.000 C 
HETATM    8  C8  UNL     1       5.230  -0.732   0.849  1.00  0.00     0.000 C 
HETATM    9  C9  UNL     1       5.151  -2.266   0.634  1.00  0.00     0.000 C 
HETATM   10  C10 UNL     1       3.724  -2.815   0.497  1.00  0.00     0.001 C 
HETATM   11  C11 UNL     1       6.741  -0.219   0.800  1.00  0.00     0.000 C 
HETATM   12  C12 UNL     1       6.740   1.342   0.869  1.00  0.00     0.001 C 
HETATM   13  C13 UNL     1       5.965   1.954  -0.303  1.00  0.00     0.000 C 
HETATM   14  C14 UNL     1       4.507   1.469  -0.280  1.00  0.00     0.000 C 
HETATM   15  C15 UNL     1       8.137   1.947   1.079  1.00  0.00     0.013 C 
HETATM   16  C16 UNL     1       8.803   1.411   2.364  1.00  0.00     0.079 C 
HETATM   17  C17 UNL     1       8.989  -0.104   2.164  1.00  0.00     0.010 C 
HETATM   18  C18 UNL     1       7.608  -0.768   1.978  1.00  0.00     0.001 C 
HETATM   19  C19 UNL     1      10.092   2.248   2.392  1.00  0.00     0.011 C 
HETATM   20  C20 UNL     1       9.616   3.660   1.995  1.00  0.00     0.005 C 
HETATM   21  C21 UNL     1       8.349   3.472   1.125  1.00  0.00     0.021 C 
HETATM   22  C26 UNL     1       7.473  -0.706  -0.486  1.00  0.00     0.000 C 
HETATM   23  C27 UNL     1       4.611  -0.443   2.244  1.00  0.00     0.000 C 
HETATM   24  C28 UNL     1       1.925  -0.103   0.517  1.00  0.00     0.000 C 
HETATM   25  C29 UNL     1       0.798  -3.299   0.248  1.00  0.00     0.013 C 
ENDROOT
BRANCH   2  26
HETATM   26  O6  UNL     1      -0.187  -2.737  -2.608  1.00  0.00    -0.304 OA
BRANCH  26  27
HETATM   27  C31 UNL     1      -1.423  -2.232  -2.879  1.00  0.00     0.272 C 
HETATM   28  C32 UNL     1      -2.281  -3.280  -3.556  1.00  0.00     0.106 C 
HETATM   29  O7  UNL     1      -1.804  -1.119  -2.594  1.00  0.00    -0.264 OA
ENDBRANCH  26  27
ENDBRANCH   2  26
BRANCH   3  30
HETATM   30  C30 UNL     1       1.942  -4.180  -1.737  1.00  0.00     0.186 C 
HETATM   31  O4  UNL     1       1.903  -5.295  -1.274  1.00  0.00    -0.647 OA
HETATM   32  O5  UNL     1       2.318  -3.999  -3.016  1.00  0.00    -0.647 OA
ENDBRANCH   3  30
BRANCH  16  33
HETATM   33  C25 UNL     1       8.110   1.633   3.715  1.00  0.00     0.184 C 
HETATM   34  O2  UNL     1       7.232   2.649   3.755  1.00  0.00    -0.647 OA
HETATM   35  O3  UNL     1       8.323   0.992   4.717  1.00  0.00    -0.647 OA
ENDBRANCH  16  33
BRANCH  21  36
HETATM   36  C22 UNL     1       8.444   4.198  -0.207  1.00  0.00    -0.012 C 
HETATM   37  C23 UNL     1       7.820   5.375  -0.384  1.00  0.00    -0.007 C 
BRANCH  36  38
HETATM   38  C24 UNL     1       9.279   3.614  -1.325  1.00  0.00     0.205 C 
HETATM   39  O1  UNL     1      10.589   3.271  -0.894  1.00  0.00    -0.216 OA
ENDBRANCH  36  38
ENDBRANCH  21  36
TORSDOF 6
