REMARK  11 active torsions:
REMARK  status: ('A' for Active; 'I' for Inactive)
REMARK    1  A    between atoms: C2_2  and  O1_32 
REMARK    2  A    between atoms: C15_15  and  C16_16 
REMARK    3  A    between atoms: C16_16  and  C17_17 
REMARK    4  A    between atoms: C17_17  and  C18_18 
REMARK    5  A    between atoms: C18_18  and  C19_19 
REMARK    6  A    between atoms: C19_19  and  C20_20 
REMARK    7  A    between atoms: O1_32  and  C32_33 
REMARK    8  A    between atoms: C33_35  and  C43_53 
REMARK    9  A    between atoms: C34_36  and  O5_41 
REMARK   10  A    between atoms: O5_41  and  C37_42 
REMARK   11  A    between atoms: C38_44  and  C42_51 
ROOT
HETATM    1  C1  UNL     1      -1.258   0.371  -1.390  1.00  0.00     0.030 C 
HETATM    2  C2  UNL     1      -0.790  -1.017  -0.902  1.00  0.00     0.118 C 
HETATM    3  C3  UNL     1      -0.186  -1.815  -2.088  1.00  0.00     0.025 C 
HETATM    4  C4  UNL     1       1.133  -1.096  -2.511  1.00  0.00     0.002 C 
HETATM    5  C5  UNL     1       1.112   0.419  -2.265  1.00  0.00     0.000 A 
HETATM    6  C6  UNL     1      -0.265   1.051  -2.358  1.00  0.00     0.003 C 
HETATM    7  C7  UNL     1       2.396   1.159  -2.604  1.00  0.00     0.000 A 
HETATM    8  C8  UNL     1       3.512   0.285  -3.195  1.00  0.00     0.000 C 
HETATM    9  C9  UNL     1       2.915  -0.615  -4.304  1.00  0.00     0.000 C 
HETATM   10  C10 UNL     1       1.622  -1.379  -3.938  1.00  0.00     0.000 C 
HETATM   11  C11 UNL     1       4.751   1.124  -3.644  1.00  0.00     0.000 C 
HETATM   12  C12 UNL     1       4.974   2.346  -2.691  1.00  0.00     0.000 C 
HETATM   13  C13 UNL     1       3.770   3.302  -2.881  1.00  0.00     0.000 C 
HETATM   14  C14 UNL     1       2.407   2.598  -3.091  1.00  0.00     0.000 C 
HETATM   15  C15 UNL     1       6.382   2.876  -3.110  1.00  0.00     0.000 C 
HETATM   16  C25 UNL     1       7.135   1.549  -3.393  1.00  0.00     0.000 C 
HETATM   17  C26 UNL     1       6.105   0.403  -3.496  1.00  0.00     0.000 C 
HETATM   18  C27 UNL     1       5.111   1.959  -1.194  1.00  0.00     0.000 C 
HETATM   19  C28 UNL     1       4.670   1.524  -5.146  1.00  0.00     0.000 C 
HETATM   20  C29 UNL     1       1.989   0.955  -1.161  1.00  0.00     0.000 A 
HETATM   21  C30 UNL     1       0.120  -3.274  -1.671  1.00  0.00     0.002 C 
HETATM   22  C31 UNL     1      -1.231  -1.945  -3.223  1.00  0.00     0.002 C 
ENDROOT
BRANCH   2  23
HETATM   23  O1  UNL     1       0.187  -0.792   0.080  1.00  0.00    -0.332 OA
BRANCH  23  24
HETATM   24  C32 UNL     1       0.187  -1.617   1.223  1.00  0.00     0.270 C 
HETATM   25  O2  UNL     1      -0.626  -0.951   2.161  1.00  0.00    -0.326 OA
HETATM   26  C33 UNL     1      -0.646  -1.574   3.421  1.00  0.00     0.181 C 
HETATM   27  C34 UNL     1       0.759  -1.675   4.038  1.00  0.00     0.181 C 
HETATM   28  C35 UNL     1       1.727  -2.323   3.055  1.00  0.00     0.217 C 
HETATM   29  C36 UNL     1       1.611  -1.623   1.724  1.00  0.00     0.241 C 
HETATM   30  O4  UNL     1       3.072  -2.172   3.448  1.00  0.00    -0.218 OA
HETATM   31  O3  UNL     1       2.446  -2.275   0.801  1.00  0.00    -0.215 OA
BRANCH  26  32
HETATM   32  C43 UNL     1      -1.616  -0.764   4.282  1.00  0.00     0.214 C 
HETATM   33  O11 UNL     1      -1.837  -1.363   5.545  1.00  0.00    -0.218 OA
ENDBRANCH  26  32
BRANCH  27  34
HETATM   34  O5  UNL     1       0.637  -2.417   5.222  1.00  0.00    -0.326 OA
BRANCH  34  35
HETATM   35  C37 UNL     1       1.803  -2.523   6.002  1.00  0.00     0.270 C 
HETATM   36  O6  UNL     1       2.356  -3.784   5.691  1.00  0.00    -0.326 OA
HETATM   37  C38 UNL     1       3.580  -3.994   6.343  1.00  0.00     0.184 C 
HETATM   38  C39 UNL     1       3.359  -3.959   7.852  1.00  0.00     0.215 C 
HETATM   39  C40 UNL     1       2.689  -2.662   8.266  1.00  0.00     0.220 C 
HETATM   40  O9  UNL     1       4.580  -4.057   8.543  1.00  0.00    -0.218 OA
HETATM   41  C41 UNL     1       1.417  -2.501   7.460  1.00  0.00     0.241 C 
HETATM   42  O8  UNL     1       2.386  -2.701   9.636  1.00  0.00    -0.218 OA
HETATM   43  O7  UNL     1       0.807  -1.269   7.753  1.00  0.00    -0.215 OA
BRANCH  37  44
HETATM   44  C42 UNL     1       4.142  -5.329   5.875  1.00  0.00     0.214 C 
HETATM   45  O10 UNL     1       4.412  -5.277   4.486  1.00  0.00    -0.218 OA
ENDBRANCH  37  44
ENDBRANCH  34  35
ENDBRANCH  27  34
ENDBRANCH  23  24
ENDBRANCH   2  23
BRANCH  15  46
HETATM   46  C16 UNL     1       7.147   3.868  -2.189  1.00  0.00     0.000 C 
HETATM   47  C24 UNL     1       6.304   5.130  -1.899  1.00  0.00     0.000 C 
BRANCH  46  48
HETATM   48  C17 UNL     1       8.509   4.366  -2.745  1.00  0.00     0.004 C 
BRANCH  48  49
HETATM   49  C18 UNL     1       9.678   3.368  -2.716  1.00  0.00     0.022 C 
BRANCH  49  50
HETATM   50  C19 UNL     1      11.073   3.899  -2.990  1.00  0.00    -0.045 C 
HETATM   51  C23 UNL     1      11.348   5.199  -3.188  1.00  0.00    -0.009 C 
BRANCH  50  52
HETATM   52  C20 UNL     1      12.192   2.871  -3.103  1.00  0.00     0.018 C 
HETATM   53  C21 UNL     1      12.121   1.760  -2.042  1.00  0.00     0.004 C 
HETATM   54  C22 UNL     1      12.221   2.276  -4.521  1.00  0.00     0.004 C 
ENDBRANCH  50  52
ENDBRANCH  49  50
ENDBRANCH  48  49
ENDBRANCH  46  48
ENDBRANCH  15  46
TORSDOF 11
