REMARK  2 active torsions:
REMARK  status: ('A' for Active; 'I' for Inactive)
REMARK    1  A    between atoms: C3_3  and  C20_20 
REMARK    2  A    between atoms: C12_12  and  C16_16 
ROOT
HETATM    1  C1  UNL     1      -2.594  -0.124   0.909  1.00  0.00     0.000 C 
HETATM    2  C2  UNL     1      -2.278  -1.622   0.990  1.00  0.00     0.003 C 
HETATM    3  C3  UNL     1      -1.439  -2.127  -0.213  1.00  0.00     0.031 C 
HETATM    4  C4  UNL     1      -0.169  -1.223  -0.311  1.00  0.00     0.006 C 
HETATM    5  C5  UNL     1      -0.368   0.319  -0.336  1.00  0.00     0.015 C 
HETATM    6  C6  UNL     1      -1.312   0.715   0.825  1.00  0.00     0.004 C 
HETATM    7  C7  UNL     1       0.979   1.028  -0.118  1.00  0.00    -0.049 C 
HETATM    8  C8  UNL     1       2.232   0.179  -0.167  1.00  0.00     0.018 C 
HETATM    9  C9  UNL     1       2.138  -0.757  -1.379  1.00  0.00     0.004 C 
HETATM   10  C10 UNL     1       0.924  -1.697  -1.292  1.00  0.00     0.001 C 
HETATM   11  C11 UNL     1       3.523   1.013  -0.229  1.00  0.00     0.008 C 
HETATM   12  C12 UNL     1       3.489   2.178   0.776  1.00  0.00     0.023 C 
HETATM   13  C13 UNL     1       2.342   3.107   0.332  1.00  0.00     0.029 C 
HETATM   14  C14 UNL     1       1.060   2.355   0.094  1.00  0.00    -0.034 C 
HETATM   15  C15 UNL     1       4.817   2.959   0.745  1.00  0.00     0.005 C 
HETATM   16  C18 UNL     1      -0.909   0.827  -1.688  1.00  0.00     0.004 C 
HETATM   17  C19 UNL     1      -1.022  -3.586   0.117  1.00  0.00     0.003 C 
ENDROOT
BRANCH   3  18
HETATM   18  C20 UNL     1      -2.375  -2.210  -1.435  1.00  0.00     0.182 C 
HETATM   19  O1  UNL     1      -1.702  -2.575  -2.619  1.00  0.00    -0.221 OA
ENDBRANCH   3  18
BRANCH  12  20
HETATM   20  C16 UNL     1       3.241   1.682   2.190  1.00  0.00    -0.026 C 
HETATM   21  C17 UNL     1       4.017   0.798   2.833  1.00  0.00    -0.005 C 
ENDBRANCH  12  20
TORSDOF 2
