REMARK  7 active torsions:
REMARK  status: ('A' for Active; 'I' for Inactive)
REMARK    1  A    between atoms: C3_3  and  C22_29 
REMARK    2  A    between atoms: C5_5  and  O1_7 
REMARK    3  A    between atoms: O1_7  and  C7_8 
REMARK    4  A    between atoms: C13_16  and  O5_24 
REMARK    5  A    between atoms: O5_24  and  C20_25 
REMARK    6  A    between atoms: C22_29  and  O8_30 
REMARK    7  A    between atoms: O8_30  and  C23_31 
ROOT
HETATM    1  C1  UNL     1       0.943  -0.352  -2.158  1.00  0.00     0.003 C 
HETATM    2  C2  UNL     1       0.715   0.671  -1.022  1.00  0.00     0.003 C 
HETATM    3  C3  UNL     1       1.435   0.298   0.352  1.00  0.00     0.035 C 
HETATM    4  C4  UNL     1       2.699  -0.685   0.339  1.00  0.00     0.059 C 
HETATM    5  C5  UNL     1       2.621  -1.656  -0.863  1.00  0.00     0.127 C 
HETATM    6  C6  UNL     1       2.355  -0.928  -2.173  1.00  0.00     0.030 C 
HETATM    7  C9  UNL     1       2.770  -1.589   1.613  1.00  0.00     0.154 C 
HETATM    8  O3  UNL     1       3.799  -2.539   1.607  1.00  0.00    -0.301 OA
HETATM    9  C10 UNL     1       5.060  -2.248   1.208  1.00  0.00     0.278 C 
HETATM   10  C11 UNL     1       5.302  -0.873   0.594  1.00  0.00     0.136 C 
HETATM   11  C12 UNL     1       4.077   0.064   0.482  1.00  0.00     0.049 C 
HETATM   12  C13 UNL     1       4.395   1.357  -0.311  1.00  0.00     0.126 C 
HETATM   13  C14 UNL     1       5.494   1.266  -1.383  1.00  0.00     0.035 C 
HETATM   14  C15 UNL     1       6.649   0.339  -0.991  1.00  0.00     0.029 C 
HETATM   15  C16 UNL     1       6.035  -1.045  -0.758  1.00  0.00     0.021 C 
HETATM   16  C17 UNL     1       7.172   0.642   0.386  1.00  0.00     0.013 C 
HETATM   17  C18 UNL     1       6.367  -0.093   1.382  1.00  0.00     0.177 C 
HETATM   18  O4  UNL     1       6.439  -0.036   2.602  1.00  0.00    -0.291 OA
HETATM   19  C19 UNL     1       8.185   1.466   0.704  1.00  0.00    -0.002 C 
HETATM   20  O7  UNL     1       5.956  -3.064   1.275  1.00  0.00    -0.264 OA
HETATM   21  C25 UNL     1      -0.837   0.808  -0.959  1.00  0.00     0.000 C 
HETATM   22  C26 UNL     1       1.152   2.060  -1.571  1.00  0.00     0.000 C 
ENDROOT
BRANCH   3  23
HETATM   23  C22 UNL     1       0.420  -0.061   1.470  1.00  0.00     0.152 C 
BRANCH  23  24
HETATM   24  O8  UNL     1      -0.386   1.036   1.819  1.00  0.00    -0.302 OA
BRANCH  24  25
HETATM   25  C23 UNL     1      -1.551   0.884   2.513  1.00  0.00     0.272 C 
HETATM   26  O9  UNL     1      -2.243   1.830   2.827  1.00  0.00    -0.264 OA
HETATM   27  C24 UNL     1      -1.949  -0.539   2.869  1.00  0.00     0.106 C 
ENDBRANCH  24  25
ENDBRANCH  23  24
ENDBRANCH   3  23
BRANCH   5  28
HETATM   28  O1  UNL     1       1.630  -2.620  -0.623  1.00  0.00    -0.304 OA
BRANCH  28  29
HETATM   29  C7  UNL     1       1.592  -3.733  -1.403  1.00  0.00     0.272 C 
HETATM   30  C8  UNL     1       0.405  -4.592  -1.018  1.00  0.00     0.106 C 
HETATM   31  O2  UNL     1       2.383  -4.000  -2.280  1.00  0.00    -0.264 OA
ENDBRANCH  28  29
ENDBRANCH   5  28
BRANCH  12  32
HETATM   32  O5  UNL     1       4.733   2.385   0.590  1.00  0.00    -0.304 OA
BRANCH  32  33
HETATM   33  C20 UNL     1       4.579   3.677   0.187  1.00  0.00     0.272 C 
HETATM   34  C21 UNL     1       5.088   4.621   1.256  1.00  0.00     0.106 C 
HETATM   35  O6  UNL     1       4.122   4.024  -0.878  1.00  0.00    -0.264 OA
ENDBRANCH  32  33
ENDBRANCH  12  32
TORSDOF 7
