REMARK  3 active torsions:
REMARK  status: ('A' for Active; 'I' for Inactive)
REMARK    1  A    between atoms: C6_6  and  O1_7 
REMARK    2  A    between atoms: O1_7  and  C7_8 
REMARK    3  A    between atoms: C15_17  and  O3_19 
ROOT
HETATM    1  C1  UNL     1      -0.928   1.313  -1.405  1.00  0.00     0.031 C 
HETATM    2  C2  UNL     1      -1.627  -0.037  -1.231  1.00  0.00     0.007 C 
HETATM    3  C3  UNL     1      -1.308  -0.686   0.128  1.00  0.00     0.021 C 
HETATM    4  C4  UNL     1      -1.674   0.288   1.264  1.00  0.00     0.007 C 
HETATM    5  C5  UNL     1      -1.185   1.734   1.124  1.00  0.00     0.031 C 
HETATM    6  C6  UNL     1      -1.301   2.302  -0.295  1.00  0.00     0.124 C 
HETATM    7  C9  UNL     1      -2.183  -1.967   0.300  1.00  0.00     0.009 C 
HETATM    8  C10 UNL     1      -1.424  -3.137  -0.345  1.00  0.00     0.026 C 
HETATM    9  C11 UNL     1      -0.011  -2.685  -0.125  1.00  0.00    -0.022 A 
HETATM   10  C12 UNL     1       0.079  -1.318   0.138  1.00  0.00    -0.001 A 
HETATM   11  C13 UNL     1       1.350  -0.759   0.324  1.00  0.00     0.129 A 
HETATM   12  C14 UNL     1       2.460  -1.613   0.258  1.00  0.00     0.051 A 
HETATM   13  C15 UNL     1       2.391  -2.998   0.043  1.00  0.00     0.096 A 
HETATM   14  C16 UNL     1       1.106  -3.514  -0.169  1.00  0.00     0.020 A 
HETATM   15  O4  UNL     1       1.563   0.570   0.498  1.00  0.00    -0.190 OA
ENDROOT
BRANCH   6  16
HETATM   16  O1  UNL     1      -0.458   3.411  -0.431  1.00  0.00    -0.304 OA
BRANCH  16  17
HETATM   17  C7  UNL     1      -0.849   4.588   0.127  1.00  0.00     0.272 C 
HETATM   18  C8  UNL     1       0.227   5.639  -0.062  1.00  0.00     0.106 C 
HETATM   19  O2  UNL     1      -1.897   4.775   0.702  1.00  0.00    -0.264 OA
ENDBRANCH  16  17
ENDBRANCH   6  16
BRANCH  13  20
HETATM   20  O3  UNL     1       3.465  -3.848  -0.031  1.00  0.00    -0.328 OA
HETATM   21  C17 UNL     1       4.761  -3.299   0.027  1.00  0.00     0.181 C 
ENDBRANCH  13  20
TORSDOF 3
