REMARK  8 active torsions:
REMARK  status: ('A' for Active; 'I' for Inactive)
REMARK    1  A    between atoms: C2_2  and  O11_31 
REMARK    2  A    between atoms: C5_5  and  C14_20 
REMARK    3  A    between atoms: C6_6  and  O1_7 
REMARK    4  A    between atoms: O1_7  and  C7_8 
REMARK    5  A    between atoms: C8_10  and  C13_18 
REMARK    6  A    between atoms: C9_11  and  O4_14 
REMARK    7  A    between atoms: O4_14  and  C11_15 
REMARK    8  A    between atoms: C14_20  and  C15_22 
ROOT
HETATM    1  C1  UNL     1       5.027  -1.721   0.832  1.00  0.00     0.049 A 
HETATM    2  C2  UNL     1       6.255  -2.123   1.367  1.00  0.00     0.098 A 
HETATM    3  C3  UNL     1       7.374  -1.410   0.922  1.00  0.00     0.052 A 
HETATM    4  C4  UNL     1       7.290  -0.359   0.007  1.00  0.00     0.138 A 
HETATM    5  C5  UNL     1       6.022  -0.014  -0.496  1.00  0.00     0.087 A 
HETATM    6  C6  UNL     1       4.847  -0.666  -0.074  1.00  0.00     0.104 A 
HETATM    7  O10 UNL     1       8.444   0.221  -0.425  1.00  0.00    -0.190 OA
ENDROOT
BRANCH   6   8
HETATM    8  O1  UNL     1       3.628  -0.323  -0.609  1.00  0.00    -0.303 OA
BRANCH   8   9
HETATM    9  C7  UNL     1       2.600  -1.292  -0.661  1.00  0.00     0.274 C 
HETATM   10  O2  UNL     1       1.871  -0.980  -1.835  1.00  0.00    -0.326 OA
HETATM   11  C8  UNL     1       0.643  -0.428  -1.458  1.00  0.00     0.181 C 
HETATM   12  C9  UNL     1       0.274  -1.138  -0.168  1.00  0.00     0.189 C 
HETATM   13  C10 UNL     1       1.633  -1.209   0.507  1.00  0.00     0.238 C 
HETATM   14  O3  UNL     1       1.720  -2.355   1.318  1.00  0.00    -0.215 OA
BRANCH  11  15
HETATM   15  C13 UNL     1      -0.356  -0.608  -2.589  1.00  0.00     0.214 C 
HETATM   16  O6  UNL     1      -1.625  -0.127  -2.199  1.00  0.00    -0.218 OA
ENDBRANCH  11  15
BRANCH  12  17
HETATM   17  O4  UNL     1      -0.669  -0.404   0.555  1.00  0.00    -0.299 OA
BRANCH  17  18
HETATM   18  C11 UNL     1      -1.134  -0.950   1.708  1.00  0.00     0.273 C 
HETATM   19  C12 UNL     1      -2.224  -0.083   2.303  1.00  0.00     0.106 C 
HETATM   20  O5  UNL     1      -0.745  -1.991   2.186  1.00  0.00    -0.264 OA
ENDBRANCH  17  18
ENDBRANCH  12  17
ENDBRANCH   8   9
ENDBRANCH   6   8
BRANCH   5  21
HETATM   21  C14 UNL     1       5.914   1.099  -1.499  1.00  0.00     0.200 C 
HETATM   22  O7  UNL     1       5.227   1.000  -2.509  1.00  0.00    -0.286 OA
BRANCH  21  23
HETATM   23  C15 UNL     1       6.810   2.281  -1.311  1.00  0.00     0.043 A 
HETATM   24  C16 UNL     1       7.470   2.814  -2.421  1.00  0.00     0.031 A 
HETATM   25  C17 UNL     1       8.407   3.842  -2.271  1.00  0.00     0.133 A 
HETATM   26  C18 UNL     1       8.668   4.307  -0.980  1.00  0.00     0.055 A 
HETATM   27  O9  UNL     1       9.083   4.343  -3.338  1.00  0.00    -0.190 OA
HETATM   28  C19 UNL     1       8.022   3.796   0.153  1.00  0.00     0.133 A 
HETATM   29  C20 UNL     1       7.103   2.761  -0.028  1.00  0.00     0.031 A 
HETATM   30  O8  UNL     1       8.318   4.252   1.398  1.00  0.00    -0.190 OA
ENDBRANCH  21  23
ENDBRANCH   5  21
BRANCH   2  31
HETATM   31  O11 UNL     1       6.280  -3.166   2.260  1.00  0.00    -0.328 OA
HETATM   32  C21 UNL     1       7.516  -3.536   2.824  1.00  0.00     0.181 C 
ENDBRANCH   2  31
TORSDOF 8
