REMARK  4 active torsions:
REMARK  status: ('A' for Active; 'I' for Inactive)
REMARK    1  A    between atoms: C9_10  and  C10_11 
REMARK    2  A    between atoms: C10_11  and  C13_14 
REMARK    3  A    between atoms: C21_24  and  O4_25 
REMARK    4  A    between atoms: O4_25  and  C22_26 
ROOT
HETATM    1  C1  UNL     1       7.875  -1.880  -0.898  1.00  0.00     0.001 C 
HETATM    2  C2  UNL     1       7.862  -0.504  -0.284  1.00  0.00     0.117 C 
HETATM    3  O1  UNL     1       6.656  -0.262   0.389  1.00  0.00    -0.332 OA
HETATM    4  C3  UNL     1       5.484  -0.651  -0.211  1.00  0.00     0.094 A 
HETATM    5  C4  UNL     1       5.479  -1.704  -1.140  1.00  0.00     0.047 A 
HETATM    6  C5  UNL     1       6.736  -2.436  -1.339  1.00  0.00     0.002 C 
HETATM    7  C6  UNL     1       4.315  -2.109  -1.807  1.00  0.00     0.138 A 
HETATM    8  C7  UNL     1       3.142  -1.388  -1.551  1.00  0.00     0.087 A 
HETATM    9  C8  UNL     1       3.096  -0.328  -0.623  1.00  0.00     0.103 A 
HETATM   10  C9  UNL     1       4.277   0.041   0.052  1.00  0.00     0.026 A 
HETATM   11  O2  UNL     1       1.944   0.374  -0.418  1.00  0.00    -0.305 OA
HETATM   12  C15 UNL     1       0.742  -0.161  -0.777  1.00  0.00     0.126 A 
HETATM   13  C16 UNL     1       0.642  -1.199  -1.712  1.00  0.00     0.064 A 
HETATM   14  C17 UNL     1       1.891  -1.780  -2.257  1.00  0.00     0.201 C 
HETATM   15  O3  UNL     1       1.850  -2.569  -3.198  1.00  0.00    -0.286 OA
HETATM   16  C18 UNL     1      -0.597  -1.718  -2.108  1.00  0.00     0.005 A 
HETATM   17  C19 UNL     1      -1.760  -1.187  -1.555  1.00  0.00     0.002 A 
HETATM   18  C20 UNL     1      -1.668  -0.160  -0.617  1.00  0.00     0.027 A 
HETATM   19  C21 UNL     1      -0.433   0.375  -0.216  1.00  0.00     0.126 A 
HETATM   20  O6  UNL     1       4.350  -3.147  -2.685  1.00  0.00    -0.190 OA
HETATM   21  C24 UNL     1       8.986  -0.376   0.749  1.00  0.00     0.035 C 
HETATM   22  C25 UNL     1       8.046   0.542  -1.390  1.00  0.00     0.035 C 
ENDROOT
BRANCH  10  23
HETATM   23  C10 UNL     1       4.333   1.238   1.032  1.00  0.00     0.041 C 
HETATM   24  C11 UNL     1       3.014   1.715   1.685  1.00  0.00     0.009 C 
HETATM   25  C12 UNL     1       4.892   2.440   0.239  1.00  0.00     0.009 C 
BRANCH  23  26
HETATM   26  C13 UNL     1       5.168   0.839   2.242  1.00  0.00    -0.023 C 
HETATM   27  C14 UNL     1       6.174   1.546   2.778  1.00  0.00    -0.005 C 
ENDBRANCH  23  26
ENDBRANCH  10  23
BRANCH  19  28
HETATM   28  O4  UNL     1      -0.307   1.386   0.702  1.00  0.00    -0.274 OA
BRANCH  28  29
HETATM   29  C22 UNL     1      -1.446   1.883   1.257  1.00  0.00     0.277 C 
HETATM   30  O5  UNL     1      -2.143   2.729   0.742  1.00  0.00    -0.264 OA
HETATM   31  C23 UNL     1      -1.725   1.242   2.604  1.00  0.00     0.107 C 
ENDBRANCH  28  29
ENDBRANCH  19  28
TORSDOF 4
