REMARK  3 active torsions:
REMARK  status: ('A' for Active; 'I' for Inactive)
REMARK    1  A    between atoms: C16_19  and  C19_22 
REMARK    2  A    between atoms: C19_22  and  O2_23 
REMARK    3  A    between atoms: O2_23  and  C20_24 
ROOT
HETATM    1  C1  UNL     1      -2.501  -0.312  -2.005  1.00  0.00     0.000 A 
HETATM    2  C2  UNL     1      -2.433  -1.735  -2.041  1.00  0.00     0.002 A 
HETATM    3  C3  UNL     1      -1.226  -2.394  -2.138  1.00  0.00     0.017 A 
HETATM    4  C4  UNL     1      -0.053  -1.599  -2.204  1.00  0.00     0.059 A 
HETATM    5  C5  UNL     1      -0.115  -0.199  -2.172  1.00  0.00     0.013 A 
HETATM    6  C6  UNL     1      -1.363   0.465  -2.068  1.00  0.00     0.001 A 
HETATM    7  C7  UNL     1       1.222   0.301  -2.235  1.00  0.00    -0.005 A 
HETATM    8  C8  UNL     1       2.089  -0.765  -2.311  1.00  0.00     0.064 A 
HETATM    9  N1  UNL     1       1.290  -1.893  -2.280  1.00  0.00    -0.328 N 
HETATM   10  C9  UNL     1       1.799  -3.265  -2.322  1.00  0.00     0.130 C 
HETATM   11  C10 UNL     1       3.579  -0.554  -2.263  1.00  0.00     0.257 C 
HETATM   12  N2  UNL     1       3.862   0.797  -2.734  1.00  0.00     0.141 N 
HETATM   13  C11 UNL     1       3.221   1.784  -1.865  1.00  0.00     0.227 C 
HETATM   14  C12 UNL     1       1.697   1.720  -2.158  1.00  0.00     0.061 C 
HETATM   15  C13 UNL     1       3.517   1.635  -0.350  1.00  0.00     0.064 C 
HETATM   16  C14 UNL     1       4.865   2.208   0.091  1.00  0.00     0.144 C 
HETATM   17  O1  UNL     1       5.047   2.070   1.478  1.00  0.00    -0.354 OA
HETATM   18  C15 UNL     1       5.072   0.730   1.886  1.00  0.00     0.146 C 
HETATM   19  C16 UNL     1       3.714   0.070   1.639  1.00  0.00     0.179 C 
HETATM   20  C17 UNL     1       3.342   0.192   0.148  1.00  0.00     0.040 C 
HETATM   21  C18 UNL     1       4.051  -0.783  -0.811  1.00  0.00     0.042 C 
HETATM   22  O4  UNL     1       3.820  -1.298   1.944  1.00  0.00    -0.221 OA
HETATM   23  C22 UNL     1       5.534   0.697   3.345  1.00  0.00     0.035 C 
HETATM   24  C23 UNL     1       5.271   1.017  -3.006  1.00  0.00     0.286 C 
ENDROOT
BRANCH  19  25
HETATM   25  C19 UNL     1       2.591   0.631   2.525  1.00  0.00     0.184 C 
BRANCH  25  26
HETATM   26  O2  UNL     1       2.613  -0.003   3.778  1.00  0.00    -0.299 OA
BRANCH  26  27
HETATM   27  C20 UNL     1       1.632   0.338   4.657  1.00  0.00     0.273 C 
HETATM   28  C21 UNL     1       1.708  -0.537   5.893  1.00  0.00     0.106 C 
HETATM   29  O3  UNL     1       0.796   1.192   4.466  1.00  0.00    -0.264 OA
ENDBRANCH  26  27
ENDBRANCH  25  26
ENDBRANCH  19  25
TORSDOF 3
