REMARK  4 active torsions:
REMARK  status: ('A' for Active; 'I' for Inactive)
REMARK    1  A    between atoms: C6_7  and  C8_9 
REMARK    2  A    between atoms: C19_21  and  C28_32 
REMARK    3  A    between atoms: C22_24  and  C26_28 
REMARK    4  A    between atoms: C26_28  and  O3_29 
ROOT
HETATM    1  O1  UNL     1      -2.339   1.275   1.557  1.00  0.00    -0.220 OA
HETATM    2  C1  UNL     1      -2.058   0.181   0.717  1.00  0.00     0.189 C 
HETATM    3  C2  UNL     1      -1.367   0.722  -0.517  1.00  0.00     0.183 C 
HETATM    4  C3  UNL     1       0.053   1.243  -0.280  1.00  0.00     0.036 C 
HETATM    5  C4  UNL     1       0.933   0.457   0.746  1.00  0.00     0.006 C 
HETATM    6  C5  UNL     1       0.242  -0.921   0.946  1.00  0.00     0.010 C 
HETATM    7  C6  UNL     1      -1.245  -0.928   1.413  1.00  0.00     0.089 C 
HETATM    8  C7  UNL     1      -1.431  -0.909   2.947  1.00  0.00     0.011 C 
HETATM    9  C9  UNL     1       1.125  -1.892   1.744  1.00  0.00     0.001 C 
HETATM   10  C10 UNL     1       2.439  -2.150   0.998  1.00  0.00     0.000 C 
HETATM   11  C11 UNL     1       3.299  -0.881   0.785  1.00  0.00     0.006 C 
HETATM   12  C12 UNL     1       2.396   0.249   0.176  1.00  0.00     0.035 C 
HETATM   13  C13 UNL     1       3.234   1.524  -0.008  1.00  0.00     0.173 C 
HETATM   14  C14 UNL     1       4.650   1.297  -0.464  1.00  0.00    -0.002 C 
HETATM   15  C15 UNL     1       5.272   0.109  -0.484  1.00  0.00    -0.046 C 
HETATM   16  C16 UNL     1       4.531  -1.184  -0.166  1.00  0.00     0.015 C 
HETATM   17  C17 UNL     1       5.565  -2.200   0.411  1.00  0.00     0.004 C 
HETATM   18  C18 UNL     1       6.753  -1.614   1.198  1.00  0.00     0.011 C 
HETATM   19  C19 UNL     1       7.482  -0.430   0.511  1.00  0.00     0.082 C 
HETATM   20  C20 UNL     1       6.751  -0.041  -0.790  1.00  0.00     0.028 C 
HETATM   21  C21 UNL     1       7.436   1.065  -1.617  1.00  0.00     0.014 C 
HETATM   22  C22 UNL     1       8.915   0.785  -1.971  1.00  0.00     0.078 C 
HETATM   23  C23 UNL     1       9.614   0.321  -0.658  1.00  0.00     0.010 C 
HETATM   24  C24 UNL     1       8.916  -0.823   0.097  1.00  0.00     0.011 C 
HETATM   25  C25 UNL     1       9.102  -0.326  -3.026  1.00  0.00     0.010 C 
HETATM   26  C29 UNL     1       4.103  -1.755  -1.551  1.00  0.00     0.004 C 
HETATM   27  O7  UNL     1       2.618   2.441  -0.893  1.00  0.00    -0.219 OA
HETATM   28  C30 UNL     1       3.855  -0.463   2.168  1.00  0.00     0.000 C 
HETATM   29  C31 UNL     1       0.939   1.287   2.052  1.00  0.00     0.000 C 
HETATM   30  O8  UNL     1      -2.163   1.773  -1.015  1.00  0.00    -0.221 OA
ENDROOT
BRANCH  22  31
HETATM   31  C26 UNL     1       9.700   2.029  -2.459  1.00  0.00     0.271 C 
HETATM   32  O4  UNL     1      10.779   2.293  -1.967  1.00  0.00    -0.264 OA
BRANCH  31  33
HETATM   33  O3  UNL     1       9.258   2.785  -3.507  1.00  0.00    -0.299 OA
HETATM   34  C27 UNL     1       7.984   2.735  -4.093  1.00  0.00     0.184 C 
ENDBRANCH  31  33
ENDBRANCH  22  31
BRANCH  19  35
HETATM   35  C28 UNL     1       7.624   0.657   1.585  1.00  0.00     0.184 C 
HETATM   36  O5  UNL     1       6.940   1.786   1.343  1.00  0.00    -0.647 OA
HETATM   37  O6  UNL     1       8.264   0.547   2.605  1.00  0.00    -0.647 OA
ENDBRANCH  19  35
BRANCH   7  38
HETATM   38  C8  UNL     1      -1.913  -2.247   0.982  1.00  0.00     0.209 C 
HETATM   39  O2  UNL     1      -1.432  -3.028   0.195  1.00  0.00    -0.288 OA
ENDBRANCH   7  38
TORSDOF 4
