REMARK  5 active torsions:
REMARK  status: ('A' for Active; 'I' for Inactive)
REMARK    1  A    between atoms: O1_2  and  C2_3 
REMARK    2  A    between atoms: C3_4  and  O2_5 
REMARK    3  A    between atoms: C6_8  and  O4_15 
REMARK    4  A    between atoms: C7_9  and  C9_11 
REMARK    5  A    between atoms: C9_11  and  C10_12 
ROOT
HETATM    1  C2  UNL     1       2.640  -0.068   0.089  1.00  0.00     0.116 C 
HETATM    2  C3  UNL     1       2.137   1.083  -0.545  1.00  0.00     0.118 C 
HETATM    3  C5  UNL     1       0.753   1.141  -0.767  1.00  0.00     0.050 C 
HETATM    4  C6  UNL     1      -0.149   0.127  -0.424  1.00  0.00     0.093 C 
HETATM    5  C7  UNL     1       0.345  -0.908   0.383  1.00  0.00     0.010 C 
HETATM    6  C8  UNL     1       1.722  -0.985   0.611  1.00  0.00     0.024 C 
ENDROOT
BRANCH   5   7
HETATM    7  C9  UNL     1      -0.581  -1.941   0.989  1.00  0.00     0.093 C 
BRANCH   7   8
HETATM    8  C10 UNL     1      -1.684  -1.347   1.852  1.00  0.00     0.155 C 
HETATM    9  C11 UNL     1      -1.287  -0.301   2.876  1.00  0.00     0.073 C 
HETATM   10  O3  UNL     1      -2.833  -1.714   1.738  1.00  0.00    -0.296 OA
ENDBRANCH   7   8
ENDBRANCH   5   7
BRANCH   4  11
HETATM   11  O4  UNL     1      -1.494   0.304  -0.617  1.00  0.00    -0.328 OA
HETATM   12  C12 UNL     1      -1.966  -0.223  -1.835  1.00  0.00     0.181 C 
ENDBRANCH   4  11
BRANCH   1  13
HETATM   13  O1  UNL     1       3.967  -0.164   0.421  1.00  0.00    -0.326 OA
HETATM   14  C1  UNL     1       4.737  -0.833  -0.551  1.00  0.00     0.181 C 
ENDBRANCH   1  13
BRANCH   2  15
HETATM   15  O2  UNL     1       3.022   2.079  -0.885  1.00  0.00    -0.326 OA
HETATM   16  C4  UNL     1       2.510   3.318  -1.317  1.00  0.00     0.181 C 
ENDBRANCH   2  15
TORSDOF 5
