REMARK  0 active torsions:
REMARK  status: ('A' for Active; 'I' for Inactive)
ROOT
HETATM    1  C1  UNL     1      -2.114  -0.439   0.199  1.00  0.00    -0.031 C 
HETATM    2  C2  UNL     1      -2.173  -1.891   0.576  1.00  0.00     0.061 C 
HETATM    3  C3  UNL     1      -0.774  -2.435   0.908  1.00  0.00     0.255 C 
HETATM    4  N1  UNL     1       0.154  -2.024  -0.131  1.00  0.00     0.137 N 
HETATM    5  C4  UNL     1       0.362  -0.568  -0.152  1.00  0.00     0.209 C 
HETATM    6  C5  UNL     1      -0.965   0.163  -0.145  1.00  0.00    -0.018 C 
HETATM    7  C6  UNL     1      -0.853   1.653  -0.351  1.00  0.00     0.053 C 
HETATM    8  C7  UNL     1      -0.163   1.934  -1.696  1.00  0.00     0.040 C 
HETATM    9  C8  UNL     1       1.169   1.212  -1.885  1.00  0.00     0.155 C 
HETATM   10  C9  UNL     1       1.069  -0.267  -1.503  1.00  0.00     0.064 C 
HETATM   11  C10 UNL     1       2.414  -1.004  -1.622  1.00  0.00     0.007 C 
HETATM   12  C11 UNL     1       2.212  -2.506  -1.392  1.00  0.00     0.035 C 
HETATM   13  C12 UNL     1       1.402  -2.774  -0.114  1.00  0.00     0.251 C 
HETATM   14  O1  UNL     1       2.200   1.862  -1.180  1.00  0.00    -0.223 OA
HETATM   15  C13 UNL     1      -0.190   2.226   0.911  1.00  0.00     0.156 C 
HETATM   16  O2  UNL     1       0.764   3.208   0.594  1.00  0.00    -0.223 OA
HETATM   17  C14 UNL     1       0.407   1.146   1.828  1.00  0.00     0.033 C 
HETATM   18  C15 UNL     1       1.125   0.002   1.079  1.00  0.00     0.038 C 
HETATM   19  C16 UNL     1       1.317   1.749   2.914  1.00  0.00     0.003 C 
ENDROOT
TORSDOF 0
