REMARK  5 active torsions:
REMARK  status: ('A' for Active; 'I' for Inactive)
REMARK    1  A    between atoms: C3_3  and  C4_4 
REMARK    2  A    between atoms: C4_4  and  C5_5 
REMARK    3  A    between atoms: C6_6  and  O1_7 
REMARK    4  A    between atoms: C8_9  and  C17_21 
REMARK    5  A    between atoms: C12_14  and  C14_16 
ROOT
HETATM    1  C5  UNL     1       2.173   0.030  -0.828  1.00  0.00     0.044 A 
HETATM    2  C6  UNL     1       3.429   0.666  -0.683  1.00  0.00     0.101 A 
HETATM    3  C8  UNL     1       3.477   1.867   0.065  1.00  0.00     0.082 A 
HETATM    4  C9  UNL     1       2.343   2.516   0.569  1.00  0.00     0.134 A 
HETATM    5  C10 UNL     1       1.124   1.884   0.358  1.00  0.00     0.028 A 
HETATM    6  C11 UNL     1       1.046   0.652  -0.276  1.00  0.00     0.094 A 
HETATM    7  O2  UNL     1      -0.263   0.211  -0.228  1.00  0.00    -0.331 OA
HETATM    8  C12 UNL     1      -1.012   1.023   0.683  1.00  0.00     0.154 C 
HETATM    9  C13 UNL     1      -0.235   2.357   0.779  1.00  0.00     0.063 C 
HETATM   10  O4  UNL     1       2.430   3.659   1.300  1.00  0.00    -0.190 OA
ENDROOT
BRANCH   1  11
HETATM   11  C4  UNL     1       2.153  -1.312  -1.545  1.00  0.00     0.003 C 
BRANCH  11  12
HETATM   12  C3  UNL     1       0.871  -2.052  -1.821  1.00  0.00    -0.008 C 
HETATM   13  C2  UNL     1       0.765  -3.385  -1.989  1.00  0.00    -0.044 C 
HETATM   14  C1  UNL     1      -0.565  -4.037  -2.287  1.00  0.00     0.026 C 
HETATM   15  C19 UNL     1       1.927  -4.352  -1.933  1.00  0.00     0.026 C 
ENDBRANCH  11  12
ENDBRANCH   1  11
BRANCH   2  16
HETATM   16  O1  UNL     1       4.489   0.003  -1.263  1.00  0.00    -0.328 OA
HETATM   17  C7  UNL     1       5.824   0.368  -1.036  1.00  0.00     0.181 C 
ENDBRANCH   2  16
BRANCH   3  18
HETATM   18  C17 UNL     1       4.759   2.591   0.416  1.00  0.00     0.177 C 
HETATM   19  O5  UNL     1       5.450   2.209   1.342  1.00  0.00    -0.291 OA
HETATM   20  C18 UNL     1       5.005   3.939  -0.236  1.00  0.00     0.077 C 
ENDBRANCH   3  18
BRANCH   8  21
HETATM   21  C14 UNL     1      -1.254   0.277   2.017  1.00  0.00     0.152 C 
HETATM   22  C15 UNL     1      -2.756   0.142   2.289  1.00  0.00     0.036 C 
HETATM   23  O3  UNL     1      -0.709   0.994   3.095  1.00  0.00    -0.224 OA
HETATM   24  C16 UNL     1      -0.611  -1.113   2.052  1.00  0.00     0.036 C 
ENDBRANCH   8  21
TORSDOF 5
