REMARK  7 active torsions:
REMARK  status: ('A' for Active; 'I' for Inactive)
REMARK    1  A    between atoms: C3_3  and  C4_4 
REMARK    2  A    between atoms: C4_4  and  C5_5 
REMARK    3  A    between atoms: C6_6  and  O1_7 
REMARK    4  A    between atoms: C8_9  and  C17_21 
REMARK    5  A    between atoms: C10_11  and  C12_14 
REMARK    6  A    between atoms: C12_14  and  C13_15 
REMARK    7  A    between atoms: C13_15  and  C14_16 
ROOT
HETATM    1  C5  UNL     1       4.586   0.328   0.293  1.00  0.00     0.030 A 
HETATM    2  C6  UNL     1       5.098  -0.907   0.734  1.00  0.00     0.097 A 
HETATM    3  C8  UNL     1       4.177  -1.857   1.208  1.00  0.00     0.082 A 
HETATM    4  C9  UNL     1       2.793  -1.688   1.129  1.00  0.00     0.140 A 
HETATM    5  C10 UNL     1       2.324  -0.472   0.624  1.00  0.00     0.085 A 
HETATM    6  C11 UNL     1       3.198   0.535   0.188  1.00  0.00     0.134 A 
HETATM    7  O2  UNL     1       2.703   1.706  -0.304  1.00  0.00    -0.190 OA
HETATM    8  O4  UNL     1       1.959  -2.626   1.648  1.00  0.00    -0.190 OA
ENDROOT
BRANCH   5   9
HETATM    9  C12 UNL     1       0.842  -0.224   0.539  1.00  0.00     0.177 C 
HETATM   10  O3  UNL     1       0.389   0.830   0.959  1.00  0.00    -0.291 OA
BRANCH   9  11
HETATM   11  C13 UNL     1      -0.017  -1.248  -0.187  1.00  0.00     0.069 C 
BRANCH  11  12
HETATM   12  C14 UNL     1      -1.464  -0.815  -0.495  1.00  0.00     0.008 C 
HETATM   13  C15 UNL     1      -1.538   0.395  -1.442  1.00  0.00     0.001 C 
HETATM   14  C16 UNL     1      -2.240  -1.996  -1.109  1.00  0.00     0.001 C 
ENDBRANCH  11  12
ENDBRANCH   9  11
ENDBRANCH   5   9
BRANCH   3  15
HETATM   15  C17 UNL     1       4.693  -3.160   1.767  1.00  0.00     0.177 C 
HETATM   16  O5  UNL     1       5.389  -3.206   2.771  1.00  0.00    -0.291 OA
HETATM   17  C18 UNL     1       4.280  -4.425   1.040  1.00  0.00     0.077 C 
ENDBRANCH   3  15
BRANCH   1  18
HETATM   18  C4  UNL     1       5.539   1.422  -0.165  1.00  0.00     0.056 C 
BRANCH  18  19
HETATM   19  C3  UNL     1       5.199   2.805   0.332  1.00  0.00    -0.030 C 
HETATM   20  C2  UNL     1       5.576   3.954  -0.258  1.00  0.00    -0.048 C 
HETATM   21  C1  UNL     1       5.131   5.294   0.280  1.00  0.00     0.026 C 
HETATM   22  C19 UNL     1       6.463   4.033  -1.478  1.00  0.00     0.026 C 
ENDBRANCH  18  19
ENDBRANCH   1  18
BRANCH   2  23
HETATM   23  O1  UNL     1       6.444  -1.118   0.894  1.00  0.00    -0.328 OA
HETATM   24  C7  UNL     1       7.082  -1.633  -0.254  1.00  0.00     0.181 C 
ENDBRANCH   2  23
TORSDOF 7
