REMARK  5 active torsions:
REMARK  status: ('A' for Active; 'I' for Inactive)
REMARK    1  A    between atoms: C3_3  and  C4_4 
REMARK    2  A    between atoms: C4_4  and  C5_5 
REMARK    3  A    between atoms: C6_6  and  O1_7 
REMARK    4  A    between atoms: C8_9  and  C13_17 
REMARK    5  A    between atoms: C10_11  and  C12_14 
ROOT
HETATM    1  C5  UNL     1       0.931   0.003  -0.120  1.00  0.00     0.030 C 
HETATM    2  C6  UNL     1       1.407  -1.184   0.465  1.00  0.00     0.097 C 
HETATM    3  C8  UNL     1       0.445  -2.091   0.926  1.00  0.00     0.082 C 
HETATM    4  C9  UNL     1      -0.924  -1.942   0.712  1.00  0.00     0.141 C 
HETATM    5  C10 UNL     1      -1.359  -0.793   0.027  1.00  0.00     0.093 C 
HETATM    6  C11 UNL     1      -0.439   0.184  -0.394  1.00  0.00     0.134 C 
HETATM    7  O2  UNL     1      -0.826   1.312  -1.053  1.00  0.00    -0.190 OA
HETATM    8  O4  UNL     1      -1.788  -2.862   1.217  1.00  0.00    -0.190 OA
ENDROOT
BRANCH   1   9
HETATM    9  C4  UNL     1       1.902   1.097  -0.532  1.00  0.00     0.056 C 
BRANCH   9  10
HETATM   10  C3  UNL     1       1.549   2.446   0.044  1.00  0.00    -0.030 C 
HETATM   11  C2  UNL     1       1.897   3.638  -0.473  1.00  0.00    -0.048 C 
HETATM   12  C1  UNL     1       1.472   4.933   0.180  1.00  0.00     0.026 C 
HETATM   13  C15 UNL     1       2.730   3.812  -1.721  1.00  0.00     0.026 C 
ENDBRANCH   9  10
ENDBRANCH   1   9
BRANCH   2  14
HETATM   14  O1  UNL     1       2.730  -1.373   0.771  1.00  0.00    -0.328 OA
HETATM   15  C7  UNL     1       3.464  -1.977  -0.270  1.00  0.00     0.181 C 
ENDBRANCH   2  14
BRANCH   3  16
HETATM   16  C13 UNL     1       0.899  -3.329   1.673  1.00  0.00     0.177 C 
HETATM   17  O5  UNL     1       1.192  -3.281   2.854  1.00  0.00    -0.291 OA
HETATM   18  C14 UNL     1       0.824  -4.641   0.916  1.00  0.00     0.077 C 
ENDBRANCH   3  16
BRANCH   5  19
HETATM   19  C12 UNL     1      -2.821  -0.643  -0.208  1.00  0.00     0.238 C 
HETATM   20  O3  UNL     1      -3.344   0.302  -0.777  1.00  0.00    -0.283 OA
ENDBRANCH   5  19
TORSDOF 5
