REMARK  0 active torsions:
REMARK  status: ('A' for Active; 'I' for Inactive)
ROOT
HETATM    1  C1  UNL     1       0.081   0.663   0.291  1.00  0.00     0.117 C 
HETATM    2  O1  UNL     1       1.190   0.411  -0.520  1.00  0.00    -0.303 OA
HETATM    3  C2  UNL     1       1.183  -0.846  -1.025  1.00  0.00     0.272 C 
HETATM    4  C3  UNL     1      -0.083  -1.551  -0.584  1.00  0.00     0.089 C 
HETATM    5  C4  UNL     1      -0.610  -0.680   0.565  1.00  0.00     0.043 C 
HETATM    6  C5  UNL     1      -2.129  -0.435   0.500  1.00  0.00     0.029 C 
HETATM    7  C6  UNL     1      -2.197   0.824  -0.316  1.00  0.00    -0.032 C 
HETATM    8  C7  UNL     1      -1.005   1.421  -0.438  1.00  0.00    -0.023 C 
HETATM    9  C8  UNL     1      -0.739   2.706  -1.165  1.00  0.00     0.028 C 
HETATM   10  C9  UNL     1       0.144  -3.012  -0.182  1.00  0.00     0.011 C 
HETATM   11  O2  UNL     1       2.051  -1.316  -1.728  1.00  0.00    -0.264 OA
HETATM   12  C10 UNL     1       0.514   1.379   1.567  1.00  0.00     0.035 C 
ENDROOT
TORSDOF 0
