REMARK  6 active torsions:
REMARK  status: ('A' for Active; 'I' for Inactive)
REMARK    1  A    between atoms: C1_1  and  C6_8 
REMARK    2  A    between atoms: C1_1  and  O3_18 
REMARK    3  A    between atoms: C6_8  and  C7_9 
REMARK    4  A    between atoms: C8_10  and  C9_11 
REMARK    5  A    between atoms: C9_11  and  C10_12 
REMARK    6  A    between atoms: C10_12  and  C11_13 
ROOT
HETATM    1  C6  UNL     1       0.490  -0.044   2.436  1.00  0.00     0.086 C 
ENDROOT
BRANCH   1   2
HETATM    2  C1  UNL     1       0.177   1.212   3.247  1.00  0.00     0.216 A 
HETATM    3  C2  UNL     1      -1.205   1.773   2.935  1.00  0.00     0.013 A 
HETATM    4  C3  UNL     1      -1.968   1.795   4.040  1.00  0.00     0.065 A 
HETATM    5  C5  UNL     1      -1.625   2.260   1.582  1.00  0.00     0.031 C 
HETATM    6  C4  UNL     1      -1.108   1.232   5.094  1.00  0.00     0.297 A 
HETATM    7  O1  UNL     1       0.126   0.879   4.639  1.00  0.00    -0.274 OA
HETATM    8  O2  UNL     1      -1.470   1.083   6.256  1.00  0.00    -0.259 OA
BRANCH   2   9
HETATM    9  O3  UNL     1       1.133   2.252   3.117  1.00  0.00    -0.328 OA
HETATM   10  C16 UNL     1       2.470   1.867   3.356  1.00  0.00     0.177 C 
ENDBRANCH   2   9
ENDBRANCH   1   2
BRANCH   1  11
HETATM   11  C7  UNL     1       0.907   0.185   1.002  1.00  0.00    -0.029 C 
HETATM   12  C8  UNL     1       1.318  -0.772   0.150  1.00  0.00    -0.048 C 
HETATM   13  C15 UNL     1       1.389  -2.237   0.511  1.00  0.00     0.026 C 
BRANCH  12  14
HETATM   14  C9  UNL     1       1.755  -0.428  -1.260  1.00  0.00     0.026 C 
BRANCH  14  15
HETATM   15  C10 UNL     1       0.692  -0.774  -2.313  1.00  0.00     0.030 C 
BRANCH  15  16
HETATM   16  C11 UNL     1       1.175  -0.387  -3.691  1.00  0.00    -0.034 C 
HETATM   17  C12 UNL     1       1.654  -1.198  -4.651  1.00  0.00    -0.048 C 
HETATM   18  C13 UNL     1       2.108  -0.641  -5.982  1.00  0.00     0.026 C 
HETATM   19  C14 UNL     1       1.798  -2.697  -4.530  1.00  0.00     0.026 C 
ENDBRANCH  15  16
ENDBRANCH  14  15
ENDBRANCH  12  14
ENDBRANCH   1  11
TORSDOF 6
