REMARK  12 active torsions:
REMARK  status: ('A' for Active; 'I' for Inactive)
REMARK    1  A    between atoms: C10_13  and  C14_18 
REMARK    2  A    between atoms: C14_18  and  C15_19 
REMARK    3  A    between atoms: C15_19  and  C16_20 
REMARK    4  A    between atoms: C16_20  and  C17_21 
REMARK    5  A    between atoms: C17_21  and  C18_22 
REMARK    6  A    between atoms: C18_22  and  C19_23 
REMARK    7  A    between atoms: C19_23  and  C20_24 
REMARK    8  A    between atoms: C20_24  and  C21_25 
REMARK    9  A    between atoms: C21_25  and  C22_26 
REMARK   10  A    between atoms: C22_26  and  C23_27 
REMARK   11  A    between atoms: C23_27  and  C24_28 
REMARK   12  A    between atoms: C24_28  and  C25_29 
ROOT
HETATM    1  C1  UNL     1      12.490   3.636  -0.457  1.00  0.00     0.040 A 
HETATM    2  C2  UNL     1      12.261   2.315  -0.548  1.00  0.00     0.008 A 
HETATM    3  C3  UNL     1      13.330   1.272  -0.781  1.00  0.00     0.132 A 
HETATM    4  C4  UNL     1      14.686   1.911  -0.998  1.00  0.00     0.008 A 
HETATM    5  C5  UNL     1      14.928   3.230  -0.909  1.00  0.00     0.040 A 
HETATM    6  C6  UNL     1      13.850   4.201  -0.606  1.00  0.00     0.195 A 
HETATM    7  O1  UNL     1      14.068   5.404  -0.513  1.00  0.00    -0.287 OA
HETATM    8  C7  UNL     1      12.978   0.379  -1.976  1.00  0.00     0.041 C 
HETATM    9  C8  UNL     1      13.429  -0.997  -1.485  1.00  0.00     0.060 C 
HETATM   10  C9  UNL     1      13.092  -0.894  -0.006  1.00  0.00     0.190 C 
HETATM   11  O2  UNL     1      13.425   0.425   0.349  1.00  0.00    -0.331 OA
HETATM   12  O3  UNL     1      11.698  -1.030   0.156  1.00  0.00    -0.337 OA
HETATM   13  C10 UNL     1      11.266  -1.485   1.411  1.00  0.00     0.120 C 
HETATM   14  C11 UNL     1      12.201  -1.064   2.543  1.00  0.00     0.063 C 
HETATM   15  C12 UNL     1      13.579  -1.688   2.336  1.00  0.00     0.160 C 
HETATM   16  C13 UNL     1      13.866  -1.883   0.849  1.00  0.00     0.089 C 
HETATM   17  O4  UNL     1      14.556  -0.857   2.918  1.00  0.00    -0.223 OA
ENDROOT
BRANCH  13  18
HETATM   18  C14 UNL     1       9.838  -0.977   1.651  1.00  0.00     0.030 C 
BRANCH  18  19
HETATM   19  C15 UNL     1       8.784  -1.714   0.808  1.00  0.00     0.003 C 
BRANCH  19  20
HETATM   20  C16 UNL     1       7.375  -1.145   1.049  1.00  0.00     0.000 C 
BRANCH  20  21
HETATM   21  C17 UNL     1       6.267  -2.056   0.496  1.00  0.00     0.000 C 
BRANCH  21  22
HETATM   22  C18 UNL     1       4.873  -1.441   0.709  1.00  0.00     0.000 C 
BRANCH  22  23
HETATM   23  C19 UNL     1       3.743  -2.406   0.315  1.00  0.00     0.000 C 
BRANCH  23  24
HETATM   24  C20 UNL     1       2.334  -1.826   0.536  1.00  0.00     0.000 C 
BRANCH  24  25
HETATM   25  C21 UNL     1       1.988  -0.682  -0.430  1.00  0.00     0.000 C 
BRANCH  25  26
HETATM   26  C22 UNL     1       0.549  -0.171  -0.242  1.00  0.00     0.000 C 
BRANCH  26  27
HETATM   27  C23 UNL     1       0.224   0.965  -1.226  1.00  0.00     0.000 C 
BRANCH  27  28
HETATM   28  C24 UNL     1      -1.204   1.504  -1.044  1.00  0.00     0.000 C 
BRANCH  28  29
HETATM   29  C25 UNL     1      -1.515   2.635  -2.038  1.00  0.00     0.000 C 
HETATM   30  C26 UNL     1      -2.937   3.182  -1.857  1.00  0.00     0.000 C 
ENDBRANCH  28  29
ENDBRANCH  27  28
ENDBRANCH  26  27
ENDBRANCH  25  26
ENDBRANCH  24  25
ENDBRANCH  23  24
ENDBRANCH  22  23
ENDBRANCH  21  22
ENDBRANCH  20  21
ENDBRANCH  19  20
ENDBRANCH  18  19
ENDBRANCH  13  18
TORSDOF 12
