REMARK  6 active torsions:
REMARK  status: ('A' for Active; 'I' for Inactive)
REMARK    1  A    between atoms: C8_9  and  C9_10 
REMARK    2  A    between atoms: C9_10  and  C10_12 
REMARK    3  A    between atoms: C10_12  and  C11_13 
REMARK    4  A    between atoms: C12_14  and  O3_15 
REMARK    5  A    between atoms: O3_15  and  C13_16 
REMARK    6  A    between atoms: C14_18  and  C18_25 
ROOT
HETATM    1  C11 UNL     1       0.338   0.373  -1.269  1.00  0.00     0.008 A 
HETATM    2  C12 UNL     1      -0.312  -0.234  -0.176  1.00  0.00     0.093 A 
HETATM    3  C19 UNL     1      -1.690  -0.471  -0.296  1.00  0.00     0.024 A 
HETATM    4  C20 UNL     1      -2.405  -0.156  -1.451  1.00  0.00     0.002 A 
HETATM    5  C21 UNL     1      -1.740   0.393  -2.543  1.00  0.00    -0.000 A 
HETATM    6  C22 UNL     1      -0.374   0.650  -2.443  1.00  0.00    -0.002 A 
ENDROOT
BRANCH   1   7
HETATM    7  C10 UNL     1       1.806   0.733  -1.155  1.00  0.00     0.098 C 
BRANCH   7   8
HETATM    8  C9  UNL     1       2.300   1.816  -2.105  1.00  0.00     0.181 C 
HETATM    9  O2  UNL     1       3.280   1.581  -2.813  1.00  0.00    -0.291 OA
BRANCH   8  10
HETATM   10  C8  UNL     1       1.591   3.097  -2.248  1.00  0.00     0.080 A 
HETATM   11  C5  UNL     1       0.516   3.654  -1.449  1.00  0.00     0.029 A 
HETATM   12  C4  UNL     1      -0.123   3.294  -0.249  1.00  0.00     0.002 A 
HETATM   13  C6  UNL     1       0.122   4.812  -2.126  1.00  0.00     0.102 A 
HETATM   14  C3  UNL     1      -1.189   4.069   0.189  1.00  0.00     0.000 A 
HETATM   15  C2  UNL     1      -1.611   5.207  -0.530  1.00  0.00     0.002 A 
HETATM   16  C1  UNL     1      -0.953   5.600  -1.688  1.00  0.00     0.025 A 
HETATM   17  O1  UNL     1       0.899   5.018  -3.245  1.00  0.00    -0.288 OA
HETATM   18  C7  UNL     1       1.787   3.977  -3.301  1.00  0.00     0.206 A 
HETATM   19  N1  UNL     1       2.686   3.808  -4.323  1.00  0.00    -0.121 N 
ENDBRANCH   8  10
ENDBRANCH   7   8
ENDBRANCH   1   7
BRANCH   2  20
HETATM   20  O3  UNL     1       0.426  -0.623   0.914  1.00  0.00    -0.304 OA
BRANCH  20  21
HETATM   21  C13 UNL     1       0.093  -1.859   1.515  1.00  0.00     0.274 C 
HETATM   22  O4  UNL     1       1.033  -1.943   2.572  1.00  0.00    -0.326 OA
HETATM   23  C14 UNL     1       0.848  -3.083   3.372  1.00  0.00     0.184 C 
HETATM   24  C15 UNL     1       1.011  -4.342   2.527  1.00  0.00     0.215 C 
HETATM   25  C16 UNL     1       0.070  -4.303   1.344  1.00  0.00     0.220 C 
HETATM   26  O7  UNL     1       0.709  -5.495   3.274  1.00  0.00    -0.218 OA
HETATM   27  C17 UNL     1       0.304  -3.025   0.567  1.00  0.00     0.241 C 
HETATM   28  O6  UNL     1       0.307  -5.412   0.516  1.00  0.00    -0.218 OA
HETATM   29  O5  UNL     1      -0.603  -3.016  -0.507  1.00  0.00    -0.215 OA
BRANCH  23  30
HETATM   30  C18 UNL     1       1.861  -3.054   4.509  1.00  0.00     0.214 C 
HETATM   31  O8  UNL     1       1.607  -1.949   5.353  1.00  0.00    -0.218 OA
ENDBRANCH  23  30
ENDBRANCH  20  21
ENDBRANCH   2  20
TORSDOF 6
