REMARK  5 active torsions:
REMARK  status: ('A' for Active; 'I' for Inactive)
REMARK    1  A    between atoms: C3_3  and  O4_21 
REMARK    2  A    between atoms: C7_7  and  O3_19 
REMARK    3  A    between atoms: C8_8  and  C11_13 
REMARK    4  A    between atoms: C11_13  and  C12_14 
REMARK    5  A    between atoms: C12_14  and  C13_16 
ROOT
HETATM    1  C1  UNL     1      -2.263   0.922  -1.277  1.00  0.00     0.002 C 
HETATM    2  C2  UNL     1      -2.408  -0.451  -1.113  1.00  0.00     0.026 C 
HETATM    3  C3  UNL     1      -1.343  -1.288  -0.754  1.00  0.00     0.110 C 
HETATM    4  C4  UNL     1      -0.032  -0.742  -0.707  1.00  0.00     0.087 A 
HETATM    5  C5  UNL     1       0.111   0.659  -0.818  1.00  0.00     0.040 A 
HETATM    6  C6  UNL     1      -1.003   1.472  -1.099  1.00  0.00     0.004 C 
HETATM    7  C7  UNL     1       1.402   1.348  -0.631  1.00  0.00     0.096 A 
HETATM    8  C8  UNL     1       2.501   0.566  -0.483  1.00  0.00     0.059 A 
HETATM    9  C9  UNL     1       2.346  -0.904  -0.427  1.00  0.00     0.259 A 
HETATM   10  N1  UNL     1       1.101  -1.478  -0.523  1.00  0.00    -0.292 N 
HETATM   11  C10 UNL     1       1.070  -2.947  -0.450  1.00  0.00     0.134 C 
HETATM   12  O1  UNL     1       3.361  -1.578  -0.307  1.00  0.00    -0.267 OA
ENDROOT
BRANCH   8  13
HETATM   13  C11 UNL     1       3.911   1.122  -0.382  1.00  0.00     0.070 C 
BRANCH  13  14
HETATM   14  C12 UNL     1       4.514   0.924   1.012  1.00  0.00     0.175 C 
HETATM   15  O2  UNL     1       3.747   1.618   1.976  1.00  0.00    -0.219 OA
BRANCH  14  16
HETATM   16  C13 UNL     1       5.959   1.370   1.095  1.00  0.00    -0.014 C 
HETATM   17  C14 UNL     1       6.958   0.473   1.118  1.00  0.00    -0.007 C 
HETATM   18  C15 UNL     1       6.236   2.853   1.135  1.00  0.00     0.029 C 
ENDBRANCH  14  16
ENDBRANCH  13  14
ENDBRANCH   8  13
BRANCH   7  19
HETATM   19  O3  UNL     1       1.517   2.701  -0.841  1.00  0.00    -0.328 OA
HETATM   20  C16 UNL     1       1.350   3.491   0.314  1.00  0.00     0.181 C 
ENDBRANCH   7  19
BRANCH   3  21
HETATM   21  O4  UNL     1      -1.636  -2.624  -0.656  1.00  0.00    -0.327 OA
HETATM   22  C17 UNL     1      -2.264  -2.987   0.554  1.00  0.00     0.181 C 
ENDBRANCH   3  21
TORSDOF 5
