REMARK  3 active torsions:
REMARK  status: ('A' for Active; 'I' for Inactive)
REMARK    1  A    between atoms: C3_3  and  C20_26 
REMARK    2  A    between atoms: C20_26  and  O7_27 
REMARK    3  A    between atoms: O7_27  and  C21_28 
ROOT
HETATM    1  C1  UNL     1      -1.795   1.248  -0.731  1.00  0.00     0.033 C 
HETATM    2  C2  UNL     1      -2.193   0.383   0.471  1.00  0.00     0.005 C 
HETATM    3  C3  UNL     1      -1.234  -0.816   0.661  1.00  0.00     0.031 C 
HETATM    4  C4  UNL     1       0.209  -0.226   0.775  1.00  0.00     0.043 C 
HETATM    5  C5  UNL     1       0.732   0.741  -0.334  1.00  0.00     0.061 C 
HETATM    6  C6  UNL     1      -0.372   1.784  -0.608  1.00  0.00     0.155 C 
HETATM    7  O1  UNL     1      -0.116   2.520  -1.779  1.00  0.00    -0.223 OA
HETATM    8  C7  UNL     1       2.057   1.434   0.170  1.00  0.00     0.047 C 
HETATM    9  C8  UNL     1       3.164   0.358   0.317  1.00  0.00     0.110 C 
HETATM   10  C9  UNL     1       2.485  -0.993   0.174  1.00  0.00     0.254 C 
HETATM   11  C10 UNL     1       1.311  -1.241   1.097  1.00  0.00     0.206 C 
HETATM   12  O2  UNL     1       1.661  -1.149   2.457  1.00  0.00    -0.218 OA
HETATM   13  O3  UNL     1       3.419  -2.040   0.286  1.00  0.00    -0.192 OA
HETATM   14  O4  UNL     1       2.042  -1.155  -1.147  1.00  0.00    -0.330 OA
HETATM   15  C11 UNL     1       1.130  -0.146  -1.524  1.00  0.00     0.147 C 
HETATM   16  C12 UNL     1       4.324   0.620  -0.675  1.00  0.00     0.017 C 
HETATM   17  C13 UNL     1       4.945   1.910  -0.109  1.00  0.00     0.028 C 
HETATM   18  C14 UNL     1       3.982   3.106  -0.210  1.00  0.00     0.037 C 
HETATM   19  C15 UNL     1       2.550   2.698  -0.574  1.00  0.00     0.153 C 
HETATM   20  O5  UNL     1       2.514   2.555  -1.976  1.00  0.00    -0.223 OA
HETATM   21  C16 UNL     1       5.031   1.504   1.337  1.00  0.00     0.012 C 
HETATM   22  C17 UNL     1       3.959   0.532   1.621  1.00  0.00     0.173 C 
HETATM   23  O6  UNL     1       3.831  -0.070   2.676  1.00  0.00    -0.291 OA
HETATM   24  C18 UNL     1       5.908   1.947   2.254  1.00  0.00    -0.002 C 
HETATM   25  C19 UNL     1      -1.600  -1.495   2.007  1.00  0.00     0.003 C 
ENDROOT
BRANCH   3  26
HETATM   26  C20 UNL     1      -1.548  -1.840  -0.457  1.00  0.00     0.152 C 
BRANCH  26  27
HETATM   27  O7  UNL     1      -0.609  -2.876  -0.498  1.00  0.00    -0.302 OA
BRANCH  27  28
HETATM   28  C21 UNL     1      -0.597  -3.687  -1.587  1.00  0.00     0.272 C 
HETATM   29  C22 UNL     1       0.550  -4.675  -1.502  1.00  0.00     0.106 C 
HETATM   30  O8  UNL     1      -1.373  -3.617  -2.513  1.00  0.00    -0.264 OA
ENDBRANCH  27  28
ENDBRANCH  26  27
ENDBRANCH   3  26
TORSDOF 3
