REMARK  4 active torsions:
REMARK  status: ('A' for Active; 'I' for Inactive)
REMARK    1  A    between atoms: C2_2  and  O6_28 
REMARK    2  A    between atoms: C9_10  and  O2_12 
REMARK    3  A    between atoms: O2_12  and  C11_13 
REMARK    4  A    between atoms: O6_28  and  C23_29 
ROOT
HETATM    1  C1  UNL     1       5.059  -1.387  -2.162  1.00  0.00     0.063 C 
HETATM    2  C2  UNL     1       5.914  -0.279  -1.547  1.00  0.00     0.127 C 
HETATM    3  C3  UNL     1       5.094   0.996  -1.234  1.00  0.00     0.026 C 
HETATM    4  C4  UNL     1       3.789   0.596  -0.478  1.00  0.00     0.007 C 
HETATM    5  C5  UNL     1       2.860  -0.499  -1.099  1.00  0.00     0.031 C 
HETATM    6  C6  UNL     1       3.808  -1.711  -1.340  1.00  0.00     0.155 C 
HETATM    7  O1  UNL     1       3.162  -2.783  -1.983  1.00  0.00    -0.223 OA
HETATM    8  C7  UNL     1       1.713  -0.857  -0.068  1.00  0.00     0.038 C 
HETATM    9  C8  UNL     1       1.036   0.319   0.715  1.00  0.00     0.060 C 
HETATM   10  C9  UNL     1       2.050   1.369   1.194  1.00  0.00     0.127 C 
HETATM   11  C10 UNL     1       2.982   1.790   0.061  1.00  0.00     0.030 C 
HETATM   12  C13 UNL     1      -0.091   0.954  -0.129  1.00  0.00     0.009 C 
HETATM   13  C14 UNL     1      -1.168  -0.136  -0.105  1.00  0.00     0.023 C 
HETATM   14  C15 UNL     1      -0.710  -1.294  -0.993  1.00  0.00     0.037 C 
HETATM   15  C16 UNL     1       0.646  -1.869  -0.564  1.00  0.00     0.153 C 
HETATM   16  O4  UNL     1       0.430  -2.843   0.434  1.00  0.00    -0.223 OA
HETATM   17  C17 UNL     1      -1.135  -0.561   1.335  1.00  0.00    -0.015 C 
HETATM   18  C18 UNL     1       0.207  -0.216   1.914  1.00  0.00     0.173 C 
HETATM   19  O5  UNL     1      -0.019   0.788   2.886  1.00  0.00    -0.219 OA
HETATM   20  C19 UNL     1      -2.135  -1.147   2.004  1.00  0.00    -0.007 C 
HETATM   21  C20 UNL     1       2.237  -0.063  -2.444  1.00  0.00     0.003 C 
HETATM   22  C21 UNL     1       4.850   1.807  -2.527  1.00  0.00     0.002 C 
HETATM   23  C22 UNL     1       5.979   1.926  -0.352  1.00  0.00     0.002 C 
ENDROOT
BRANCH   2  24
HETATM   24  O6  UNL     1       6.524  -0.756  -0.378  1.00  0.00    -0.304 OA
BRANCH  24  25
HETATM   25  C23 UNL     1       7.669  -1.482  -0.500  1.00  0.00     0.272 C 
HETATM   26  C24 UNL     1       8.245  -1.781   0.869  1.00  0.00     0.106 C 
HETATM   27  O7  UNL     1       8.174  -1.821  -1.546  1.00  0.00    -0.264 OA
ENDBRANCH  24  25
ENDBRANCH   2  24
BRANCH  10  28
HETATM   28  O2  UNL     1       2.799   0.839   2.255  1.00  0.00    -0.304 OA
BRANCH  28  29
HETATM   29  C11 UNL     1       3.008   1.470   3.446  1.00  0.00     0.272 C 
HETATM   30  O3  UNL     1       3.573   0.921   4.368  1.00  0.00    -0.264 OA
HETATM   31  C12 UNL     1       2.586   2.925   3.544  1.00  0.00     0.106 C 
ENDBRANCH  28  29
ENDBRANCH  10  28
TORSDOF 4
