REMARK  4 active torsions:
REMARK  status: ('A' for Active; 'I' for Inactive)
REMARK    1  A    between atoms: C2_2  and  O6_28 
REMARK    2  A    between atoms: C9_10  and  O2_12 
REMARK    3  A    between atoms: O2_12  and  C11_13 
REMARK    4  A    between atoms: O6_28  and  C23_29 
ROOT
HETATM    1  C1  UNL     1       5.081  -1.409  -2.100  1.00  0.00     0.063 C 
HETATM    2  C2  UNL     1       5.936  -0.284  -1.515  1.00  0.00     0.127 C 
HETATM    3  C3  UNL     1       5.117   0.996  -1.224  1.00  0.00     0.026 C 
HETATM    4  C4  UNL     1       3.821   0.612  -0.446  1.00  0.00     0.007 C 
HETATM    5  C5  UNL     1       2.892  -0.505  -1.030  1.00  0.00     0.031 C 
HETATM    6  C6  UNL     1       3.836  -1.720  -1.264  1.00  0.00     0.155 C 
HETATM    7  O1  UNL     1       3.176  -2.793  -1.891  1.00  0.00    -0.223 OA
HETATM    8  C7  UNL     1       1.767  -0.845   0.029  1.00  0.00     0.042 C 
HETATM    9  C8  UNL     1       1.117   0.353   0.782  1.00  0.00     0.084 C 
HETATM   10  C9  UNL     1       2.125   1.408   1.259  1.00  0.00     0.131 C 
HETATM   11  C10 UNL     1       3.017   1.816   0.084  1.00  0.00     0.031 C 
HETATM   12  C13 UNL     1      -0.013   0.993  -0.061  1.00  0.00     0.014 C 
HETATM   13  C14 UNL     1      -1.124  -0.061  -0.012  1.00  0.00     0.028 C 
HETATM   14  C15 UNL     1      -0.679  -1.262  -0.851  1.00  0.00     0.037 C 
HETATM   15  C16 UNL     1       0.669  -1.852  -0.407  1.00  0.00     0.153 C 
HETATM   16  O4  UNL     1       0.423  -2.740   0.662  1.00  0.00    -0.223 OA
HETATM   17  C17 UNL     1      -1.095  -0.400   1.450  1.00  0.00     0.012 C 
HETATM   18  C18 UNL     1       0.275  -0.183   1.955  1.00  0.00     0.171 C 
HETATM   19  O5  UNL     1       0.648  -0.349   3.108  1.00  0.00    -0.292 OA
HETATM   20  C19 UNL     1      -2.116  -0.843   2.203  1.00  0.00    -0.002 C 
HETATM   21  C20 UNL     1       2.250  -0.106  -2.377  1.00  0.00     0.003 C 
HETATM   22  C21 UNL     1       4.852   1.775  -2.532  1.00  0.00     0.002 C 
HETATM   23  C22 UNL     1       6.011   1.948  -0.376  1.00  0.00     0.002 C 
ENDROOT
BRANCH   2  24
HETATM   24  O6  UNL     1       6.550  -0.740  -0.340  1.00  0.00    -0.304 OA
BRANCH  24  25
HETATM   25  C23 UNL     1       7.715  -1.434  -0.449  1.00  0.00     0.272 C 
HETATM   26  C24 UNL     1       8.279  -1.718   0.928  1.00  0.00     0.106 C 
HETATM   27  O7  UNL     1       8.242  -1.759  -1.489  1.00  0.00    -0.264 OA
ENDBRANCH  24  25
ENDBRANCH   2  24
BRANCH  10  28
HETATM   28  O2  UNL     1       2.953   0.908   2.276  1.00  0.00    -0.304 OA
BRANCH  28  29
HETATM   29  C11 UNL     1       2.965   1.341   3.570  1.00  0.00     0.272 C 
HETATM   30  O3  UNL     1       3.719   0.866   4.393  1.00  0.00    -0.264 OA
HETATM   31  C12 UNL     1       2.028   2.479   3.935  1.00  0.00     0.106 C 
ENDBRANCH  28  29
ENDBRANCH  10  28
TORSDOF 4
