REMARK  5 active torsions:
REMARK  status: ('A' for Active; 'I' for Inactive)
REMARK    1  A    between atoms: C11_11  and  C27_27 
REMARK    2  A    between atoms: C15_15  and  C18_18 
REMARK    3  A    between atoms: C20_20  and  C21_21 
REMARK    4  A    between atoms: C21_21  and  C22_22 
REMARK    5  A    between atoms: C22_22  and  C23_23 
ROOT
HETATM    1  C1  UNL     1      -1.467  -1.507  -4.332  1.00  0.00     0.000 C 
HETATM    2  C2  UNL     1      -2.363  -2.297  -3.376  1.00  0.00     0.000 C 
HETATM    3  C3  UNL     1      -1.530  -3.135  -2.377  1.00  0.00     0.000 C 
HETATM    4  C4  UNL     1      -0.157  -2.451  -2.085  1.00  0.00     0.000 C 
HETATM    5  C5  UNL     1      -0.126  -0.892  -2.177  1.00  0.00     0.000 C 
HETATM    6  C6  UNL     1      -0.619  -0.463  -3.588  1.00  0.00     0.000 C 
HETATM    7  C7  UNL     1       1.348  -0.390  -1.976  1.00  0.00     0.000 C 
HETATM    8  C8  UNL     1       1.967  -0.933  -0.661  1.00  0.00     0.003 C 
HETATM    9  C9  UNL     1       1.970  -2.470  -0.678  1.00  0.00     0.000 C 
HETATM   10  C10 UNL     1       0.533  -2.993  -0.817  1.00  0.00     0.000 C 
HETATM   11  C11 UNL     1       3.340  -0.283  -0.358  1.00  0.00     0.031 C 
HETATM   12  C12 UNL     1       3.095   1.252  -0.196  1.00  0.00     0.006 C 
HETATM   13  C13 UNL     1       2.833   1.790  -1.613  1.00  0.00     0.000 C 
HETATM   14  C14 UNL     1       1.588   1.125  -2.249  1.00  0.00     0.000 C 
HETATM   15  C15 UNL     1       4.365   1.745   0.554  1.00  0.00     0.018 C 
HETATM   16  C16 UNL     1       4.905   0.527   1.338  1.00  0.00     0.004 C 
HETATM   17  C17 UNL     1       3.953  -0.638   1.013  1.00  0.00     0.003 C 
HETATM   18  C26 UNL     1       1.861   1.663   0.649  1.00  0.00     0.000 C 
HETATM   19  C28 UNL     1      -1.057  -0.258  -1.113  1.00  0.00     0.000 C 
HETATM   20  C29 UNL     1      -2.383  -3.394  -1.114  1.00  0.00     0.000 C 
HETATM   21  C30 UNL     1      -1.281  -4.527  -3.017  1.00  0.00     0.000 C 
ENDROOT
BRANCH  15  22
HETATM   22  C18 UNL     1       4.309   3.061   1.323  1.00  0.00    -0.049 C 
HETATM   23  C19 UNL     1       4.763   4.261   0.511  1.00  0.00     0.026 C 
HETATM   24  C20 UNL     1       3.896   3.260   2.592  1.00  0.00    -0.035 C 
BRANCH  24  25
HETATM   25  C21 UNL     1       3.308   2.286   3.586  1.00  0.00     0.025 C 
BRANCH  25  26
HETATM   26  C22 UNL     1       1.943   2.780   4.102  1.00  0.00     0.005 C 
BRANCH  26  27
HETATM   27  C23 UNL     1       1.013   1.658   4.605  1.00  0.00     0.000 C 
HETATM   28  C24 UNL     1       1.650   0.812   5.718  1.00  0.00     0.000 C 
HETATM   29  C25 UNL     1      -0.325   2.246   5.088  1.00  0.00     0.000 C 
ENDBRANCH  26  27
ENDBRANCH  25  26
ENDBRANCH  24  25
ENDBRANCH  15  22
BRANCH  11  30
HETATM   30  C27 UNL     1       4.336  -0.745  -1.455  1.00  0.00     0.182 C 
HETATM   31  O1  UNL     1       5.597  -0.111  -1.421  1.00  0.00    -0.221 OA
ENDBRANCH  11  30
TORSDOF 5
