REMARK  1 active torsions:
REMARK  status: ('A' for Active; 'I' for Inactive)
REMARK    1  A    between atoms: C17_17  and  C20_20 
ROOT
HETATM    1  C1  UNL     1      -1.437  -0.101  -4.974  1.00  0.00     0.000 C 
HETATM    2  C2  UNL     1      -2.195  -1.435  -4.958  1.00  0.00     0.005 C 
HETATM    3  C3  UNL     1      -1.911  -2.313  -3.716  1.00  0.00     0.050 C 
HETATM    4  C4  UNL     1      -0.559  -1.935  -3.070  1.00  0.00     0.221 C 
HETATM    5  C5  UNL     1      -0.346  -0.442  -2.711  1.00  0.00     0.054 C 
HETATM    6  C6  UNL     1      -1.276   0.463  -3.559  1.00  0.00     0.005 C 
HETATM    7  C7  UNL     1      -0.119   0.001  -1.206  1.00  0.00     0.005 C 
HETATM    8  C8  UNL     1       0.940  -0.878  -0.424  1.00  0.00     0.005 C 
HETATM    9  C9  UNL     1       1.696  -0.218   0.790  1.00  0.00     0.000 C 
HETATM   10  C10 UNL     1       2.294   1.166   0.383  1.00  0.00     0.000 C 
HETATM   11  C11 UNL     1       1.118   2.068  -0.058  1.00  0.00     0.000 C 
HETATM   12  C12 UNL     1       0.304   1.503  -1.233  1.00  0.00     0.000 C 
HETATM   13  C13 UNL     1       2.992   1.763   1.631  1.00  0.00     0.000 C 
HETATM   14  C14 UNL     1       4.115   0.953   2.336  1.00  0.00     0.000 C 
HETATM   15  C15 UNL     1       3.596  -0.476   2.601  1.00  0.00     0.000 C 
HETATM   16  C16 UNL     1       2.848  -1.081   1.390  1.00  0.00     0.000 C 
HETATM   17  C17 UNL     1       4.302   1.864   3.588  1.00  0.00     0.000 C 
HETATM   18  C18 UNL     1       4.242   3.295   2.992  1.00  0.00     0.000 C 
HETATM   19  C19 UNL     1       3.504   3.208   1.639  1.00  0.00     0.000 C 
HETATM   20  C23 UNL     1       5.462   0.865   1.584  1.00  0.00     0.000 C 
HETATM   21  C24 UNL     1       3.277   1.105  -0.809  1.00  0.00     0.000 C 
HETATM   22  C25 UNL     1       0.675  -0.140   1.976  1.00  0.00     0.000 C 
HETATM   23  C26 UNL     1       1.785  -1.765  -1.374  1.00  0.00     0.065 C 
HETATM   24  C27 UNL     1       1.006  -2.982  -1.856  1.00  0.00     0.271 C 
HETATM   25  O1  UNL     1      -0.367  -2.759  -1.966  1.00  0.00    -0.306 OA
HETATM   26  O2  UNL     1       1.271  -3.340  -3.193  1.00  0.00    -0.190 OA
HETATM   27  O3  UNL     1       0.491  -2.337  -3.941  1.00  0.00    -0.195 OA
HETATM   28  C28 UNL     1      -1.495  -0.079  -0.495  1.00  0.00     0.000 C 
HETATM   29  C29 UNL     1      -1.934  -3.800  -4.169  1.00  0.00     0.005 C 
HETATM   30  C30 UNL     1      -3.078  -2.198  -2.705  1.00  0.00     0.005 C 
ENDROOT
BRANCH  17  31
HETATM   31  C20 UNL     1       5.500   1.669   4.546  1.00  0.00     0.000 C 
HETATM   32  C21 UNL     1       5.442   2.686   5.705  1.00  0.00     0.000 C 
HETATM   33  C22 UNL     1       5.569   0.256   5.150  1.00  0.00     0.000 C 
ENDBRANCH  17  31
TORSDOF 1
