REMARK  8 active torsions:
REMARK  status: ('A' for Active; 'I' for Inactive)
REMARK    1  A    between atoms: O1_1  and  C1_2 
REMARK    2  A    between atoms: O1_1  and  C27_30 
REMARK    3  A    between atoms: C29_33  and  O7_38 
REMARK    4  A    between atoms: O7_38  and  C32_39 
REMARK    5  A    between atoms: C33_41  and  C37_48 
REMARK    6  A    between atoms: C37_48  and  O12_49 
REMARK    7  A    between atoms: O12_49  and  C38_50 
REMARK    8  A    between atoms: C40_53  and  C42_57 
ROOT
HETATM    1  C27 UNL     1       7.841  -1.622  -2.422  1.00  0.00     0.270 C 
HETATM    2  O4  UNL     1       6.649  -1.114  -2.987  1.00  0.00    -0.329 OA
HETATM    3  C28 UNL     1       5.469  -1.486  -2.326  1.00  0.00     0.148 C 
HETATM    4  C29 UNL     1       5.490  -1.028  -0.863  1.00  0.00     0.178 C 
HETATM    5  C30 UNL     1       6.687  -1.640  -0.148  1.00  0.00     0.217 C 
HETATM    6  C31 UNL     1       7.951  -1.370  -0.929  1.00  0.00     0.241 C 
HETATM    7  O5  UNL     1       8.963  -2.188  -0.390  1.00  0.00    -0.215 OA
HETATM    8  O6  UNL     1       6.552  -3.032  -0.007  1.00  0.00    -0.218 OA
HETATM    9  C43 UNL     1       5.104  -2.946  -2.604  1.00  0.00     0.035 C 
ENDROOT
BRANCH   1  10
HETATM   10  O1  UNL     1       8.831  -0.817  -3.039  1.00  0.00    -0.331 OA
BRANCH  10  11
HETATM   11  C1  UNL     1       9.544  -1.397  -4.092  1.00  0.00     0.122 C 
HETATM   12  C2  UNL     1      10.155  -0.265  -4.919  1.00  0.00     0.030 C 
HETATM   13  C3  UNL     1      11.026   0.665  -4.054  1.00  0.00     0.006 C 
HETATM   14  C4  UNL     1      12.032  -0.070  -3.125  1.00  0.00     0.015 C 
HETATM   15  C5  UNL     1      12.032  -1.550  -3.504  1.00  0.00    -0.047 C 
HETATM   16  C10 UNL     1      13.454   0.538  -3.318  1.00  0.00     0.004 C 
HETATM   17  C26 UNL     1      11.602   0.072  -1.646  1.00  0.00     0.004 C 
HETATM   18  C6  UNL     1      10.693  -2.268  -3.568  1.00  0.00     0.051 C 
HETATM   19  C7  UNL     1      13.167  -2.232  -3.749  1.00  0.00    -0.035 C 
HETATM   20  C8  UNL     1      14.558  -1.660  -3.632  1.00  0.00     0.025 C 
HETATM   21  C9  UNL     1      14.524  -0.410  -2.744  1.00  0.00     0.005 C 
HETATM   22  C14 UNL     1      15.872   0.297  -2.507  1.00  0.00     0.001 C 
HETATM   23  C13 UNL     1      15.738   1.448  -1.476  1.00  0.00     0.003 C 
HETATM   24  C15 UNL     1      17.022  -0.659  -2.139  1.00  0.00     0.003 C 
HETATM   25  C12 UNL     1      14.319   2.043  -1.439  1.00  0.00     0.000 C 
HETATM   26  C18 UNL     1      16.249   1.119  -0.057  1.00  0.00     0.032 C 
HETATM   27  C11 UNL     1      13.642   1.985  -2.814  1.00  0.00     0.000 C 
HETATM   28  C17 UNL     1      17.665   0.542  -0.025  1.00  0.00     0.118 C 
HETATM   29  C19 UNL     1      15.444   0.083   0.732  1.00  0.00     0.059 C 
HETATM   30  C16 UNL     1      18.147   0.082  -1.403  1.00  0.00     0.030 C 
HETATM   31  O2  UNL     1      17.681  -0.552   0.851  1.00  0.00    -0.337 OA
HETATM   32  C20 UNL     1      16.491  -0.602   1.591  1.00  0.00     0.187 C 
HETATM   33  O3  UNL     1      16.645   0.135   2.778  1.00  0.00    -0.335 OA
HETATM   34  C24 UNL     1      16.106  -2.049   1.873  1.00  0.00     0.056 C 
HETATM   35  C21 UNL     1      17.550  -0.422   3.700  1.00  0.00     0.145 C 
HETATM   36  C22 UNL     1      17.153  -1.840   4.108  1.00  0.00     0.030 C 
HETATM   37  C23 UNL     1      17.080  -2.711   2.850  1.00  0.00     0.007 C 
HETATM   38  C25 UNL     1      18.136  -2.430   5.131  1.00  0.00     0.003 C 
ENDBRANCH  10  11
ENDBRANCH   1  10
BRANCH   4  39
HETATM   39  O7  UNL     1       5.585   0.374  -0.921  1.00  0.00    -0.326 OA
BRANCH  39  40
HETATM   40  C32 UNL     1       5.447   1.092   0.285  1.00  0.00     0.270 C 
HETATM   41  O8  UNL     1       4.077   1.409   0.431  1.00  0.00    -0.326 OA
HETATM   42  C33 UNL     1       3.815   2.224   1.550  1.00  0.00     0.180 C 
HETATM   43  C34 UNL     1       4.627   3.518   1.486  1.00  0.00     0.215 C 
HETATM   44  C35 UNL     1       6.100   3.221   1.325  1.00  0.00     0.220 C 
HETATM   45  O11 UNL     1       4.491   4.269   2.669  1.00  0.00    -0.218 OA
HETATM   46  C36 UNL     1       6.253   2.360   0.098  1.00  0.00     0.241 C 
HETATM   47  O10 UNL     1       6.809   4.421   1.153  1.00  0.00    -0.218 OA
HETATM   48  O9  UNL     1       7.613   2.049  -0.075  1.00  0.00    -0.215 OA
BRANCH  42  49
HETATM   49  C37 UNL     1       2.321   2.547   1.593  1.00  0.00     0.177 C 
BRANCH  49  50
HETATM   50  O12 UNL     1       1.600   1.499   2.199  1.00  0.00    -0.326 OA
BRANCH  50  51
HETATM   51  C38 UNL     1       0.265   1.867   2.486  1.00  0.00     0.270 C 
HETATM   52  O13 UNL     1       0.307   2.779   3.571  1.00  0.00    -0.326 OA
HETATM   53  C39 UNL     1      -0.347   2.203   4.673  1.00  0.00     0.181 C 
HETATM   54  C40 UNL     1      -1.357   1.247   4.082  1.00  0.00     0.217 C 
HETATM   55  C41 UNL     1      -0.537   0.670   2.949  1.00  0.00     0.241 C 
HETATM   56  O15 UNL     1      -2.421   1.984   3.538  1.00  0.00    -0.218 OA
HETATM   57  O14 UNL     1      -1.403   0.161   1.967  1.00  0.00    -0.215 OA
BRANCH  54  58
HETATM   58  C42 UNL     1      -1.931   0.209   5.018  1.00  0.00     0.218 C 
HETATM   59  O16 UNL     1      -2.727  -0.662   4.240  1.00  0.00    -0.218 OA
ENDBRANCH  54  58
ENDBRANCH  50  51
ENDBRANCH  49  50
ENDBRANCH  42  49
ENDBRANCH  39  40
ENDBRANCH   4  39
TORSDOF 8
