REMARK  1 active torsions:
REMARK  status: ('A' for Active; 'I' for Inactive)
REMARK    1  A    between atoms: C13_16  and  C20_23 
ROOT
HETATM    1  C1  UNL     1      -1.987   1.682  -0.367  1.00  0.00    -0.000 A 
HETATM    2  C2  UNL     1      -3.000   0.751  -0.113  1.00  0.00     0.002 A 
HETATM    3  C3  UNL     1      -2.692  -0.605   0.013  1.00  0.00     0.017 A 
HETATM    4  C4  UNL     1      -1.349  -0.976  -0.091  1.00  0.00     0.059 A 
HETATM    5  C5  UNL     1      -0.309  -0.055  -0.281  1.00  0.00     0.003 A 
HETATM    6  C6  UNL     1      -0.649   1.286  -0.467  1.00  0.00    -0.002 A 
HETATM    7  C7  UNL     1       1.059  -0.717  -0.353  1.00  0.00     0.123 A 
HETATM    8  C8  UNL     1       0.613  -2.194  -0.262  1.00  0.00     0.242 A 
HETATM    9  N1  UNL     1      -0.736  -2.226  -0.071  1.00  0.00    -0.297 N 
HETATM   10  C9  UNL     1      -1.492  -3.470   0.088  1.00  0.00     0.133 C 
HETATM   11  O1  UNL     1       1.334  -3.187  -0.346  1.00  0.00    -0.272 OA
HETATM   12  C10 UNL     1       2.103  -0.481   0.759  1.00  0.00     0.232 C 
HETATM   13  N2  UNL     1       3.295  -1.022   0.115  1.00  0.00     0.138 N 
HETATM   14  C11 UNL     1       3.316  -0.310  -1.160  1.00  0.00     0.223 C 
HETATM   15  C12 UNL     1       1.856  -0.468  -1.643  1.00  0.00     0.048 C 
HETATM   16  C13 UNL     1       3.811   1.141  -0.931  1.00  0.00     0.068 C 
HETATM   17  C14 UNL     1       3.711   1.452   0.575  1.00  0.00     0.026 C 
HETATM   18  C15 UNL     1       2.361   0.990   1.144  1.00  0.00     0.038 C 
HETATM   19  C16 UNL     1       4.752   0.569   1.223  1.00  0.00    -0.016 C 
HETATM   20  C17 UNL     1       4.503  -0.881   0.907  1.00  0.00     0.272 C 
HETATM   21  C18 UNL     1       5.780   1.040   1.945  1.00  0.00    -0.032 C 
HETATM   22  C19 UNL     1       6.863   0.203   2.573  1.00  0.00     0.030 C 
ENDROOT
BRANCH  16  23
HETATM   23  C20 UNL     1       3.215   2.248  -1.797  1.00  0.00     0.184 C 
HETATM   24  O2  UNL     1       3.357   1.923  -3.165  1.00  0.00    -0.221 OA
ENDBRANCH  16  23
TORSDOF 1
