REMARK  1 active torsions:
REMARK  status: ('A' for Active; 'I' for Inactive)
REMARK    1  A    between atoms: C8_10  and  O6_22 
ROOT
HETATM    1  C1  UNL     1       6.517  -0.198  -1.091  1.00  0.00     0.145 C 
HETATM    2  O1  UNL     1       6.085  -1.533  -1.030  1.00  0.00    -0.334 OA
HETATM    3  C2  UNL     1       5.164  -1.630   0.023  1.00  0.00     0.196 A 
HETATM    4  C3  UNL     1       4.632  -0.206   0.296  1.00  0.00     0.081 A 
HETATM    5  C4  UNL     1       5.276   0.634  -0.806  1.00  0.00     0.042 C 
HETATM    6  C5  UNL     1       3.152  -0.376   0.138  1.00  0.00     0.028 A 
HETATM    7  C6  UNL     1       2.880  -1.681  -0.239  1.00  0.00     0.097 A 
HETATM    8  O2  UNL     1       4.030  -2.429  -0.342  1.00  0.00    -0.310 OA
HETATM    9  C7  UNL     1       1.568  -2.107  -0.428  1.00  0.00     0.048 A 
HETATM   10  C8  UNL     1       0.516  -1.192  -0.308  1.00  0.00     0.098 A 
HETATM   11  C9  UNL     1       0.817   0.131   0.119  1.00  0.00     0.041 A 
HETATM   12  C10 UNL     1       2.148   0.571   0.332  1.00  0.00     0.103 A 
HETATM   13  O3  UNL     1       2.518   1.829   0.724  1.00  0.00    -0.273 OA
HETATM   14  C11 UNL     1       1.531   2.734   0.958  1.00  0.00     0.303 A 
HETATM   15  C12 UNL     1       0.114   2.376   0.759  1.00  0.00     0.094 A 
HETATM   16  C13 UNL     1      -0.227   1.131   0.354  1.00  0.00    -0.010 A 
HETATM   17  C14 UNL     1      -1.723   1.001   0.204  1.00  0.00     0.035 A 
HETATM   18  C15 UNL     1      -2.268   2.410   0.528  1.00  0.00     0.074 A 
HETATM   19  C16 UNL     1      -1.066   3.248   0.930  1.00  0.00     0.178 A 
HETATM   20  O4  UNL     1      -1.100   4.410   1.304  1.00  0.00    -0.291 OA
HETATM   21  O5  UNL     1       1.816   3.867   1.334  1.00  0.00    -0.259 OA
HETATM   22  C18 UNL     1       5.818  -2.275   1.243  1.00  0.00     0.062 C 
ENDROOT
BRANCH  10  23
HETATM   23  O6  UNL     1      -0.770  -1.651  -0.428  1.00  0.00    -0.328 OA
HETATM   24  C17 UNL     1      -1.166  -1.930  -1.752  1.00  0.00     0.181 C 
ENDBRANCH  10  23
TORSDOF 1
