REMARK  0 active torsions:
REMARK  status: ('A' for Active; 'I' for Inactive)
ROOT
HETATM    1  C1  UNL     1      -2.857   0.009  -2.547  1.00  0.00     0.059 C 
HETATM    2  C2  UNL     1      -2.237  -1.363  -2.355  1.00  0.00     0.219 C 
HETATM    3  C3  UNL     1      -0.718  -1.409  -2.542  1.00  0.00     0.050 C 
HETATM    4  C4  UNL     1      -0.155  -0.295  -1.612  1.00  0.00     0.007 C 
HETATM    5  C5  UNL     1      -1.247   0.175  -0.610  1.00  0.00     0.028 C 
HETATM    6  C6  UNL     1      -2.325   0.927  -1.439  1.00  0.00     0.007 C 
HETATM    7  C7  UNL     1      -0.683   1.146   0.475  1.00  0.00     0.005 C 
HETATM    8  C8  UNL     1       0.739   0.845   1.023  1.00  0.00     0.028 C 
HETATM    9  C9  UNL     1       1.712   0.518  -0.116  1.00  0.00     0.002 C 
HETATM   10  C10 UNL     1       1.187  -0.648  -0.954  1.00  0.00     0.000 C 
HETATM   11  C11 UNL     1       1.224   2.120   1.759  1.00  0.00     0.005 C 
HETATM   12  C12 UNL     1       0.435   1.955   3.072  1.00  0.00     0.028 C 
HETATM   13  C13 UNL     1      -1.026   2.341   2.749  1.00  0.00     0.002 C 
HETATM   14  C14 UNL     1      -1.633   1.427   1.665  1.00  0.00     0.000 C 
HETATM   15  C15 UNL     1       0.521   0.456   3.359  1.00  0.00     0.142 A 
HETATM   16  C16 UNL     1       0.698  -0.205   2.140  1.00  0.00     0.142 A 
HETATM   17  O1  UNL     1       1.919  -0.125   3.076  1.00  0.00    -0.354 OA
HETATM   18  C17 UNL     1       1.008   2.831   4.193  1.00  0.00     0.003 C 
HETATM   19  C18 UNL     1      -1.960  -1.071  -0.061  1.00  0.00     0.145 C 
HETATM   20  O2  UNL     1      -2.583  -1.821  -1.079  1.00  0.00    -0.333 OA
HETATM   21  C19 UNL     1      -0.186  -2.830  -2.228  1.00  0.00     0.005 C 
HETATM   22  C20 UNL     1      -0.315  -1.125  -4.009  1.00  0.00     0.005 C 
HETATM   23  O3  UNL     1      -2.896  -2.306  -3.171  1.00  0.00    -0.196 OA
ENDROOT
TORSDOF 0
