REMARK  5 active torsions:
REMARK  status: ('A' for Active; 'I' for Inactive)
REMARK    1  A    between atoms: C7_7  and  C12_12 
REMARK    2  A    between atoms: C12_12  and  C13_13 
REMARK    3  A    between atoms: C13_13  and  C14_14 
REMARK    4  A    between atoms: C14_14  and  C15_15 
REMARK    5  A    between atoms: C15_15  and  C16_16 
ROOT
HETATM    1  C1  UNL     1       4.137   1.298  -0.045  1.00  0.00     0.033 C 
HETATM    2  C2  UNL     1       3.916   2.533   0.824  1.00  0.00     0.152 C 
HETATM    3  C3  UNL     1       2.642   3.317   0.451  1.00  0.00     0.029 C 
HETATM    4  C4  UNL     1       1.436   2.338   0.316  1.00  0.00     0.006 C 
HETATM    5  C5  UNL     1       1.619   1.024  -0.500  1.00  0.00     0.015 C 
HETATM    6  C6  UNL     1       2.923   0.361  -0.003  1.00  0.00     0.006 C 
HETATM    7  C7  UNL     1       0.397   0.113  -0.275  1.00  0.00    -0.053 C 
HETATM    8  C8  UNL     1      -0.800   0.617   0.098  1.00  0.00    -0.052 C 
HETATM    9  C9  UNL     1      -1.049   2.090   0.330  1.00  0.00     0.021 C 
HETATM   10  C10 UNL     1       0.110   3.004  -0.077  1.00  0.00     0.005 C 
HETATM   11  C11 UNL     1      -2.043  -0.212   0.349  1.00  0.00     0.026 C 
HETATM   12  C18 UNL     1       1.681   1.217  -2.034  1.00  0.00     0.004 C 
HETATM   13  C19 UNL     1       2.912   4.167  -0.811  1.00  0.00     0.003 C 
HETATM   14  C20 UNL     1       2.370   4.348   1.582  1.00  0.00     0.003 C 
HETATM   15  O3  UNL     1       3.864   2.119   2.171  1.00  0.00    -0.224 OA
ENDROOT
BRANCH   7  16
HETATM   16  C12 UNL     1       0.538  -1.368  -0.604  1.00  0.00     0.024 C 
BRANCH  16  17
HETATM   17  C13 UNL     1       0.860  -2.240   0.618  1.00  0.00     0.037 C 
BRANCH  17  18
HETATM   18  C14 UNL     1       0.646  -3.763   0.497  1.00  0.00     0.156 C 
HETATM   19  O2  UNL     1       1.174  -4.287   1.696  1.00  0.00    -0.223 OA
HETATM   20  C17 UNL     1      -0.843  -4.121   0.492  1.00  0.00     0.036 C 
BRANCH  18  21
HETATM   21  C15 UNL     1       1.416  -4.420  -0.659  1.00  0.00     0.196 C 
HETATM   22  O1  UNL     1       1.597  -5.795  -0.381  1.00  0.00    -0.219 OA
BRANCH  21  23
HETATM   23  C16 UNL     1       0.762  -4.376  -2.036  1.00  0.00     0.130 C 
HETATM   24 CL1  UNL     1       1.835  -5.122  -3.252  1.00  0.00    -0.111 Cl
ENDBRANCH  21  23
ENDBRANCH  18  21
ENDBRANCH  17  18
ENDBRANCH  16  17
ENDBRANCH   7  16
TORSDOF 5
