REMARK  4 active torsions:
REMARK  status: ('A' for Active; 'I' for Inactive)
REMARK    1  A    between atoms: C7_8  and  C19_23 
REMARK    2  A    between atoms: C11_13  and  C12_14 
REMARK    3  A    between atoms: C12_14  and  C13_15 
REMARK    4  A    between atoms: C13_15  and  O3_16 
ROOT
HETATM    1  C1  UNL     1      -0.569   2.604   0.023  1.00  0.00     0.272 C 
HETATM    2  C2  UNL     1      -0.701   1.227   0.645  1.00  0.00     0.096 C 
HETATM    3  C3  UNL     1       0.017   0.054  -0.056  1.00  0.00     0.014 C 
HETATM    4  C4  UNL     1       1.456   0.601  -0.215  1.00  0.00     0.053 C 
HETATM    5  C5  UNL     1       1.550   1.930  -0.955  1.00  0.00     0.129 C 
HETATM    6  O1  UNL     1       0.592   2.886  -0.618  1.00  0.00    -0.304 OA
HETATM    7  C6  UNL     1       2.949   2.489  -0.692  1.00  0.00     0.062 C 
HETATM    8  C7  UNL     1       4.048   1.495  -1.098  1.00  0.00     0.114 C 
HETATM    9  O2  UNL     1       3.808   0.231  -0.516  1.00  0.00    -0.360 OA
HETATM   10  C8  UNL     1       2.546  -0.353  -0.730  1.00  0.00     0.095 C 
HETATM   11  C9  UNL     1       2.516  -1.603   0.167  1.00  0.00     0.027 C 
HETATM   12  C10 UNL     1       1.116  -2.222   0.307  1.00  0.00     0.003 C 
HETATM   13  C11 UNL     1       0.068  -1.224   0.855  1.00  0.00     0.010 C 
HETATM   14  C17 UNL     1       2.421  -0.826  -2.188  1.00  0.00     0.030 C 
HETATM   15  C18 UNL     1       5.377   1.992  -0.497  1.00  0.00     0.034 C 
HETATM   16  C21 UNL     1      -0.674  -0.173  -1.416  1.00  0.00     0.001 C 
HETATM   17  O5  UNL     1      -1.434   3.441   0.177  1.00  0.00    -0.264 OA
ENDROOT
BRANCH  13  18
HETATM   18  C12 UNL     1      -1.247  -1.931   1.334  1.00  0.00     0.078 C 
HETATM   19  C15 UNL     1      -2.090  -2.531   0.187  1.00  0.00     0.010 C 
HETATM   20  C16 UNL     1      -0.945  -3.114   2.294  1.00  0.00     0.010 C 
BRANCH  18  21
HETATM   21  C13 UNL     1      -2.144  -0.997   2.160  1.00  0.00     0.271 C 
HETATM   22  O4  UNL     1      -3.299  -0.741   1.898  1.00  0.00    -0.264 OA
BRANCH  21  23
HETATM   23  O3  UNL     1      -1.488  -0.507   3.248  1.00  0.00    -0.299 OA
HETATM   24  C14 UNL     1      -2.217   0.356   4.088  1.00  0.00     0.184 C 
ENDBRANCH  21  23
ENDBRANCH  18  21
ENDBRANCH  13  18
BRANCH   8  25
HETATM   25  C19 UNL     1       4.314   1.380  -2.591  1.00  0.00     0.000 C 
HETATM   26  C20 UNL     1       3.896   2.216  -3.552  1.00  0.00    -0.003 C 
ENDBRANCH   8  25
TORSDOF 4
