REMARK  6 active torsions:
REMARK  status: ('A' for Active; 'I' for Inactive)
REMARK    1  A    between atoms: C1_1  and  C2_2 
REMARK    2  A    between atoms: C1_1  and  C19_22 
REMARK    3  A    between atoms: C6_6  and  C16_19 
REMARK    4  A    between atoms: C10_11  and  C11_12 
REMARK    5  A    between atoms: C19_22  and  C20_23 
REMARK    6  A    between atoms: C20_23  and  O4_24 
ROOT
HETATM    1  C2  UNL     1       2.510   0.295  -0.008  1.00  0.00     0.007 C 
HETATM    2  C3  UNL     1       1.151  -0.482  -0.123  1.00  0.00     0.025 C 
HETATM    3  C4  UNL     1      -0.037   0.121   0.651  1.00  0.00     0.005 C 
HETATM    4  C5  UNL     1      -1.322  -0.531   0.130  1.00  0.00     0.032 C 
HETATM    5  C6  UNL     1      -1.267  -2.058   0.234  1.00  0.00     0.111 C 
HETATM    6  O1  UNL     1      -0.090  -2.537  -0.380  1.00  0.00    -0.360 OA
HETATM    7  C7  UNL     1       1.138  -2.011   0.064  1.00  0.00     0.096 C 
HETATM    8  C8  UNL     1       2.187  -2.573  -0.909  1.00  0.00     0.060 C 
HETATM    9  C9  UNL     1       3.571  -1.949  -0.743  1.00  0.00     0.157 C 
HETATM   10  C10 UNL     1       3.603  -0.416  -0.893  1.00  0.00     0.059 C 
HETATM   11  O3  UNL     1       4.392  -2.557  -1.715  1.00  0.00    -0.223 OA
HETATM   12  C14 UNL     1       1.445  -2.554   1.469  1.00  0.00     0.030 C 
HETATM   13  C15 UNL     1      -2.438  -2.635  -0.585  1.00  0.00     0.034 C 
HETATM   14  C18 UNL     1       2.955   0.352   1.470  1.00  0.00     0.000 C 
ENDROOT
BRANCH   1  15
HETATM   15  C1  UNL     1       2.248   1.734  -0.591  1.00  0.00     0.011 C 
BRANCH  15  16
HETATM   16  C19 UNL     1       2.285   2.928   0.379  1.00  0.00     0.096 C 
BRANCH  16  17
HETATM   17  C20 UNL     1       2.002   4.263  -0.295  1.00  0.00     0.272 C 
HETATM   18  O5  UNL     1       1.550   4.404  -1.409  1.00  0.00    -0.264 OA
BRANCH  17  19
HETATM   19  O4  UNL     1       2.333   5.290   0.536  1.00  0.00    -0.299 OA
HETATM   20  C21 UNL     1       2.137   6.589   0.031  1.00  0.00     0.184 C 
ENDBRANCH  17  19
ENDBRANCH  16  17
ENDBRANCH  15  16
ENDBRANCH   1  15
BRANCH  10  21
HETATM   21  C11 UNL     1       5.059   0.158  -0.861  1.00  0.00     0.129 C 
HETATM   22  C12 UNL     1       5.694   0.173  -2.263  1.00  0.00     0.033 C 
HETATM   23  C13 UNL     1       6.011  -0.553   0.111  1.00  0.00     0.033 C 
HETATM   24  O2  UNL     1       5.073   1.506  -0.461  1.00  0.00    -0.226 OA
ENDBRANCH  10  21
BRANCH   5  25
HETATM   25  C16 UNL     1      -1.456  -2.627   1.632  1.00  0.00     0.000 C 
HETATM   26  C17 UNL     1      -1.880  -1.968   2.720  1.00  0.00    -0.003 C 
ENDBRANCH   5  25
TORSDOF 6
