REMARK  15 active torsions:
REMARK  status: ('A' for Active; 'I' for Inactive)
REMARK    1  A    between atoms: O1_1  and  C1_2 
REMARK    2  A    between atoms: O1_1  and  C29_32 
REMARK    3  A    between atoms: C30_34  and  C61_90 
REMARK    4  A    between atoms: C32_36  and  O15_59 
REMARK    5  A    between atoms: C33_37  and  O5_38 
REMARK    6  A    between atoms: O5_38  and  C34_39 
REMARK    7  A    between atoms: C35_41  and  C44_57 
REMARK    8  A    between atoms: C37_43  and  O8_46 
REMARK    9  A    between atoms: O8_46  and  C39_47 
REMARK   10  A    between atoms: O15_59  and  C45_60 
REMARK   11  A    between atoms: C46_62  and  C60_87 
REMARK   12  A    between atoms: C48_64  and  O18_67 
REMARK   13  A    between atoms: O18_67  and  C50_68 
REMARK   14  A    between atoms: C54_73  and  O20_74 
REMARK   15  A    between atoms: O20_74  and  C55_75 
ROOT
HETATM    1  C29 UNL     1       2.345  -3.238  -2.437  1.00  0.00     0.267 C 
HETATM    2  O4  UNL     1       1.003  -2.991  -2.800  1.00  0.00    -0.326 OA
HETATM    3  C30 UNL     1       0.064  -3.190  -1.780  1.00  0.00     0.184 C 
HETATM    4  C31 UNL     1       0.324  -2.207  -0.651  1.00  0.00     0.211 C 
HETATM    5  C32 UNL     1       1.691  -2.403  -0.018  1.00  0.00     0.183 C 
HETATM    6  C33 UNL     1       2.734  -2.470  -1.131  1.00  0.00     0.209 C 
HETATM    7  O29 UNL     1      -0.634  -2.333   0.372  1.00  0.00    -0.218 OA
ENDROOT
BRANCH   1   8
HETATM    8  O1  UNL     1       2.967  -2.695  -3.629  1.00  0.00    -0.332 OA
BRANCH   8   9
HETATM    9  C1  UNL     1       3.902  -3.444  -4.399  1.00  0.00     0.118 C 
HETATM   10  C2  UNL     1       4.426  -2.639  -5.610  1.00  0.00     0.030 C 
HETATM   11  C3  UNL     1       5.657  -1.722  -5.324  1.00  0.00     0.006 C 
HETATM   12  C4  UNL     1       5.760  -1.231  -3.822  1.00  0.00     0.015 C 
HETATM   13  C5  UNL     1       6.218  -2.800  -2.951  1.00  0.00     0.006 C 
HETATM   14  C10 UNL     1       6.846  -0.063  -3.539  1.00  0.00    -0.049 C 
HETATM   15  C28 UNL     1       4.396  -0.413  -3.856  1.00  0.00     0.004 C 
HETATM   16  C6  UNL     1       5.202  -3.940  -3.718  1.00  0.00     0.030 C 
HETATM   17  C7  UNL     1       7.044  -2.762  -1.038  1.00  0.00     0.005 C 
HETATM   18  C8  UNL     1       7.573  -1.050  -0.658  1.00  0.00     0.025 C 
HETATM   19  C9  UNL     1       7.645  -0.062  -2.186  1.00  0.00    -0.034 C 
HETATM   20  C14 UNL     1       8.960   0.221  -3.021  1.00  0.00    -0.028 C 
HETATM   21  C13 UNL     1       9.587   1.648  -1.978  1.00  0.00     0.022 C 
HETATM   22  C15 UNL     1      10.045  -0.871  -3.858  1.00  0.00    -0.007 C 
HETATM   23  C12 UNL     1       8.567   2.313  -3.356  1.00  0.00     0.009 C 
HETATM   24  C18 UNL     1      11.567   1.046  -1.514  1.00  0.00     0.040 C 
HETATM   25  C27 UNL     1       8.470   2.428  -1.059  1.00  0.00     0.004 C 
HETATM   26  C11 UNL     1       7.024   1.567  -3.756  1.00  0.00     0.022 C 
HETATM   27  C17 UNL     1      12.175  -0.450  -2.147  1.00  0.00     0.140 C 
HETATM   28  C19 UNL     1      12.735   0.904  -0.263  1.00  0.00     0.055 C 
HETATM   29  C16 UNL     1      11.448  -1.298  -3.259  1.00  0.00     0.003 C 
HETATM   30  O2  UNL     1      12.466  -1.292  -1.073  1.00  0.00    -0.333 OA
HETATM   31  C20 UNL     1      13.245  -0.571  -0.164  1.00  0.00     0.187 C 
HETATM   32  O3  UNL     1      14.571  -0.716  -0.644  1.00  0.00    -0.335 OA
HETATM   33  C24 UNL     1      13.084  -1.264   1.196  1.00  0.00     0.056 C 
HETATM   34  C21 UNL     1      15.470  -1.397   0.199  1.00  0.00     0.145 C 
HETATM   35  C22 UNL     1      15.517  -0.773   1.594  1.00  0.00     0.030 C 
HETATM   36  C23 UNL     1      14.115  -0.786   2.223  1.00  0.00     0.007 C 
HETATM   37  C25 UNL     1      16.552  -1.454   2.502  1.00  0.00     0.003 C 
HETATM   38  C26 UNL     1      13.977   1.854  -0.403  1.00  0.00     0.005 C 
ENDBRANCH   8   9
ENDBRANCH   1   8
BRANCH   6  39
HETATM   39  O5  UNL     1       3.917  -2.978  -0.520  1.00  0.00    -0.304 OA
BRANCH  39  40
HETATM   40  C34 UNL     1       5.008  -3.010  -1.395  1.00  0.00     0.219 C 
HETATM   41  O6  UNL     1       5.655  -4.382  -1.255  1.00  0.00    -0.307 OA
HETATM   42  C35 UNL     1       6.976  -4.819  -1.885  1.00  0.00     0.190 C 
HETATM   43  C36 UNL     1       8.194  -3.782  -2.422  1.00  0.00     0.216 C 
HETATM   44  C37 UNL     1       7.925  -2.003  -2.296  1.00  0.00     0.202 C 
HETATM   45  O13 UNL     1       9.431  -4.107  -1.802  1.00  0.00    -0.218 OA
HETATM   46  C38 UNL     1       6.009  -1.576  -1.628  1.00  0.00     0.184 C 
HETATM   47  O7  UNL     1       5.336  -0.305  -1.632  1.00  0.00    -0.188 OA
BRANCH  42  48
HETATM   48  C44 UNL     1       7.539  -5.893  -0.945  1.00  0.00     0.215 C 
HETATM   49  O14 UNL     1       6.574  -6.909  -0.745  1.00  0.00    -0.218 OA
ENDBRANCH  42  48
BRANCH  44  50
HETATM   50  O8  UNL     1       9.435  -1.548  -1.672  1.00  0.00    -0.322 OA
BRANCH  50  51
HETATM   51  C39 UNL     1      10.094  -0.071  -1.515  1.00  0.00     0.275 C 
HETATM   52  O9  UNL     1      10.755   0.919  -2.992  1.00  0.00    -0.322 OA
HETATM   53  C40 UNL     1      11.131   2.531  -2.869  1.00  0.00     0.201 C 
HETATM   54  C41 UNL     1      11.132   3.207  -1.356  1.00  0.00     0.162 C 
HETATM   55  C42 UNL     1      10.691   2.404   0.022  1.00  0.00     0.167 C 
HETATM   56  O12 UNL     1      10.528   4.484  -1.421  1.00  0.00    -0.190 OA
HETATM   57  C43 UNL     1      10.302   0.738   0.042  1.00  0.00     0.257 C 
HETATM   58  O11 UNL     1      11.498   2.845   1.102  1.00  0.00    -0.190 OA
HETATM   59  O10 UNL     1       9.300   0.587   1.042  1.00  0.00    -0.211 OA
ENDBRANCH  50  51
ENDBRANCH  44  50
ENDBRANCH  39  40
ENDBRANCH   6  39
BRANCH   3  60
HETATM   60  C61 UNL     1      -1.305  -2.983  -2.422  1.00  0.00     0.214 C 
HETATM   61  O30 UNL     1      -2.350  -3.314  -1.530  1.00  0.00    -0.218 OA
ENDBRANCH   3  60
BRANCH   5  62
HETATM   62  O15 UNL     1       1.832  -1.346   0.921  1.00  0.00    -0.326 OA
BRANCH  62  63
HETATM   63  C45 UNL     1       3.132  -0.976   1.319  1.00  0.00     0.270 C 
HETATM   64  O16 UNL     1       3.632  -2.007   2.134  1.00  0.00    -0.326 OA
HETATM   65  C46 UNL     1       4.990  -1.821   2.441  1.00  0.00     0.184 C 
HETATM   66  C47 UNL     1       5.240  -0.470   3.100  1.00  0.00     0.211 C 
HETATM   67  C48 UNL     1       4.619   0.679   2.315  1.00  0.00     0.186 C 
HETATM   68  O27 UNL     1       6.628  -0.234   3.183  1.00  0.00    -0.218 OA
HETATM   69  C49 UNL     1       3.149   0.313   2.108  1.00  0.00     0.238 C 
HETATM   70  O17 UNL     1       2.471   1.320   1.400  1.00  0.00    -0.215 OA
BRANCH  65  71
HETATM   71  C60 UNL     1       5.460  -2.984   3.297  1.00  0.00     0.214 C 
HETATM   72  O28 UNL     1       5.343  -4.188   2.563  1.00  0.00    -0.218 OA
ENDBRANCH  65  71
BRANCH  67  73
HETATM   73  O18 UNL     1       4.775   1.851   3.063  1.00  0.00    -0.326 OA
BRANCH  73  74
HETATM   74  C50 UNL     1       4.817   3.037   2.300  1.00  0.00     0.267 C 
HETATM   75  O19 UNL     1       6.177   3.194   1.963  1.00  0.00    -0.326 OA
HETATM   76  C51 UNL     1       6.386   4.334   1.164  1.00  0.00     0.181 C 
HETATM   77  C52 UNL     1       5.944   5.598   1.881  1.00  0.00     0.214 C 
HETATM   78  C53 UNL     1       4.506   5.479   2.345  1.00  0.00     0.217 C 
HETATM   79  O26 UNL     1       6.053   6.703   1.017  1.00  0.00    -0.218 OA
HETATM   80  C54 UNL     1       4.358   4.202   3.151  1.00  0.00     0.207 C 
HETATM   81  O25 UNL     1       4.173   6.574   3.166  1.00  0.00    -0.218 OA
BRANCH  80  82
HETATM   82  O20 UNL     1       3.009   4.068   3.509  1.00  0.00    -0.324 OA
BRANCH  82  83
HETATM   83  C55 UNL     1       2.816   3.406   4.739  1.00  0.00     0.270 C 
HETATM   84  O21 UNL     1       1.843   2.431   4.448  1.00  0.00    -0.326 OA
HETATM   85  C56 UNL     1       1.579   1.626   5.572  1.00  0.00     0.181 C 
HETATM   86  C57 UNL     1       1.076   2.470   6.734  1.00  0.00     0.215 C 
HETATM   87  C58 UNL     1       2.038   3.600   7.050  1.00  0.00     0.220 C 
HETATM   88  O24 UNL     1       0.931   1.662   7.877  1.00  0.00    -0.218 OA
HETATM   89  C59 UNL     1       2.309   4.374   5.777  1.00  0.00     0.241 C 
HETATM   90  O23 UNL     1       1.477   4.456   8.014  1.00  0.00    -0.218 OA
HETATM   91  O22 UNL     1       3.290   5.359   6.001  1.00  0.00    -0.215 OA
ENDBRANCH  82  83
ENDBRANCH  80  82
ENDBRANCH  73  74
ENDBRANCH  67  73
ENDBRANCH  62  63
ENDBRANCH   5  62
TORSDOF 15
