REMARK  6 active torsions:
REMARK  status: ('A' for Active; 'I' for Inactive)
REMARK    1  A    between atoms: C17_17  and  C18_18 
REMARK    2  A    between atoms: C18_18  and  C20_20 
REMARK    3  A    between atoms: C20_20  and  C21_21 
REMARK    4  A    between atoms: C21_21  and  C22_22 
REMARK    5  A    between atoms: C22_22  and  C23_23 
REMARK    6  A    between atoms: C23_23  and  C24_24 
ROOT
HETATM    1  C1  UNL     1      -1.990  -2.794  -4.114  1.00  0.00     0.152 C 
HETATM    2  C2  UNL     1      -1.049  -1.751  -4.703  1.00  0.00     0.033 C 
HETATM    3  C3  UNL     1      -0.670  -0.647  -3.699  1.00  0.00     0.003 C 
HETATM    4  C4  UNL     1      -0.377  -1.127  -2.248  1.00  0.00     0.000 C 
HETATM    5  C5  UNL     1      -0.194  -2.667  -2.284  1.00  0.00     0.003 C 
HETATM    6  C6  UNL     1      -1.428  -3.412  -2.832  1.00  0.00     0.033 C 
HETATM    7  C7  UNL     1       0.243  -3.257  -0.933  1.00  0.00     0.000 C 
HETATM    8  C8  UNL     1       1.539  -2.602  -0.443  1.00  0.00     0.000 C 
HETATM    9  C9  UNL     1       1.392  -1.075  -0.352  1.00  0.00     0.000 C 
HETATM   10  C10 UNL     1       0.942  -0.486  -1.712  1.00  0.00     0.000 C 
HETATM   11  C11 UNL     1       0.941   1.058  -1.668  1.00  0.00     0.000 C 
HETATM   12  C12 UNL     1       2.247   1.670  -1.123  1.00  0.00     0.000 C 
HETATM   13  C13 UNL     1       2.626   1.123   0.271  1.00  0.00     0.003 C 
HETATM   14  C14 UNL     1       2.710  -0.412   0.074  1.00  0.00     0.003 C 
HETATM   15  C15 UNL     1       3.386  -0.925   1.347  1.00  0.00     0.033 C 
HETATM   16  C16 UNL     1       4.307   0.227   1.767  1.00  0.00     0.152 C 
HETATM   17  C17 UNL     1       4.076   1.397   0.780  1.00  0.00     0.033 C 
HETATM   18  O3  UNL     1       4.002   0.580   3.099  1.00  0.00    -0.224 OA
HETATM   19  C26 UNL     1       1.587   1.552   1.330  1.00  0.00     0.000 C 
HETATM   20  C27 UNL     1      -1.569  -0.736  -1.339  1.00  0.00     0.000 C 
HETATM   21  O4  UNL     1      -3.245  -2.202  -3.872  1.00  0.00    -0.224 OA
ENDROOT
BRANCH  17  22
HETATM   22  C18 UNL     1       4.549   2.801   1.262  1.00  0.00     0.033 C 
HETATM   23  C19 UNL     1       4.013   3.934   0.364  1.00  0.00     0.003 C 
BRANCH  22  24
HETATM   24  C20 UNL     1       6.098   2.890   1.331  1.00  0.00     0.152 C 
HETATM   25  O2  UNL     1       6.534   4.232   1.263  1.00  0.00    -0.224 OA
BRANCH  24  26
HETATM   26  C21 UNL     1       6.758   2.283   2.577  1.00  0.00     0.033 C 
BRANCH  26  27
HETATM   27  C22 UNL     1       7.893   1.300   2.240  1.00  0.00     0.005 C 
BRANCH  27  28
HETATM   28  C23 UNL     1       8.526   0.603   3.463  1.00  0.00     0.033 C 
HETATM   29  C25 UNL     1       9.960   0.153   3.117  1.00  0.00     0.003 C 
BRANCH  28  30
HETATM   30  C24 UNL     1       7.747  -0.623   3.954  1.00  0.00     0.182 C 
HETATM   31  O1  UNL     1       6.435  -0.295   4.361  1.00  0.00    -0.221 OA
ENDBRANCH  28  30
ENDBRANCH  27  28
ENDBRANCH  26  27
ENDBRANCH  24  26
ENDBRANCH  22  24
ENDBRANCH  17  22
TORSDOF 6
